MODEL 1
REMARK VINA RESULT:     -13.6      0.000      0.000
REMARK SMILES COc1cc(-c2ccc(F)c(C(F)(F)F)c2)ccc1C(=O)NCCCNC(=O)c1ccc(-c2c3nc(c(-c4c(F)c(F)c(F)c(F)c4F)c4ccc([nH]4)c(-c4c(F)c(F)c(F)c(F)c4F)c4nc(c(-c5c(F)c(F)c(F)c(F)c5F)c5ccc2[nH]5)C=C4)C=C3)cc1
REMARK SMILES IDX 24 1 23 2 22 3 20 4 21 5 19 7 3 8 4 9 5 10 18 11 17 12 2 13
REMARK SMILES IDX 1 14 6 15 7 16 16 17 8 18 11 19 9 20 10 21 12 22 13 23 14 24
REMARK SMILES IDX 15 25 25 26 26 27 27 28 28 30 29 31 30 32 91 33 31 34 90 35
REMARK SMILES IDX 32 36 33 37 34 38 84 39 35 40 89 41 83 42 85 43 36 44 88 45
REMARK SMILES IDX 82 46 81 47 37 49 69 50 49 51 68 52 50 53 53 54 67 55 86 56
REMARK SMILES IDX 51 57 52 58 66 60 87 61 54 62 38 63 39 64 47 65 40 66 41 67
REMARK SMILES IDX 45 68 48 69 42 70 43 71 46 72 44 73 70 74 71 75 79 76 72 77
REMARK SMILES IDX 73 78 77 79 80 80 74 81 75 82 78 83 76 84 55 85 56 86 64 87
REMARK SMILES IDX 57 88 58 89 62 90 65 91 59 92 60 93 63 94 61 95
REMARK H PARENT 22 6 26 29 85 48 53 59
REMARK Flexibility Score: inf
ROOT
ATOM      1  C   UNL A   1      32.047  28.379  26.217  1.00  0.00     0.042 C 
ENDROOT
BRANCH   1   2
ATOM      2  C   UNL A   1      31.931  27.250  25.209  1.00  0.00     0.118 C 
BRANCH   2   3
ATOM      3  N   UNL A   1      30.609  27.104  24.626  1.00  0.00    -0.352 N 
ATOM      4  C   UNL A   1      29.919  25.962  24.303  1.00  0.00     0.255 C 
ATOM      5  O   UNL A   1      28.778  26.069  23.855  1.00  0.00    -0.269 OA
ATOM      6  H   UNL A   1      30.139  27.947  24.434  1.00  0.00     0.163 HD
BRANCH   4   7
ATOM      7  C   UNL A   1      30.538  24.618  24.397  1.00  0.00     0.081 A 
ATOM      8  C   UNL A   1      30.560  23.815  25.540  1.00  0.00     0.132 A 
ATOM      9  C   UNL A   1      31.363  22.671  25.566  1.00  0.00     0.056 A 
ATOM     10  C   UNL A   1      32.084  22.248  24.437  1.00  0.00    -0.015 A 
ATOM     11  C   UNL A   1      31.176  24.160  23.235  1.00  0.00     0.018 A 
ATOM     12  C   UNL A   1      31.933  22.985  23.254  1.00  0.00     0.010 A 
BRANCH   8  13
ATOM     13  O   UNL A   1      29.941  24.109  26.723  1.00  0.00    -0.496 OA
ATOM     14  C   UNL A   1      29.262  22.985  27.282  1.00  0.00     0.278 C 
ENDBRANCH   8  13
BRANCH  10  15
ATOM     15  C   UNL A   1      33.024  21.117  24.536  1.00  0.00    -0.017 A 
ATOM     16  C   UNL A   1      34.316  21.283  25.064  1.00  0.00     0.012 A 
ATOM     17  C   UNL A   1      32.681  19.853  24.017  1.00  0.00     0.025 A 
ATOM     18  C   UNL A   1      35.239  20.236  25.044  1.00  0.00     0.040 A 
ATOM     19  C   UNL A   1      33.602  18.793  23.995  1.00  0.00     0.092 A 
ATOM     20  C   UNL A   1      34.877  19.008  24.504  1.00  0.00     0.135 A 
ATOM     21  F   UNL A   1      35.788  18.027  24.468  1.00  0.00    -0.206 F 
BRANCH  19  22
ATOM     22  C   UNL A   1      33.261  17.460  23.404  1.00  0.00     0.419 C 
ATOM     23  F   UNL A   1      33.052  16.501  24.347  1.00  0.00    -0.166 F 
ATOM     24  F   UNL A   1      32.142  17.488  22.629  1.00  0.00    -0.166 F 
ATOM     25  F   UNL A   1      34.247  16.968  22.598  1.00  0.00    -0.166 F 
ENDBRANCH  19  22
ENDBRANCH  10  15
ENDBRANCH   4   7
ENDBRANCH   2   3
ENDBRANCH   1   2
BRANCH   1  26
ATOM     26  C   UNL A   1      32.937  29.530  25.770  1.00  0.00     0.118 C 
BRANCH  26  27
ATOM     27  N   UNL A   1      32.592  30.822  26.355  1.00  0.00    -0.352 N 
ATOM     28  C   UNL A   1      33.272  31.649  27.223  1.00  0.00     0.251 C 
ATOM     29  H   UNL A   1      31.712  31.166  26.079  1.00  0.00     0.163 HD
ATOM     30  O   UNL A   1      32.732  32.659  27.653  1.00  0.00    -0.269 OA
BRANCH  28  31
ATOM     31  C   UNL A   1      34.633  31.293  27.684  1.00  0.00     0.039 A 
ATOM     32  C   UNL A   1      35.592  32.302  27.819  1.00  0.00     0.014 A 
ATOM     33  C   UNL A   1      34.957  29.984  28.022  1.00  0.00     0.014 A 
ATOM     34  C   UNL A   1      36.821  32.016  28.421  1.00  0.00     0.010 A 
ATOM     35  C   UNL A   1      36.118  29.729  28.739  1.00  0.00     0.010 A 
ATOM     36  C   UNL A   1      37.061  30.744  28.960  1.00  0.00    -0.014 A 
BRANCH  36  37
ATOM     37  C   UNL A   1      38.271  30.426  29.766  1.00  0.00     0.031 A 
ATOM     38  C   UNL A   1      39.294  29.465  29.221  1.00  0.00     0.074 A 
ATOM     39  C   UNL A   1      38.385  30.885  31.028  1.00  0.00     0.049 A 
ATOM     40  N   UNL A   1      40.278  28.860  29.837  1.00  0.00    -0.248 NA
ATOM     41  C   UNL A   1      39.157  29.093  27.803  1.00  0.00     0.031 C 
ATOM     42  C   UNL A   1      37.443  31.783  31.698  1.00  0.00     0.029 A 
ATOM     43  N   UNL A   1      39.339  30.637  31.987  1.00  0.00    -0.354 N 
ATOM     44  C   UNL A   1      40.836  28.001  28.900  1.00  0.00     0.074 A 
ATOM     45  C   UNL A   1      40.055  28.127  27.689  1.00  0.00     0.031 C 
ATOM     46  C   UNL A   1      37.878  32.033  32.944  1.00  0.00     0.029 A 
ATOM     47  C   UNL A   1      39.096  31.268  33.183  1.00  0.00     0.049 A 
ATOM     48  H   UNL A   1      40.121  30.060  31.831  1.00  0.00     0.167 HD
ATOM     49  C   UNL A   1      41.918  27.198  29.027  1.00  0.00     0.037 A 
ATOM     50  C   UNL A   1      39.771  31.220  34.348  1.00  0.00     0.037 A 
ATOM     51  C   UNL A   1      42.737  27.130  30.208  1.00  0.00     0.049 A 
ATOM     52  C   UNL A   1      40.995  30.351  34.453  1.00  0.00     0.074 A 
ATOM     53  C   UNL A   1      43.893  26.400  30.417  1.00  0.00     0.029 A 
ATOM     54  N   UNL A   1      42.493  27.840  31.374  1.00  0.00    -0.354 N 
ATOM     55  N   UNL A   1      41.531  29.567  33.549  1.00  0.00    -0.248 NA
ATOM     56  C   UNL A   1      41.706  30.358  35.739  1.00  0.00     0.031 C 
ATOM     57  C   UNL A   1      44.338  26.651  31.718  1.00  0.00     0.029 A 
ATOM     58  C   UNL A   1      43.479  27.566  32.306  1.00  0.00     0.049 A 
ATOM     59  H   UNL A   1      41.733  28.449  31.518  1.00  0.00     0.167 HD
ATOM     60  C   UNL A   1      42.659  29.019  34.142  1.00  0.00     0.074 A 
ATOM     61  C   UNL A   1      42.733  29.559  35.484  1.00  0.00     0.031 C 
ATOM     62  C   UNL A   1      43.553  28.145  33.623  1.00  0.00     0.037 A 
BRANCH  49  63
ATOM     63  C   UNL A   1      42.292  26.343  27.852  1.00  0.00     0.064 A 
ATOM     64  C   UNL A   1      41.730  25.071  27.661  1.00  0.00     0.173 A 
ATOM     65  C   UNL A   1      43.202  26.809  26.891  1.00  0.00     0.173 A 
ATOM     66  F   UNL A   1      40.866  24.574  28.558  1.00  0.00    -0.203 F 
ATOM     67  C   UNL A   1      42.092  24.285  26.572  1.00  0.00     0.198 A 
ATOM     68  C   UNL A   1      43.536  26.032  25.785  1.00  0.00     0.198 A 
ATOM     69  F   UNL A   1      43.764  28.020  27.022  1.00  0.00    -0.203 F 
ATOM     70  F   UNL A   1      41.585  23.050  26.441  1.00  0.00    -0.200 F 
ATOM     71  C   UNL A   1      42.988  24.767  25.630  1.00  0.00     0.200 A 
ATOM     72  F   UNL A   1      44.393  26.505  24.869  1.00  0.00    -0.200 F 
ATOM     73  F   UNL A   1      43.331  24.010  24.580  1.00  0.00    -0.200 F 
ENDBRANCH  49  63
BRANCH  50  74
ATOM     74  C   UNL A   1      39.326  32.044  35.502  1.00  0.00     0.064 A 
ATOM     75  C   UNL A   1      39.749  33.374  35.632  1.00  0.00     0.173 A 
ATOM     76  C   UNL A   1      38.481  31.528  36.495  1.00  0.00     0.173 A 
ATOM     77  F   UNL A   1      40.575  33.906  34.718  1.00  0.00    -0.203 F 
ATOM     78  C   UNL A   1      39.362  34.150  36.723  1.00  0.00     0.198 A 
ATOM     79  C   UNL A   1      38.074  32.314  37.572  1.00  0.00     0.198 A 
ATOM     80  F   UNL A   1      38.043  30.263  36.414  1.00  0.00    -0.203 F 
ATOM     81  F   UNL A   1      39.819  35.405  36.844  1.00  0.00    -0.200 F 
ATOM     82  C   UNL A   1      38.521  33.621  37.689  1.00  0.00     0.200 A 
ATOM     83  F   UNL A   1      37.250  31.803  38.497  1.00  0.00    -0.200 F 
ATOM     84  F   UNL A   1      38.148  34.369  38.737  1.00  0.00    -0.200 F 
ENDBRANCH  50  74
BRANCH  62  85
ATOM     85  C   UNL A   1      44.726  27.765  34.474  1.00  0.00     0.064 A 
ATOM     86  C   UNL A   1      45.906  28.520  34.481  1.00  0.00     0.173 A 
ATOM     87  C   UNL A   1      44.635  26.671  35.350  1.00  0.00     0.173 A 
ATOM     88  F   UNL A   1      46.044  29.565  33.651  1.00  0.00    -0.203 F 
ATOM     89  C   UNL A   1      46.959  28.189  35.328  1.00  0.00     0.198 A 
ATOM     90  C   UNL A   1      45.680  26.358  36.212  1.00  0.00     0.198 A 
ATOM     91  F   UNL A   1      43.522  25.923  35.382  1.00  0.00    -0.203 F 
ATOM     92  F   UNL A   1      48.091  28.906  35.301  1.00  0.00    -0.200 F 
ATOM     93  C   UNL A   1      46.842  27.115  36.200  1.00  0.00     0.200 A 
ATOM     94  F   UNL A   1      45.561  25.328  37.060  1.00  0.00    -0.200 F 
ATOM     95  F   UNL A   1      47.852  26.807  37.026  1.00  0.00    -0.200 F 
ENDBRANCH  62  85
ENDBRANCH  36  37
ENDBRANCH  28  31
ENDBRANCH  26  27
ENDBRANCH   1  26
TORSDOF 13
ENDMDL
MODEL 2
REMARK VINA RESULT:     -13.6      2.067      7.778
REMARK SMILES COc1cc(-c2ccc(F)c(C(F)(F)F)c2)ccc1C(=O)NCCCNC(=O)c1ccc(-c2c3nc(c(-c4c(F)c(F)c(F)c(F)c4F)c4ccc([nH]4)c(-c4c(F)c(F)c(F)c(F)c4F)c4nc(c(-c5c(F)c(F)c(F)c(F)c5F)c5ccc2[nH]5)C=C4)C=C3)cc1
REMARK SMILES IDX 24 1 23 2 22 3 20 4 21 5 19 7 3 8 4 9 5 10 18 11 17 12 2 13
REMARK SMILES IDX 1 14 6 15 7 16 16 17 8 18 11 19 9 20 10 21 12 22 13 23 14 24
REMARK SMILES IDX 15 25 25 26 26 27 27 28 28 30 29 31 30 32 91 33 31 34 90 35
REMARK SMILES IDX 32 36 33 37 34 38 84 39 35 40 89 41 83 42 85 43 36 44 88 45
REMARK SMILES IDX 82 46 81 47 37 49 69 50 49 51 68 52 50 53 53 54 67 55 86 56
REMARK SMILES IDX 51 57 52 58 66 60 87 61 54 62 38 63 39 64 47 65 40 66 41 67
REMARK SMILES IDX 45 68 48 69 42 70 43 71 46 72 44 73 70 74 71 75 79 76 72 77
REMARK SMILES IDX 73 78 77 79 80 80 74 81 75 82 78 83 76 84 55 85 56 86 64 87
REMARK SMILES IDX 57 88 58 89 62 90 65 91 59 92 60 93 63 94 61 95
REMARK H PARENT 22 6 26 29 85 48 53 59
REMARK Flexibility Score: inf
ROOT
ATOM      1  C   UNL A   1      31.509  32.096  26.758  1.00  0.00     0.042 C 
ENDROOT
BRANCH   1   2
ATOM      2  C   UNL A   1      31.812  30.697  26.251  1.00  0.00     0.118 C 
BRANCH   2   3
ATOM      3  N   UNL A   1      31.077  30.325  25.055  1.00  0.00    -0.352 N 
ATOM      4  C   UNL A   1      31.041  29.123  24.392  1.00  0.00     0.255 C 
ATOM      5  O   UNL A   1      30.307  29.012  23.411  1.00  0.00    -0.269 OA
ATOM      6  H   UNL A   1      30.524  31.038  24.662  1.00  0.00     0.163 HD
BRANCH   4   7
ATOM      7  C   UNL A   1      31.921  27.992  24.770  1.00  0.00     0.081 A 
ATOM      8  C   UNL A   1      33.234  27.805  24.331  1.00  0.00     0.132 A 
ATOM      9  C   UNL A   1      33.881  26.592  24.579  1.00  0.00     0.056 A 
ATOM     10  C   UNL A   1      33.281  25.576  25.342  1.00  0.00    -0.015 A 
ATOM     11  C   UNL A   1      31.345  27.027  25.610  1.00  0.00     0.018 A 
ATOM     12  C   UNL A   1      32.020  25.838  25.898  1.00  0.00     0.010 A 
BRANCH   8  13
ATOM     13  O   UNL A   1      33.939  28.682  23.553  1.00  0.00    -0.496 OA
ATOM     14  C   UNL A   1      33.982  28.289  22.183  1.00  0.00     0.278 C 
ENDBRANCH   8  13
BRANCH  10  15
ATOM     15  C   UNL A   1      33.931  24.260  25.472  1.00  0.00    -0.017 A 
ATOM     16  C   UNL A   1      35.322  24.145  25.639  1.00  0.00     0.012 A 
ATOM     17  C   UNL A   1      33.183  23.075  25.338  1.00  0.00     0.025 A 
ATOM     18  C   UNL A   1      35.944  22.895  25.641  1.00  0.00     0.040 A 
ATOM     19  C   UNL A   1      33.799  21.813  25.343  1.00  0.00     0.092 A 
ATOM     20  C   UNL A   1      35.179  21.745  25.485  1.00  0.00     0.135 A 
ATOM     21  F   UNL A   1      35.799  20.558  25.460  1.00  0.00    -0.206 F 
BRANCH  19  22
ATOM     22  C   UNL A   1      33.016  20.549  25.156  1.00  0.00     0.419 C 
ATOM     23  F   UNL A   1      31.676  20.767  25.055  1.00  0.00    -0.166 F 
ATOM     24  F   UNL A   1      33.378  19.854  24.043  1.00  0.00    -0.166 F 
ATOM     25  F   UNL A   1      33.165  19.674  26.194  1.00  0.00    -0.166 F 
ENDBRANCH  19  22
ENDBRANCH  10  15
ENDBRANCH   4   7
ENDBRANCH   2   3
ENDBRANCH   1   2
BRANCH   1  26
ATOM     26  C   UNL A   1      32.731  32.868  27.237  1.00  0.00     0.118 C 
BRANCH  26  27
ATOM     27  N   UNL A   1      32.452  34.235  27.666  1.00  0.00    -0.352 N 
ATOM     28  C   UNL A   1      33.003  35.018  28.657  1.00  0.00     0.251 C 
ATOM     29  H   UNL A   1      31.740  34.679  27.153  1.00  0.00     0.163 HD
ATOM     30  O   UNL A   1      32.534  36.123  28.893  1.00  0.00    -0.269 OA
BRANCH  28  31
ATOM     31  C   UNL A   1      34.124  34.507  29.478  1.00  0.00     0.039 A 
ATOM     32  C   UNL A   1      33.845  33.885  30.699  1.00  0.00     0.014 A 
ATOM     33  C   UNL A   1      35.439  34.600  29.035  1.00  0.00     0.014 A 
ATOM     34  C   UNL A   1      34.869  33.239  31.399  1.00  0.00     0.010 A 
ATOM     35  C   UNL A   1      36.426  33.848  29.657  1.00  0.00     0.010 A 
ATOM     36  C   UNL A   1      36.152  33.146  30.841  1.00  0.00    -0.014 A 
BRANCH  36  37
ATOM     37  C   UNL A   1      37.236  32.327  31.448  1.00  0.00     0.031 A 
ATOM     38  C   UNL A   1      37.745  32.669  32.823  1.00  0.00     0.074 A 
ATOM     39  C   UNL A   1      37.852  31.372  30.722  1.00  0.00     0.049 A 
ATOM     40  N   UNL A   1      38.828  32.261  33.435  1.00  0.00    -0.248 NA
ATOM     41  C   UNL A   1      36.955  33.645  33.592  1.00  0.00     0.031 C 
ATOM     42  C   UNL A   1      37.493  30.971  29.361  1.00  0.00     0.029 A 
ATOM     43  N   UNL A   1      38.933  30.578  31.022  1.00  0.00    -0.354 N 
ATOM     44  C   UNL A   1      38.875  32.970  34.627  1.00  0.00     0.074 A 
ATOM     45  C   UNL A   1      37.741  33.867  34.634  1.00  0.00     0.031 C 
ATOM     46  C   UNL A   1      38.317  29.991  28.955  1.00  0.00     0.029 A 
ATOM     47  C   UNL A   1      39.299  29.733  30.002  1.00  0.00     0.049 A 
ATOM     48  H   UNL A   1      39.402  30.613  31.887  1.00  0.00     0.167 HD
ATOM     49  C   UNL A   1      39.769  32.866  35.638  1.00  0.00     0.037 A 
ATOM     50  C   UNL A   1      40.323  28.863  29.914  1.00  0.00     0.037 A 
ATOM     51  C   UNL A   1      40.854  31.921  35.661  1.00  0.00     0.049 A 
ATOM     52  C   UNL A   1      41.280  28.735  31.067  1.00  0.00     0.074 A 
ATOM     53  C   UNL A   1      41.776  31.688  36.665  1.00  0.00     0.029 A 
ATOM     54  N   UNL A   1      41.145  31.036  34.634  1.00  0.00    -0.354 N 
ATOM     55  N   UNL A   1      41.296  29.389  32.204  1.00  0.00    -0.248 NA
ATOM     56  C   UNL A   1      42.362  27.752  30.927  1.00  0.00     0.031 C 
ATOM     57  C   UNL A   1      42.641  30.676  36.238  1.00  0.00     0.029 A 
ATOM     58  C   UNL A   1      42.233  30.254  34.982  1.00  0.00     0.049 A 
ATOM     59  H   UNL A   1      40.653  30.973  33.784  1.00  0.00     0.167 HD
ATOM     60  C   UNL A   1      42.361  28.872  32.926  1.00  0.00     0.074 A 
ATOM     61  C   UNL A   1      42.970  27.848  32.102  1.00  0.00     0.031 C 
ATOM     62  C   UNL A   1      42.798  29.215  34.161  1.00  0.00     0.037 A 
BRANCH  49  63
ATOM     63  C   UNL A   1      39.600  33.783  36.814  1.00  0.00     0.064 A 
ATOM     64  C   UNL A   1      40.168  35.066  36.832  1.00  0.00     0.173 A 
ATOM     65  C   UNL A   1      38.839  33.387  37.924  1.00  0.00     0.173 A 
ATOM     66  F   UNL A   1      40.915  35.487  35.801  1.00  0.00    -0.203 F 
ATOM     67  C   UNL A   1      40.011  35.904  37.932  1.00  0.00     0.198 A 
ATOM     68  C   UNL A   1      38.657  34.240  39.009  1.00  0.00     0.198 A 
ATOM     69  F   UNL A   1      38.269  32.173  37.956  1.00  0.00    -0.203 F 
ATOM     70  F   UNL A   1      40.610  37.103  37.950  1.00  0.00    -0.200 F 
ATOM     71  C   UNL A   1      39.250  35.494  39.017  1.00  0.00     0.200 A 
ATOM     72  F   UNL A   1      37.910  33.848  40.051  1.00  0.00    -0.200 F 
ATOM     73  F   UNL A   1      39.095  36.305  40.072  1.00  0.00    -0.200 F 
ENDBRANCH  49  63
BRANCH  50  74
ATOM     74  C   UNL A   1      40.480  28.017  28.702  1.00  0.00     0.064 A 
ATOM     75  C   UNL A   1      41.266  28.454  27.627  1.00  0.00     0.173 A 
ATOM     76  C   UNL A   1      39.851  26.769  28.586  1.00  0.00     0.173 A 
ATOM     77  F   UNL A   1      41.871  29.650  27.682  1.00  0.00    -0.203 F 
ATOM     78  C   UNL A   1      41.400  27.684  26.473  1.00  0.00     0.198 A 
ATOM     79  C   UNL A   1      40.008  25.988  27.442  1.00  0.00     0.198 A 
ATOM     80  F   UNL A   1      39.092  26.303  29.590  1.00  0.00    -0.203 F 
ATOM     81  F   UNL A   1      42.122  28.147  25.443  1.00  0.00    -0.200 F 
ATOM     82  C   UNL A   1      40.776  26.450  26.384  1.00  0.00     0.200 A 
ATOM     83  F   UNL A   1      39.413  24.790  27.364  1.00  0.00    -0.200 F 
ATOM     84  F   UNL A   1      40.906  25.709  25.274  1.00  0.00    -0.200 F 
ENDBRANCH  50  74
BRANCH  62  85
ATOM     85  C   UNL A   1      43.947  28.438  34.730  1.00  0.00     0.064 A 
ATOM     86  C   UNL A   1      45.269  28.881  34.602  1.00  0.00     0.173 A 
ATOM     87  C   UNL A   1      43.707  27.275  35.479  1.00  0.00     0.173 A 
ATOM     88  F   UNL A   1      45.548  29.979  33.884  1.00  0.00    -0.203 F 
ATOM     89  C   UNL A   1      46.316  28.180  35.195  1.00  0.00     0.198 A 
ATOM     90  C   UNL A   1      44.752  26.591  36.090  1.00  0.00     0.198 A 
ATOM     91  F   UNL A   1      42.456  26.818  35.633  1.00  0.00    -0.203 F 
ATOM     92  F   UNL A   1      47.577  28.603  35.038  1.00  0.00    -0.200 F 
ATOM     93  C   UNL A   1      46.056  27.042  35.946  1.00  0.00     0.200 A 
ATOM     94  F   UNL A   1      44.498  25.499  36.824  1.00  0.00    -0.200 F 
ATOM     95  F   UNL A   1      47.063  26.378  36.529  1.00  0.00    -0.200 F 
ENDBRANCH  62  85
ENDBRANCH  36  37
ENDBRANCH  28  31
ENDBRANCH  26  27
ENDBRANCH   1  26
TORSDOF 13
ENDMDL
MODEL 3
REMARK VINA RESULT:     -13.6      2.089      7.859
REMARK SMILES COc1cc(-c2ccc(F)c(C(F)(F)F)c2)ccc1C(=O)NCCCNC(=O)c1ccc(-c2c3nc(c(-c4c(F)c(F)c(F)c(F)c4F)c4ccc([nH]4)c(-c4c(F)c(F)c(F)c(F)c4F)c4nc(c(-c5c(F)c(F)c(F)c(F)c5F)c5ccc2[nH]5)C=C4)C=C3)cc1
REMARK SMILES IDX 24 1 23 2 22 3 20 4 21 5 19 7 3 8 4 9 5 10 18 11 17 12 2 13
REMARK SMILES IDX 1 14 6 15 7 16 16 17 8 18 11 19 9 20 10 21 12 22 13 23 14 24
REMARK SMILES IDX 15 25 25 26 26 27 27 28 28 30 29 31 30 32 91 33 31 34 90 35
REMARK SMILES IDX 32 36 33 37 34 38 84 39 35 40 89 41 83 42 85 43 36 44 88 45
REMARK SMILES IDX 82 46 81 47 37 49 69 50 49 51 68 52 50 53 53 54 67 55 86 56
REMARK SMILES IDX 51 57 52 58 66 60 87 61 54 62 38 63 39 64 47 65 40 66 41 67
REMARK SMILES IDX 45 68 48 69 42 70 43 71 46 72 44 73 70 74 71 75 79 76 72 77
REMARK SMILES IDX 73 78 77 79 80 80 74 81 75 82 78 83 76 84 55 85 56 86 64 87
REMARK SMILES IDX 57 88 58 89 62 90 65 91 59 92 60 93 63 94 61 95
REMARK H PARENT 22 6 26 29 85 48 53 59
REMARK Flexibility Score: inf
ROOT
ATOM      1  C   UNL A   1      31.481  32.199  26.657  1.00  0.00     0.042 C 
ENDROOT
BRANCH   1   2
ATOM      2  C   UNL A   1      31.755  30.777  26.201  1.00  0.00     0.118 C 
BRANCH   2   3
ATOM      3  N   UNL A   1      31.034  30.386  25.002  1.00  0.00    -0.352 N 
ATOM      4  C   UNL A   1      31.016  29.179  24.350  1.00  0.00     0.255 C 
ATOM      5  O   UNL A   1      30.290  29.051  23.365  1.00  0.00    -0.269 OA
ATOM      6  H   UNL A   1      30.477  31.091  24.599  1.00  0.00     0.163 HD
BRANCH   4   7
ATOM      7  C   UNL A   1      31.904  28.060  24.745  1.00  0.00     0.081 A 
ATOM      8  C   UNL A   1      33.223  27.883  24.317  1.00  0.00     0.132 A 
ATOM      9  C   UNL A   1      33.880  26.678  24.581  1.00  0.00     0.056 A 
ATOM     10  C   UNL A   1      33.285  25.664  25.350  1.00  0.00    -0.015 A 
ATOM     11  C   UNL A   1      31.332  27.098  25.590  1.00  0.00     0.018 A 
ATOM     12  C   UNL A   1      32.018  25.919  25.895  1.00  0.00     0.010 A 
BRANCH   8  13
ATOM     13  O   UNL A   1      33.923  28.759  23.536  1.00  0.00    -0.496 OA
ATOM     14  C   UNL A   1      33.988  28.349  22.171  1.00  0.00     0.278 C 
ENDBRANCH   8  13
BRANCH  10  15
ATOM     15  C   UNL A   1      33.948  24.356  25.497  1.00  0.00    -0.017 A 
ATOM     16  C   UNL A   1      35.339  24.257  25.671  1.00  0.00     0.012 A 
ATOM     17  C   UNL A   1      33.211  23.162  25.374  1.00  0.00     0.025 A 
ATOM     18  C   UNL A   1      35.972  23.013  25.690  1.00  0.00     0.040 A 
ATOM     19  C   UNL A   1      33.840  21.906  25.394  1.00  0.00     0.092 A 
ATOM     20  C   UNL A   1      35.220  21.854  25.543  1.00  0.00     0.135 A 
ATOM     21  F   UNL A   1      35.852  20.673  25.534  1.00  0.00    -0.206 F 
BRANCH  19  22
ATOM     22  C   UNL A   1      33.070  20.633  25.219  1.00  0.00     0.419 C 
ATOM     23  F   UNL A   1      33.171  19.802  26.292  1.00  0.00    -0.166 F 
ATOM     24  F   UNL A   1      31.740  20.835  25.012  1.00  0.00    -0.166 F 
ATOM     25  F   UNL A   1      33.496  19.898  24.150  1.00  0.00    -0.166 F 
ENDBRANCH  19  22
ENDBRANCH  10  15
ENDBRANCH   4   7
ENDBRANCH   2   3
ENDBRANCH   1   2
BRANCH   1  26
ATOM     26  C   UNL A   1      32.678  32.898  27.286  1.00  0.00     0.118 C 
BRANCH  26  27
ATOM     27  N   UNL A   1      32.425  34.274  27.701  1.00  0.00    -0.352 N 
ATOM     28  C   UNL A   1      33.001  35.062  28.674  1.00  0.00     0.251 C 
ATOM     29  H   UNL A   1      31.711  34.722  27.193  1.00  0.00     0.163 HD
ATOM     30  O   UNL A   1      32.551  36.176  28.903  1.00  0.00    -0.269 OA
BRANCH  28  31
ATOM     31  C   UNL A   1      34.127  34.546  29.485  1.00  0.00     0.039 A 
ATOM     32  C   UNL A   1      33.860  33.962  30.728  1.00  0.00     0.014 A 
ATOM     33  C   UNL A   1      35.434  34.596  29.013  1.00  0.00     0.014 A 
ATOM     34  C   UNL A   1      34.883  33.310  31.422  1.00  0.00     0.010 A 
ATOM     35  C   UNL A   1      36.416  33.836  29.633  1.00  0.00     0.010 A 
ATOM     36  C   UNL A   1      36.151  33.172  30.841  1.00  0.00    -0.014 A 
BRANCH  36  37
ATOM     37  C   UNL A   1      37.229  32.343  31.446  1.00  0.00     0.031 A 
ATOM     38  C   UNL A   1      37.744  32.681  32.820  1.00  0.00     0.074 A 
ATOM     39  C   UNL A   1      37.834  31.381  30.720  1.00  0.00     0.049 A 
ATOM     40  N   UNL A   1      38.825  32.264  33.430  1.00  0.00    -0.248 NA
ATOM     41  C   UNL A   1      36.966  33.667  33.589  1.00  0.00     0.031 C 
ATOM     42  C   UNL A   1      37.468  30.983  29.360  1.00  0.00     0.029 A 
ATOM     43  N   UNL A   1      38.908  30.578  31.019  1.00  0.00    -0.354 N 
ATOM     44  C   UNL A   1      38.881  32.974  34.621  1.00  0.00     0.074 A 
ATOM     45  C   UNL A   1      37.755  33.882  34.629  1.00  0.00     0.031 C 
ATOM     46  C   UNL A   1      38.281  29.994  28.954  1.00  0.00     0.029 A 
ATOM     47  C   UNL A   1      39.263  29.728  29.999  1.00  0.00     0.049 A 
ATOM     48  H   UNL A   1      39.379  30.609  31.883  1.00  0.00     0.167 HD
ATOM     49  C   UNL A   1      39.776  32.862  35.630  1.00  0.00     0.037 A 
ATOM     50  C   UNL A   1      40.278  28.847  29.910  1.00  0.00     0.037 A 
ATOM     51  C   UNL A   1      40.852  31.907  35.652  1.00  0.00     0.049 A 
ATOM     52  C   UNL A   1      41.237  28.712  31.061  1.00  0.00     0.074 A 
ATOM     53  C   UNL A   1      41.774  31.666  36.655  1.00  0.00     0.029 A 
ATOM     54  N   UNL A   1      41.132  31.018  34.625  1.00  0.00    -0.354 N 
ATOM     55  N   UNL A   1      41.262  29.367  32.197  1.00  0.00    -0.248 NA
ATOM     56  C   UNL A   1      42.309  27.718  30.920  1.00  0.00     0.031 C 
ATOM     57  C   UNL A   1      42.627  30.646  36.226  1.00  0.00     0.029 A 
ATOM     58  C   UNL A   1      42.213  30.226  34.972  1.00  0.00     0.049 A 
ATOM     59  H   UNL A   1      40.638  30.959  33.776  1.00  0.00     0.167 HD
ATOM     60  C   UNL A   1      42.323  28.840  32.917  1.00  0.00     0.074 A 
ATOM     61  C   UNL A   1      42.920  27.810  32.093  1.00  0.00     0.031 C 
ATOM     62  C   UNL A   1      42.766  29.180  34.151  1.00  0.00     0.037 A 
BRANCH  49  63
ATOM     63  C   UNL A   1      39.618  33.783  36.805  1.00  0.00     0.064 A 
ATOM     64  C   UNL A   1      38.862  33.418  37.929  1.00  0.00     0.173 A 
ATOM     65  C   UNL A   1      40.253  35.035  36.820  1.00  0.00     0.173 A 
ATOM     66  F   UNL A   1      38.225  32.237  37.958  1.00  0.00    -0.203 F 
ATOM     67  C   UNL A   1      38.717  34.285  39.008  1.00  0.00     0.198 A 
ATOM     68  C   UNL A   1      40.132  35.885  37.915  1.00  0.00     0.198 A 
ATOM     69  F   UNL A   1      40.993  35.431  35.774  1.00  0.00    -0.203 F 
ATOM     70  F   UNL A   1      37.943  33.936  40.045  1.00  0.00    -0.200 F 
ATOM     71  C   UNL A   1      39.357  35.514  39.005  1.00  0.00     0.200 A 
ATOM     72  F   UNL A   1      40.762  37.069  37.916  1.00  0.00    -0.200 F 
ATOM     73  F   UNL A   1      39.221  36.345  40.047  1.00  0.00    -0.200 F 
ENDBRANCH  49  63
BRANCH  50  74
ATOM     74  C   UNL A   1      40.424  27.999  28.699  1.00  0.00     0.064 A 
ATOM     75  C   UNL A   1      39.797  26.747  28.627  1.00  0.00     0.173 A 
ATOM     76  C   UNL A   1      41.191  28.408  27.598  1.00  0.00     0.173 A 
ATOM     77  F   UNL A   1      39.070  26.302  29.663  1.00  0.00    -0.203 F 
ATOM     78  C   UNL A   1      39.947  25.928  27.509  1.00  0.00     0.198 A 
ATOM     79  C   UNL A   1      41.319  27.600  26.470  1.00  0.00     0.198 A 
ATOM     80  F   UNL A   1      41.807  29.600  27.615  1.00  0.00    -0.203 F 
ATOM     81  F   UNL A   1      39.372  24.718  27.487  1.00  0.00    -0.200 F 
ATOM     82  C   UNL A   1      40.704  26.357  26.430  1.00  0.00     0.200 A 
ATOM     83  F   UNL A   1      42.040  28.023  25.424  1.00  0.00    -0.200 F 
ATOM     84  F   UNL A   1      40.847  25.570  25.355  1.00  0.00    -0.200 F 
ENDBRANCH  50  74
BRANCH  62  85
ATOM     85  C   UNL A   1      43.908  28.393  34.719  1.00  0.00     0.064 A 
ATOM     86  C   UNL A   1      43.700  27.203  35.428  1.00  0.00     0.173 A 
ATOM     87  C   UNL A   1      45.230  28.801  34.482  1.00  0.00     0.173 A 
ATOM     88  F   UNL A   1      42.454  26.782  35.691  1.00  0.00    -0.203 F 
ATOM     89  C   UNL A   1      44.777  26.452  35.891  1.00  0.00     0.198 A 
ATOM     90  C   UNL A   1      46.303  28.035  34.924  1.00  0.00     0.198 A 
ATOM     91  F   UNL A   1      45.477  29.930  33.802  1.00  0.00    -0.203 F 
ATOM     92  F   UNL A   1      44.558  25.331  36.591  1.00  0.00    -0.200 F 
ATOM     93  C   UNL A   1      46.077  26.863  35.630  1.00  0.00     0.200 A 
ATOM     94  F   UNL A   1      47.558  28.427  34.662  1.00  0.00    -0.200 F 
ATOM     95  F   UNL A   1      47.112  26.130  36.062  1.00  0.00    -0.200 F 
ENDBRANCH  62  85
ENDBRANCH  36  37
ENDBRANCH  28  31
ENDBRANCH  26  27
ENDBRANCH   1  26
TORSDOF 13
ENDMDL
