MODEL 1
REMARK VINA RESULT:     -11.0      0.000      0.000
REMARK SMILES C[C@H](C1CCCC1)[N@@H+](CC(=O)NCCCNC(=O)c1ccc(-c2c3nc(c(-c4c(F)c(F)c(F)c(F)c4F)c4ccc([nH]4)c(-c4c(F)c(F)c(F)c(F)c4F)c4nc(c(-c5c(F)c(F)c(F)c(F)c5F)c5ccc2[nH]5)C=C4)C=C3)cc1)CC(F)(F)F
REMARK SMILES IDX 13 1 12 2 10 3 11 4 9 6 8 7 2 9 1 10 3 11 4 12 7 13 5 14
REMARK SMILES IDX 6 15 82 16 83 17 84 18 85 19 86 20 14 21 15 22 16 23 17 24
REMARK SMILES IDX 18 26 19 27 20 28 81 29 21 30 80 31 22 32 23 33 24 34 74 35
REMARK SMILES IDX 25 36 79 37 73 38 75 39 26 40 78 41 72 42 71 43 27 45 59 46
REMARK SMILES IDX 39 47 58 48 40 49 43 50 57 51 76 52 41 53 42 54 56 56 77 57
REMARK SMILES IDX 44 58 28 59 29 60 37 61 30 62 31 63 35 64 38 65 32 66 33 67
REMARK SMILES IDX 36 68 34 69 60 70 61 71 69 72 62 73 63 74 67 75 70 76 64 77
REMARK SMILES IDX 65 78 68 79 66 80 45 81 46 82 54 83 47 84 48 85 52 86 55 87
REMARK SMILES IDX 49 88 50 89 53 90 51 91
REMARK H PARENT 12 5 8 8 16 25 75 44 43 55
REMARK Flexibility Score: inf
ROOT
ATOM      1  C   UNL A   1      31.364  30.759  26.337  1.00  0.00     0.118 C 
ENDROOT
BRANCH   1   2
ATOM      2  N   UNL A   1      31.407  30.305  24.955  1.00  0.00    -0.351 N 
ATOM      3  C   UNL A   1      31.467  29.058  24.400  1.00  0.00     0.275 C 
ATOM      4  O   UNL A   1      31.286  28.968  23.184  1.00  0.00    -0.269 OA
ATOM      5  H   UNL A   1      31.389  31.035  24.294  1.00  0.00     0.163 HD
BRANCH   3   6
ATOM      6  C   UNL A   1      31.748  27.816  25.242  1.00  0.00     0.364 C 
BRANCH   6   7
ATOM      7  N   UNL A   1      33.178  27.602  25.561  1.00  0.00    -0.317 N 
ATOM      8  H   UNL A   1      33.706  28.306  25.046  1.00  0.00     0.349 HD
BRANCH   7   9
ATOM      9  C   UNL A   1      33.796  26.451  24.908  1.00  0.00     0.184 C 
ATOM     10  C   UNL A   1      33.105  25.955  23.634  1.00  0.00     0.075 C 
BRANCH   9  11
ATOM     11  C   UNL A   1      34.176  25.258  25.817  1.00  0.00     0.047 C 
ATOM     12  C   UNL A   1      33.050  24.275  26.139  1.00  0.00     0.010 C 
ATOM     13  C   UNL A   1      35.303  24.336  25.361  1.00  0.00     0.010 C 
ATOM     14  C   UNL A   1      33.783  23.170  26.888  1.00  0.00     0.001 C 
ATOM     15  C   UNL A   1      35.171  23.100  26.252  1.00  0.00     0.001 C 
ENDBRANCH   9  11
ENDBRANCH   7   9
BRANCH   7  16
ATOM     16  C   UNL A   1      33.616  28.070  26.891  1.00  0.00     0.379 C 
BRANCH  16  17
ATOM     17  C   UNL A   1      34.544  29.278  27.153  1.00  0.00     0.438 C 
ATOM     18  F   UNL A   1      35.819  28.883  27.377  1.00  0.00    -0.165 F 
ATOM     19  F   UNL A   1      34.580  30.077  26.056  1.00  0.00    -0.165 F 
ATOM     20  F   UNL A   1      34.164  30.037  28.196  1.00  0.00    -0.165 F 
ENDBRANCH  16  17
ENDBRANCH   7  16
ENDBRANCH   6   7
ENDBRANCH   3   6
ENDBRANCH   1   2
BRANCH   1  21
ATOM     21  C   UNL A   1      31.381  32.279  26.538  1.00  0.00     0.042 C 
BRANCH  21  22
ATOM     22  C   UNL A   1      32.577  32.848  27.306  1.00  0.00     0.118 C 
BRANCH  22  23
ATOM     23  N   UNL A   1      32.394  34.246  27.647  1.00  0.00    -0.352 N 
ATOM     24  C   UNL A   1      32.985  34.999  28.634  1.00  0.00     0.251 C 
ATOM     25  H   UNL A   1      31.746  34.730  27.086  1.00  0.00     0.163 HD
ATOM     26  O   UNL A   1      32.531  36.111  28.890  1.00  0.00    -0.269 OA
BRANCH  24  27
ATOM     27  C   UNL A   1      34.157  34.507  29.400  1.00  0.00     0.039 A 
ATOM     28  C   UNL A   1      35.422  34.588  28.802  1.00  0.00     0.014 A 
ATOM     29  C   UNL A   1      34.019  33.858  30.631  1.00  0.00     0.014 A 
ATOM     30  C   UNL A   1      36.543  34.039  29.437  1.00  0.00     0.010 A 
ATOM     31  C   UNL A   1      35.146  33.343  31.284  1.00  0.00     0.010 A 
ATOM     32  C   UNL A   1      36.415  33.409  30.684  1.00  0.00    -0.014 A 
BRANCH  32  33
ATOM     33  C   UNL A   1      37.582  32.763  31.344  1.00  0.00     0.031 A 
ATOM     34  C   UNL A   1      38.266  31.595  30.686  1.00  0.00     0.074 A 
ATOM     35  C   UNL A   1      38.005  33.183  32.549  1.00  0.00     0.049 A 
ATOM     36  N   UNL A   1      39.228  30.831  31.142  1.00  0.00    -0.248 NA
ATOM     37  C   UNL A   1      37.793  31.229  29.343  1.00  0.00     0.031 C 
ATOM     38  C   UNL A   1      37.429  34.295  33.304  1.00  0.00     0.029 A 
ATOM     39  N   UNL A   1      39.004  32.707  33.363  1.00  0.00    -0.354 N 
ATOM     40  C   UNL A   1      39.456  29.880  30.156  1.00  0.00     0.074 A 
ATOM     41  C   UNL A   1      38.518  30.149  29.086  1.00  0.00     0.031 C 
ATOM     42  C   UNL A   1      38.074  34.407  34.477  1.00  0.00     0.029 A 
ATOM     43  C   UNL A   1      39.087  33.357  34.570  1.00  0.00     0.049 A 
ATOM     44  H   UNL A   1      39.603  31.970  33.105  1.00  0.00     0.167 HD
ATOM     45  C   UNL A   1      40.372  28.881  30.137  1.00  0.00     0.037 A 
ATOM     46  C   UNL A   1      39.872  33.120  35.640  1.00  0.00     0.037 A 
ATOM     47  C   UNL A   1      41.329  28.628  31.180  1.00  0.00     0.049 A 
ATOM     48  C   UNL A   1      40.877  32.002  35.601  1.00  0.00     0.074 A 
ATOM     49  C   UNL A   1      42.338  27.679  31.215  1.00  0.00     0.029 A 
ATOM     50  N   UNL A   1      41.395  29.324  32.377  1.00  0.00    -0.354 N 
ATOM     51  N   UNL A   1      41.118  31.142  34.643  1.00  0.00    -0.248 NA
ATOM     52  C   UNL A   1      41.723  31.824  36.791  1.00  0.00     0.031 C 
ATOM     53  C   UNL A   1      42.990  27.777  32.450  1.00  0.00     0.029 A 
ATOM     54  C   UNL A   1      42.412  28.811  33.167  1.00  0.00     0.049 A 
ATOM     55  H   UNL A   1      40.806  30.072  32.629  1.00  0.00     0.167 HD
ATOM     56  C   UNL A   1      42.150  30.335  35.102  1.00  0.00     0.074 A 
ATOM     57  C   UNL A   1      42.498  30.812  36.425  1.00  0.00     0.031 C 
ATOM     58  C   UNL A   1      42.755  29.295  34.479  1.00  0.00     0.037 A 
BRANCH  45  59
ATOM     59  C   UNL A   1      40.373  27.970  28.945  1.00  0.00     0.064 A 
ATOM     60  C   UNL A   1      41.116  28.265  27.792  1.00  0.00     0.173 A 
ATOM     61  C   UNL A   1      39.643  26.772  28.968  1.00  0.00     0.173 A 
ATOM     62  F   UNL A   1      41.824  29.403  27.719  1.00  0.00    -0.203 F 
ATOM     63  C   UNL A   1      41.103  27.410  26.694  1.00  0.00     0.198 A 
ATOM     64  C   UNL A   1      39.652  25.907  27.877  1.00  0.00     0.198 A 
ATOM     65  F   UNL A   1      38.923  26.439  30.049  1.00  0.00    -0.203 F 
ATOM     66  F   UNL A   1      41.783  27.734  25.586  1.00  0.00    -0.200 F 
ATOM     67  C   UNL A   1      40.376  26.230  26.739  1.00  0.00     0.200 A 
ATOM     68  F   UNL A   1      38.959  24.761  27.927  1.00  0.00    -0.200 F 
ATOM     69  F   UNL A   1      40.365  25.406  25.681  1.00  0.00    -0.200 F 
ENDBRANCH  45  59
BRANCH  46  70
ATOM     70  C   UNL A   1      39.725  33.969  36.848  1.00  0.00     0.064 A 
ATOM     71  C   UNL A   1      40.388  35.199  36.952  1.00  0.00     0.173 A 
ATOM     72  C   UNL A   1      38.899  33.578  37.912  1.00  0.00     0.173 A 
ATOM     73  F   UNL A   1      41.206  35.602  35.968  1.00  0.00    -0.203 F 
ATOM     74  C   UNL A   1      40.232  36.006  38.076  1.00  0.00     0.198 A 
ATOM     75  C   UNL A   1      38.727  34.395  39.026  1.00  0.00     0.198 A 
ATOM     76  F   UNL A   1      38.243  32.408  37.858  1.00  0.00    -0.203 F 
ATOM     77  F   UNL A   1      40.896  37.167  38.163  1.00  0.00    -0.200 F 
ATOM     78  C   UNL A   1      39.395  35.607  39.109  1.00  0.00     0.200 A 
ATOM     79  F   UNL A   1      37.909  34.011  40.016  1.00  0.00    -0.200 F 
ATOM     80  F   UNL A   1      39.236  36.390  40.184  1.00  0.00    -0.200 F 
ENDBRANCH  46  70
BRANCH  58  81
ATOM     81  C   UNL A   1      43.876  28.609  35.203  1.00  0.00     0.064 A 
ATOM     82  C   UNL A   1      45.200  29.055  35.091  1.00  0.00     0.173 A 
ATOM     83  C   UNL A   1      43.612  27.538  36.070  1.00  0.00     0.173 A 
ATOM     84  F   UNL A   1      45.503  30.066  34.263  1.00  0.00    -0.203 F 
ATOM     85  C   UNL A   1      46.222  28.448  35.816  1.00  0.00     0.198 A 
ATOM     86  C   UNL A   1      44.633  26.946  36.808  1.00  0.00     0.198 A 
ATOM     87  F   UNL A   1      42.360  27.078  36.214  1.00  0.00    -0.203 F 
ATOM     88  F   UNL A   1      47.485  28.873  35.675  1.00  0.00    -0.200 F 
ATOM     89  C   UNL A   1      45.937  27.399  36.679  1.00  0.00     0.200 A 
ATOM     90  F   UNL A   1      44.355  25.941  37.650  1.00  0.00    -0.200 F 
ATOM     91  F   UNL A   1      46.920  26.826  37.386  1.00  0.00    -0.200 F 
ENDBRANCH  58  81
ENDBRANCH  32  33
ENDBRANCH  24  27
ENDBRANCH  22  23
ENDBRANCH  21  22
ENDBRANCH   1  21
TORSDOF 15
ENDMDL
MODEL 2
REMARK VINA RESULT:     -11.0      1.368      2.066
REMARK SMILES C[C@H](C1CCCC1)[N@@H+](CC(=O)NCCCNC(=O)c1ccc(-c2c3nc(c(-c4c(F)c(F)c(F)c(F)c4F)c4ccc([nH]4)c(-c4c(F)c(F)c(F)c(F)c4F)c4nc(c(-c5c(F)c(F)c(F)c(F)c5F)c5ccc2[nH]5)C=C4)C=C3)cc1)CC(F)(F)F
REMARK SMILES IDX 13 1 12 2 10 3 11 4 9 6 8 7 2 9 1 10 3 11 4 12 7 13 5 14
REMARK SMILES IDX 6 15 82 16 83 17 84 18 85 19 86 20 14 21 15 22 16 23 17 24
REMARK SMILES IDX 18 26 19 27 20 28 81 29 21 30 80 31 22 32 23 33 24 34 74 35
REMARK SMILES IDX 25 36 79 37 73 38 75 39 26 40 78 41 72 42 71 43 27 45 59 46
REMARK SMILES IDX 39 47 58 48 40 49 43 50 57 51 76 52 41 53 42 54 56 56 77 57
REMARK SMILES IDX 44 58 28 59 29 60 37 61 30 62 31 63 35 64 38 65 32 66 33 67
REMARK SMILES IDX 36 68 34 69 60 70 61 71 69 72 62 73 63 74 67 75 70 76 64 77
REMARK SMILES IDX 65 78 68 79 66 80 45 81 46 82 54 83 47 84 48 85 52 86 55 87
REMARK SMILES IDX 49 88 50 89 53 90 51 91
REMARK H PARENT 12 5 8 8 16 25 75 44 43 55
REMARK Flexibility Score: inf
ROOT
ATOM      1  C   UNL A   1      31.459  30.572  25.961  1.00  0.00     0.118 C 
ENDROOT
BRANCH   1   2
ATOM      2  N   UNL A   1      31.023  30.418  24.581  1.00  0.00    -0.351 N 
ATOM      3  C   UNL A   1      30.528  29.349  23.888  1.00  0.00     0.275 C 
ATOM      4  O   UNL A   1      30.051  29.568  22.773  1.00  0.00    -0.269 OA
ATOM      5  H   UNL A   1      31.100  31.240  24.044  1.00  0.00     0.163 HD
BRANCH   3   6
ATOM      6  C   UNL A   1      30.561  27.935  24.461  1.00  0.00     0.364 C 
BRANCH   6   7
ATOM      7  N   UNL A   1      31.826  27.204  24.218  1.00  0.00    -0.317 N 
ATOM      8  H   UNL A   1      31.618  26.211  24.313  1.00  0.00     0.349 HD
BRANCH   7   9
ATOM      9  C   UNL A   1      32.794  27.255  25.311  1.00  0.00     0.184 C 
ATOM     10  C   UNL A   1      34.040  28.111  25.061  1.00  0.00     0.075 C 
BRANCH   9  11
ATOM     11  C   UNL A   1      33.186  25.905  25.955  1.00  0.00     0.047 C 
ATOM     12  C   UNL A   1      32.107  24.822  25.952  1.00  0.00     0.010 C 
ATOM     13  C   UNL A   1      34.400  25.167  25.398  1.00  0.00     0.010 C 
ATOM     14  C   UNL A   1      32.857  23.610  26.491  1.00  0.00     0.001 C 
ATOM     15  C   UNL A   1      34.287  23.754  25.973  1.00  0.00     0.001 C 
ENDBRANCH   9  11
ENDBRANCH   7   9
BRANCH   7  16
ATOM     16  C   UNL A   1      32.250  27.107  22.808  1.00  0.00     0.379 C 
BRANCH  16  17
ATOM     17  C   UNL A   1      32.687  25.807  22.094  1.00  0.00     0.438 C 
ATOM     18  F   UNL A   1      32.457  25.873  20.761  1.00  0.00    -0.165 F 
ATOM     19  F   UNL A   1      34.024  25.628  22.240  1.00  0.00    -0.165 F 
ATOM     20  F   UNL A   1      32.076  24.703  22.558  1.00  0.00    -0.165 F 
ENDBRANCH  16  17
ENDBRANCH   7  16
ENDBRANCH   6   7
ENDBRANCH   3   6
ENDBRANCH   1   2
BRANCH   1  21
ATOM     21  C   UNL A   1      31.302  31.977  26.556  1.00  0.00     0.042 C 
BRANCH  21  22
ATOM     22  C   UNL A   1      32.542  32.569  27.230  1.00  0.00     0.118 C 
BRANCH  22  23
ATOM     23  N   UNL A   1      32.376  33.976  27.542  1.00  0.00    -0.352 N 
ATOM     24  C   UNL A   1      32.970  34.739  28.518  1.00  0.00     0.251 C 
ATOM     25  H   UNL A   1      31.739  34.457  26.968  1.00  0.00     0.163 HD
ATOM     26  O   UNL A   1      32.530  35.862  28.750  1.00  0.00    -0.269 OA
BRANCH  24  27
ATOM     27  C   UNL A   1      34.131  34.246  29.302  1.00  0.00     0.039 A 
ATOM     28  C   UNL A   1      35.418  34.490  28.807  1.00  0.00     0.014 A 
ATOM     29  C   UNL A   1      33.972  33.447  30.439  1.00  0.00     0.014 A 
ATOM     30  C   UNL A   1      36.540  33.952  29.450  1.00  0.00     0.010 A 
ATOM     31  C   UNL A   1      35.095  32.941  31.105  1.00  0.00     0.010 A 
ATOM     32  C   UNL A   1      36.389  33.171  30.605  1.00  0.00    -0.014 A 
BRANCH  32  33
ATOM     33  C   UNL A   1      37.562  32.537  31.265  1.00  0.00     0.031 A 
ATOM     34  C   UNL A   1      38.263  31.381  30.605  1.00  0.00     0.074 A 
ATOM     35  C   UNL A   1      37.977  32.959  32.473  1.00  0.00     0.049 A 
ATOM     36  N   UNL A   1      39.234  30.628  31.060  1.00  0.00    -0.248 NA
ATOM     37  C   UNL A   1      37.799  31.015  29.259  1.00  0.00     0.031 C 
ATOM     38  C   UNL A   1      37.385  34.059  33.231  1.00  0.00     0.029 A 
ATOM     39  N   UNL A   1      38.981  32.492  33.287  1.00  0.00    -0.354 N 
ATOM     40  C   UNL A   1      39.478  29.684  30.070  1.00  0.00     0.074 A 
ATOM     41  C   UNL A   1      38.539  29.945  28.999  1.00  0.00     0.031 C 
ATOM     42  C   UNL A   1      38.026  34.176  34.406  1.00  0.00     0.029 A 
ATOM     43  C   UNL A   1      39.052  33.138  34.497  1.00  0.00     0.049 A 
ATOM     44  H   UNL A   1      39.590  31.764  33.028  1.00  0.00     0.167 HD
ATOM     45  C   UNL A   1      40.407  28.697  30.050  1.00  0.00     0.037 A 
ATOM     46  C   UNL A   1      39.837  32.908  35.568  1.00  0.00     0.037 A 
ATOM     47  C   UNL A   1      41.364  28.452  31.095  1.00  0.00     0.049 A 
ATOM     48  C   UNL A   1      40.857  31.803  35.527  1.00  0.00     0.074 A 
ATOM     49  C   UNL A   1      42.385  27.517  31.128  1.00  0.00     0.029 A 
ATOM     50  N   UNL A   1      41.418  29.145  32.295  1.00  0.00    -0.354 N 
ATOM     51  N   UNL A   1      41.111  30.950  34.567  1.00  0.00    -0.248 NA
ATOM     52  C   UNL A   1      41.702  31.632  36.719  1.00  0.00     0.031 C 
ATOM     53  C   UNL A   1      43.033  27.619  32.365  1.00  0.00     0.029 A 
ATOM     54  C   UNL A   1      42.440  28.642  33.085  1.00  0.00     0.049 A 
ATOM     55  H   UNL A   1      40.819  29.884  32.548  1.00  0.00     0.167 HD
ATOM     56  C   UNL A   1      42.153  30.155  35.025  1.00  0.00     0.074 A 
ATOM     57  C   UNL A   1      42.491  30.631  36.350  1.00  0.00     0.031 C 
ATOM     58  C   UNL A   1      42.773  29.125  34.400  1.00  0.00     0.037 A 
BRANCH  45  59
ATOM     59  C   UNL A   1      40.422  27.791  28.855  1.00  0.00     0.064 A 
ATOM     60  C   UNL A   1      41.208  28.072  27.727  1.00  0.00     0.173 A 
ATOM     61  C   UNL A   1      39.663  26.611  28.849  1.00  0.00     0.173 A 
ATOM     62  F   UNL A   1      41.946  29.192  27.681  1.00  0.00    -0.203 F 
ATOM     63  C   UNL A   1      41.208  27.222  26.625  1.00  0.00     0.198 A 
ATOM     64  C   UNL A   1      39.685  25.750  27.756  1.00  0.00     0.198 A 
ATOM     65  F   UNL A   1      38.902  26.292  29.906  1.00  0.00    -0.203 F 
ATOM     66  F   UNL A   1      41.930  27.533  25.540  1.00  0.00    -0.200 F 
ATOM     67  C   UNL A   1      40.451  26.060  26.642  1.00  0.00     0.200 A 
ATOM     68  F   UNL A   1      38.963  24.622  27.779  1.00  0.00    -0.200 F 
ATOM     69  F   UNL A   1      40.454  25.240  25.581  1.00  0.00    -0.200 F 
ENDBRANCH  45  59
BRANCH  46  70
ATOM     70  C   UNL A   1      39.676  33.750  36.779  1.00  0.00     0.064 A 
ATOM     71  C   UNL A   1      40.346  34.974  36.902  1.00  0.00     0.173 A 
ATOM     72  C   UNL A   1      38.829  33.358  37.826  1.00  0.00     0.173 A 
ATOM     73  F   UNL A   1      41.185  35.378  35.935  1.00  0.00    -0.203 F 
ATOM     74  C   UNL A   1      40.177  35.775  38.029  1.00  0.00     0.198 A 
ATOM     75  C   UNL A   1      38.645  34.169  38.943  1.00  0.00     0.198 A 
ATOM     76  F   UNL A   1      38.166  32.194  37.753  1.00  0.00    -0.203 F 
ATOM     77  F   UNL A   1      40.849  36.930  38.135  1.00  0.00    -0.200 F 
ATOM     78  C   UNL A   1      39.320  35.376  39.045  1.00  0.00     0.200 A 
ATOM     79  F   UNL A   1      37.807  33.786  39.916  1.00  0.00    -0.200 F 
ATOM     80  F   UNL A   1      39.149  36.153  40.122  1.00  0.00    -0.200 F 
ENDBRANCH  46  70
BRANCH  58  81
ATOM     81  C   UNL A   1      43.902  28.451  35.123  1.00  0.00     0.064 A 
ATOM     82  C   UNL A   1      43.687  27.320  35.922  1.00  0.00     0.173 A 
ATOM     83  C   UNL A   1      45.220  28.901  34.958  1.00  0.00     0.173 A 
ATOM     84  F   UNL A   1      42.441  26.862  36.121  1.00  0.00    -0.203 F 
ATOM     85  C   UNL A   1      44.751  26.667  36.539  1.00  0.00     0.198 A 
ATOM     86  C   UNL A   1      46.284  28.234  35.560  1.00  0.00     0.198 A 
ATOM     87  F   UNL A   1      45.477  29.977  34.200  1.00  0.00    -0.203 F 
ATOM     88  F   UNL A   1      44.521  25.603  37.319  1.00  0.00    -0.200 F 
ATOM     89  C   UNL A   1      46.049  27.120  36.351  1.00  0.00     0.200 A 
ATOM     90  F   UNL A   1      47.539  28.667  35.369  1.00  0.00    -0.200 F 
ATOM     91  F   UNL A   1      47.073  26.483  36.934  1.00  0.00    -0.200 F 
ENDBRANCH  58  81
ENDBRANCH  32  33
ENDBRANCH  24  27
ENDBRANCH  22  23
ENDBRANCH  21  22
ENDBRANCH   1  21
TORSDOF 15
ENDMDL
MODEL 3
REMARK VINA RESULT:     -11.0      1.676      2.971
REMARK SMILES C[C@H](C1CCCC1)[N@@H+](CC(=O)NCCCNC(=O)c1ccc(-c2c3nc(c(-c4c(F)c(F)c(F)c(F)c4F)c4ccc([nH]4)c(-c4c(F)c(F)c(F)c(F)c4F)c4nc(c(-c5c(F)c(F)c(F)c(F)c5F)c5ccc2[nH]5)C=C4)C=C3)cc1)CC(F)(F)F
REMARK SMILES IDX 13 1 12 2 10 3 11 4 9 6 8 7 2 9 1 10 3 11 4 12 7 13 5 14
REMARK SMILES IDX 6 15 82 16 83 17 84 18 85 19 86 20 14 21 15 22 16 23 17 24
REMARK SMILES IDX 18 26 19 27 20 28 81 29 21 30 80 31 22 32 23 33 24 34 74 35
REMARK SMILES IDX 25 36 79 37 73 38 75 39 26 40 78 41 72 42 71 43 27 45 59 46
REMARK SMILES IDX 39 47 58 48 40 49 43 50 57 51 76 52 41 53 42 54 56 56 77 57
REMARK SMILES IDX 44 58 28 59 29 60 37 61 30 62 31 63 35 64 38 65 32 66 33 67
REMARK SMILES IDX 36 68 34 69 60 70 61 71 69 72 62 73 63 74 67 75 70 76 64 77
REMARK SMILES IDX 65 78 68 79 66 80 45 81 46 82 54 83 47 84 48 85 52 86 55 87
REMARK SMILES IDX 49 88 50 89 53 90 51 91
REMARK H PARENT 12 5 8 8 16 25 75 44 43 55
REMARK Flexibility Score: inf
ROOT
ATOM      1  C   UNL A   1      31.540  30.811  26.137  1.00  0.00     0.118 C 
ENDROOT
BRANCH   1   2
ATOM      2  N   UNL A   1      32.676  30.068  26.662  1.00  0.00    -0.351 N 
ATOM      3  C   UNL A   1      32.887  28.732  26.860  1.00  0.00     0.275 C 
ATOM      4  O   UNL A   1      34.034  28.373  27.134  1.00  0.00    -0.269 OA
ATOM      5  H   UNL A   1      33.438  30.634  26.924  1.00  0.00     0.163 HD
BRANCH   3   6
ATOM      6  C   UNL A   1      31.754  27.715  26.751  1.00  0.00     0.364 C 
BRANCH   6   7
ATOM      7  N   UNL A   1      32.034  26.580  25.842  1.00  0.00    -0.317 N 
ATOM      8  H   UNL A   1      33.048  26.489  25.785  1.00  0.00     0.349 HD
BRANCH   7   9
ATOM      9  C   UNL A   1      31.833  26.855  24.422  1.00  0.00     0.184 C 
ATOM     10  C   UNL A   1      33.098  27.160  23.614  1.00  0.00     0.075 C 
BRANCH   9  11
ATOM     11  C   UNL A   1      30.707  27.851  24.060  1.00  0.00     0.047 C 
ATOM     12  C   UNL A   1      31.062  28.919  23.025  1.00  0.00     0.010 C 
ATOM     13  C   UNL A   1      29.394  27.290  23.522  1.00  0.00     0.010 C 
ATOM     14  C   UNL A   1      29.722  29.603  22.785  1.00  0.00     0.001 C 
ATOM     15  C   UNL A   1      28.672  28.501  22.929  1.00  0.00     0.001 C 
ENDBRANCH   9  11
ENDBRANCH   7   9
BRANCH   7  16
ATOM     16  C   UNL A   1      31.823  25.235  26.411  1.00  0.00     0.379 C 
BRANCH  16  17
ATOM     17  C   UNL A   1      30.551  24.375  26.225  1.00  0.00     0.438 C 
ATOM     18  F   UNL A   1      29.429  25.127  26.308  1.00  0.00    -0.165 F 
ATOM     19  F   UNL A   1      30.547  23.821  24.986  1.00  0.00    -0.165 F 
ATOM     20  F   UNL A   1      30.438  23.375  27.118  1.00  0.00    -0.165 F 
ENDBRANCH  16  17
ENDBRANCH   7  16
ENDBRANCH   6   7
ENDBRANCH   3   6
ENDBRANCH   1   2
BRANCH   1  21
ATOM     21  C   UNL A   1      31.385  32.244  26.660  1.00  0.00     0.042 C 
BRANCH  21  22
ATOM     22  C   UNL A   1      32.634  32.883  27.271  1.00  0.00     0.118 C 
BRANCH  22  23
ATOM     23  N   UNL A   1      32.418  34.270  27.635  1.00  0.00    -0.352 N 
ATOM     24  C   UNL A   1      32.977  35.014  28.646  1.00  0.00     0.251 C 
ATOM     25  H   UNL A   1      31.771  34.752  27.072  1.00  0.00     0.163 HD
ATOM     26  O   UNL A   1      32.497  36.113  28.915  1.00  0.00    -0.269 OA
BRANCH  24  27
ATOM     27  C   UNL A   1      34.145  34.530  29.423  1.00  0.00     0.039 A 
ATOM     28  C   UNL A   1      35.415  34.614  28.836  1.00  0.00     0.014 A 
ATOM     29  C   UNL A   1      34.000  33.886  30.656  1.00  0.00     0.014 A 
ATOM     30  C   UNL A   1      36.533  34.071  29.482  1.00  0.00     0.010 A 
ATOM     31  C   UNL A   1      35.123  33.378  31.321  1.00  0.00     0.010 A 
ATOM     32  C   UNL A   1      36.397  33.447  30.730  1.00  0.00    -0.014 A 
BRANCH  32  33
ATOM     33  C   UNL A   1      37.561  32.807  31.402  1.00  0.00     0.031 A 
ATOM     34  C   UNL A   1      38.248  31.633  30.760  1.00  0.00     0.074 A 
ATOM     35  C   UNL A   1      37.978  33.240  32.605  1.00  0.00     0.049 A 
ATOM     36  N   UNL A   1      39.208  30.874  31.228  1.00  0.00    -0.248 NA
ATOM     37  C   UNL A   1      37.782  31.253  29.419  1.00  0.00     0.031 C 
ATOM     38  C   UNL A   1      37.398  34.359  33.346  1.00  0.00     0.029 A 
ATOM     39  N   UNL A   1      38.974  32.773  33.428  1.00  0.00    -0.354 N 
ATOM     40  C   UNL A   1      39.442  29.913  30.253  1.00  0.00     0.074 A 
ATOM     41  C   UNL A   1      38.508  30.171  29.176  1.00  0.00     0.031 C 
ATOM     42  C   UNL A   1      38.038  34.484  34.520  1.00  0.00     0.029 A 
ATOM     43  C   UNL A   1      39.051  33.435  34.629  1.00  0.00     0.049 A 
ATOM     44  H   UNL A   1      39.574  32.033  33.181  1.00  0.00     0.167 HD
ATOM     45  C   UNL A   1      40.358  28.914  30.248  1.00  0.00     0.037 A 
ATOM     46  C   UNL A   1      39.831  33.210  35.705  1.00  0.00     0.037 A 
ATOM     47  C   UNL A   1      41.310  28.672  31.299  1.00  0.00     0.049 A 
ATOM     48  C   UNL A   1      40.836  32.091  35.682  1.00  0.00     0.074 A 
ATOM     49  C   UNL A   1      42.319  27.724  31.348  1.00  0.00     0.029 A 
ATOM     50  N   UNL A   1      41.370  29.380  32.489  1.00  0.00    -0.354 N 
ATOM     51  N   UNL A   1      41.082  31.222  34.734  1.00  0.00    -0.248 NA
ATOM     52  C   UNL A   1      41.677  31.926  36.878  1.00  0.00     0.031 C 
ATOM     53  C   UNL A   1      42.965  27.835  32.585  1.00  0.00     0.029 A 
ATOM     54  C   UNL A   1      42.383  28.876  33.289  1.00  0.00     0.049 A 
ATOM     55  H   UNL A   1      40.780  30.131  32.730  1.00  0.00     0.167 HD
ATOM     56  C   UNL A   1      42.112  30.420  35.207  1.00  0.00     0.074 A 
ATOM     57  C   UNL A   1      42.453  30.910  36.526  1.00  0.00     0.031 C 
ATOM     58  C   UNL A   1      42.720  29.373  34.598  1.00  0.00     0.037 A 
BRANCH  45  59
ATOM     59  C   UNL A   1      40.364  27.991  29.066  1.00  0.00     0.064 A 
ATOM     60  C   UNL A   1      39.607  26.810  29.050  1.00  0.00     0.173 A 
ATOM     61  C   UNL A   1      41.114  28.307  27.924  1.00  0.00     0.173 A 
ATOM     62  F   UNL A   1      38.879  26.460  30.121  1.00  0.00    -0.203 F 
ATOM     63  C   UNL A   1      39.627  25.963  27.945  1.00  0.00     0.198 A 
ATOM     64  C   UNL A   1      41.112  27.470  26.811  1.00  0.00     0.198 A 
ATOM     65  F   UNL A   1      41.848  29.429  27.885  1.00  0.00    -0.203 F 
ATOM     66  F   UNL A   1      38.933  24.816  27.969  1.00  0.00    -0.200 F 
ATOM     67  C   UNL A   1      40.375  26.296  26.826  1.00  0.00     0.200 A 
ATOM     68  F   UNL A   1      41.826  27.799  25.726  1.00  0.00    -0.200 F 
ATOM     69  F   UNL A   1      40.392  25.480  25.762  1.00  0.00    -0.200 F 
ENDBRANCH  45  59
BRANCH  46  70
ATOM     70  C   UNL A   1      39.678  34.071  36.904  1.00  0.00     0.064 A 
ATOM     71  C   UNL A   1      38.873  33.675  37.980  1.00  0.00     0.173 A 
ATOM     72  C   UNL A   1      40.354  35.295  37.007  1.00  0.00     0.173 A 
ATOM     73  F   UNL A   1      38.189  32.522  37.915  1.00  0.00    -0.203 F 
ATOM     74  C   UNL A   1      38.747  34.473  39.114  1.00  0.00     0.198 A 
ATOM     75  C   UNL A   1      40.244  36.083  38.150  1.00  0.00     0.198 A 
ATOM     76  F   UNL A   1      41.136  35.717  36.002  1.00  0.00    -0.203 F 
ATOM     77  F   UNL A   1      37.951  34.085  40.120  1.00  0.00    -0.200 F 
ATOM     78  C   UNL A   1      39.439  35.673  39.202  1.00  0.00     0.200 A 
ATOM     79  F   UNL A   1      40.923  37.235  38.235  1.00  0.00    -0.200 F 
ATOM     80  F   UNL A   1      39.328  36.433  40.299  1.00  0.00    -0.200 F 
ENDBRANCH  46  70
BRANCH  58  81
ATOM     81  C   UNL A   1      43.838  28.695  35.333  1.00  0.00     0.064 A 
ATOM     82  C   UNL A   1      45.171  29.099  35.172  1.00  0.00     0.173 A 
ATOM     83  C   UNL A   1      43.564  27.678  36.260  1.00  0.00     0.173 A 
ATOM     84  F   UNL A   1      45.483  30.057  34.286  1.00  0.00    -0.203 F 
ATOM     85  C   UNL A   1      46.192  28.502  35.907  1.00  0.00     0.198 A 
ATOM     86  C   UNL A   1      44.586  27.098  37.008  1.00  0.00     0.198 A 
ATOM     87  F   UNL A   1      42.304  27.261  36.452  1.00  0.00    -0.203 F 
ATOM     88  F   UNL A   1      47.462  28.885  35.719  1.00  0.00    -0.200 F 
ATOM     89  C   UNL A   1      45.898  27.508  36.829  1.00  0.00     0.200 A 
ATOM     90  F   UNL A   1      44.299  26.145  37.906  1.00  0.00    -0.200 F 
ATOM     91  F   UNL A   1      46.880  26.945  37.545  1.00  0.00    -0.200 F 
ENDBRANCH  58  81
ENDBRANCH  32  33
ENDBRANCH  24  27
ENDBRANCH  22  23
ENDBRANCH  21  22
ENDBRANCH   1  21
TORSDOF 15
ENDMDL
