MODEL 1
REMARK VINA RESULT:     -11.2      0.000      0.000
REMARK SMILES Cn1nccc1/C=C/C(=O)N[C@H](CO)C(=O)NCCCNC(=O)c1ccc(-c2c3nc(c(-c4c(F)c(F)c(F)c(F)c4F)c4ccc([nH]4)c(-c4c(F)c(F)c(F)c(F)c4F)c4nc(c(-c5c(F)c(F)c(F)c(F)c5F)c5ccc2[nH]5)C=C4)C=C3)cc1
REMARK SMILES IDX 18 1 17 2 15 3 16 4 12 6 11 7 9 8 10 9 8 11 7 12 6 13 1 14
REMARK SMILES IDX 2 15 3 16 4 17 5 18 13 19 14 20 19 22 20 23 21 24 22 25
REMARK SMILES IDX 23 27 24 28 25 29 86 30 26 31 85 32 27 33 28 34 29 35 79 36
REMARK SMILES IDX 30 37 84 38 78 39 80 40 31 41 83 42 77 43 76 44 32 46 64 47
REMARK SMILES IDX 44 48 63 49 45 50 48 51 62 52 81 53 46 54 47 55 61 57 82 58
REMARK SMILES IDX 49 59 33 60 34 61 42 62 35 63 36 64 40 65 43 66 37 67 38 68
REMARK SMILES IDX 41 69 39 70 65 71 66 72 74 73 67 74 68 75 72 76 75 77 69 78
REMARK SMILES IDX 70 79 73 80 71 81 50 82 51 83 59 84 52 85 53 86 57 87 60 88
REMARK SMILES IDX 54 89 55 90 58 91 56 92
REMARK H PARENT 17 5 11 10 14 21 21 26 80 45 48 56
REMARK Flexibility Score: inf
ROOT
ATOM      1  C   UNL A   1      31.346  28.287  25.691  1.00  0.00     0.117 C 
ENDROOT
BRANCH   1   2
ATOM      2  N   UNL A   1      30.621  27.190  25.070  1.00  0.00    -0.354 N 
ATOM      3  C   UNL A   1      30.125  27.011  23.819  1.00  0.00     0.244 C 
ATOM      4  O   UNL A   1      29.327  26.068  23.693  1.00  0.00    -0.273 OA
ATOM      5  H   UNL A   1      30.459  26.429  25.673  1.00  0.00     0.163 HD
BRANCH   3   6
ATOM      6  C   UNL A   1      30.571  27.789  22.549  1.00  0.00     0.197 C 
BRANCH   6   7
ATOM      7  N   UNL A   1      31.946  27.822  22.040  1.00  0.00    -0.339 N 
ATOM      8  C   UNL A   1      33.014  27.000  22.020  1.00  0.00     0.244 C 
ATOM      9  O   UNL A   1      34.080  27.483  21.627  1.00  0.00    -0.270 OA
ATOM     10  H   UNL A   1      32.141  28.676  21.590  1.00  0.00     0.164 HD
BRANCH   8  11
ATOM     11  C   UNL A   1      32.994  25.553  22.319  1.00  0.00     0.073 C 
ATOM     12  C   UNL A   1      33.698  24.860  23.220  1.00  0.00     0.033 C 
BRANCH  12  13
ATOM     13  C   UNL A   1      33.381  23.508  23.523  1.00  0.00     0.061 A 
ATOM     14  C   UNL A   1      35.804  22.815  23.908  1.00  0.00     0.174 C 
ATOM     15  N   UNL A   1      34.372  22.610  23.873  1.00  0.00    -0.269 N 
ATOM     16  N   UNL A   1      33.891  21.408  24.251  1.00  0.00    -0.181 NA
ATOM     17  C   UNL A   1      32.574  21.522  24.091  1.00  0.00     0.136 A 
ATOM     18  C   UNL A   1      32.201  22.796  23.638  1.00  0.00     0.050 A 
ENDBRANCH  12  13
ENDBRANCH   8  11
ENDBRANCH   6   7
BRANCH   6  19
ATOM     19  C   UNL A   1      29.826  29.146  22.380  1.00  0.00     0.191 C 
BRANCH  19  20
ATOM     20  O   UNL A   1      30.271  29.936  21.277  1.00  0.00    -0.394 OA
ATOM     21  H   UNL A   1      29.504  30.321  20.825  1.00  0.00     0.210 HD
ENDBRANCH  19  20
ENDBRANCH   6  19
ENDBRANCH   3   6
ENDBRANCH   1   2
BRANCH   1  22
ATOM     22  C   UNL A   1      32.856  28.065  25.584  1.00  0.00     0.042 C 
BRANCH  22  23
ATOM     23  C   UNL A   1      33.670  29.302  25.219  1.00  0.00     0.118 C 
BRANCH  23  24
ATOM     24  N   UNL A   1      33.171  30.503  25.866  1.00  0.00    -0.352 N 
ATOM     25  C   UNL A   1      33.589  31.174  26.986  1.00  0.00     0.251 C 
ATOM     26  H   UNL A   1      32.393  30.908  25.419  1.00  0.00     0.163 HD
ATOM     27  O   UNL A   1      32.863  32.065  27.430  1.00  0.00    -0.269 OA
BRANCH  25  28
ATOM     28  C   UNL A   1      34.866  30.872  27.689  1.00  0.00     0.039 A 
ATOM     29  C   UNL A   1      35.011  29.598  28.257  1.00  0.00     0.014 A 
ATOM     30  C   UNL A   1      35.874  31.817  27.894  1.00  0.00     0.014 A 
ATOM     31  C   UNL A   1      36.157  29.270  28.990  1.00  0.00     0.010 A 
ATOM     32  C   UNL A   1      37.054  31.466  28.560  1.00  0.00     0.010 A 
ATOM     33  C   UNL A   1      37.202  30.194  29.133  1.00  0.00    -0.014 A 
BRANCH  33  34
ATOM     34  C   UNL A   1      38.432  29.831  29.891  1.00  0.00     0.031 A 
ATOM     35  C   UNL A   1      38.667  30.354  31.284  1.00  0.00     0.074 A 
ATOM     36  C   UNL A   1      39.353  29.031  29.320  1.00  0.00     0.049 A 
ATOM     37  N   UNL A   1      39.661  30.111  32.104  1.00  0.00    -0.248 NA
ATOM     38  C   UNL A   1      37.666  31.287  31.821  1.00  0.00     0.031 C 
ATOM     39  C   UNL A   1      39.281  28.499  27.959  1.00  0.00     0.029 A 
ATOM     40  N   UNL A   1      40.528  28.519  29.815  1.00  0.00    -0.354 N 
ATOM     41  C   UNL A   1      39.413  30.870  33.240  1.00  0.00     0.074 A 
ATOM     42  C   UNL A   1      38.199  31.617  32.988  1.00  0.00     0.031 C 
ATOM     43  C   UNL A   1      40.343  27.709  27.739  1.00  0.00     0.029 A 
ATOM     44  C   UNL A   1      41.183  27.695  28.934  1.00  0.00     0.049 A 
ATOM     45  H   UNL A   1      40.867  28.723  30.717  1.00  0.00     0.167 HD
ATOM     46  C   UNL A   1      40.117  30.925  34.397  1.00  0.00     0.037 A 
ATOM     47  C   UNL A   1      42.327  26.998  29.074  1.00  0.00     0.037 A 
ATOM     48  C   UNL A   1      41.309  30.162  34.665  1.00  0.00     0.049 A 
ATOM     49  C   UNL A   1      43.074  27.050  30.378  1.00  0.00     0.074 A 
ATOM     50  C   UNL A   1      42.051  30.099  35.833  1.00  0.00     0.029 A 
ATOM     51  N   UNL A   1      41.935  29.328  33.750  1.00  0.00    -0.354 N 
ATOM     52  N   UNL A   1      42.784  27.711  31.471  1.00  0.00    -0.248 NA
ATOM     53  C   UNL A   1      44.301  26.247  30.468  1.00  0.00     0.031 C 
ATOM     54  C   UNL A   1      43.146  29.254  35.613  1.00  0.00     0.029 A 
ATOM     55  C   UNL A   1      43.065  28.761  34.321  1.00  0.00     0.049 A 
ATOM     56  H   UNL A   1      41.624  29.164  32.832  1.00  0.00     0.167 HD
ATOM     57  C   UNL A   1      43.782  27.394  32.383  1.00  0.00     0.074 A 
ATOM     58  C   UNL A   1      44.672  26.462  31.722  1.00  0.00     0.031 C 
ATOM     59  C   UNL A   1      43.947  27.840  33.652  1.00  0.00     0.037 A 
BRANCH  46  60
ATOM     60  C   UNL A   1      39.610  31.840  35.473  1.00  0.00     0.064 A 
ATOM     61  C   UNL A   1      40.067  33.161  35.589  1.00  0.00     0.173 A 
ATOM     62  C   UNL A   1      38.630  31.404  36.378  1.00  0.00     0.173 A 
ATOM     63  F   UNL A   1      41.009  33.624  34.754  1.00  0.00    -0.203 F 
ATOM     64  C   UNL A   1      39.585  34.003  36.588  1.00  0.00     0.198 A 
ATOM     65  C   UNL A   1      38.131  32.257  37.359  1.00  0.00     0.198 A 
ATOM     66  F   UNL A   1      38.152  30.153  36.308  1.00  0.00    -0.203 F 
ATOM     67  F   UNL A   1      40.072  35.246  36.708  1.00  0.00    -0.200 F 
ATOM     68  C   UNL A   1      38.614  33.552  37.469  1.00  0.00     0.200 A 
ATOM     69  F   UNL A   1      37.183  31.824  38.204  1.00  0.00    -0.200 F 
ATOM     70  F   UNL A   1      38.148  34.364  38.429  1.00  0.00    -0.200 F 
ENDBRANCH  46  60
BRANCH  47  71
ATOM     71  C   UNL A   1      42.811  26.147  27.957  1.00  0.00     0.064 A 
ATOM     72  C   UNL A   1      42.386  24.818  27.833  1.00  0.00     0.173 A 
ATOM     73  C   UNL A   1      43.695  26.645  26.990  1.00  0.00     0.173 A 
ATOM     74  F   UNL A   1      41.557  24.292  28.747  1.00  0.00    -0.203 F 
ATOM     75  C   UNL A   1      42.837  24.013  26.790  1.00  0.00     0.198 A 
ATOM     76  C   UNL A   1      44.127  25.847  25.933  1.00  0.00     0.198 A 
ATOM     77  F   UNL A   1      44.127  27.913  27.065  1.00  0.00    -0.203 F 
ATOM     78  F   UNL A   1      42.444  22.735  26.714  1.00  0.00    -0.200 F 
ATOM     79  C   UNL A   1      43.703  24.531  25.836  1.00  0.00     0.200 A 
ATOM     80  F   UNL A   1      44.953  26.353  25.008  1.00  0.00    -0.200 F 
ATOM     81  F   UNL A   1      44.131  23.758  24.829  1.00  0.00    -0.200 F 
ENDBRANCH  47  71
BRANCH  59  82
ATOM     82  C   UNL A   1      45.129  27.315  34.412  1.00  0.00     0.064 A 
ATOM     83  C   UNL A   1      46.365  27.976  34.390  1.00  0.00     0.173 A 
ATOM     84  C   UNL A   1      45.021  26.145  35.179  1.00  0.00     0.173 A 
ATOM     85  F   UNL A   1      46.523  29.089  33.658  1.00  0.00    -0.203 F 
ATOM     86  C   UNL A   1      47.459  27.470  35.087  1.00  0.00     0.198 A 
ATOM     87  C   UNL A   1      46.111  25.655  35.895  1.00  0.00     0.198 A 
ATOM     88  F   UNL A   1      43.859  25.478  35.236  1.00  0.00    -0.203 F 
ATOM     89  F   UNL A   1      48.646  28.091  35.012  1.00  0.00    -0.200 F 
ATOM     90  C   UNL A   1      47.330  26.313  35.841  1.00  0.00     0.200 A 
ATOM     91  F   UNL A   1      45.982  24.543  36.631  1.00  0.00    -0.200 F 
ATOM     92  F   UNL A   1      48.385  25.826  36.509  1.00  0.00    -0.200 F 
ENDBRANCH  59  82
ENDBRANCH  33  34
ENDBRANCH  25  28
ENDBRANCH  23  24
ENDBRANCH  22  23
ENDBRANCH   1  22
TORSDOF 15
ENDMDL
MODEL 2
REMARK VINA RESULT:     -11.2      1.120      3.471
REMARK SMILES Cn1nccc1/C=C/C(=O)N[C@H](CO)C(=O)NCCCNC(=O)c1ccc(-c2c3nc(c(-c4c(F)c(F)c(F)c(F)c4F)c4ccc([nH]4)c(-c4c(F)c(F)c(F)c(F)c4F)c4nc(c(-c5c(F)c(F)c(F)c(F)c5F)c5ccc2[nH]5)C=C4)C=C3)cc1
REMARK SMILES IDX 18 1 17 2 15 3 16 4 12 6 11 7 9 8 10 9 8 11 7 12 6 13 1 14
REMARK SMILES IDX 2 15 3 16 4 17 5 18 13 19 14 20 19 22 20 23 21 24 22 25
REMARK SMILES IDX 23 27 24 28 25 29 86 30 26 31 85 32 27 33 28 34 29 35 79 36
REMARK SMILES IDX 30 37 84 38 78 39 80 40 31 41 83 42 77 43 76 44 32 46 64 47
REMARK SMILES IDX 44 48 63 49 45 50 48 51 62 52 81 53 46 54 47 55 61 57 82 58
REMARK SMILES IDX 49 59 33 60 34 61 42 62 35 63 36 64 40 65 43 66 37 67 38 68
REMARK SMILES IDX 41 69 39 70 65 71 66 72 74 73 67 74 68 75 72 76 75 77 69 78
REMARK SMILES IDX 70 79 73 80 71 81 50 82 51 83 59 84 52 85 53 86 57 87 60 88
REMARK SMILES IDX 54 89 55 90 58 91 56 92
REMARK H PARENT 17 5 11 10 14 21 21 26 80 45 48 56
REMARK Flexibility Score: inf
ROOT
ATOM      1  C   UNL A   1      33.808  26.584  25.093  1.00  0.00     0.117 C 
ENDROOT
BRANCH   1   2
ATOM      2  N   UNL A   1      33.724  26.694  23.646  1.00  0.00    -0.354 N 
ATOM      3  C   UNL A   1      33.364  25.812  22.679  1.00  0.00     0.244 C 
ATOM      4  O   UNL A   1      33.656  26.146  21.519  1.00  0.00    -0.273 OA
ATOM      5  H   UNL A   1      33.975  27.581  23.300  1.00  0.00     0.163 HD
BRANCH   3   6
ATOM      6  C   UNL A   1      32.523  24.523  22.897  1.00  0.00     0.197 C 
BRANCH   6   7
ATOM      7  N   UNL A   1      31.643  24.294  24.047  1.00  0.00    -0.339 N 
ATOM      8  C   UNL A   1      30.634  24.940  24.666  1.00  0.00     0.244 C 
ATOM      9  O   UNL A   1      30.254  24.474  25.743  1.00  0.00    -0.270 OA
ATOM     10  H   UNL A   1      31.843  23.436  24.486  1.00  0.00     0.164 HD
BRANCH   8  11
ATOM     11  C   UNL A   1      29.875  26.082  24.114  1.00  0.00     0.073 C 
ATOM     12  C   UNL A   1      30.210  27.374  24.048  1.00  0.00     0.033 C 
BRANCH  12  13
ATOM     13  C   UNL A   1      29.450  28.296  23.277  1.00  0.00     0.061 A 
ATOM     14  C   UNL A   1      31.483  29.320  22.128  1.00  0.00     0.174 C 
ATOM     15  N   UNL A   1      30.068  29.144  22.378  1.00  0.00    -0.269 N 
ATOM     16  N   UNL A   1      29.197  29.862  21.639  1.00  0.00    -0.181 NA
ATOM     17  C   UNL A   1      28.003  29.504  22.109  1.00  0.00     0.136 A 
ATOM     18  C   UNL A   1      28.098  28.542  23.126  1.00  0.00     0.050 A 
ENDBRANCH  12  13
ENDBRANCH   8  11
ENDBRANCH   6   7
BRANCH   6  19
ATOM     19  C   UNL A   1      33.263  23.234  22.430  1.00  0.00     0.191 C 
BRANCH  19  20
ATOM     20  O   UNL A   1      34.687  23.331  22.437  1.00  0.00    -0.394 OA
ATOM     21  H   UNL A   1      35.009  23.308  23.353  1.00  0.00     0.210 HD
ENDBRANCH  19  20
ENDBRANCH   6  19
ENDBRANCH   3   6
ENDBRANCH   1   2
BRANCH   1  22
ATOM     22  C   UNL A   1      33.268  27.849  25.763  1.00  0.00     0.042 C 
BRANCH  22  23
ATOM     23  C   UNL A   1      33.642  29.158  25.075  1.00  0.00     0.118 C 
BRANCH  23  24
ATOM     24  N   UNL A   1      33.092  30.317  25.756  1.00  0.00    -0.352 N 
ATOM     25  C   UNL A   1      33.479  30.969  26.899  1.00  0.00     0.251 C 
ATOM     26  H   UNL A   1      32.299  30.704  25.319  1.00  0.00     0.163 HD
ATOM     27  O   UNL A   1      32.715  31.816  27.367  1.00  0.00    -0.269 OA
BRANCH  25  28
ATOM     28  C   UNL A   1      34.764  30.698  27.598  1.00  0.00     0.039 A 
ATOM     29  C   UNL A   1      34.887  29.483  28.287  1.00  0.00     0.014 A 
ATOM     30  C   UNL A   1      35.805  31.626  27.682  1.00  0.00     0.014 A 
ATOM     31  C   UNL A   1      36.042  29.193  29.022  1.00  0.00     0.010 A 
ATOM     32  C   UNL A   1      36.992  31.305  28.352  1.00  0.00     0.010 A 
ATOM     33  C   UNL A   1      37.118  30.092  29.046  1.00  0.00    -0.014 A 
BRANCH  33  34
ATOM     34  C   UNL A   1      38.356  29.767  29.807  1.00  0.00     0.031 A 
ATOM     35  C   UNL A   1      38.589  30.326  31.186  1.00  0.00     0.074 A 
ATOM     36  C   UNL A   1      39.288  28.969  29.251  1.00  0.00     0.049 A 
ATOM     37  N   UNL A   1      39.590  30.119  32.007  1.00  0.00    -0.248 NA
ATOM     38  C   UNL A   1      37.575  31.256  31.705  1.00  0.00     0.031 C 
ATOM     39  C   UNL A   1      39.219  28.404  27.904  1.00  0.00     0.029 A 
ATOM     40  N   UNL A   1      40.473  28.488  29.753  1.00  0.00    -0.354 N 
ATOM     41  C   UNL A   1      39.334  30.901  33.126  1.00  0.00     0.074 A 
ATOM     42  C   UNL A   1      38.107  31.622  32.862  1.00  0.00     0.031 C 
ATOM     43  C   UNL A   1      40.293  27.626  27.697  1.00  0.00     0.029 A 
ATOM     44  C   UNL A   1      41.138  27.654  28.888  1.00  0.00     0.049 A 
ATOM     45  H   UNL A   1      40.813  28.719  30.648  1.00  0.00     0.167 HD
ATOM     46  C   UNL A   1      40.042  30.994  34.278  1.00  0.00     0.037 A 
ATOM     47  C   UNL A   1      42.293  26.979  29.039  1.00  0.00     0.037 A 
ATOM     48  C   UNL A   1      41.247  30.257  34.559  1.00  0.00     0.049 A 
ATOM     49  C   UNL A   1      43.045  27.074  30.338  1.00  0.00     0.074 A 
ATOM     50  C   UNL A   1      41.995  30.234  35.724  1.00  0.00     0.029 A 
ATOM     51  N   UNL A   1      41.883  29.412  33.661  1.00  0.00    -0.354 N 
ATOM     52  N   UNL A   1      42.749  27.756  31.417  1.00  0.00    -0.248 NA
ATOM     53  C   UNL A   1      44.285  26.293  30.442  1.00  0.00     0.031 C 
ATOM     54  C   UNL A   1      43.103  29.402  35.519  1.00  0.00     0.029 A 
ATOM     55  C   UNL A   1      43.024  28.877  34.240  1.00  0.00     0.049 A 
ATOM     56  H   UNL A   1      41.571  29.221  32.748  1.00  0.00     0.167 HD
ATOM     57  C   UNL A   1      43.755  27.477  32.332  1.00  0.00     0.074 A 
ATOM     58  C   UNL A   1      44.658  26.544  31.689  1.00  0.00     0.031 C 
ATOM     59  C   UNL A   1      43.918  27.955  33.589  1.00  0.00     0.037 A 
BRANCH  46  60
ATOM     60  C   UNL A   1      39.524  31.927  35.335  1.00  0.00     0.064 A 
ATOM     61  C   UNL A   1      38.617  31.497  36.314  1.00  0.00     0.173 A 
ATOM     62  C   UNL A   1      39.967  33.258  35.391  1.00  0.00     0.173 A 
ATOM     63  F   UNL A   1      38.155  30.237  36.298  1.00  0.00    -0.203 F 
ATOM     64  C   UNL A   1      38.148  32.371  37.291  1.00  0.00     0.198 A 
ATOM     65  C   UNL A   1      39.517  34.121  36.387  1.00  0.00     0.198 A 
ATOM     66  F   UNL A   1      40.841  33.719  34.485  1.00  0.00    -0.203 F 
ATOM     67  F   UNL A   1      37.244  31.948  38.187  1.00  0.00    -0.200 F 
ATOM     68  C   UNL A   1      38.602  33.680  37.331  1.00  0.00     0.200 A 
ATOM     69  F   UNL A   1      39.965  35.383  36.431  1.00  0.00    -0.200 F 
ATOM     70  F   UNL A   1      38.152  34.518  38.274  1.00  0.00    -0.200 F 
ENDBRANCH  46  60
BRANCH  47  71
ATOM     71  C   UNL A   1      42.786  26.110  27.940  1.00  0.00     0.064 A 
ATOM     72  C   UNL A   1      43.663  26.612  26.969  1.00  0.00     0.173 A 
ATOM     73  C   UNL A   1      42.401  24.766  27.843  1.00  0.00     0.173 A 
ATOM     74  F   UNL A   1      44.042  27.898  27.009  1.00  0.00    -0.203 F 
ATOM     75  C   UNL A   1      44.128  25.805  25.934  1.00  0.00     0.198 A 
ATOM     76  C   UNL A   1      42.886  23.953  26.821  1.00  0.00     0.198 A 
ATOM     77  F   UNL A   1      41.565  24.240  28.751  1.00  0.00    -0.203 F 
ATOM     78  F   UNL A   1      44.937  26.318  24.998  1.00  0.00    -0.200 F 
ATOM     79  C   UNL A   1      43.744  24.473  25.865  1.00  0.00     0.200 A 
ATOM     80  F   UNL A   1      42.522  22.664  26.764  1.00  0.00    -0.200 F 
ATOM     81  F   UNL A   1      44.196  23.695  24.872  1.00  0.00    -0.200 F 
ENDBRANCH  47  71
BRANCH  59  82
ATOM     82  C   UNL A   1      45.112  27.467  34.356  1.00  0.00     0.064 A 
ATOM     83  C   UNL A   1      45.044  26.323  35.164  1.00  0.00     0.173 A 
ATOM     84  C   UNL A   1      46.339  28.142  34.271  1.00  0.00     0.173 A 
ATOM     85  F   UNL A   1      43.888  25.653  35.290  1.00  0.00    -0.203 F 
ATOM     86  C   UNL A   1      46.154  25.887  35.882  1.00  0.00     0.198 A 
ATOM     87  C   UNL A   1      47.454  27.689  34.971  1.00  0.00     0.198 A 
ATOM     88  F   UNL A   1      46.457  29.238  33.509  1.00  0.00    -0.203 F 
ATOM     89  F   UNL A   1      46.054  24.821  36.688  1.00  0.00    -0.200 F 
ATOM     90  C   UNL A   1      47.359  26.568  35.783  1.00  0.00     0.200 A 
ATOM     91  F   UNL A   1      48.620  28.341  34.867  1.00  0.00    -0.200 F 
ATOM     92  F   UNL A   1      48.426  26.149  36.477  1.00  0.00    -0.200 F 
ENDBRANCH  59  82
ENDBRANCH  33  34
ENDBRANCH  25  28
ENDBRANCH  23  24
ENDBRANCH  22  23
ENDBRANCH   1  22
TORSDOF 15
ENDMDL
MODEL 3
REMARK VINA RESULT:     -11.1      1.586      2.205
REMARK SMILES Cn1nccc1/C=C/C(=O)N[C@H](CO)C(=O)NCCCNC(=O)c1ccc(-c2c3nc(c(-c4c(F)c(F)c(F)c(F)c4F)c4ccc([nH]4)c(-c4c(F)c(F)c(F)c(F)c4F)c4nc(c(-c5c(F)c(F)c(F)c(F)c5F)c5ccc2[nH]5)C=C4)C=C3)cc1
REMARK SMILES IDX 18 1 17 2 15 3 16 4 12 6 11 7 9 8 10 9 8 11 7 12 6 13 1 14
REMARK SMILES IDX 2 15 3 16 4 17 5 18 13 19 14 20 19 22 20 23 21 24 22 25
REMARK SMILES IDX 23 27 24 28 25 29 86 30 26 31 85 32 27 33 28 34 29 35 79 36
REMARK SMILES IDX 30 37 84 38 78 39 80 40 31 41 83 42 77 43 76 44 32 46 64 47
REMARK SMILES IDX 44 48 63 49 45 50 48 51 62 52 81 53 46 54 47 55 61 57 82 58
REMARK SMILES IDX 49 59 33 60 34 61 42 62 35 63 36 64 40 65 43 66 37 67 38 68
REMARK SMILES IDX 41 69 39 70 65 71 66 72 74 73 67 74 68 75 72 76 75 77 69 78
REMARK SMILES IDX 70 79 73 80 71 81 50 82 51 83 59 84 52 85 53 86 57 87 60 88
REMARK SMILES IDX 54 89 55 90 58 91 56 92
REMARK H PARENT 17 5 11 10 14 21 21 26 80 45 48 56
REMARK Flexibility Score: inf
ROOT
ATOM      1  C   UNL A   1      31.322  29.952  25.344  1.00  0.00     0.117 C 
ENDROOT
BRANCH   1   2
ATOM      2  N   UNL A   1      32.555  29.687  24.619  1.00  0.00    -0.354 N 
ATOM      3  C   UNL A   1      32.880  28.780  23.664  1.00  0.00     0.244 C 
ATOM      4  O   UNL A   1      34.096  28.649  23.445  1.00  0.00    -0.273 OA
ATOM      5  H   UNL A   1      33.298  30.283  24.870  1.00  0.00     0.163 HD
BRANCH   3   6
ATOM      6  C   UNL A   1      31.871  28.016  22.760  1.00  0.00     0.197 C 
BRANCH   6   7
ATOM      7  N   UNL A   1      32.257  27.066  21.712  1.00  0.00    -0.339 N 
ATOM      8  C   UNL A   1      32.902  25.885  21.635  1.00  0.00     0.244 C 
ATOM      9  O   UNL A   1      33.178  25.475  20.504  1.00  0.00    -0.270 OA
ATOM     10  H   UNL A   1      31.963  27.373  20.824  1.00  0.00     0.164 HD
BRANCH   8  11
ATOM     11  C   UNL A   1      33.204  24.992  22.773  1.00  0.00     0.073 C 
ATOM     12  C   UNL A   1      34.275  24.963  23.571  1.00  0.00     0.033 C 
BRANCH  12  13
ATOM     13  C   UNL A   1      34.291  24.182  24.759  1.00  0.00     0.061 A 
ATOM     14  C   UNL A   1      36.112  22.598  23.935  1.00  0.00     0.174 C 
ATOM     15  N   UNL A   1      35.176  23.130  24.903  1.00  0.00    -0.269 N 
ATOM     16  N   UNL A   1      35.148  22.576  26.133  1.00  0.00    -0.181 NA
ATOM     17  C   UNL A   1      34.193  23.251  26.769  1.00  0.00     0.136 A 
ATOM     18  C   UNL A   1      33.624  24.253  25.968  1.00  0.00     0.050 A 
ENDBRANCH  12  13
ENDBRANCH   8  11
ENDBRANCH   6   7
BRANCH   6  19
ATOM     19  C   UNL A   1      30.634  28.880  22.374  1.00  0.00     0.191 C 
BRANCH  19  20
ATOM     20  O   UNL A   1      30.943  30.077  21.660  1.00  0.00    -0.394 OA
ATOM     21  H   UNL A   1      30.134  30.598  21.535  1.00  0.00     0.210 HD
ENDBRANCH  19  20
ENDBRANCH   6  19
ENDBRANCH   3   6
ENDBRANCH   1   2
BRANCH   1  22
ATOM     22  C   UNL A   1      31.316  31.379  25.894  1.00  0.00     0.042 C 
BRANCH  22  23
ATOM     23  C   UNL A   1      32.414  31.691  26.906  1.00  0.00     0.118 C 
BRANCH  23  24
ATOM     24  N   UNL A   1      32.464  33.101  27.250  1.00  0.00    -0.352 N 
ATOM     25  C   UNL A   1      33.303  33.806  28.075  1.00  0.00     0.251 C 
ATOM     26  H   UNL A   1      31.773  33.648  26.813  1.00  0.00     0.163 HD
ATOM     27  O   UNL A   1      33.003  34.972  28.343  1.00  0.00    -0.269 OA
BRANCH  25  28
ATOM     28  C   UNL A   1      34.543  33.231  28.663  1.00  0.00     0.039 A 
ATOM     29  C   UNL A   1      34.401  32.222  29.626  1.00  0.00     0.014 A 
ATOM     30  C   UNL A   1      35.824  33.712  28.379  1.00  0.00     0.014 A 
ATOM     31  C   UNL A   1      35.521  31.685  30.268  1.00  0.00     0.010 A 
ATOM     32  C   UNL A   1      36.951  33.122  28.963  1.00  0.00     0.010 A 
ATOM     33  C   UNL A   1      36.813  32.114  29.929  1.00  0.00    -0.014 A 
BRANCH  33  34
ATOM     34  C   UNL A   1      38.005  31.520  30.596  1.00  0.00     0.031 A 
ATOM     35  C   UNL A   1      38.399  31.931  31.990  1.00  0.00     0.074 A 
ATOM     36  C   UNL A   1      38.748  30.608  29.940  1.00  0.00     0.049 A 
ATOM     37  N   UNL A   1      39.383  31.491  32.738  1.00  0.00    -0.248 NA
ATOM     38  C   UNL A   1      37.597  32.989  32.622  1.00  0.00     0.031 C 
ATOM     39  C   UNL A   1      38.515  30.161  28.567  1.00  0.00     0.029 A 
ATOM     40  N   UNL A   1      39.847  29.888  30.342  1.00  0.00    -0.354 N 
ATOM     41  C   UNL A   1      39.326  32.226  33.915  1.00  0.00     0.074 A 
ATOM     42  C   UNL A   1      38.240  33.172  33.766  1.00  0.00     0.031 C 
ATOM     43  C   UNL A   1      39.418  29.219  28.252  1.00  0.00     0.029 A 
ATOM     44  C   UNL A   1      40.308  29.011  29.392  1.00  0.00     0.049 A 
ATOM     45  H   UNL A   1      40.264  29.992  31.228  1.00  0.00     0.167 HD
ATOM     46  C   UNL A   1      40.091  32.110  35.028  1.00  0.00     0.037 A 
ATOM     47  C   UNL A   1      41.326  28.131  29.435  1.00  0.00     0.037 A 
ATOM     48  C   UNL A   1      41.153  31.151  35.193  1.00  0.00     0.049 A 
ATOM     49  C   UNL A   1      42.141  27.999  30.692  1.00  0.00     0.074 A 
ATOM     50  C   UNL A   1      41.937  30.913  36.310  1.00  0.00     0.029 A 
ATOM     51  N   UNL A   1      41.582  30.271  34.211  1.00  0.00    -0.354 N 
ATOM     52  N   UNL A   1      42.025  28.646  31.824  1.00  0.00    -0.248 NA
ATOM     53  C   UNL A   1      43.222  27.004  30.676  1.00  0.00     0.031 C 
ATOM     54  C   UNL A   1      42.863  29.913  35.991  1.00  0.00     0.029 A 
ATOM     55  C   UNL A   1      42.631  29.501  34.689  1.00  0.00     0.049 A 
ATOM     56  H   UNL A   1      41.198  30.203  33.307  1.00  0.00     0.167 HD
ATOM     57  C   UNL A   1      43.005  28.128  32.661  1.00  0.00     0.074 A 
ATOM     58  C   UNL A   1      43.691  27.096  31.912  1.00  0.00     0.031 C 
ATOM     59  C   UNL A   1      43.311  28.481  33.934  1.00  0.00     0.037 A 
BRANCH  46  60
ATOM     60  C   UNL A   1      39.802  33.045  36.167  1.00  0.00     0.064 A 
ATOM     61  C   UNL A   1      40.461  34.276  36.292  1.00  0.00     0.173 A 
ATOM     62  C   UNL A   1      38.829  32.722  37.126  1.00  0.00     0.173 A 
ATOM     63  F   UNL A   1      41.406  34.628  35.407  1.00  0.00    -0.203 F 
ATOM     64  C   UNL A   1      40.181  35.136  37.350  1.00  0.00     0.198 A 
ATOM     65  C   UNL A   1      38.532  33.597  38.167  1.00  0.00     0.198 A 
ATOM     66  F   UNL A   1      38.162  31.561  37.049  1.00  0.00    -0.203 F 
ATOM     67  F   UNL A   1      40.858  36.287  37.474  1.00  0.00    -0.200 F 
ATOM     68  C   UNL A   1      39.213  34.799  38.284  1.00  0.00     0.200 A 
ATOM     69  F   UNL A   1      37.588  33.276  39.063  1.00  0.00    -0.200 F 
ATOM     70  F   UNL A   1      38.942  35.630  39.300  1.00  0.00    -0.200 F 
ENDBRANCH  46  60
BRANCH  47  71
ATOM     71  C   UNL A   1      41.601  27.267  28.259  1.00  0.00     0.064 A 
ATOM     72  C   UNL A   1      42.583  27.621  27.324  1.00  0.00     0.173 A 
ATOM     73  C   UNL A   1      40.899  26.072  28.051  1.00  0.00     0.173 A 
ATOM     74  F   UNL A   1      43.265  28.767  27.470  1.00  0.00    -0.203 F 
ATOM     75  C   UNL A   1      42.845  26.817  26.217  1.00  0.00     0.198 A 
ATOM     76  C   UNL A   1      41.178  25.256  26.956  1.00  0.00     0.198 A 
ATOM     77  F   UNL A   1      39.952  25.690  28.921  1.00  0.00    -0.203 F 
ATOM     78  F   UNL A   1      43.763  27.196  25.319  1.00  0.00    -0.200 F 
ATOM     79  C   UNL A   1      42.146  25.632  26.038  1.00  0.00     0.200 A 
ATOM     80  F   UNL A   1      40.510  24.106  26.793  1.00  0.00    -0.200 F 
ATOM     81  F   UNL A   1      42.403  24.855  24.976  1.00  0.00    -0.200 F 
ENDBRANCH  47  71
BRANCH  59  82
ATOM     82  C   UNL A   1      44.429  27.734  34.598  1.00  0.00     0.064 A 
ATOM     83  C   UNL A   1      45.751  28.200  34.549  1.00  0.00     0.173 A 
ATOM     84  C   UNL A   1      44.174  26.547  35.303  1.00  0.00     0.173 A 
ATOM     85  F   UNL A   1      46.047  29.321  33.874  1.00  0.00    -0.203 F 
ATOM     86  C   UNL A   1      46.782  27.490  35.158  1.00  0.00     0.198 A 
ATOM     87  C   UNL A   1      45.205  25.853  35.931  1.00  0.00     0.198 A 
ATOM     88  F   UNL A   1      42.927  26.062  35.383  1.00  0.00    -0.203 F 
ATOM     89  F   UNL A   1      48.046  27.926  35.055  1.00  0.00    -0.200 F 
ATOM     90  C   UNL A   1      46.508  26.320  35.851  1.00  0.00     0.200 A 
ATOM     91  F   UNL A   1      44.938  24.729  36.609  1.00  0.00    -0.200 F 
ATOM     92  F   UNL A   1      47.503  25.637  36.434  1.00  0.00    -0.200 F 
ENDBRANCH  59  82
ENDBRANCH  33  34
ENDBRANCH  25  28
ENDBRANCH  23  24
ENDBRANCH  22  23
ENDBRANCH   1  22
TORSDOF 15
ENDMDL
