MODEL 1
REMARK VINA RESULT:     -12.5      0.000      0.000
REMARK SMILES O=C(NCCCNC(=O)[C@@H]1C=C[C@H](NC(=O)C2CCOCC2)C1)c1ccc(-c2c3nc(c(-c4c(F)c(F)c(F)c(F)c4F)c4ccc([nH]4)c(-c4c(F)c(F)c(F)c(F)c4F)c4nc(c(-c5c(F)c(F)c(F)c(F)c5F)c5ccc2[nH]5)C=C4)C=C3)cc1
REMARK SMILES IDX 5 1 4 2 3 3 1 4 2 5 24 7 25 8 86 9 26 10 85 11 27 12 28 13
REMARK SMILES IDX 29 14 79 15 30 16 84 17 78 18 80 19 31 20 83 21 77 22 76 23
REMARK SMILES IDX 32 25 64 26 44 27 63 28 45 29 48 30 62 31 81 32 46 33 47 34
REMARK SMILES IDX 61 36 82 37 49 38 33 39 34 40 42 41 35 42 36 43 40 44 43 45
REMARK SMILES IDX 37 46 38 47 41 48 39 49 65 50 66 51 74 52 67 53 68 54 72 55
REMARK SMILES IDX 75 56 69 57 70 58 73 59 71 60 50 61 51 62 59 63 52 64 53 65
REMARK SMILES IDX 57 66 60 67 54 68 55 69 58 70 56 71 6 72 7 73 8 74 9 76
REMARK SMILES IDX 10 77 11 78 23 79 12 80 13 81 14 82 15 83 16 85 17 86 18 87
REMARK SMILES IDX 22 88 19 89 21 90 20 91
REMARK H PARENT 3 6 80 24 48 35 7 75 14 84
REMARK Flexibility Score: inf
ROOT
ATOM      1  C   UNL A   1      32.856  27.652  25.294  1.00  0.00     0.042 C 
ENDROOT
BRANCH   1   2
ATOM      2  C   UNL A   1      33.748  28.865  25.125  1.00  0.00     0.118 C 
BRANCH   2   3
ATOM      3  N   UNL A   1      33.089  30.079  25.594  1.00  0.00    -0.352 N 
ATOM      4  O   UNL A   1      32.465  31.667  27.064  1.00  0.00    -0.269 OA
ATOM      5  C   UNL A   1      33.305  30.829  26.726  1.00  0.00     0.251 C 
ATOM      6  H   UNL A   1      32.375  30.416  25.006  1.00  0.00     0.163 HD
BRANCH   5   7
ATOM      7  C   UNL A   1      34.530  30.654  27.537  1.00  0.00     0.039 A 
ATOM      8  C   UNL A   1      34.794  29.438  28.161  1.00  0.00     0.014 A 
ATOM      9  C   UNL A   1      35.464  31.692  27.630  1.00  0.00     0.014 A 
ATOM     10  C   UNL A   1      35.876  29.316  29.019  1.00  0.00     0.010 A 
ATOM     11  C   UNL A   1      36.637  31.517  28.378  1.00  0.00     0.010 A 
ATOM     12  C   UNL A   1      36.841  30.331  29.099  1.00  0.00    -0.014 A 
BRANCH  12  13
ATOM     13  C   UNL A   1      38.084  30.051  29.864  1.00  0.00     0.031 A 
ATOM     14  C   UNL A   1      38.282  30.553  31.264  1.00  0.00     0.074 A 
ATOM     15  C   UNL A   1      39.011  29.255  29.289  1.00  0.00     0.049 A 
ATOM     16  N   UNL A   1      39.276  30.320  32.087  1.00  0.00    -0.248 NA
ATOM     17  C   UNL A   1      37.243  31.434  31.816  1.00  0.00     0.031 C 
ATOM     18  C   UNL A   1      38.935  28.731  27.922  1.00  0.00     0.029 A 
ATOM     19  N   UNL A   1      40.169  28.714  29.782  1.00  0.00    -0.354 N 
ATOM     20  C   UNL A   1      38.986  31.027  33.245  1.00  0.00     0.074 A 
ATOM     21  C   UNL A   1      37.742  31.730  33.008  1.00  0.00     0.031 C 
ATOM     22  C   UNL A   1      39.953  27.888  27.712  1.00  0.00     0.029 A 
ATOM     23  C   UNL A   1      40.804  27.878  28.895  1.00  0.00     0.049 A 
ATOM     24  H   UNL A   1      40.514  28.905  30.685  1.00  0.00     0.167 HD
ATOM     25  C   UNL A   1      39.689  31.071  34.403  1.00  0.00     0.037 A 
ATOM     26  C   UNL A   1      41.955  27.192  29.008  1.00  0.00     0.037 A 
ATOM     27  C   UNL A   1      40.928  30.368  34.628  1.00  0.00     0.049 A 
ATOM     28  C   UNL A   1      42.721  27.283  30.295  1.00  0.00     0.074 A 
ATOM     29  C   UNL A   1      41.718  30.349  35.765  1.00  0.00     0.029 A 
ATOM     30  N   UNL A   1      41.559  29.559  33.692  1.00  0.00    -0.354 N 
ATOM     31  N   UNL A   1      42.422  27.937  31.391  1.00  0.00    -0.248 NA
ATOM     32  C   UNL A   1      43.986  26.541  30.362  1.00  0.00     0.031 C 
ATOM     33  C   UNL A   1      42.848  29.567  35.503  1.00  0.00     0.029 A 
ATOM     34  C   UNL A   1      42.736  29.050  34.223  1.00  0.00     0.049 A 
ATOM     35  H   UNL A   1      41.222  29.375  32.786  1.00  0.00     0.167 HD
ATOM     36  C   UNL A   1      43.453  27.679  32.281  1.00  0.00     0.074 A 
ATOM     37  C   UNL A   1      44.366  26.777  31.609  1.00  0.00     0.031 C 
ATOM     38  C   UNL A   1      43.634  28.155  33.537  1.00  0.00     0.037 A 
BRANCH  25  39
ATOM     39  C   UNL A   1      39.141  31.914  35.521  1.00  0.00     0.064 A 
ATOM     40  C   UNL A   1      38.315  31.369  36.516  1.00  0.00     0.173 A 
ATOM     41  C   UNL A   1      39.492  33.268  35.634  1.00  0.00     0.173 A 
ATOM     42  F   UNL A   1      37.942  30.081  36.454  1.00  0.00    -0.203 F 
ATOM     43  C   UNL A   1      37.845  32.151  37.569  1.00  0.00     0.198 A 
ATOM     44  C   UNL A   1      39.044  34.041  36.704  1.00  0.00     0.198 A 
ATOM     45  F   UNL A   1      40.284  33.840  34.716  1.00  0.00    -0.203 F 
ATOM     46  F   UNL A   1      37.029  31.616  38.486  1.00  0.00    -0.200 F 
ATOM     47  C   UNL A   1      38.218  33.483  37.667  1.00  0.00     0.200 A 
ATOM     48  F   UNL A   1      39.419  35.324  36.805  1.00  0.00    -0.200 F 
ATOM     49  F   UNL A   1      37.777  34.230  38.688  1.00  0.00    -0.200 F 
ENDBRANCH  25  39
BRANCH  26  50
ATOM     50  C   UNL A   1      42.460  26.393  27.860  1.00  0.00     0.064 A 
ATOM     51  C   UNL A   1      43.391  26.921  26.955  1.00  0.00     0.173 A 
ATOM     52  C   UNL A   1      42.014  25.080  27.642  1.00  0.00     0.173 A 
ATOM     53  F   UNL A   1      43.837  28.176  27.108  1.00  0.00    -0.203 F 
ATOM     54  C   UNL A   1      43.833  26.177  25.862  1.00  0.00     0.198 A 
ATOM     55  C   UNL A   1      42.487  24.324  26.573  1.00  0.00     0.198 A 
ATOM     56  F   UNL A   1      41.130  24.521  28.483  1.00  0.00    -0.203 F 
ATOM     57  F   UNL A   1      44.678  26.726  24.979  1.00  0.00    -0.200 F 
ATOM     58  C   UNL A   1      43.386  24.877  25.676  1.00  0.00     0.200 A 
ATOM     59  F   UNL A   1      42.070  23.061  26.413  1.00  0.00    -0.200 F 
ATOM     60  F   UNL A   1      43.816  24.161  24.628  1.00  0.00    -0.200 F 
ENDBRANCH  26  50
BRANCH  38  61
ATOM     61  C   UNL A   1      44.856  27.680  34.268  1.00  0.00     0.064 A 
ATOM     62  C   UNL A   1      46.071  28.379  34.206  1.00  0.00     0.173 A 
ATOM     63  C   UNL A   1      44.811  26.509  35.040  1.00  0.00     0.173 A 
ATOM     64  F   UNL A   1      46.170  29.495  33.466  1.00  0.00    -0.203 F 
ATOM     65  C   UNL A   1      47.205  27.902  34.856  1.00  0.00     0.198 A 
ATOM     66  C   UNL A   1      45.939  26.054  35.717  1.00  0.00     0.198 A 
ATOM     67  F   UNL A   1      43.673  25.805  35.137  1.00  0.00    -0.203 F 
ATOM     68  F   UNL A   1      48.371  28.550  34.725  1.00  0.00    -0.200 F 
ATOM     69  C   UNL A   1      47.137  26.744  35.615  1.00  0.00     0.200 A 
ATOM     70  F   UNL A   1      45.868  24.942  36.461  1.00  0.00    -0.200 F 
ATOM     71  F   UNL A   1      48.231  26.284  36.238  1.00  0.00    -0.200 F 
ENDBRANCH  38  61
ENDBRANCH  12  13
ENDBRANCH   5   7
ENDBRANCH   2   3
ENDBRANCH   1   2
BRANCH   1  72
ATOM     72  C   UNL A   1      33.632  26.353  25.469  1.00  0.00     0.117 C 
BRANCH  72  73
ATOM     73  N   UNL A   1      33.849  25.695  24.195  1.00  0.00    -0.356 N 
ATOM     74  C   UNL A   1      34.290  24.450  23.875  1.00  0.00     0.227 C 
ATOM     75  H   UNL A   1      33.635  26.255  23.414  1.00  0.00     0.163 HD
ATOM     76  O   UNL A   1      34.356  24.190  22.668  1.00  0.00    -0.274 OA
BRANCH  74  77
ATOM     77  C   UNL A   1      34.708  23.385  24.902  1.00  0.00     0.103 C 
ATOM     78  C   UNL A   1      35.709  22.385  24.419  1.00  0.00    -0.016 C 
ATOM     79  C   UNL A   1      33.577  22.530  25.494  1.00  0.00     0.047 C 
ATOM     80  C   UNL A   1      35.300  21.128  24.625  1.00  0.00    -0.006 C 
ATOM     81  C   UNL A   1      33.945  21.051  25.250  1.00  0.00     0.106 C 
BRANCH  81  82
ATOM     82  N   UNL A   1      33.046  20.447  24.292  1.00  0.00    -0.350 N 
ATOM     83  C   UNL A   1      32.828  19.159  23.932  1.00  0.00     0.223 C 
ATOM     84  H   UNL A   1      32.486  21.095  23.808  1.00  0.00     0.164 HD
ATOM     85  O   UNL A   1      32.154  18.954  22.923  1.00  0.00    -0.275 OA
BRANCH  83  86
ATOM     86  C   UNL A   1      33.330  18.048  24.825  1.00  0.00     0.083 C 
ATOM     87  C   UNL A   1      34.556  17.362  24.215  1.00  0.00     0.042 C 
ATOM     88  C   UNL A   1      32.196  17.032  24.990  1.00  0.00     0.042 C 
ATOM     89  C   UNL A   1      34.918  16.118  25.011  1.00  0.00     0.161 C 
ATOM     90  C   UNL A   1      32.681  15.803  25.738  1.00  0.00     0.161 C 
ATOM     91  O   UNL A   1      33.808  15.225  25.083  1.00  0.00    -0.381 OA
ENDBRANCH  83  86
ENDBRANCH  81  82
ENDBRANCH  74  77
ENDBRANCH  72  73
ENDBRANCH   1  72
TORSDOF 12
ENDMDL
MODEL 2
REMARK VINA RESULT:     -12.3      4.207      9.601
REMARK SMILES O=C(NCCCNC(=O)[C@@H]1C=C[C@H](NC(=O)C2CCOCC2)C1)c1ccc(-c2c3nc(c(-c4c(F)c(F)c(F)c(F)c4F)c4ccc([nH]4)c(-c4c(F)c(F)c(F)c(F)c4F)c4nc(c(-c5c(F)c(F)c(F)c(F)c5F)c5ccc2[nH]5)C=C4)C=C3)cc1
REMARK SMILES IDX 5 1 4 2 3 3 1 4 2 5 24 7 25 8 86 9 26 10 85 11 27 12 28 13
REMARK SMILES IDX 29 14 79 15 30 16 84 17 78 18 80 19 31 20 83 21 77 22 76 23
REMARK SMILES IDX 32 25 64 26 44 27 63 28 45 29 48 30 62 31 81 32 46 33 47 34
REMARK SMILES IDX 61 36 82 37 49 38 33 39 34 40 42 41 35 42 36 43 40 44 43 45
REMARK SMILES IDX 37 46 38 47 41 48 39 49 65 50 66 51 74 52 67 53 68 54 72 55
REMARK SMILES IDX 75 56 69 57 70 58 73 59 71 60 50 61 51 62 59 63 52 64 53 65
REMARK SMILES IDX 57 66 60 67 54 68 55 69 58 70 56 71 6 72 7 73 8 74 9 76
REMARK SMILES IDX 10 77 11 78 23 79 12 80 13 81 14 82 15 83 16 85 17 86 18 87
REMARK SMILES IDX 22 88 19 89 21 90 20 91
REMARK H PARENT 3 6 80 24 48 35 7 75 14 84
REMARK Flexibility Score: inf
ROOT
ATOM      1  C   UNL A   1      32.908  35.866  28.724  1.00  0.00     0.042 C 
ENDROOT
BRANCH   1   2
ATOM      2  C   UNL A   1      33.461  36.710  29.854  1.00  0.00     0.118 C 
BRANCH   2   3
ATOM      3  N   UNL A   1      32.567  36.706  31.007  1.00  0.00    -0.352 N 
ATOM      4  O   UNL A   1      31.567  35.898  32.855  1.00  0.00    -0.269 OA
ATOM      5  C   UNL A   1      32.563  35.911  32.128  1.00  0.00     0.251 C 
ATOM      6  H   UNL A   1      31.851  37.381  30.978  1.00  0.00     0.163 HD
BRANCH   5   7
ATOM      7  C   UNL A   1      33.735  35.080  32.480  1.00  0.00     0.039 A 
ATOM      8  C   UNL A   1      35.013  35.633  32.495  1.00  0.00     0.014 A 
ATOM      9  C   UNL A   1      33.561  33.745  32.864  1.00  0.00     0.014 A 
ATOM     10  C   UNL A   1      36.120  34.826  32.703  1.00  0.00     0.010 A 
ATOM     11  C   UNL A   1      34.670  32.966  33.222  1.00  0.00     0.010 A 
ATOM     12  C   UNL A   1      35.964  33.496  33.121  1.00  0.00    -0.014 A 
BRANCH  12  13
ATOM     13  C   UNL A   1      37.180  32.751  33.540  1.00  0.00     0.031 A 
ATOM     14  C   UNL A   1      37.859  31.770  32.629  1.00  0.00     0.074 A 
ATOM     15  C   UNL A   1      37.713  33.041  34.746  1.00  0.00     0.049 A 
ATOM     16  N   UNL A   1      38.973  31.107  32.822  1.00  0.00    -0.248 NA
ATOM     17  C   UNL A   1      37.209  31.486  31.341  1.00  0.00     0.031 C 
ATOM     18  C   UNL A   1      37.122  33.960  35.724  1.00  0.00     0.029 A 
ATOM     19  N   UNL A   1      38.879  32.636  35.340  1.00  0.00    -0.354 N 
ATOM     20  C   UNL A   1      39.154  30.326  31.688  1.00  0.00     0.074 A 
ATOM     21  C   UNL A   1      38.015  30.567  30.827  1.00  0.00     0.031 C 
ATOM     22  C   UNL A   1      37.961  34.107  36.757  1.00  0.00     0.029 A 
ATOM     23  C   UNL A   1      39.106  33.227  36.560  1.00  0.00     0.049 A 
ATOM     24  H   UNL A   1      39.495  31.984  34.934  1.00  0.00     0.167 HD
ATOM     25  C   UNL A   1      40.184  29.497  31.392  1.00  0.00     0.037 A 
ATOM     26  C   UNL A   1      40.113  33.069  37.436  1.00  0.00     0.037 A 
ATOM     27  C   UNL A   1      41.313  29.263  32.259  1.00  0.00     0.049 A 
ATOM     28  C   UNL A   1      41.225  32.124  37.088  1.00  0.00     0.074 A 
ATOM     29  C   UNL A   1      42.407  28.441  32.051  1.00  0.00     0.029 A 
ATOM     30  N   UNL A   1      41.490  29.854  33.503  1.00  0.00    -0.354 N 
ATOM     31  N   UNL A   1      41.394  31.410  36.001  1.00  0.00    -0.248 NA
ATOM     32  C   UNL A   1      42.288  31.960  38.088  1.00  0.00     0.031 C 
ATOM     33  C   UNL A   1      43.223  28.498  33.186  1.00  0.00     0.029 A 
ATOM     34  C   UNL A   1      42.669  29.401  34.079  1.00  0.00     0.049 A 
ATOM     35  H   UNL A   1      40.871  30.498  33.916  1.00  0.00     0.167 HD
ATOM     36  C   UNL A   1      42.584  30.721  36.180  1.00  0.00     0.074 A 
ATOM     37  C   UNL A   1      43.114  31.134  37.464  1.00  0.00     0.031 C 
ATOM     38  C   UNL A   1      43.179  29.820  35.360  1.00  0.00     0.037 A 
BRANCH  25  39
ATOM     39  C   UNL A   1      40.140  28.770  30.077  1.00  0.00     0.064 A 
ATOM     40  C   UNL A   1      40.763  29.288  28.931  1.00  0.00     0.173 A 
ATOM     41  C   UNL A   1      39.519  27.516  29.973  1.00  0.00     0.173 A 
ATOM     42  F   UNL A   1      41.364  30.487  28.971  1.00  0.00    -0.203 F 
ATOM     43  C   UNL A   1      40.749  28.587  27.726  1.00  0.00     0.198 A 
ATOM     44  C   UNL A   1      39.532  26.804  28.775  1.00  0.00     0.198 A 
ATOM     45  F   UNL A   1      38.915  26.970  31.038  1.00  0.00    -0.203 F 
ATOM     46  F   UNL A   1      41.319  29.119  26.637  1.00  0.00    -0.200 F 
ATOM     47  C   UNL A   1      40.142  27.342  27.652  1.00  0.00     0.200 A 
ATOM     48  F   UNL A   1      38.959  25.594  28.710  1.00  0.00    -0.200 F 
ATOM     49  F   UNL A   1      40.141  26.663  26.497  1.00  0.00    -0.200 F 
ENDBRANCH  25  39
BRANCH  26  50
ATOM     50  C   UNL A   1      40.092  33.796  38.734  1.00  0.00     0.064 A 
ATOM     51  C   UNL A   1      39.355  33.321  39.826  1.00  0.00     0.173 A 
ATOM     52  C   UNL A   1      40.808  34.992  38.903  1.00  0.00     0.173 A 
ATOM     53  F   UNL A   1      38.640  32.192  39.713  1.00  0.00    -0.203 F 
ATOM     54  C   UNL A   1      39.313  34.027  41.028  1.00  0.00     0.198 A 
ATOM     55  C   UNL A   1      40.798  35.675  40.115  1.00  0.00     0.198 A 
ATOM     56  F   UNL A   1      41.538  35.488  37.891  1.00  0.00    -0.203 F 
ATOM     57  F   UNL A   1      38.554  33.581  42.038  1.00  0.00    -0.200 F 
ATOM     58  C   UNL A   1      40.040  35.199  41.173  1.00  0.00     0.200 A 
ATOM     59  F   UNL A   1      41.521  36.794  40.257  1.00  0.00    -0.200 F 
ATOM     60  F   UNL A   1      40.002  35.875  42.329  1.00  0.00    -0.200 F 
ENDBRANCH  26  50
BRANCH  38  61
ATOM     61  C   UNL A   1      44.485  29.246  35.826  1.00  0.00     0.064 A 
ATOM     62  C   UNL A   1      44.542  28.082  36.607  1.00  0.00     0.173 A 
ATOM     63  C   UNL A   1      45.696  29.869  35.486  1.00  0.00     0.173 A 
ATOM     64  F   UNL A   1      43.411  27.460  36.975  1.00  0.00    -0.203 F 
ATOM     65  C   UNL A   1      45.760  27.587  37.066  1.00  0.00     0.198 A 
ATOM     66  C   UNL A   1      46.913  29.350  35.917  1.00  0.00     0.198 A 
ATOM     67  F   UNL A   1      45.698  30.982  34.736  1.00  0.00    -0.203 F 
ATOM     68  F   UNL A   1      45.784  26.514  37.868  1.00  0.00    -0.200 F 
ATOM     69  C   UNL A   1      46.943  28.217  36.715  1.00  0.00     0.200 A 
ATOM     70  F   UNL A   1      48.058  29.953  35.566  1.00  0.00    -0.200 F 
ATOM     71  F   UNL A   1      48.115  27.741  37.159  1.00  0.00    -0.200 F 
ENDBRANCH  38  61
ENDBRANCH  12  13
ENDBRANCH   5   7
ENDBRANCH   2   3
ENDBRANCH   1   2
BRANCH   1  72
ATOM     72  C   UNL A   1      33.185  34.377  28.892  1.00  0.00     0.117 C 
BRANCH  72  73
ATOM     73  N   UNL A   1      34.443  34.005  28.272  1.00  0.00    -0.356 N 
ATOM     74  C   UNL A   1      34.992  32.797  27.979  1.00  0.00     0.227 C 
ATOM     75  H   UNL A   1      35.004  34.771  28.016  1.00  0.00     0.163 HD
ATOM     76  O   UNL A   1      36.101  32.823  27.432  1.00  0.00    -0.274 OA
BRANCH  74  77
ATOM     77  C   UNL A   1      34.334  31.443  28.292  1.00  0.00     0.103 C 
ATOM     78  C   UNL A   1      35.246  30.260  28.245  1.00  0.00    -0.016 C 
ATOM     79  C   UNL A   1      33.149  31.041  27.400  1.00  0.00     0.047 C 
ATOM     80  C   UNL A   1      34.768  29.290  27.456  1.00  0.00    -0.006 C 
ATOM     81  C   UNL A   1      33.473  29.655  26.805  1.00  0.00     0.106 C 
BRANCH  81  82
ATOM     82  N   UNL A   1      33.700  29.744  25.380  1.00  0.00    -0.350 N 
ATOM     83  C   UNL A   1      33.048  29.215  24.317  1.00  0.00     0.223 C 
ATOM     84  H   UNL A   1      34.478  30.295  25.135  1.00  0.00     0.164 HD
ATOM     85  O   UNL A   1      33.600  29.279  23.219  1.00  0.00    -0.275 OA
BRANCH  83  86
ATOM     86  C   UNL A   1      31.652  28.666  24.506  1.00  0.00     0.083 C 
ATOM     87  C   UNL A   1      31.685  27.159  24.778  1.00  0.00     0.042 C 
ATOM     88  C   UNL A   1      30.863  28.946  23.223  1.00  0.00     0.042 C 
ATOM     89  C   UNL A   1      30.276  26.586  24.752  1.00  0.00     0.161 C 
ATOM     90  C   UNL A   1      29.503  28.274  23.274  1.00  0.00     0.161 C 
ATOM     91  O   UNL A   1      29.638  26.874  23.509  1.00  0.00    -0.381 OA
ENDBRANCH  83  86
ENDBRANCH  81  82
ENDBRANCH  74  77
ENDBRANCH  72  73
ENDBRANCH   1  72
TORSDOF 12
ENDMDL
MODEL 3
REMARK VINA RESULT:     -12.3      2.041      3.613
REMARK SMILES O=C(NCCCNC(=O)[C@@H]1C=C[C@H](NC(=O)C2CCOCC2)C1)c1ccc(-c2c3nc(c(-c4c(F)c(F)c(F)c(F)c4F)c4ccc([nH]4)c(-c4c(F)c(F)c(F)c(F)c4F)c4nc(c(-c5c(F)c(F)c(F)c(F)c5F)c5ccc2[nH]5)C=C4)C=C3)cc1
REMARK SMILES IDX 5 1 4 2 3 3 1 4 2 5 24 7 25 8 86 9 26 10 85 11 27 12 28 13
REMARK SMILES IDX 29 14 79 15 30 16 84 17 78 18 80 19 31 20 83 21 77 22 76 23
REMARK SMILES IDX 32 25 64 26 44 27 63 28 45 29 48 30 62 31 81 32 46 33 47 34
REMARK SMILES IDX 61 36 82 37 49 38 33 39 34 40 42 41 35 42 36 43 40 44 43 45
REMARK SMILES IDX 37 46 38 47 41 48 39 49 65 50 66 51 74 52 67 53 68 54 72 55
REMARK SMILES IDX 75 56 69 57 70 58 73 59 71 60 50 61 51 62 59 63 52 64 53 65
REMARK SMILES IDX 57 66 60 67 54 68 55 69 58 70 56 71 6 72 7 73 8 74 9 76
REMARK SMILES IDX 10 77 11 78 23 79 12 80 13 81 14 82 15 83 16 85 17 86 18 87
REMARK SMILES IDX 22 88 19 89 21 90 20 91
REMARK H PARENT 3 6 80 24 48 35 7 75 14 84
REMARK Flexibility Score: inf
ROOT
ATOM      1  C   UNL A   1      31.398  32.287  26.524  1.00  0.00     0.042 C 
ENDROOT
BRANCH   1   2
ATOM      2  C   UNL A   1      32.680  32.845  27.108  1.00  0.00     0.118 C 
BRANCH   2   3
ATOM      3  N   UNL A   1      32.477  34.182  27.655  1.00  0.00    -0.352 N 
ATOM      4  O   UNL A   1      32.560  35.835  29.181  1.00  0.00    -0.269 OA
ATOM      5  C   UNL A   1      33.063  34.803  28.732  1.00  0.00     0.251 C 
ATOM      6  H   UNL A   1      31.812  34.728  27.176  1.00  0.00     0.163 HD
BRANCH   5   7
ATOM      7  C   UNL A   1      34.290  34.257  29.354  1.00  0.00     0.039 A 
ATOM      8  C   UNL A   1      34.203  33.350  30.406  1.00  0.00     0.014 A 
ATOM      9  C   UNL A   1      35.547  34.602  28.846  1.00  0.00     0.014 A 
ATOM     10  C   UNL A   1      35.350  32.937  31.066  1.00  0.00     0.010 A 
ATOM     11  C   UNL A   1      36.708  34.065  29.419  1.00  0.00     0.010 A 
ATOM     12  C   UNL A   1      36.618  33.244  30.552  1.00  0.00    -0.014 A 
BRANCH  12  13
ATOM     13  C   UNL A   1      37.799  32.591  31.177  1.00  0.00     0.031 A 
ATOM     14  C   UNL A   1      38.250  32.936  32.565  1.00  0.00     0.074 A 
ATOM     15  C   UNL A   1      38.416  31.610  30.484  1.00  0.00     0.049 A 
ATOM     16  N   UNL A   1      39.210  32.393  33.275  1.00  0.00    -0.248 NA
ATOM     17  C   UNL A   1      37.547  34.031  33.250  1.00  0.00     0.031 C 
ATOM     18  C   UNL A   1      38.077  31.209  29.115  1.00  0.00     0.029 A 
ATOM     19  N   UNL A   1      39.419  30.746  30.839  1.00  0.00    -0.354 N 
ATOM     20  C   UNL A   1      39.230  33.081  34.480  1.00  0.00     0.074 A 
ATOM     21  C   UNL A   1      38.213  34.108  34.394  1.00  0.00     0.031 C 
ATOM     22  C   UNL A   1      38.801  30.136  28.775  1.00  0.00     0.029 A 
ATOM     23  C   UNL A   1      39.717  29.824  29.864  1.00  0.00     0.049 A 
ATOM     24  H   UNL A   1      39.881  30.782  31.708  1.00  0.00     0.167 HD
ATOM     25  C   UNL A   1      40.017  32.863  35.561  1.00  0.00     0.037 A 
ATOM     26  C   UNL A   1      40.640  28.847  29.837  1.00  0.00     0.037 A 
ATOM     27  C   UNL A   1      41.029  31.839  35.636  1.00  0.00     0.049 A 
ATOM     28  C   UNL A   1      41.512  28.649  31.042  1.00  0.00     0.074 A 
ATOM     29  C   UNL A   1      41.881  31.538  36.685  1.00  0.00     0.029 A 
ATOM     30  N   UNL A   1      41.328  30.946  34.614  1.00  0.00    -0.354 N 
ATOM     31  N   UNL A   1      41.503  29.293  32.184  1.00  0.00    -0.248 NA
ATOM     32  C   UNL A   1      42.524  27.589  30.955  1.00  0.00     0.031 C 
ATOM     33  C   UNL A   1      42.724  30.496  36.284  1.00  0.00     0.029 A 
ATOM     34  C   UNL A   1      42.360  30.106  35.005  1.00  0.00     0.049 A 
ATOM     35  H   UNL A   1      40.874  30.915  33.741  1.00  0.00     0.167 HD
ATOM     36  C   UNL A   1      42.497  28.712  32.955  1.00  0.00     0.074 A 
ATOM     37  C   UNL A   1      43.063  27.637  32.165  1.00  0.00     0.031 C 
ATOM     38  C   UNL A   1      42.913  29.044  34.202  1.00  0.00     0.037 A 
BRANCH  25  39
ATOM     39  C   UNL A   1      39.824  33.755  36.757  1.00  0.00     0.064 A 
ATOM     40  C   UNL A   1      40.438  35.014  36.841  1.00  0.00     0.173 A 
ATOM     41  C   UNL A   1      38.972  33.372  37.804  1.00  0.00     0.173 A 
ATOM     42  F   UNL A   1      41.269  35.427  35.872  1.00  0.00    -0.203 F 
ATOM     43  C   UNL A   1      40.221  35.848  37.936  1.00  0.00     0.198 A 
ATOM     44  C   UNL A   1      38.734  34.220  38.884  1.00  0.00     0.198 A 
ATOM     45  F   UNL A   1      38.353  32.183  37.772  1.00  0.00    -0.203 F 
ATOM     46  F   UNL A   1      40.846  37.030  38.011  1.00  0.00    -0.200 F 
ATOM     47  C   UNL A   1      39.361  35.454  38.952  1.00  0.00     0.200 A 
ATOM     48  F   UNL A   1      37.890  33.844  39.856  1.00  0.00    -0.200 F 
ATOM     49  F   UNL A   1      39.143  36.263  39.997  1.00  0.00    -0.200 F 
ENDBRANCH  25  39
BRANCH  26  50
ATOM     50  C   UNL A   1      40.802  28.010  28.617  1.00  0.00     0.064 A 
ATOM     51  C   UNL A   1      40.145  26.780  28.483  1.00  0.00     0.173 A 
ATOM     52  C   UNL A   1      41.627  28.426  27.561  1.00  0.00     0.173 A 
ATOM     53  F   UNL A   1      39.357  26.329  29.471  1.00  0.00    -0.203 F 
ATOM     54  C   UNL A   1      40.329  25.986  27.352  1.00  0.00     0.198 A 
ATOM     55  C   UNL A   1      41.779  27.651  26.415  1.00  0.00     0.198 A 
ATOM     56  F   UNL A   1      42.273  29.600  27.633  1.00  0.00    -0.203 F 
ATOM     57  F   UNL A   1      39.735  24.787  27.274  1.00  0.00    -0.200 F 
ATOM     58  C   UNL A   1      41.140  26.425  26.316  1.00  0.00     0.200 A 
ATOM     59  F   UNL A   1      42.544  28.092  25.407  1.00  0.00    -0.200 F 
ATOM     60  F   UNL A   1      41.313  25.663  25.228  1.00  0.00    -0.200 F 
ENDBRANCH  26  50
BRANCH  38  61
ATOM     61  C   UNL A   1      44.016  28.212  34.789  1.00  0.00     0.064 A 
ATOM     62  C   UNL A   1      45.366  28.567  34.641  1.00  0.00     0.173 A 
ATOM     63  C   UNL A   1      43.719  27.044  35.508  1.00  0.00     0.173 A 
ATOM     64  F   UNL A   1      45.702  29.665  33.945  1.00  0.00    -0.203 F 
ATOM     65  C   UNL A   1      46.378  27.762  35.155  1.00  0.00     0.198 A 
ATOM     66  C   UNL A   1      44.733  26.261  36.051  1.00  0.00     0.198 A 
ATOM     67  F   UNL A   1      42.445  26.663  35.683  1.00  0.00    -0.203 F 
ATOM     68  F   UNL A   1      47.661  28.085  34.941  1.00  0.00    -0.200 F 
ATOM     69  C   UNL A   1      46.061  26.614  35.864  1.00  0.00     0.200 A 
ATOM     70  F   UNL A   1      44.425  25.159  36.748  1.00  0.00    -0.200 F 
ATOM     71  F   UNL A   1      47.036  25.838  36.357  1.00  0.00    -0.200 F 
ENDBRANCH  38  61
ENDBRANCH  12  13
ENDBRANCH   5   7
ENDBRANCH   2   3
ENDBRANCH   1   2
BRANCH   1  72
ATOM     72  C   UNL A   1      31.374  30.764  26.470  1.00  0.00     0.117 C 
BRANCH  72  73
ATOM     73  N   UNL A   1      31.913  30.274  25.216  1.00  0.00    -0.356 N 
ATOM     74  C   UNL A   1      32.322  29.041  24.819  1.00  0.00     0.227 C 
ATOM     75  H   UNL A   1      31.999  30.965  24.521  1.00  0.00     0.163 HD
ATOM     76  O   UNL A   1      32.732  28.952  23.656  1.00  0.00    -0.274 OA
BRANCH  74  77
ATOM     77  C   UNL A   1      32.311  27.791  25.714  1.00  0.00     0.103 C 
ATOM     78  C   UNL A   1      33.655  27.239  26.063  1.00  0.00    -0.016 C 
ATOM     79  C   UNL A   1      31.534  26.578  25.180  1.00  0.00     0.047 C 
ATOM     80  C   UNL A   1      33.749  25.934  25.784  1.00  0.00    -0.006 C 
ATOM     81  C   UNL A   1      32.504  25.380  25.169  1.00  0.00     0.106 C 
BRANCH  81  82
ATOM     82  N   UNL A   1      32.817  24.979  23.815  1.00  0.00    -0.350 N 
ATOM     83  C   UNL A   1      33.285  23.821  23.291  1.00  0.00     0.223 C 
ATOM     84  H   UNL A   1      32.659  25.684  23.146  1.00  0.00     0.164 HD
ATOM     85  O   UNL A   1      33.669  23.838  22.121  1.00  0.00    -0.275 OA
BRANCH  83  86
ATOM     86  C   UNL A   1      33.226  22.558  24.119  1.00  0.00     0.083 C 
ATOM     87  C   UNL A   1      34.629  22.002  24.376  1.00  0.00     0.042 C 
ATOM     88  C   UNL A   1      32.393  21.532  23.346  1.00  0.00     0.042 C 
ATOM     89  C   UNL A   1      34.543  20.627  25.022  1.00  0.00     0.161 C 
ATOM     90  C   UNL A   1      32.430  20.181  24.039  1.00  0.00     0.161 C 
ATOM     91  O   UNL A   1      33.774  19.739  24.214  1.00  0.00    -0.381 OA
ENDBRANCH  83  86
ENDBRANCH  81  82
ENDBRANCH  74  77
ENDBRANCH  72  73
ENDBRANCH   1  72
TORSDOF 12
ENDMDL
