MODEL 1
REMARK VINA RESULT:     -13.0      0.000      0.000
REMARK SMILES O=C(NCCCNC(=O)c1cc2sc(Cl)cc2s1)c1ccc(-c2c3nc(c(-c4c(F)c(F)c(F)c(F)c4F)c4ccc([nH]4)c(-c4c(F)c(F)c(F)c(F)c4F)c4nc(c(-c5c(F)c(F)c(F)c(F)c5F)c5ccc2[nH]5)C=C4)C=C3)cc1
REMARK SMILES IDX 4 1 3 2 1 3 2 4 19 6 20 7 81 8 21 9 80 10 22 11 23 12 24 13
REMARK SMILES IDX 74 14 25 15 79 16 73 17 75 18 26 19 78 20 72 21 71 22 27 24
REMARK SMILES IDX 59 25 39 26 58 27 40 28 43 29 57 30 76 31 41 32 42 33 56 35
REMARK SMILES IDX 77 36 44 37 28 38 29 39 37 40 30 41 31 42 35 43 38 44 32 45
REMARK SMILES IDX 33 46 36 47 34 48 60 49 61 50 69 51 62 52 63 53 67 54 70 55
REMARK SMILES IDX 64 56 65 57 68 58 66 59 45 60 46 61 54 62 47 63 48 64 52 65
REMARK SMILES IDX 55 66 49 67 50 68 53 69 51 70 5 71 6 72 7 73 8 74 9 76 10 77
REMARK SMILES IDX 11 78 18 79 12 80 17 81 13 82 16 83 14 84 15 85
REMARK H PARENT 3 5 75 23 43 34 7 75
REMARK Flexibility Score: inf
ROOT
ATOM      1  C   UNL A   1      33.055  30.259  27.149  1.00  0.00     0.118 C 
ENDROOT
BRANCH   1   2
ATOM      2  N   UNL A   1      33.624  31.495  27.648  1.00  0.00    -0.352 N 
ATOM      3  O   UNL A   1      34.963  33.156  28.179  1.00  0.00    -0.269 OA
ATOM      4  C   UNL A   1      34.872  31.939  27.987  1.00  0.00     0.251 C 
ATOM      5  H   UNL A   1      32.940  32.191  27.775  1.00  0.00     0.163 HD
BRANCH   4   6
ATOM      6  C   UNL A   1      36.083  31.099  28.207  1.00  0.00     0.039 A 
ATOM      7  C   UNL A   1      36.196  29.728  27.979  1.00  0.00     0.014 A 
ATOM      8  C   UNL A   1      37.206  31.781  28.726  1.00  0.00     0.014 A 
ATOM      9  C   UNL A   1      37.374  29.055  28.326  1.00  0.00     0.010 A 
ATOM     10  C   UNL A   1      38.378  31.115  29.077  1.00  0.00     0.010 A 
ATOM     11  C   UNL A   1      38.456  29.740  28.904  1.00  0.00    -0.014 A 
BRANCH  11  12
ATOM     12  C   UNL A   1      39.718  29.025  29.114  1.00  0.00     0.031 A 
ATOM     13  C   UNL A   1      40.054  28.819  30.550  1.00  0.00     0.074 A 
ATOM     14  C   UNL A   1      40.489  28.462  28.157  1.00  0.00     0.049 A 
ATOM     15  N   UNL A   1      41.027  29.351  31.213  1.00  0.00    -0.248 NA
ATOM     16  C   UNL A   1      39.136  28.020  31.377  1.00  0.00     0.031 C 
ATOM     17  C   UNL A   1      40.186  28.285  26.737  1.00  0.00     0.029 A 
ATOM     18  N   UNL A   1      41.712  27.852  28.284  1.00  0.00    -0.354 N 
ATOM     19  C   UNL A   1      40.954  28.828  32.501  1.00  0.00     0.074 A 
ATOM     20  C   UNL A   1      39.698  28.129  32.583  1.00  0.00     0.031 C 
ATOM     21  C   UNL A   1      41.095  27.445  26.183  1.00  0.00     0.029 A 
ATOM     22  C   UNL A   1      42.121  27.133  27.164  1.00  0.00     0.049 A 
ATOM     23  H   UNL A   1      42.256  27.919  29.102  1.00  0.00     0.167 HD
ATOM     24  C   UNL A   1      42.039  28.839  33.324  1.00  0.00     0.037 A 
ATOM     25  C   UNL A   1      43.207  26.319  27.060  1.00  0.00     0.037 A 
ATOM     26  C   UNL A   1      43.039  29.763  32.851  1.00  0.00     0.049 A 
ATOM     27  C   UNL A   1      44.152  26.690  28.138  1.00  0.00     0.074 A 
ATOM     28  C   UNL A   1      43.087  31.125  32.627  1.00  0.00     0.029 A 
ATOM     29  N   UNL A   1      44.120  29.240  32.190  1.00  0.00    -0.354 N 
ATOM     30  N   UNL A   1      44.833  27.798  28.165  1.00  0.00    -0.248 NA
ATOM     31  C   UNL A   1      44.045  25.989  29.407  1.00  0.00     0.031 C 
ATOM     32  C   UNL A   1      43.898  31.280  31.463  1.00  0.00     0.029 A 
ATOM     33  C   UNL A   1      44.350  30.015  31.088  1.00  0.00     0.049 A 
ATOM     34  H   UNL A   1      44.639  28.448  32.462  1.00  0.00     0.167 HD
ATOM     35  C   UNL A   1      44.825  28.171  29.497  1.00  0.00     0.074 A 
ATOM     36  C   UNL A   1      44.431  26.969  30.227  1.00  0.00     0.031 C 
ATOM     37  C   UNL A   1      44.861  29.489  29.846  1.00  0.00     0.037 A 
BRANCH  24  38
ATOM     38  C   UNL A   1      42.382  27.752  34.317  1.00  0.00     0.064 A 
ATOM     39  C   UNL A   1      42.986  26.565  33.850  1.00  0.00     0.173 A 
ATOM     40  C   UNL A   1      41.849  27.687  35.622  1.00  0.00     0.173 A 
ATOM     41  F   UNL A   1      43.515  26.506  32.618  1.00  0.00    -0.203 F 
ATOM     42  C   UNL A   1      42.964  25.381  34.591  1.00  0.00     0.198 A 
ATOM     43  C   UNL A   1      41.876  26.517  36.380  1.00  0.00     0.198 A 
ATOM     44  F   UNL A   1      41.178  28.706  36.170  1.00  0.00    -0.203 F 
ATOM     45  F   UNL A   1      43.420  24.246  34.047  1.00  0.00    -0.200 F 
ATOM     46  C   UNL A   1      42.399  25.356  35.853  1.00  0.00     0.200 A 
ATOM     47  F   UNL A   1      41.305  26.507  37.594  1.00  0.00    -0.200 F 
ATOM     48  F   UNL A   1      42.312  24.207  36.537  1.00  0.00    -0.200 F 
ENDBRANCH  24  38
BRANCH  25  49
ATOM     49  C   UNL A   1      43.409  25.076  26.272  1.00  0.00     0.064 A 
ATOM     50  C   UNL A   1      44.424  24.983  25.300  1.00  0.00     0.173 A 
ATOM     51  C   UNL A   1      42.830  23.862  26.682  1.00  0.00     0.173 A 
ATOM     52  F   UNL A   1      45.064  26.085  24.882  1.00  0.00    -0.203 F 
ATOM     53  C   UNL A   1      44.859  23.749  24.801  1.00  0.00     0.198 A 
ATOM     54  C   UNL A   1      43.261  22.631  26.180  1.00  0.00     0.198 A 
ATOM     55  F   UNL A   1      41.907  23.839  27.654  1.00  0.00    -0.203 F 
ATOM     56  F   UNL A   1      45.879  23.699  23.933  1.00  0.00    -0.200 F 
ATOM     57  C   UNL A   1      44.286  22.574  25.254  1.00  0.00     0.200 A 
ATOM     58  F   UNL A   1      42.727  21.497  26.655  1.00  0.00    -0.200 F 
ATOM     59  F   UNL A   1      44.749  21.388  24.834  1.00  0.00    -0.200 F 
ENDBRANCH  25  49
BRANCH  37  60
ATOM     60  C   UNL A   1      45.259  30.482  28.792  1.00  0.00     0.064 A 
ATOM     61  C   UNL A   1      44.383  31.049  27.850  1.00  0.00     0.173 A 
ATOM     62  C   UNL A   1      46.578  30.959  28.813  1.00  0.00     0.173 A 
ATOM     63  F   UNL A   1      43.082  30.726  27.829  1.00  0.00    -0.203 F 
ATOM     64  C   UNL A   1      44.826  32.007  26.939  1.00  0.00     0.198 A 
ATOM     65  C   UNL A   1      47.005  31.947  27.932  1.00  0.00     0.198 A 
ATOM     66  F   UNL A   1      47.447  30.492  29.723  1.00  0.00    -0.203 F 
ATOM     67  F   UNL A   1      43.978  32.516  26.033  1.00  0.00    -0.200 F 
ATOM     68  C   UNL A   1      46.135  32.459  26.986  1.00  0.00     0.200 A 
ATOM     69  F   UNL A   1      48.258  32.416  28.016  1.00  0.00    -0.200 F 
ATOM     70  F   UNL A   1      46.550  33.408  26.135  1.00  0.00    -0.200 F 
ENDBRANCH  37  60
ENDBRANCH  11  12
ENDBRANCH   4   6
ENDBRANCH   1   2
BRANCH   1  71
ATOM     71  C   UNL A   1      32.092  30.420  25.974  1.00  0.00     0.042 C 
BRANCH  71  72
ATOM     72  C   UNL A   1      32.255  29.392  24.851  1.00  0.00     0.118 C 
BRANCH  72  73
ATOM     73  N   UNL A   1      31.329  29.587  23.746  1.00  0.00    -0.351 N 
ATOM     74  C   UNL A   1      30.838  28.696  22.817  1.00  0.00     0.261 C 
ATOM     75  H   UNL A   1      30.998  30.509  23.646  1.00  0.00     0.163 HD
ATOM     76  O   UNL A   1      30.141  29.155  21.914  1.00  0.00    -0.268 OA
BRANCH  74  77
ATOM     77  C   UNL A   1      31.167  27.287  22.941  1.00  0.00     0.094 A 
ATOM     78  C   UNL A   1      32.282  26.615  22.482  1.00  0.00     0.045 A 
ATOM     79  S   UNL A   1      30.098  26.285  23.837  1.00  0.00    -0.129 S 
ATOM     80  C   UNL A   1      32.169  25.213  22.723  1.00  0.00     0.047 A 
ATOM     81  C   UNL A   1      31.042  24.880  23.425  1.00  0.00     0.047 A 
ATOM     82  S   UNL A   1      33.125  23.808  22.314  1.00  0.00    -0.122 S 
ATOM     83  C   UNL A   1      30.915  23.474  23.640  1.00  0.00     0.052 A 
ATOM     84  C   UNL A   1      31.965  22.820  23.054  1.00  0.00     0.095 A 
ATOM     85  Cl  UNL A   1      32.188  21.113  23.022  1.00  0.00    -0.072 Cl
ENDBRANCH  74  77
ENDBRANCH  72  73
ENDBRANCH  71  72
ENDBRANCH   1  71
TORSDOF 10
ENDMDL
MODEL 2
REMARK VINA RESULT:     -13.0      5.172     10.477
REMARK SMILES O=C(NCCCNC(=O)c1cc2sc(Cl)cc2s1)c1ccc(-c2c3nc(c(-c4c(F)c(F)c(F)c(F)c4F)c4ccc([nH]4)c(-c4c(F)c(F)c(F)c(F)c4F)c4nc(c(-c5c(F)c(F)c(F)c(F)c5F)c5ccc2[nH]5)C=C4)C=C3)cc1
REMARK SMILES IDX 4 1 3 2 1 3 2 4 19 6 20 7 81 8 21 9 80 10 22 11 23 12 24 13
REMARK SMILES IDX 74 14 25 15 79 16 73 17 75 18 26 19 78 20 72 21 71 22 27 24
REMARK SMILES IDX 59 25 39 26 58 27 40 28 43 29 57 30 76 31 41 32 42 33 56 35
REMARK SMILES IDX 77 36 44 37 28 38 29 39 37 40 30 41 31 42 35 43 38 44 32 45
REMARK SMILES IDX 33 46 36 47 34 48 60 49 61 50 69 51 62 52 63 53 67 54 70 55
REMARK SMILES IDX 64 56 65 57 68 58 66 59 45 60 46 61 54 62 47 63 48 64 52 65
REMARK SMILES IDX 55 66 49 67 50 68 53 69 51 70 5 71 6 72 7 73 8 74 9 76 10 77
REMARK SMILES IDX 11 78 18 79 12 80 17 81 13 82 16 83 14 84 15 85
REMARK H PARENT 3 5 75 23 43 34 7 75
REMARK Flexibility Score: inf
ROOT
ATOM      1  C   UNL A   1      41.614  20.384  26.844  1.00  0.00     0.118 C 
ENDROOT
BRANCH   1   2
ATOM      2  N   UNL A   1      40.282  20.799  26.451  1.00  0.00    -0.352 N 
ATOM      3  O   UNL A   1      38.518  21.927  25.779  1.00  0.00    -0.269 OA
ATOM      4  C   UNL A   1      39.598  21.980  26.375  1.00  0.00     0.251 C 
ATOM      5  H   UNL A   1      39.728  20.036  26.165  1.00  0.00     0.163 HD
BRANCH   4   6
ATOM      6  C   UNL A   1      39.998  23.276  26.993  1.00  0.00     0.039 A 
ATOM      7  C   UNL A   1      41.131  23.512  27.769  1.00  0.00     0.014 A 
ATOM      8  C   UNL A   1      39.105  24.350  26.777  1.00  0.00     0.014 A 
ATOM      9  C   UNL A   1      41.324  24.765  28.365  1.00  0.00     0.010 A 
ATOM     10  C   UNL A   1      39.290  25.596  27.371  1.00  0.00     0.010 A 
ATOM     11  C   UNL A   1      40.390  25.800  28.193  1.00  0.00    -0.014 A 
BRANCH  11  12
ATOM     12  C   UNL A   1      40.705  27.134  28.712  1.00  0.00     0.031 A 
ATOM     13  C   UNL A   1      41.917  27.741  28.095  1.00  0.00     0.074 A 
ATOM     14  C   UNL A   1      39.950  27.861  29.566  1.00  0.00     0.049 A 
ATOM     15  N   UNL A   1      43.047  27.992  28.668  1.00  0.00    -0.248 NA
ATOM     16  C   UNL A   1      41.913  27.997  26.647  1.00  0.00     0.031 C 
ATOM     17  C   UNL A   1      38.595  27.581  30.040  1.00  0.00     0.029 A 
ATOM     18  N   UNL A   1      40.229  29.073  30.144  1.00  0.00    -0.354 N 
ATOM     19  C   UNL A   1      43.851  28.592  27.702  1.00  0.00     0.074 A 
ATOM     20  C   UNL A   1      43.156  28.443  26.450  1.00  0.00     0.031 C 
ATOM     21  C   UNL A   1      38.099  28.678  30.663  1.00  0.00     0.029 A 
ATOM     22  C   UNL A   1      39.140  29.689  30.757  1.00  0.00     0.049 A 
ATOM     23  H   UNL A   1      41.127  29.476  30.128  1.00  0.00     0.167 HD
ATOM     24  C   UNL A   1      44.925  29.351  28.057  1.00  0.00     0.037 A 
ATOM     25  C   UNL A   1      39.091  30.946  31.276  1.00  0.00     0.037 A 
ATOM     26  C   UNL A   1      45.303  29.104  29.425  1.00  0.00     0.049 A 
ATOM     27  C   UNL A   1      40.482  31.381  31.537  1.00  0.00     0.074 A 
ATOM     28  C   UNL A   1      45.735  28.004  30.140  1.00  0.00     0.029 A 
ATOM     29  N   UNL A   1      44.922  30.029  30.363  1.00  0.00    -0.354 N 
ATOM     30  N   UNL A   1      41.236  30.891  32.476  1.00  0.00    -0.248 NA
ATOM     31  C   UNL A   1      41.178  32.100  30.484  1.00  0.00     0.031 C 
ATOM     32  C   UNL A   1      45.140  28.145  31.430  1.00  0.00     0.029 A 
ATOM     33  C   UNL A   1      44.439  29.350  31.446  1.00  0.00     0.049 A 
ATOM     34  H   UNL A   1      44.985  31.008  30.271  1.00  0.00     0.167 HD
ATOM     35  C   UNL A   1      42.493  30.820  31.901  1.00  0.00     0.074 A 
ATOM     36  C   UNL A   1      42.422  31.681  30.724  1.00  0.00     0.031 C 
ATOM     37  C   UNL A   1      43.372  29.848  32.279  1.00  0.00     0.037 A 
BRANCH  24  38
ATOM     38  C   UNL A   1      45.388  30.590  27.325  1.00  0.00     0.064 A 
ATOM     39  C   UNL A   1      46.762  30.739  27.037  1.00  0.00     0.173 A 
ATOM     40  C   UNL A   1      44.612  31.761  27.198  1.00  0.00     0.173 A 
ATOM     41  F   UNL A   1      47.599  29.695  27.138  1.00  0.00    -0.203 F 
ATOM     42  C   UNL A   1      47.327  31.983  26.748  1.00  0.00     0.198 A 
ATOM     43  C   UNL A   1      45.171  32.992  26.857  1.00  0.00     0.198 A 
ATOM     44  F   UNL A   1      43.312  31.793  27.512  1.00  0.00    -0.203 F 
ATOM     45  F   UNL A   1      48.655  32.099  26.625  1.00  0.00    -0.200 F 
ATOM     46  C   UNL A   1      46.532  33.111  26.667  1.00  0.00     0.200 A 
ATOM     47  F   UNL A   1      44.387  34.078  26.803  1.00  0.00    -0.200 F 
ATOM     48  F   UNL A   1      47.079  34.316  26.461  1.00  0.00    -0.200 F 
ENDBRANCH  24  38
BRANCH  25  49
ATOM     49  C   UNL A   1      37.969  31.919  31.342  1.00  0.00     0.064 A 
ATOM     50  C   UNL A   1      37.488  32.559  30.183  1.00  0.00     0.173 A 
ATOM     51  C   UNL A   1      37.145  31.991  32.479  1.00  0.00     0.173 A 
ATOM     52  F   UNL A   1      38.186  32.504  29.039  1.00  0.00    -0.203 F 
ATOM     53  C   UNL A   1      36.241  33.195  30.155  1.00  0.00     0.198 A 
ATOM     54  C   UNL A   1      35.903  32.631  32.451  1.00  0.00     0.198 A 
ATOM     55  F   UNL A   1      37.482  31.353  33.609  1.00  0.00    -0.203 F 
ATOM     56  F   UNL A   1      35.785  33.727  29.012  1.00  0.00    -0.200 F 
ATOM     57  C   UNL A   1      35.444  33.217  31.286  1.00  0.00     0.200 A 
ATOM     58  F   UNL A   1      35.122  32.611  33.541  1.00  0.00    -0.200 F 
ATOM     59  F   UNL A   1      34.220  33.761  31.243  1.00  0.00    -0.200 F 
ENDBRANCH  25  49
BRANCH  37  60
ATOM     60  C   UNL A   1      43.086  29.099  33.549  1.00  0.00     0.064 A 
ATOM     61  C   UNL A   1      42.222  27.995  33.654  1.00  0.00     0.173 A 
ATOM     62  C   UNL A   1      43.812  29.460  34.694  1.00  0.00     0.173 A 
ATOM     63  F   UNL A   1      41.569  27.521  32.584  1.00  0.00    -0.203 F 
ATOM     64  C   UNL A   1      42.055  27.324  34.864  1.00  0.00     0.198 A 
ATOM     65  C   UNL A   1      43.676  28.760  35.888  1.00  0.00     0.198 A 
ATOM     66  F   UNL A   1      44.690  30.475  34.641  1.00  0.00    -0.203 F 
ATOM     67  F   UNL A   1      41.206  26.288  34.947  1.00  0.00    -0.200 F 
ATOM     68  C   UNL A   1      42.787  27.703  35.978  1.00  0.00     0.200 A 
ATOM     69  F   UNL A   1      44.425  29.100  36.947  1.00  0.00    -0.200 F 
ATOM     70  F   UNL A   1      42.655  27.032  37.131  1.00  0.00    -0.200 F 
ENDBRANCH  37  60
ENDBRANCH  11  12
ENDBRANCH   4   6
ENDBRANCH   1   2
BRANCH   1  71
ATOM     71  C   UNL A   1      42.046  19.017  26.317  1.00  0.00     0.042 C 
BRANCH  71  72
ATOM     72  C   UNL A   1      43.555  18.838  26.128  1.00  0.00     0.118 C 
BRANCH  72  73
ATOM     73  N   UNL A   1      43.953  18.698  24.736  1.00  0.00    -0.351 N 
ATOM     74  C   UNL A   1      44.458  19.622  23.847  1.00  0.00     0.261 C 
ATOM     75  H   UNL A   1      43.843  17.792  24.367  1.00  0.00     0.163 HD
ATOM     76  O   UNL A   1      44.612  19.255  22.685  1.00  0.00    -0.268 OA
BRANCH  74  77
ATOM     77  C   UNL A   1      44.770  20.961  24.316  1.00  0.00     0.094 A 
ATOM     78  C   UNL A   1      43.912  22.015  24.559  1.00  0.00     0.045 A 
ATOM     79  S   UNL A   1      46.403  21.316  24.712  1.00  0.00    -0.129 S 
ATOM     80  C   UNL A   1      44.636  23.193  24.912  1.00  0.00     0.047 A 
ATOM     81  C   UNL A   1      45.985  22.979  25.017  1.00  0.00     0.047 A 
ATOM     82  S   UNL A   1      44.210  24.857  25.225  1.00  0.00    -0.122 S 
ATOM     83  C   UNL A   1      46.712  24.165  25.341  1.00  0.00     0.052 A 
ATOM     84  C   UNL A   1      45.849  25.224  25.441  1.00  0.00     0.095 A 
ATOM     85  Cl  UNL A   1      46.300  26.853  25.766  1.00  0.00    -0.072 Cl
ENDBRANCH  74  77
ENDBRANCH  72  73
ENDBRANCH  71  72
ENDBRANCH   1  71
TORSDOF 10
ENDMDL
MODEL 3
REMARK VINA RESULT:     -13.0      3.767      8.780
REMARK SMILES O=C(NCCCNC(=O)c1cc2sc(Cl)cc2s1)c1ccc(-c2c3nc(c(-c4c(F)c(F)c(F)c(F)c4F)c4ccc([nH]4)c(-c4c(F)c(F)c(F)c(F)c4F)c4nc(c(-c5c(F)c(F)c(F)c(F)c5F)c5ccc2[nH]5)C=C4)C=C3)cc1
REMARK SMILES IDX 4 1 3 2 1 3 2 4 19 6 20 7 81 8 21 9 80 10 22 11 23 12 24 13
REMARK SMILES IDX 74 14 25 15 79 16 73 17 75 18 26 19 78 20 72 21 71 22 27 24
REMARK SMILES IDX 59 25 39 26 58 27 40 28 43 29 57 30 76 31 41 32 42 33 56 35
REMARK SMILES IDX 77 36 44 37 28 38 29 39 37 40 30 41 31 42 35 43 38 44 32 45
REMARK SMILES IDX 33 46 36 47 34 48 60 49 61 50 69 51 62 52 63 53 67 54 70 55
REMARK SMILES IDX 64 56 65 57 68 58 66 59 45 60 46 61 54 62 47 63 48 64 52 65
REMARK SMILES IDX 55 66 49 67 50 68 53 69 51 70 5 71 6 72 7 73 8 74 9 76 10 77
REMARK SMILES IDX 11 78 18 79 12 80 17 81 13 82 16 83 14 84 15 85
REMARK H PARENT 3 5 75 23 43 34 7 75
REMARK Flexibility Score: inf
ROOT
ATOM      1  C   UNL A   1      37.557  22.094  25.201  1.00  0.00     0.118 C 
ENDROOT
BRANCH   1   2
ATOM      2  N   UNL A   1      38.762  21.563  25.807  1.00  0.00    -0.352 N 
ATOM      3  O   UNL A   1      40.469  21.141  27.128  1.00  0.00    -0.269 OA
ATOM      4  C   UNL A   1      39.684  22.001  26.717  1.00  0.00     0.251 C 
ATOM      5  H   UNL A   1      38.969  20.657  25.482  1.00  0.00     0.163 HD
BRANCH   4   6
ATOM      6  C   UNL A   1      39.865  23.403  27.190  1.00  0.00     0.039 A 
ATOM      7  C   UNL A   1      38.973  24.460  27.018  1.00  0.00     0.014 A 
ATOM      8  C   UNL A   1      41.086  23.665  27.852  1.00  0.00     0.014 A 
ATOM      9  C   UNL A   1      39.326  25.750  27.435  1.00  0.00     0.010 A 
ATOM     10  C   UNL A   1      41.443  24.946  28.265  1.00  0.00     0.010 A 
ATOM     11  C   UNL A   1      40.573  26.001  28.032  1.00  0.00    -0.014 A 
BRANCH  11  12
ATOM     12  C   UNL A   1      40.839  27.333  28.584  1.00  0.00     0.031 A 
ATOM     13  C   UNL A   1      42.051  27.983  28.013  1.00  0.00     0.074 A 
ATOM     14  C   UNL A   1      40.042  28.023  29.431  1.00  0.00     0.049 A 
ATOM     15  N   UNL A   1      43.158  28.251  28.622  1.00  0.00    -0.248 NA
ATOM     16  C   UNL A   1      42.080  28.266  26.570  1.00  0.00     0.031 C 
ATOM     17  C   UNL A   1      38.682  27.700  29.862  1.00  0.00     0.029 A 
ATOM     18  N   UNL A   1      40.273  29.231  30.039  1.00  0.00    -0.354 N 
ATOM     19  C   UNL A   1      43.972  28.891  27.691  1.00  0.00     0.074 A 
ATOM     20  C   UNL A   1      43.315  28.748  26.417  1.00  0.00     0.031 C 
ATOM     21  C   UNL A   1      38.141  28.771  30.491  1.00  0.00     0.029 A 
ATOM     22  C   UNL A   1      39.152  29.806  30.633  1.00  0.00     0.049 A 
ATOM     23  H   UNL A   1      41.161  29.657  30.055  1.00  0.00     0.167 HD
ATOM     24  C   UNL A   1      45.015  29.669  28.090  1.00  0.00     0.037 A 
ATOM     25  C   UNL A   1      39.056  31.052  31.174  1.00  0.00     0.037 A 
ATOM     26  C   UNL A   1      45.362  29.406  29.463  1.00  0.00     0.049 A 
ATOM     27  C   UNL A   1      40.427  31.517  31.482  1.00  0.00     0.074 A 
ATOM     28  C   UNL A   1      45.803  28.303  30.169  1.00  0.00     0.029 A 
ATOM     29  N   UNL A   1      44.931  30.302  30.406  1.00  0.00    -0.354 N 
ATOM     30  N   UNL A   1      41.168  31.028  32.432  1.00  0.00    -0.248 NA
ATOM     31  C   UNL A   1      41.133  32.274  30.462  1.00  0.00     0.031 C 
ATOM     32  C   UNL A   1      45.170  28.403  31.443  1.00  0.00     0.029 A 
ATOM     33  C   UNL A   1      44.437  29.590  31.463  1.00  0.00     0.049 A 
ATOM     34  H   UNL A   1      44.972  31.284  30.335  1.00  0.00     0.167 HD
ATOM     35  C   UNL A   1      42.441  31.000  31.891  1.00  0.00     0.074 A 
ATOM     36  C   UNL A   1      42.380  31.882  30.729  1.00  0.00     0.031 C 
ATOM     37  C   UNL A   1      43.335  30.044  32.275  1.00  0.00     0.037 A 
BRANCH  24  38
ATOM     38  C   UNL A   1      45.466  30.934  27.394  1.00  0.00     0.064 A 
ATOM     39  C   UNL A   1      46.821  31.061  27.019  1.00  0.00     0.173 A 
ATOM     40  C   UNL A   1      44.720  32.131  27.384  1.00  0.00     0.173 A 
ATOM     41  F   UNL A   1      47.630  29.991  27.006  1.00  0.00    -0.203 F 
ATOM     42  C   UNL A   1      47.403  32.304  26.758  1.00  0.00     0.198 A 
ATOM     43  C   UNL A   1      45.292  33.363  27.071  1.00  0.00     0.198 A 
ATOM     44  F   UNL A   1      43.446  32.181  27.789  1.00  0.00    -0.203 F 
ATOM     45  F   UNL A   1      48.723  32.390  26.550  1.00  0.00    -0.200 F 
ATOM     46  C   UNL A   1      46.640  33.456  26.794  1.00  0.00     0.200 A 
ATOM     47  F   UNL A   1      44.541  34.472  27.130  1.00  0.00    -0.200 F 
ATOM     48  F   UNL A   1      47.208  34.655  26.614  1.00  0.00    -0.200 F 
ENDBRANCH  24  38
BRANCH  25  49
ATOM     49  C   UNL A   1      37.908  31.994  31.227  1.00  0.00     0.064 A 
ATOM     50  C   UNL A   1      37.467  32.674  30.075  1.00  0.00     0.173 A 
ATOM     51  C   UNL A   1      37.028  31.996  32.324  1.00  0.00     0.173 A 
ATOM     52  F   UNL A   1      38.220  32.686  28.965  1.00  0.00    -0.203 F 
ATOM     53  C   UNL A   1      36.207  33.281  30.014  1.00  0.00     0.198 A 
ATOM     54  C   UNL A   1      35.774  32.607  32.264  1.00  0.00     0.198 A 
ATOM     55  F   UNL A   1      37.327  31.316  33.440  1.00  0.00    -0.203 F 
ATOM     56  F   UNL A   1      35.792  33.852  28.873  1.00  0.00    -0.200 F 
ATOM     57  C   UNL A   1      35.356  33.234  31.104  1.00  0.00     0.200 A 
ATOM     58  F   UNL A   1      34.942  32.520  33.312  1.00  0.00    -0.200 F 
ATOM     59  F   UNL A   1      34.121  33.750  31.024  1.00  0.00    -0.200 F 
ENDBRANCH  25  49
BRANCH  37  60
ATOM     60  C   UNL A   1      43.034  29.264  33.522  1.00  0.00     0.064 A 
ATOM     61  C   UNL A   1      42.239  28.106  33.573  1.00  0.00     0.173 A 
ATOM     62  C   UNL A   1      43.677  29.656  34.706  1.00  0.00     0.173 A 
ATOM     63  F   UNL A   1      41.672  27.604  32.468  1.00  0.00    -0.203 F 
ATOM     64  C   UNL A   1      42.054  27.411  34.768  1.00  0.00     0.198 A 
ATOM     65  C   UNL A   1      43.526  28.935  35.885  1.00  0.00     0.198 A 
ATOM     66  F   UNL A   1      44.490  30.725  34.706  1.00  0.00    -0.203 F 
ATOM     67  F   UNL A   1      41.270  26.322  34.799  1.00  0.00    -0.200 F 
ATOM     68  C   UNL A   1      42.704  27.822  35.920  1.00  0.00     0.200 A 
ATOM     69  F   UNL A   1      44.198  29.309  36.983  1.00  0.00    -0.200 F 
ATOM     70  F   UNL A   1      42.558  27.131  37.059  1.00  0.00    -0.200 F 
ENDBRANCH  37  60
ENDBRANCH  11  12
ENDBRANCH   4   6
ENDBRANCH   1   2
BRANCH   1  71
ATOM     71  C   UNL A   1      36.450  21.069  24.962  1.00  0.00     0.042 C 
BRANCH  71  72
ATOM     72  C   UNL A   1      35.185  21.268  25.801  1.00  0.00     0.118 C 
BRANCH  72  73
ATOM     73  N   UNL A   1      34.187  20.228  25.603  1.00  0.00    -0.351 N 
ATOM     74  C   UNL A   1      32.844  20.315  25.310  1.00  0.00     0.261 C 
ATOM     75  H   UNL A   1      34.529  19.309  25.693  1.00  0.00     0.163 HD
ATOM     76  O   UNL A   1      32.203  19.266  25.300  1.00  0.00    -0.268 OA
BRANCH  74  77
ATOM     77  C   UNL A   1      32.258  21.617  25.040  1.00  0.00     0.094 A 
ATOM     78  C   UNL A   1      31.756  22.542  25.933  1.00  0.00     0.045 A 
ATOM     79  S   UNL A   1      32.231  22.167  23.413  1.00  0.00    -0.129 S 
ATOM     80  C   UNL A   1      31.178  23.652  25.248  1.00  0.00     0.047 A 
ATOM     81  C   UNL A   1      31.339  23.585  23.890  1.00  0.00     0.047 A 
ATOM     82  S   UNL A   1      30.291  25.076  25.733  1.00  0.00    -0.122 S 
ATOM     83  C   UNL A   1      30.734  24.681  23.203  1.00  0.00     0.052 A 
ATOM     84  C   UNL A   1      30.124  25.512  24.105  1.00  0.00     0.095 A 
ATOM     85  Cl  UNL A   1      29.229  26.929  23.712  1.00  0.00    -0.072 Cl
ENDBRANCH  74  77
ENDBRANCH  72  73
ENDBRANCH  71  72
ENDBRANCH   1  71
TORSDOF 10
ENDMDL
