MODEL 1
REMARK VINA RESULT:     -11.1      0.000      0.000
REMARK SMILES C=CCN(CC(=O)NCCCNC(=O)c1ccc(-c2c3nc(c(-c4c(F)c(F)c(F)c(F)c4F)c4ccc([nH]4)c(-c4c(F)c(F)c(F)c(F)c4F)c4nc(c(-c5c(F)c(F)c(F)c(F)c5F)c5ccc2[nH]5)C=C4)C=C3)cc1)C(=O)CC1([NH2+]C)CCCCC1
REMARK SMILES IDX 6 1 7 2 8 3 5 5 4 6 3 7 2 8 1 9 78 10 79 11 80 12 81 13
REMARK SMILES IDX 84 14 88 15 85 16 87 17 86 18 82 19 83 20 9 23 10 24 11 25
REMARK SMILES IDX 12 26 13 27 14 29 15 30 16 31 77 32 17 33 76 34 18 35 19 36
REMARK SMILES IDX 20 37 70 38 21 39 75 40 69 41 71 42 22 43 74 44 68 45 67 46
REMARK SMILES IDX 23 48 55 49 35 50 54 51 36 52 39 53 53 54 72 55 37 56 38 57
REMARK SMILES IDX 52 59 73 60 40 61 24 62 25 63 33 64 26 65 27 66 31 67 34 68
REMARK SMILES IDX 28 69 29 70 32 71 30 72 56 73 57 74 65 75 58 76 59 77 63 78
REMARK SMILES IDX 66 79 60 80 61 81 64 82 62 83 41 84 42 85 50 86 43 87 44 88
REMARK SMILES IDX 48 89 51 90 45 91 46 92 49 93 47 94
REMARK H PARENT 8 4 82 21 82 22 12 28 71 47 39 58
REMARK Flexibility Score: inf
ROOT
ATOM      1  C   UNL A   1      30.975  29.171  24.308  1.00  0.00     0.239 C 
ATOM      2  O   UNL A   1      30.431  29.135  23.202  1.00  0.00    -0.273 OA
ATOM      3  N   UNL A   1      31.045  30.371  24.934  1.00  0.00    -0.354 N 
ATOM      4  H   UNL A   1      30.605  31.118  24.466  1.00  0.00     0.163 HD
ENDROOT
BRANCH   1   5
ATOM      5  C   UNL A   1      31.476  27.891  24.986  1.00  0.00     0.219 C 
BRANCH   5   6
ATOM      6  N   UNL A   1      32.751  27.318  24.512  1.00  0.00    -0.329 N 
BRANCH   6   7
ATOM      7  C   UNL A   1      33.998  27.923  24.980  1.00  0.00     0.147 C 
BRANCH   7   8
ATOM      8  C   UNL A   1      33.988  28.090  26.472  1.00  0.00    -0.014 C 
ATOM      9  C   UNL A   1      34.759  28.978  27.116  1.00  0.00     0.006 C 
ENDBRANCH   7   8
ENDBRANCH   6   7
BRANCH   6  10
ATOM     10  C   UNL A   1      32.855  26.239  23.636  1.00  0.00     0.229 C 
ATOM     11  O   UNL A   1      33.225  26.390  22.468  1.00  0.00    -0.275 OA
BRANCH  10  12
ATOM     12  C   UNL A   1      32.480  24.849  24.114  1.00  0.00     0.168 C 
BRANCH  12  13
ATOM     13  C   UNL A   1      33.638  23.833  24.401  1.00  0.00     0.105 C 
ATOM     14  C   UNL A   1      34.727  23.710  23.291  1.00  0.00     0.069 C 
ATOM     15  C   UNL A   1      34.288  24.323  25.737  1.00  0.00     0.069 C 
ATOM     16  C   UNL A   1      36.026  23.035  23.738  1.00  0.00     0.006 C 
ATOM     17  C   UNL A   1      35.594  23.638  26.126  1.00  0.00     0.006 C 
ATOM     18  C   UNL A   1      36.594  23.703  24.984  1.00  0.00     0.000 C 
BRANCH  13  19
ATOM     19  N   UNL A   1      33.086  22.485  24.709  1.00  0.00    -0.343 N 
ATOM     20  C   UNL A   1      32.040  22.447  25.726  1.00  0.00     0.331 C 
ATOM     21  H   UNL A   1      33.856  21.897  25.029  1.00  0.00     0.346 HD
ATOM     22  H   UNL A   1      32.649  22.159  23.847  1.00  0.00     0.346 HD
ENDBRANCH  13  19
ENDBRANCH  12  13
ENDBRANCH  10  12
ENDBRANCH   6  10
ENDBRANCH   5   6
ENDBRANCH   1   5
BRANCH   3  23
ATOM     23  C   UNL A   1      31.673  30.709  26.188  1.00  0.00     0.117 C 
BRANCH  23  24
ATOM     24  C   UNL A   1      31.466  32.178  26.529  1.00  0.00     0.042 C 
BRANCH  24  25
ATOM     25  C   UNL A   1      32.628  32.779  27.310  1.00  0.00     0.118 C 
BRANCH  25  26
ATOM     26  N   UNL A   1      32.418  34.188  27.612  1.00  0.00    -0.352 N 
ATOM     27  C   UNL A   1      32.985  34.962  28.594  1.00  0.00     0.251 C 
ATOM     28  H   UNL A   1      31.776  34.653  27.028  1.00  0.00     0.163 HD
ATOM     29  O   UNL A   1      32.528  36.063  28.859  1.00  0.00    -0.269 OA
BRANCH  27  30
ATOM     30  C   UNL A   1      34.155  34.441  29.326  1.00  0.00     0.039 A 
ATOM     31  C   UNL A   1      33.963  33.765  30.533  1.00  0.00     0.014 A 
ATOM     32  C   UNL A   1      35.438  34.622  28.805  1.00  0.00     0.014 A 
ATOM     33  C   UNL A   1      35.063  33.213  31.191  1.00  0.00     0.010 A 
ATOM     34  C   UNL A   1      36.518  34.002  29.416  1.00  0.00     0.010 A 
ATOM     35  C   UNL A   1      36.342  33.302  30.620  1.00  0.00    -0.014 A 
BRANCH  35  36
ATOM     36  C   UNL A   1      37.538  32.714  31.265  1.00  0.00     0.031 A 
ATOM     37  C   UNL A   1      38.240  31.568  30.593  1.00  0.00     0.074 A 
ATOM     38  C   UNL A   1      37.913  33.125  32.490  1.00  0.00     0.049 A 
ATOM     39  N   UNL A   1      39.167  30.774  31.059  1.00  0.00    -0.248 NA
ATOM     40  C   UNL A   1      37.808  31.251  29.222  1.00  0.00     0.031 C 
ATOM     41  C   UNL A   1      37.286  34.208  33.251  1.00  0.00     0.029 A 
ATOM     42  N   UNL A   1      38.896  32.657  33.325  1.00  0.00    -0.354 N 
ATOM     43  C   UNL A   1      39.402  29.844  30.055  1.00  0.00     0.074 A 
ATOM     44  C   UNL A   1      38.490  30.144  28.973  1.00  0.00     0.031 C 
ATOM     45  C   UNL A   1      37.903  34.324  34.438  1.00  0.00     0.029 A 
ATOM     46  C   UNL A   1      38.932  33.294  34.542  1.00  0.00     0.049 A 
ATOM     47  H   UNL A   1      39.516  31.934  33.076  1.00  0.00     0.167 HD
ATOM     48  C   UNL A   1      40.310  28.841  30.034  1.00  0.00     0.037 A 
ATOM     49  C   UNL A   1      39.695  33.053  35.625  1.00  0.00     0.037 A 
ATOM     50  C   UNL A   1      41.236  28.578  31.103  1.00  0.00     0.049 A 
ATOM     51  C   UNL A   1      40.696  31.929  35.579  1.00  0.00     0.074 A 
ATOM     52  C   UNL A   1      42.236  27.624  31.162  1.00  0.00     0.029 A 
ATOM     53  N   UNL A   1      41.274  29.276  32.301  1.00  0.00    -0.354 N 
ATOM     54  N   UNL A   1      40.947  31.085  34.608  1.00  0.00    -0.248 NA
ATOM     55  C   UNL A   1      41.522  31.725  36.777  1.00  0.00     0.031 C 
ATOM     56  C   UNL A   1      42.851  27.718  32.412  1.00  0.00     0.029 A 
ATOM     57  C   UNL A   1      42.273  28.765  33.112  1.00  0.00     0.049 A 
ATOM     58  H   UNL A   1      40.678  30.024  32.539  1.00  0.00     0.167 HD
ATOM     59  C   UNL A   1      41.983  30.279  35.059  1.00  0.00     0.074 A 
ATOM     60  C   UNL A   1      42.314  30.733  36.393  1.00  0.00     0.031 C 
ATOM     61  C   UNL A   1      42.607  29.258  34.422  1.00  0.00     0.037 A 
BRANCH  48  62
ATOM     62  C   UNL A   1      40.346  27.960  28.820  1.00  0.00     0.064 A 
ATOM     63  C   UNL A   1      39.625  26.758  28.757  1.00  0.00     0.173 A 
ATOM     64  C   UNL A   1      41.088  28.338  27.690  1.00  0.00     0.173 A 
ATOM     65  F   UNL A   1      38.910  26.345  29.815  1.00  0.00    -0.203 F 
ATOM     66  C   UNL A   1      39.669  25.953  27.623  1.00  0.00     0.198 A 
ATOM     67  C   UNL A   1      41.104  27.547  26.545  1.00  0.00     0.198 A 
ATOM     68  F   UNL A   1      41.792  29.481  27.692  1.00  0.00    -0.203 F 
ATOM     69  F   UNL A   1      39.015  24.783  27.608  1.00  0.00    -0.200 F 
ATOM     70  C   UNL A   1      40.402  26.350  26.516  1.00  0.00     0.200 A 
ATOM     71  F   UNL A   1      41.801  27.939  25.470  1.00  0.00    -0.200 F 
ATOM     72  F   UNL A   1      40.438  25.578  25.421  1.00  0.00    -0.200 F 
ENDBRANCH  48  62
BRANCH  49  73
ATOM     73  C   UNL A   1      39.554  33.902  36.837  1.00  0.00     0.064 A 
ATOM     74  C   UNL A   1      38.763  33.483  37.916  1.00  0.00     0.173 A 
ATOM     75  C   UNL A   1      40.203  35.141  36.946  1.00  0.00     0.173 A 
ATOM     76  F   UNL A   1      38.109  32.314  37.852  1.00  0.00    -0.203 F 
ATOM     77  C   UNL A   1      38.609  34.279  39.049  1.00  0.00     0.198 A 
ATOM     78  C   UNL A   1      40.071  35.923  38.091  1.00  0.00     0.198 A 
ATOM     79  F   UNL A   1      40.976  35.585  35.945  1.00  0.00    -0.203 F 
ATOM     80  F   UNL A   1      37.813  33.874  40.046  1.00  0.00    -0.200 F 
ATOM     81  C   UNL A   1      39.268  35.496  39.137  1.00  0.00     0.200 A 
ATOM     82  F   UNL A   1      40.721  37.092  38.180  1.00  0.00    -0.200 F 
ATOM     83  F   UNL A   1      39.124  36.260  40.229  1.00  0.00    -0.200 F 
ENDBRANCH  49  73
BRANCH  61  84
ATOM     84  C   UNL A   1      43.759  28.602  35.124  1.00  0.00     0.064 A 
ATOM     85  C   UNL A   1      45.070  29.081  35.000  1.00  0.00     0.173 A 
ATOM     86  C   UNL A   1      43.526  27.532  36.003  1.00  0.00     0.173 A 
ATOM     87  F   UNL A   1      45.343  30.092  34.163  1.00  0.00    -0.203 F 
ATOM     88  C   UNL A   1      46.110  28.505  35.726  1.00  0.00     0.198 A 
ATOM     89  C   UNL A   1      44.563  26.978  36.746  1.00  0.00     0.198 A 
ATOM     90  F   UNL A   1      42.286  27.043  36.159  1.00  0.00    -0.203 F 
ATOM     91  F   UNL A   1      47.361  28.959  35.574  1.00  0.00    -0.200 F 
ATOM     92  C   UNL A   1      45.853  27.463  36.606  1.00  0.00     0.200 A 
ATOM     93  F   UNL A   1      44.311  25.983  37.607  1.00  0.00    -0.200 F 
ATOM     94  F   UNL A   1      46.853  26.926  37.319  1.00  0.00    -0.200 F 
ENDBRANCH  61  84
ENDBRANCH  35  36
ENDBRANCH  27  30
ENDBRANCH  25  26
ENDBRANCH  24  25
ENDBRANCH  23  24
ENDBRANCH   3  23
TORSDOF 17
ENDMDL
MODEL 2
REMARK VINA RESULT:     -11.1      0.884      1.905
REMARK SMILES C=CCN(CC(=O)NCCCNC(=O)c1ccc(-c2c3nc(c(-c4c(F)c(F)c(F)c(F)c4F)c4ccc([nH]4)c(-c4c(F)c(F)c(F)c(F)c4F)c4nc(c(-c5c(F)c(F)c(F)c(F)c5F)c5ccc2[nH]5)C=C4)C=C3)cc1)C(=O)CC1([NH2+]C)CCCCC1
REMARK SMILES IDX 6 1 7 2 8 3 5 5 4 6 3 7 2 8 1 9 78 10 79 11 80 12 81 13
REMARK SMILES IDX 84 14 88 15 85 16 87 17 86 18 82 19 83 20 9 23 10 24 11 25
REMARK SMILES IDX 12 26 13 27 14 29 15 30 16 31 77 32 17 33 76 34 18 35 19 36
REMARK SMILES IDX 20 37 70 38 21 39 75 40 69 41 71 42 22 43 74 44 68 45 67 46
REMARK SMILES IDX 23 48 55 49 35 50 54 51 36 52 39 53 53 54 72 55 37 56 38 57
REMARK SMILES IDX 52 59 73 60 40 61 24 62 25 63 33 64 26 65 27 66 31 67 34 68
REMARK SMILES IDX 28 69 29 70 32 71 30 72 56 73 57 74 65 75 58 76 59 77 63 78
REMARK SMILES IDX 66 79 60 80 61 81 64 82 62 83 41 84 42 85 50 86 43 87 44 88
REMARK SMILES IDX 48 89 51 90 45 91 46 92 49 93 47 94
REMARK H PARENT 8 4 82 21 82 22 12 28 71 47 39 58
REMARK Flexibility Score: inf
ROOT
ATOM      1  C   UNL A   1      33.631  29.035  26.620  1.00  0.00     0.239 C 
ATOM      2  O   UNL A   1      34.828  28.944  26.903  1.00  0.00    -0.273 OA
ATOM      3  N   UNL A   1      33.069  30.268  26.658  1.00  0.00    -0.354 N 
ATOM      4  H   UNL A   1      33.686  31.007  26.865  1.00  0.00     0.163 HD
ENDROOT
BRANCH   1   5
ATOM      5  C   UNL A   1      32.830  27.811  26.162  1.00  0.00     0.219 C 
BRANCH   5   6
ATOM      6  N   UNL A   1      32.967  27.391  24.754  1.00  0.00    -0.329 N 
BRANCH   6   7
ATOM      7  C   UNL A   1      32.356  28.226  23.720  1.00  0.00     0.147 C 
BRANCH   7   8
ATOM      8  C   UNL A   1      30.860  28.103  23.743  1.00  0.00    -0.014 C 
ATOM      9  C   UNL A   1      30.035  29.135  23.512  1.00  0.00     0.006 C 
ENDBRANCH   7   8
ENDBRANCH   6   7
BRANCH   6  10
ATOM     10  C   UNL A   1      33.634  26.240  24.333  1.00  0.00     0.229 C 
ATOM     11  O   UNL A   1      33.550  25.835  23.170  1.00  0.00    -0.275 OA
BRANCH  10  12
ATOM     12  C   UNL A   1      34.459  25.449  25.329  1.00  0.00     0.168 C 
BRANCH  12  13
ATOM     13  C   UNL A   1      33.998  23.991  25.673  1.00  0.00     0.105 C 
ATOM     14  C   UNL A   1      34.936  23.186  26.623  1.00  0.00     0.069 C 
ATOM     15  C   UNL A   1      32.586  24.156  26.328  1.00  0.00     0.069 C 
ATOM     16  C   UNL A   1      34.299  21.947  27.256  1.00  0.00     0.006 C 
ATOM     17  C   UNL A   1      32.005  22.899  26.967  1.00  0.00     0.006 C 
ATOM     18  C   UNL A   1      32.990  22.295  27.954  1.00  0.00     0.000 C 
BRANCH  13  19
ATOM     19  N   UNL A   1      33.760  23.210  24.428  1.00  0.00    -0.343 N 
ATOM     20  C   UNL A   1      34.956  22.724  23.748  1.00  0.00     0.331 C 
ATOM     21  H   UNL A   1      33.250  23.807  23.776  1.00  0.00     0.346 HD
ATOM     22  H   UNL A   1      33.244  22.378  24.716  1.00  0.00     0.346 HD
ENDBRANCH  13  19
ENDBRANCH  12  13
ENDBRANCH  10  12
ENDBRANCH   6  10
ENDBRANCH   5   6
ENDBRANCH   1   5
BRANCH   3  23
ATOM     23  C   UNL A   1      31.695  30.649  26.440  1.00  0.00     0.117 C 
BRANCH  23  24
ATOM     24  C   UNL A   1      31.493  32.138  26.679  1.00  0.00     0.042 C 
BRANCH  24  25
ATOM     25  C   UNL A   1      32.717  32.819  27.277  1.00  0.00     0.118 C 
BRANCH  25  26
ATOM     26  N   UNL A   1      32.462  34.212  27.621  1.00  0.00    -0.352 N 
ATOM     27  C   UNL A   1      32.998  34.972  28.629  1.00  0.00     0.251 C 
ATOM     28  H   UNL A   1      31.808  34.674  27.047  1.00  0.00     0.163 HD
ATOM     29  O   UNL A   1      32.505  36.050  28.925  1.00  0.00    -0.269 OA
BRANCH  27  30
ATOM     30  C   UNL A   1      34.180  34.466  29.353  1.00  0.00     0.039 A 
ATOM     31  C   UNL A   1      34.009  33.827  30.582  1.00  0.00     0.014 A 
ATOM     32  C   UNL A   1      35.453  34.623  28.801  1.00  0.00     0.014 A 
ATOM     33  C   UNL A   1      35.119  33.288  31.235  1.00  0.00     0.010 A 
ATOM     34  C   UNL A   1      36.542  34.016  29.408  1.00  0.00     0.010 A 
ATOM     35  C   UNL A   1      36.387  33.353  30.635  1.00  0.00    -0.014 A 
BRANCH  35  36
ATOM     36  C   UNL A   1      37.592  32.777  31.273  1.00  0.00     0.031 A 
ATOM     37  C   UNL A   1      38.300  31.636  30.598  1.00  0.00     0.074 A 
ATOM     38  C   UNL A   1      37.972  33.193  32.495  1.00  0.00     0.049 A 
ATOM     39  N   UNL A   1      39.238  30.851  31.058  1.00  0.00    -0.248 NA
ATOM     40  C   UNL A   1      37.862  31.313  29.230  1.00  0.00     0.031 C 
ATOM     41  C   UNL A   1      37.341  34.272  33.257  1.00  0.00     0.029 A 
ATOM     42  N   UNL A   1      38.966  32.736  33.323  1.00  0.00    -0.354 N 
ATOM     43  C   UNL A   1      39.474  29.922  30.055  1.00  0.00     0.074 A 
ATOM     44  C   UNL A   1      38.553  30.211  28.979  1.00  0.00     0.031 C 
ATOM     45  C   UNL A   1      37.965  34.395  34.440  1.00  0.00     0.029 A 
ATOM     46  C   UNL A   1      39.004  33.375  34.538  1.00  0.00     0.049 A 
ATOM     47  H   UNL A   1      39.591  32.018  33.071  1.00  0.00     0.167 HD
ATOM     48  C   UNL A   1      40.392  28.927  30.030  1.00  0.00     0.037 A 
ATOM     49  C   UNL A   1      39.777  33.144  35.617  1.00  0.00     0.037 A 
ATOM     50  C   UNL A   1      41.327  28.674  31.092  1.00  0.00     0.049 A 
ATOM     51  C   UNL A   1      40.788  32.029  35.566  1.00  0.00     0.074 A 
ATOM     52  C   UNL A   1      42.336  27.729  31.146  1.00  0.00     0.029 A 
ATOM     53  N   UNL A   1      41.367  29.375  32.289  1.00  0.00    -0.354 N 
ATOM     54  N   UNL A   1      41.039  31.185  34.594  1.00  0.00    -0.248 NA
ATOM     55  C   UNL A   1      41.624  31.835  36.758  1.00  0.00     0.031 C 
ATOM     56  C   UNL A   1      42.960  27.831  32.392  1.00  0.00     0.029 A 
ATOM     57  C   UNL A   1      42.376  28.874  33.093  1.00  0.00     0.049 A 
ATOM     58  H   UNL A   1      40.766  30.118  32.529  1.00  0.00     0.167 HD
ATOM     59  C   UNL A   1      42.086  30.390  35.039  1.00  0.00     0.074 A 
ATOM     60  C   UNL A   1      42.422  30.849  36.370  1.00  0.00     0.031 C 
ATOM     61  C   UNL A   1      42.715  29.373  34.401  1.00  0.00     0.037 A 
BRANCH  48  62
ATOM     62  C   UNL A   1      40.427  28.044  28.816  1.00  0.00     0.064 A 
ATOM     63  C   UNL A   1      41.185  28.376  27.683  1.00  0.00     0.173 A 
ATOM     64  C   UNL A   1      39.718  26.833  28.799  1.00  0.00     0.173 A 
ATOM     65  F   UNL A   1      41.871  29.529  27.644  1.00  0.00    -0.203 F 
ATOM     66  C   UNL A   1      41.206  27.546  26.566  1.00  0.00     0.198 A 
ATOM     67  C   UNL A   1      39.769  25.989  27.693  1.00  0.00     0.198 A 
ATOM     68  F   UNL A   1      38.982  26.463  29.858  1.00  0.00    -0.203 F 
ATOM     69  F   UNL A   1      41.894  27.911  25.475  1.00  0.00    -0.200 F 
ATOM     70  C   UNL A   1      40.505  26.350  26.574  1.00  0.00     0.200 A 
ATOM     71  F   UNL A   1      39.102  24.827  27.707  1.00  0.00    -0.200 F 
ATOM     72  F   UNL A   1      40.533  25.548  25.501  1.00  0.00    -0.200 F 
ENDBRANCH  48  62
BRANCH  49  73
ATOM     73  C   UNL A   1      39.637  33.994  36.828  1.00  0.00     0.064 A 
ATOM     74  C   UNL A   1      38.836  33.581  37.903  1.00  0.00     0.173 A 
ATOM     75  C   UNL A   1      40.295  35.227  36.941  1.00  0.00     0.173 A 
ATOM     76  F   UNL A   1      38.173  32.418  37.835  1.00  0.00    -0.203 F 
ATOM     77  C   UNL A   1      38.683  34.378  39.035  1.00  0.00     0.198 A 
ATOM     78  C   UNL A   1      40.164  36.010  38.085  1.00  0.00     0.198 A 
ATOM     79  F   UNL A   1      41.077  35.664  35.944  1.00  0.00    -0.203 F 
ATOM     80  F   UNL A   1      37.878  33.980  40.028  1.00  0.00    -0.200 F 
ATOM     81  C   UNL A   1      39.351  35.589  39.127  1.00  0.00     0.200 A 
ATOM     82  F   UNL A   1      40.823  37.173  38.178  1.00  0.00    -0.200 F 
ATOM     83  F   UNL A   1      39.208  36.354  40.218  1.00  0.00    -0.200 F 
ENDBRANCH  49  73
BRANCH  61  84
ATOM     84  C   UNL A   1      43.878  28.729  35.095  1.00  0.00     0.064 A 
ATOM     85  C   UNL A   1      45.178  29.239  34.988  1.00  0.00     0.173 A 
ATOM     86  C   UNL A   1      43.665  27.636  35.951  1.00  0.00     0.173 A 
ATOM     87  F   UNL A   1      45.433  30.273  34.173  1.00  0.00    -0.203 F 
ATOM     88  C   UNL A   1      46.227  28.673  35.709  1.00  0.00     0.198 A 
ATOM     89  C   UNL A   1      44.710  27.091  36.689  1.00  0.00     0.198 A 
ATOM     90  F   UNL A   1      42.435  27.117  36.091  1.00  0.00    -0.203 F 
ATOM     91  F   UNL A   1      47.469  29.157  35.572  1.00  0.00    -0.200 F 
ATOM     92  C   UNL A   1      45.990  27.608  36.566  1.00  0.00     0.200 A 
ATOM     93  F   UNL A   1      44.475  26.073  37.528  1.00  0.00    -0.200 F 
ATOM     94  F   UNL A   1      46.998  27.078  37.273  1.00  0.00    -0.200 F 
ENDBRANCH  61  84
ENDBRANCH  35  36
ENDBRANCH  27  30
ENDBRANCH  25  26
ENDBRANCH  24  25
ENDBRANCH  23  24
ENDBRANCH   3  23
TORSDOF 17
ENDMDL
MODEL 3
REMARK VINA RESULT:     -11.0      5.431     10.818
REMARK SMILES C=CCN(CC(=O)NCCCNC(=O)c1ccc(-c2c3nc(c(-c4c(F)c(F)c(F)c(F)c4F)c4ccc([nH]4)c(-c4c(F)c(F)c(F)c(F)c4F)c4nc(c(-c5c(F)c(F)c(F)c(F)c5F)c5ccc2[nH]5)C=C4)C=C3)cc1)C(=O)CC1([NH2+]C)CCCCC1
REMARK SMILES IDX 6 1 7 2 8 3 5 5 4 6 3 7 2 8 1 9 78 10 79 11 80 12 81 13
REMARK SMILES IDX 84 14 88 15 85 16 87 17 86 18 82 19 83 20 9 23 10 24 11 25
REMARK SMILES IDX 12 26 13 27 14 29 15 30 16 31 77 32 17 33 76 34 18 35 19 36
REMARK SMILES IDX 20 37 70 38 21 39 75 40 69 41 71 42 22 43 74 44 68 45 67 46
REMARK SMILES IDX 23 48 55 49 35 50 54 51 36 52 39 53 53 54 72 55 37 56 38 57
REMARK SMILES IDX 52 59 73 60 40 61 24 62 25 63 33 64 26 65 27 66 31 67 34 68
REMARK SMILES IDX 28 69 29 70 32 71 30 72 56 73 57 74 65 75 58 76 59 77 63 78
REMARK SMILES IDX 66 79 60 80 61 81 64 82 62 83 41 84 42 85 50 86 43 87 44 88
REMARK SMILES IDX 48 89 51 90 45 91 46 92 49 93 47 94
REMARK H PARENT 8 4 82 21 82 22 12 28 71 47 39 58
REMARK Flexibility Score: inf
ROOT
ATOM      1  C   UNL A   1      35.665  22.857  23.901  1.00  0.00     0.239 C 
ATOM      2  O   UNL A   1      35.606  23.350  22.772  1.00  0.00    -0.273 OA
ATOM      3  N   UNL A   1      36.497  21.801  24.083  1.00  0.00    -0.354 N 
ATOM      4  H   UNL A   1      37.029  21.543  23.295  1.00  0.00     0.163 HD
ENDROOT
BRANCH   1   5
ATOM      5  C   UNL A   1      34.892  23.469  25.075  1.00  0.00     0.219 C 
BRANCH   5   6
ATOM      6  N   UNL A   1      33.425  23.309  25.087  1.00  0.00    -0.329 N 
BRANCH   6   7
ATOM      7  C   UNL A   1      32.871  22.044  25.569  1.00  0.00     0.147 C 
BRANCH   7   8
ATOM      8  C   UNL A   1      32.534  21.133  24.424  1.00  0.00    -0.014 C 
ATOM      9  C   UNL A   1      33.096  19.927  24.254  1.00  0.00     0.006 C 
ENDBRANCH   7   8
ENDBRANCH   6   7
BRANCH   6  10
ATOM     10  C   UNL A   1      32.520  24.280  24.660  1.00  0.00     0.229 C 
ATOM     11  O   UNL A   1      32.333  24.505  23.461  1.00  0.00    -0.275 OA
BRANCH  10  12
ATOM     12  C   UNL A   1      31.765  25.101  25.688  1.00  0.00     0.168 C 
BRANCH  12  13
ATOM     13  C   UNL A   1      32.000  26.650  25.708  1.00  0.00     0.105 C 
ATOM     14  C   UNL A   1      31.307  27.430  26.867  1.00  0.00     0.069 C 
ATOM     15  C   UNL A   1      33.552  26.826  25.798  1.00  0.00     0.069 C 
ATOM     16  C   UNL A   1      31.848  28.841  27.106  1.00  0.00     0.006 C 
ATOM     17  C   UNL A   1      34.041  28.245  26.062  1.00  0.00     0.006 C 
ATOM     18  C   UNL A   1      33.361  28.827  27.290  1.00  0.00     0.000 C 
BRANCH  13  19
ATOM     19  N   UNL A   1      31.616  27.254  24.402  1.00  0.00    -0.343 N 
ATOM     20  C   UNL A   1      30.187  27.262  24.104  1.00  0.00     0.331 C 
ATOM     21  H   UNL A   1      32.087  26.730  23.664  1.00  0.00     0.346 HD
ATOM     22  H   UNL A   1      31.896  28.234  24.455  1.00  0.00     0.346 HD
ENDBRANCH  13  19
ENDBRANCH  12  13
ENDBRANCH  10  12
ENDBRANCH   6  10
ENDBRANCH   5   6
ENDBRANCH   1   5
BRANCH   3  23
ATOM     23  C   UNL A   1      36.711  21.003  25.265  1.00  0.00     0.117 C 
BRANCH  23  24
ATOM     24  C   UNL A   1      37.788  19.954  25.033  1.00  0.00     0.042 C 
BRANCH  24  25
ATOM     25  C   UNL A   1      39.184  20.441  25.398  1.00  0.00     0.118 C 
BRANCH  25  26
ATOM     26  N   UNL A   1      40.081  19.343  25.735  1.00  0.00    -0.352 N 
ATOM     27  C   UNL A   1      41.396  19.381  26.125  1.00  0.00     0.251 C 
ATOM     28  H   UNL A   1      39.685  18.443  25.673  1.00  0.00     0.163 HD
ATOM     29  O   UNL A   1      42.069  18.361  26.143  1.00  0.00    -0.269 OA
BRANCH  27  30
ATOM     30  C   UNL A   1      41.986  20.674  26.520  1.00  0.00     0.039 A 
ATOM     31  C   UNL A   1      42.388  21.574  25.531  1.00  0.00     0.014 A 
ATOM     32  C   UNL A   1      42.130  20.987  27.873  1.00  0.00     0.014 A 
ATOM     33  C   UNL A   1      42.883  22.825  25.904  1.00  0.00     0.010 A 
ATOM     34  C   UNL A   1      42.543  22.259  28.240  1.00  0.00     0.010 A 
ATOM     35  C   UNL A   1      42.934  23.185  27.260  1.00  0.00    -0.014 A 
BRANCH  35  36
ATOM     36  C   UNL A   1      43.428  24.507  27.708  1.00  0.00     0.031 A 
ATOM     37  C   UNL A   1      42.433  25.567  28.087  1.00  0.00     0.074 A 
ATOM     38  C   UNL A   1      44.743  24.786  27.661  1.00  0.00     0.049 A 
ATOM     39  N   UNL A   1      42.621  26.841  28.309  1.00  0.00    -0.248 NA
ATOM     40  C   UNL A   1      41.028  25.138  28.190  1.00  0.00     0.031 C 
ATOM     41  C   UNL A   1      45.797  23.843  27.279  1.00  0.00     0.029 A 
ATOM     42  N   UNL A   1      45.416  25.956  27.907  1.00  0.00    -0.354 N 
ATOM     43  C   UNL A   1      41.359  27.371  28.541  1.00  0.00     0.074 A 
ATOM     44  C   UNL A   1      40.408  26.292  28.388  1.00  0.00     0.031 C 
ATOM     45  C   UNL A   1      46.983  24.472  27.321  1.00  0.00     0.029 A 
ATOM     46  C   UNL A   1      46.768  25.870  27.682  1.00  0.00     0.049 A 
ATOM     47  H   UNL A   1      44.971  26.779  28.214  1.00  0.00     0.167 HD
ATOM     48  C   UNL A   1      41.028  28.641  28.869  1.00  0.00     0.037 A 
ATOM     49  C   UNL A   1      47.720  26.821  27.738  1.00  0.00     0.037 A 
ATOM     50  C   UNL A   1      41.987  29.696  29.053  1.00  0.00     0.049 A 
ATOM     51  C   UNL A   1      47.326  28.228  28.102  1.00  0.00     0.074 A 
ATOM     52  C   UNL A   1      41.766  31.005  29.441  1.00  0.00     0.029 A 
ATOM     53  N   UNL A   1      43.355  29.558  28.863  1.00  0.00    -0.354 N 
ATOM     54  N   UNL A   1      46.136  28.711  28.367  1.00  0.00    -0.248 NA
ATOM     55  C   UNL A   1      48.405  29.222  28.176  1.00  0.00     0.031 C 
ATOM     56  C   UNL A   1      42.995  31.670  29.445  1.00  0.00     0.029 A 
ATOM     57  C   UNL A   1      43.988  30.762  29.114  1.00  0.00     0.049 A 
ATOM     58  H   UNL A   1      43.806  28.726  28.591  1.00  0.00     0.167 HD
ATOM     59  C   UNL A   1      46.328  30.050  28.680  1.00  0.00     0.074 A 
ATOM     60  C   UNL A   1      47.748  30.305  28.568  1.00  0.00     0.031 C 
ATOM     61  C   UNL A   1      45.409  30.983  29.031  1.00  0.00     0.037 A 
BRANCH  48  62
ATOM     62  C   UNL A   1      39.571  28.956  29.049  1.00  0.00     0.064 A 
ATOM     63  C   UNL A   1      38.761  29.348  27.973  1.00  0.00     0.173 A 
ATOM     64  C   UNL A   1      38.970  28.834  30.312  1.00  0.00     0.173 A 
ATOM     65  F   UNL A   1      39.290  29.492  26.748  1.00  0.00    -0.203 F 
ATOM     66  C   UNL A   1      37.413  29.636  28.158  1.00  0.00     0.198 A 
ATOM     67  C   UNL A   1      37.613  29.092  30.487  1.00  0.00     0.198 A 
ATOM     68  F   UNL A   1      39.696  28.458  31.375  1.00  0.00    -0.203 F 
ATOM     69  F   UNL A   1      36.672  30.061  27.125  1.00  0.00    -0.200 F 
ATOM     70  C   UNL A   1      36.837  29.501  29.412  1.00  0.00     0.200 A 
ATOM     71  F   UNL A   1      37.056  28.947  31.697  1.00  0.00    -0.200 F 
ATOM     72  F   UNL A   1      35.537  29.771  29.588  1.00  0.00    -0.200 F 
ENDBRANCH  48  62
BRANCH  49  73
ATOM     73  C   UNL A   1      49.138  26.471  27.461  1.00  0.00     0.064 A 
ATOM     74  C   UNL A   1      50.037  26.243  28.512  1.00  0.00     0.173 A 
ATOM     75  C   UNL A   1      49.624  26.356  26.151  1.00  0.00     0.173 A 
ATOM     76  F   UNL A   1      49.624  26.358  29.783  1.00  0.00    -0.203 F 
ATOM     77  C   UNL A   1      51.372  25.933  28.264  1.00  0.00     0.198 A 
ATOM     78  C   UNL A   1      50.952  26.018  25.903  1.00  0.00     0.198 A 
ATOM     79  F   UNL A   1      48.803  26.558  25.110  1.00  0.00    -0.203 F 
ATOM     80  F   UNL A   1      52.219  25.763  29.287  1.00  0.00    -0.200 F 
ATOM     81  C   UNL A   1      51.827  25.815  26.960  1.00  0.00     0.200 A 
ATOM     82  F   UNL A   1      51.385  25.890  24.641  1.00  0.00    -0.200 F 
ATOM     83  F   UNL A   1      53.111  25.513  26.721  1.00  0.00    -0.200 F 
ENDBRANCH  49  73
BRANCH  61  84
ATOM     84  C   UNL A   1      45.909  32.350  29.392  1.00  0.00     0.064 A 
ATOM     85  C   UNL A   1      45.995  33.380  28.447  1.00  0.00     0.173 A 
ATOM     86  C   UNL A   1      46.222  32.650  30.728  1.00  0.00     0.173 A 
ATOM     87  F   UNL A   1      45.719  33.137  27.157  1.00  0.00    -0.203 F 
ATOM     88  C   UNL A   1      46.384  34.662  28.824  1.00  0.00     0.198 A 
ATOM     89  C   UNL A   1      46.584  33.939  31.105  1.00  0.00     0.198 A 
ATOM     90  F   UNL A   1      46.148  31.698  31.671  1.00  0.00    -0.203 F 
ATOM     91  F   UNL A   1      46.487  35.628  27.900  1.00  0.00    -0.200 F 
ATOM     92  C   UNL A   1      46.667  34.943  30.153  1.00  0.00     0.200 A 
ATOM     93  F   UNL A   1      46.841  34.212  32.391  1.00  0.00    -0.200 F 
ATOM     94  F   UNL A   1      47.021  36.183  30.516  1.00  0.00    -0.200 F 
ENDBRANCH  61  84
ENDBRANCH  35  36
ENDBRANCH  27  30
ENDBRANCH  25  26
ENDBRANCH  24  25
ENDBRANCH  23  24
ENDBRANCH   3  23
TORSDOF 17
ENDMDL
