MODEL 1
REMARK VINA RESULT:     -10.9      0.000      0.000
REMARK SMILES [NH3+]CC1([C@H](O)C(=O)NCCCNC(=O)c2ccc(-c3c4nc(c(-c5c(F)c(F)c(F)c(F)c5F)c5ccc([nH]5)c(-c5c(F)c(F)c(F)c(F)c5F)c5nc(c(-c6c(F)c(F)c(F)c(F)c6F)c6ccc3[nH]6)C=C5)C=C4)cc2)Cc2ccccc2C1
REMARK SMILES IDX 9 1 8 2 6 3 7 4 4 6 3 7 78 8 85 9 79 10 84 11 80 12 83 13
REMARK SMILES IDX 81 14 82 15 2 16 1 17 5 21 10 23 11 24 12 25 13 26 14 28
REMARK SMILES IDX 15 29 16 30 77 31 17 32 76 33 18 34 19 35 20 36 70 37 21 38
REMARK SMILES IDX 75 39 69 40 71 41 22 42 74 43 68 44 67 45 23 47 55 48 35 49
REMARK SMILES IDX 54 50 36 51 39 52 53 53 72 54 37 55 38 56 52 58 73 59 40 60
REMARK SMILES IDX 24 61 25 62 33 63 26 64 27 65 31 66 34 67 28 68 29 69 32 70
REMARK SMILES IDX 30 71 56 72 57 73 65 74 58 75 59 76 63 77 66 78 60 79 61 80
REMARK SMILES IDX 64 81 62 82 41 83 42 84 50 85 43 86 44 87 48 88 51 89 45 90
REMARK SMILES IDX 46 91 49 92 47 93
REMARK H PARENT 8 5 1 18 1 19 1 20 5 22 12 27 71 46 39 57
REMARK Flexibility Score: inf
ROOT
ATOM      1  C   UNL A   1      33.595  34.996  29.044  1.00  0.00     0.117 C 
ENDROOT
BRANCH   1   2
ATOM      2  N   UNL A   1      32.850  34.947  30.279  1.00  0.00    -0.354 N 
ATOM      3  C   UNL A   1      33.305  35.127  31.548  1.00  0.00     0.249 C 
ATOM      4  O   UNL A   1      32.472  35.079  32.458  1.00  0.00    -0.272 OA
ATOM      5  H   UNL A   1      31.887  34.759  30.192  1.00  0.00     0.163 HD
BRANCH   3   6
ATOM      6  C   UNL A   1      34.808  35.317  31.860  1.00  0.00     0.215 C 
BRANCH   6   7
ATOM      7  C   UNL A   1      35.652  34.074  32.349  1.00  0.00     0.062 C 
ATOM      8  C   UNL A   1      37.118  34.578  32.617  1.00  0.00     0.052 C 
ATOM      9  C   UNL A   1      35.834  33.012  31.215  1.00  0.00     0.052 C 
ATOM     10  C   UNL A   1      37.774  34.384  31.284  1.00  0.00    -0.044 A 
ATOM     11  C   UNL A   1      37.035  33.510  30.486  1.00  0.00    -0.044 A 
ATOM     12  C   UNL A   1      38.970  34.914  30.836  1.00  0.00     0.004 A 
ATOM     13  C   UNL A   1      37.462  33.153  29.219  1.00  0.00     0.004 A 
ATOM     14  C   UNL A   1      39.410  34.565  29.556  1.00  0.00     0.000 A 
ATOM     15  C   UNL A   1      38.660  33.694  28.751  1.00  0.00     0.000 A 
BRANCH   7  16
ATOM     16  C   UNL A   1      35.160  33.342  33.629  1.00  0.00     0.269 C 
BRANCH  16  17
ATOM     17  N   UNL A   1      34.778  34.192  34.751  1.00  0.00    -0.357 N 
ATOM     18  H   UNL A   1      35.323  35.053  34.726  1.00  0.00     0.344 HD
ATOM     19  H   UNL A   1      34.958  33.701  35.626  1.00  0.00     0.344 HD
ATOM     20  H   UNL A   1      33.785  34.416  34.684  1.00  0.00     0.344 HD
ENDBRANCH  16  17
ENDBRANCH   7  16
ENDBRANCH   6   7
BRANCH   6  21
ATOM     21  O   UNL A   1      34.988  36.466  32.697  1.00  0.00    -0.382 OA
ATOM     22  H   UNL A   1      34.509  36.336  33.531  1.00  0.00     0.211 HD
ENDBRANCH   6  21
ENDBRANCH   3   6
ENDBRANCH   1   2
BRANCH   1  23
ATOM     23  C   UNL A   1      33.278  33.869  28.083  1.00  0.00     0.042 C 
BRANCH  23  24
ATOM     24  C   UNL A   1      34.302  32.748  28.047  1.00  0.00     0.118 C 
BRANCH  24  25
ATOM     25  N   UNL A   1      33.759  31.464  27.626  1.00  0.00    -0.352 N 
ATOM     26  C   UNL A   1      34.343  30.216  27.601  1.00  0.00     0.251 C 
ATOM     27  H   UNL A   1      32.827  31.491  27.310  1.00  0.00     0.163 HD
ATOM     28  O   UNL A   1      33.741  29.271  27.107  1.00  0.00    -0.269 OA
BRANCH  26  29
ATOM     29  C   UNL A   1      35.713  30.023  28.128  1.00  0.00     0.039 A 
ATOM     30  C   UNL A   1      35.881  29.703  29.477  1.00  0.00     0.014 A 
ATOM     31  C   UNL A   1      36.828  30.128  27.295  1.00  0.00     0.014 A 
ATOM     32  C   UNL A   1      37.154  29.390  29.963  1.00  0.00     0.010 A 
ATOM     33  C   UNL A   1      38.071  29.703  27.748  1.00  0.00     0.010 A 
ATOM     34  C   UNL A   1      38.252  29.333  29.089  1.00  0.00    -0.014 A 
BRANCH  34  35
ATOM     35  C   UNL A   1      39.598  28.901  29.548  1.00  0.00     0.031 A 
ATOM     36  C   UNL A   1      40.379  29.762  30.503  1.00  0.00     0.074 A 
ATOM     37  C   UNL A   1      40.152  27.779  29.046  1.00  0.00     0.049 A 
ATOM     38  N   UNL A   1      41.604  29.617  30.940  1.00  0.00    -0.248 NA
ATOM     39  C   UNL A   1      39.705  30.971  31.006  1.00  0.00     0.031 C 
ATOM     40  C   UNL A   1      39.524  26.886  28.069  1.00  0.00     0.029 A 
ATOM     41  N   UNL A   1      41.377  27.205  29.278  1.00  0.00    -0.354 N 
ATOM     42  C   UNL A   1      41.852  30.722  31.744  1.00  0.00     0.074 A 
ATOM     43  C   UNL A   1      40.675  31.561  31.686  1.00  0.00     0.031 C 
ATOM     44  C   UNL A   1      40.353  25.862  27.811  1.00  0.00     0.029 A 
ATOM     45  C   UNL A   1      41.587  26.048  28.568  1.00  0.00     0.049 A 
ATOM     46  H   UNL A   1      42.041  27.586  29.896  1.00  0.00     0.167 HD
ATOM     47  C   UNL A   1      42.947  30.999  32.490  1.00  0.00     0.037 A 
ATOM     48  C   UNL A   1      42.658  25.232  28.527  1.00  0.00     0.037 A 
ATOM     49  C   UNL A   1      44.101  30.144  32.577  1.00  0.00     0.049 A 
ATOM     50  C   UNL A   1      43.862  25.558  29.369  1.00  0.00     0.074 A 
ATOM     51  C   UNL A   1      45.236  30.303  33.353  1.00  0.00     0.029 A 
ATOM     52  N   UNL A   1      44.264  28.965  31.865  1.00  0.00    -0.354 N 
ATOM     53  N   UNL A   1      44.058  26.572  30.177  1.00  0.00    -0.248 NA
ATOM     54  C   UNL A   1      44.993  24.623  29.298  1.00  0.00     0.031 C 
ATOM     55  C   UNL A   1      46.104  29.241  33.078  1.00  0.00     0.029 A 
ATOM     56  C   UNL A   1      45.489  28.395  32.169  1.00  0.00     0.049 A 
ATOM     57  H   UNL A   1      43.607  28.589  31.235  1.00  0.00     0.167 HD
ATOM     58  C   UNL A   1      45.316  26.381  30.732  1.00  0.00     0.074 A 
ATOM     59  C   UNL A   1      45.833  25.146  30.179  1.00  0.00     0.031 C 
ATOM     60  C   UNL A   1      45.983  27.159  31.619  1.00  0.00     0.037 A 
BRANCH  47  61
ATOM     61  C   UNL A   1      42.944  32.276  33.280  1.00  0.00     0.064 A 
ATOM     62  C   UNL A   1      42.488  32.317  34.607  1.00  0.00     0.173 A 
ATOM     63  C   UNL A   1      43.428  33.465  32.716  1.00  0.00     0.173 A 
ATOM     64  F   UNL A   1      42.001  31.210  35.189  1.00  0.00    -0.203 F 
ATOM     65  C   UNL A   1      42.484  33.509  35.327  1.00  0.00     0.198 A 
ATOM     66  C   UNL A   1      43.455  34.648  33.452  1.00  0.00     0.198 A 
ATOM     67  F   UNL A   1      43.882  33.481  31.455  1.00  0.00    -0.203 F 
ATOM     68  F   UNL A   1      41.992  33.535  36.574  1.00  0.00    -0.200 F 
ATOM     69  C   UNL A   1      42.976  34.671  34.752  1.00  0.00     0.200 A 
ATOM     70  F   UNL A   1      43.942  35.768  32.899  1.00  0.00    -0.200 F 
ATOM     71  F   UNL A   1      42.979  35.815  35.450  1.00  0.00    -0.200 F 
ENDBRANCH  47  61
BRANCH  48  72
ATOM     72  C   UNL A   1      42.631  24.008  27.682  1.00  0.00     0.064 A 
ATOM     73  C   UNL A   1      42.242  22.774  28.222  1.00  0.00     0.173 A 
ATOM     74  C   UNL A   1      42.996  24.042  26.330  1.00  0.00     0.173 A 
ATOM     75  F   UNL A   1      41.904  22.686  29.517  1.00  0.00    -0.203 F 
ATOM     76  C   UNL A   1      42.241  21.616  27.446  1.00  0.00     0.198 A 
ATOM     77  C   UNL A   1      42.968  22.889  25.548  1.00  0.00     0.198 A 
ATOM     78  F   UNL A   1      43.372  25.199  25.763  1.00  0.00    -0.203 F 
ATOM     79  F   UNL A   1      41.910  20.442  28.000  1.00  0.00    -0.200 F 
ATOM     80  C   UNL A   1      42.599  21.676  26.108  1.00  0.00     0.200 A 
ATOM     81  F   UNL A   1      43.301  22.952  24.251  1.00  0.00    -0.200 F 
ATOM     82  F   UNL A   1      42.595  20.564  25.362  1.00  0.00    -0.200 F 
ENDBRANCH  48  72
BRANCH  60  83
ATOM     83  C   UNL A   1      47.327  26.678  32.081  1.00  0.00     0.064 A 
ATOM     84  C   UNL A   1      48.515  27.123  31.481  1.00  0.00     0.173 A 
ATOM     85  C   UNL A   1      47.429  25.795  33.167  1.00  0.00     0.173 A 
ATOM     86  F   UNL A   1      48.470  27.956  30.430  1.00  0.00    -0.203 F 
ATOM     87  C   UNL A   1      49.754  26.682  31.936  1.00  0.00     0.198 A 
ATOM     88  C   UNL A   1      48.671  25.380  33.638  1.00  0.00     0.198 A 
ATOM     89  F   UNL A   1      46.324  25.347  33.779  1.00  0.00    -0.203 F 
ATOM     90  F   UNL A   1      50.874  27.083  31.318  1.00  0.00    -0.200 F 
ATOM     91  C   UNL A   1      49.831  25.817  33.019  1.00  0.00     0.200 A 
ATOM     92  F   UNL A   1      48.744  24.557  34.693  1.00  0.00    -0.200 F 
ATOM     93  F   UNL A   1      51.026  25.401  33.461  1.00  0.00    -0.200 F 
ENDBRANCH  60  83
ENDBRANCH  34  35
ENDBRANCH  26  29
ENDBRANCH  24  25
ENDBRANCH  23  24
ENDBRANCH   1  23
TORSDOF 14
ENDMDL
MODEL 2
REMARK VINA RESULT:     -10.9      4.094     11.189
REMARK SMILES [NH3+]CC1([C@H](O)C(=O)NCCCNC(=O)c2ccc(-c3c4nc(c(-c5c(F)c(F)c(F)c(F)c5F)c5ccc([nH]5)c(-c5c(F)c(F)c(F)c(F)c5F)c5nc(c(-c6c(F)c(F)c(F)c(F)c6F)c6ccc3[nH]6)C=C5)C=C4)cc2)Cc2ccccc2C1
REMARK SMILES IDX 9 1 8 2 6 3 7 4 4 6 3 7 78 8 85 9 79 10 84 11 80 12 83 13
REMARK SMILES IDX 81 14 82 15 2 16 1 17 5 21 10 23 11 24 12 25 13 26 14 28
REMARK SMILES IDX 15 29 16 30 77 31 17 32 76 33 18 34 19 35 20 36 70 37 21 38
REMARK SMILES IDX 75 39 69 40 71 41 22 42 74 43 68 44 67 45 23 47 55 48 35 49
REMARK SMILES IDX 54 50 36 51 39 52 53 53 72 54 37 55 38 56 52 58 73 59 40 60
REMARK SMILES IDX 24 61 25 62 33 63 26 64 27 65 31 66 34 67 28 68 29 69 32 70
REMARK SMILES IDX 30 71 56 72 57 73 65 74 58 75 59 76 63 77 66 78 60 79 61 80
REMARK SMILES IDX 64 81 62 82 41 83 42 84 50 85 43 86 44 87 48 88 51 89 45 90
REMARK SMILES IDX 46 91 49 92 47 93
REMARK H PARENT 8 5 1 18 1 19 1 20 5 22 12 27 71 46 39 57
REMARK Flexibility Score: inf
ROOT
ATOM      1  C   UNL A   1      42.255  19.653  26.281  1.00  0.00     0.117 C 
ENDROOT
BRANCH   1   2
ATOM      2  N   UNL A   1      42.974  19.574  25.032  1.00  0.00    -0.354 N 
ATOM      3  C   UNL A   1      44.181  20.115  24.717  1.00  0.00     0.249 C 
ATOM      4  O   UNL A   1      44.626  19.883  23.589  1.00  0.00    -0.272 OA
ATOM      5  H   UNL A   1      42.534  19.062  24.316  1.00  0.00     0.163 HD
BRANCH   3   6
ATOM      6  C   UNL A   1      44.945  21.040  25.694  1.00  0.00     0.215 C 
BRANCH   6   7
ATOM      7  C   UNL A   1      44.760  22.604  25.571  1.00  0.00     0.062 C 
ATOM      8  C   UNL A   1      45.656  23.271  26.679  1.00  0.00     0.052 C 
ATOM      9  C   UNL A   1      43.312  23.052  25.956  1.00  0.00     0.052 C 
ATOM     10  C   UNL A   1      44.721  23.344  27.848  1.00  0.00    -0.044 A 
ATOM     11  C   UNL A   1      43.396  23.202  27.437  1.00  0.00    -0.044 A 
ATOM     12  C   UNL A   1      45.033  23.570  29.176  1.00  0.00     0.004 A 
ATOM     13  C   UNL A   1      42.349  23.268  28.340  1.00  0.00     0.004 A 
ATOM     14  C   UNL A   1      43.985  23.634  30.099  1.00  0.00     0.000 A 
ATOM     15  C   UNL A   1      42.653  23.480  29.685  1.00  0.00     0.000 A 
BRANCH   7  16
ATOM     16  C   UNL A   1      45.126  23.256  24.208  1.00  0.00     0.269 C 
BRANCH  16  17
ATOM     17  N   UNL A   1      46.405  22.863  23.628  1.00  0.00    -0.357 N 
ATOM     18  H   UNL A   1      46.697  21.969  24.023  1.00  0.00     0.344 HD
ATOM     19  H   UNL A   1      47.106  23.573  23.837  1.00  0.00     0.344 HD
ATOM     20  H   UNL A   1      46.305  22.770  22.617  1.00  0.00     0.344 HD
ENDBRANCH  16  17
ENDBRANCH   7  16
ENDBRANCH   6   7
BRANCH   6  21
ATOM     21  O   UNL A   1      46.323  20.653  25.751  1.00  0.00    -0.382 OA
ATOM     22  H   UNL A   1      46.387  19.723  26.021  1.00  0.00     0.211 HD
ENDBRANCH   6  21
ENDBRANCH   3   6
ENDBRANCH   1   2
BRANCH   1  23
ATOM     23  C   UNL A   1      40.768  19.895  26.127  1.00  0.00     0.042 C 
BRANCH  23  24
ATOM     24  C   UNL A   1      40.274  21.229  26.656  1.00  0.00     0.118 C 
BRANCH  24  25
ATOM     25  N   UNL A   1      39.018  21.673  26.068  1.00  0.00    -0.352 N 
ATOM     26  C   UNL A   1      38.427  22.916  26.065  1.00  0.00     0.251 C 
ATOM     27  H   UNL A   1      38.512  20.972  25.597  1.00  0.00     0.163 HD
ATOM     28  O   UNL A   1      37.304  23.058  25.597  1.00  0.00    -0.269 OA
BRANCH  26  29
ATOM     29  C   UNL A   1      39.124  24.076  26.667  1.00  0.00     0.039 A 
ATOM     30  C   UNL A   1      39.954  24.860  25.861  1.00  0.00     0.014 A 
ATOM     31  C   UNL A   1      38.944  24.409  28.010  1.00  0.00     0.014 A 
ATOM     32  C   UNL A   1      40.517  26.031  26.378  1.00  0.00     0.010 A 
ATOM     33  C   UNL A   1      39.406  25.630  28.487  1.00  0.00     0.010 A 
ATOM     34  C   UNL A   1      40.202  26.455  27.679  1.00  0.00    -0.014 A 
BRANCH  34  35
ATOM     35  C   UNL A   1      40.696  27.746  28.223  1.00  0.00     0.031 A 
ATOM     36  C   UNL A   1      42.168  27.945  28.469  1.00  0.00     0.074 A 
ATOM     37  C   UNL A   1      39.819  28.709  28.573  1.00  0.00     0.049 A 
ATOM     38  N   UNL A   1      42.787  28.951  29.032  1.00  0.00    -0.248 NA
ATOM     39  C   UNL A   1      43.060  26.848  28.060  1.00  0.00     0.031 C 
ATOM     40  C   UNL A   1      38.364  28.619  28.441  1.00  0.00     0.029 A 
ATOM     41  N   UNL A   1      40.025  29.948  29.126  1.00  0.00    -0.354 N 
ATOM     42  C   UNL A   1      44.129  28.597  29.066  1.00  0.00     0.074 A 
ATOM     43  C   UNL A   1      44.229  27.260  28.525  1.00  0.00     0.031 C 
ATOM     44  C   UNL A   1      37.810  29.765  28.869  1.00  0.00     0.029 A 
ATOM     45  C   UNL A   1      38.866  30.653  29.346  1.00  0.00     0.049 A 
ATOM     46  H   UNL A   1      40.918  30.300  29.343  1.00  0.00     0.167 HD
ATOM     47  C   UNL A   1      45.189  29.332  29.480  1.00  0.00     0.037 A 
ATOM     48  C   UNL A   1      38.676  31.875  29.880  1.00  0.00     0.037 A 
ATOM     49  C   UNL A   1      45.092  30.677  29.982  1.00  0.00     0.049 A 
ATOM     50  C   UNL A   1      39.870  32.673  30.328  1.00  0.00     0.074 A 
ATOM     51  C   UNL A   1      46.112  31.529  30.367  1.00  0.00     0.029 A 
ATOM     52  N   UNL A   1      43.903  31.367  30.162  1.00  0.00    -0.354 N 
ATOM     53  N   UNL A   1      41.141  32.354  30.293  1.00  0.00    -0.248 NA
ATOM     54  C   UNL A   1      39.603  34.007  30.886  1.00  0.00     0.031 C 
ATOM     55  C   UNL A   1      45.536  32.721  30.821  1.00  0.00     0.029 A 
ATOM     56  C   UNL A   1      44.161  32.628  30.672  1.00  0.00     0.049 A 
ATOM     57  H   UNL A   1      43.006  31.012  29.960  1.00  0.00     0.167 HD
ATOM     58  C   UNL A   1      41.825  33.454  30.792  1.00  0.00     0.074 A 
ATOM     59  C   UNL A   1      40.829  34.456  31.111  1.00  0.00     0.031 C 
ATOM     60  C   UNL A   1      43.159  33.618  30.971  1.00  0.00     0.037 A 
BRANCH  47  61
ATOM     61  C   UNL A   1      46.547  28.697  29.397  1.00  0.00     0.064 A 
ATOM     62  C   UNL A   1      47.083  27.965  30.468  1.00  0.00     0.173 A 
ATOM     63  C   UNL A   1      47.311  28.798  28.224  1.00  0.00     0.173 A 
ATOM     64  F   UNL A   1      46.400  27.850  31.617  1.00  0.00    -0.203 F 
ATOM     65  C   UNL A   1      48.347  27.386  30.380  1.00  0.00     0.198 A 
ATOM     66  C   UNL A   1      48.560  28.188  28.128  1.00  0.00     0.198 A 
ATOM     67  F   UNL A   1      46.845  29.481  27.169  1.00  0.00    -0.203 F 
ATOM     68  F   UNL A   1      48.860  26.739  31.435  1.00  0.00    -0.200 F 
ATOM     69  C   UNL A   1      49.080  27.491  29.208  1.00  0.00     0.200 A 
ATOM     70  F   UNL A   1      49.263  28.281  26.991  1.00  0.00    -0.200 F 
ATOM     71  F   UNL A   1      50.293  26.927  29.122  1.00  0.00    -0.200 F 
ENDBRANCH  47  61
BRANCH  48  72
ATOM     72  C   UNL A   1      37.302  32.434  29.991  1.00  0.00     0.064 A 
ATOM     73  C   UNL A   1      36.799  33.299  29.010  1.00  0.00     0.173 A 
ATOM     74  C   UNL A   1      36.471  32.125  31.077  1.00  0.00     0.173 A 
ATOM     75  F   UNL A   1      37.565  33.640  27.962  1.00  0.00    -0.203 F 
ATOM     76  C   UNL A   1      35.524  33.850  29.120  1.00  0.00     0.198 A 
ATOM     77  C   UNL A   1      35.185  32.656  31.172  1.00  0.00     0.198 A 
ATOM     78  F   UNL A   1      36.903  31.300  32.042  1.00  0.00    -0.203 F 
ATOM     79  F   UNL A   1      35.087  34.711  28.190  1.00  0.00    -0.200 F 
ATOM     80  C   UNL A   1      34.716  33.524  30.198  1.00  0.00     0.200 A 
ATOM     81  F   UNL A   1      34.402  32.328  32.209  1.00  0.00    -0.200 F 
ATOM     82  F   UNL A   1      33.490  34.053  30.303  1.00  0.00    -0.200 F 
ENDBRANCH  48  72
BRANCH  60  83
ATOM     83  C   UNL A   1      43.624  34.944  31.498  1.00  0.00     0.064 A 
ATOM     84  C   UNL A   1      43.893  36.024  30.643  1.00  0.00     0.173 A 
ATOM     85  C   UNL A   1      43.758  35.150  32.880  1.00  0.00     0.173 A 
ATOM     86  F   UNL A   1      43.792  35.874  29.314  1.00  0.00    -0.203 F 
ATOM     87  C   UNL A   1      44.304  37.253  31.152  1.00  0.00     0.198 A 
ATOM     88  C   UNL A   1      44.140  36.388  33.386  1.00  0.00     0.198 A 
ATOM     89  F   UNL A   1      43.506  34.151  33.739  1.00  0.00    -0.203 F 
ATOM     90  F   UNL A   1      44.600  38.256  30.315  1.00  0.00    -0.200 F 
ATOM     91  C   UNL A   1      44.419  37.436  32.523  1.00  0.00     0.200 A 
ATOM     92  F   UNL A   1      44.237  36.567  34.711  1.00  0.00    -0.200 F 
ATOM     93  F   UNL A   1      44.806  38.622  33.010  1.00  0.00    -0.200 F 
ENDBRANCH  60  83
ENDBRANCH  34  35
ENDBRANCH  26  29
ENDBRANCH  24  25
ENDBRANCH  23  24
ENDBRANCH   1  23
TORSDOF 14
ENDMDL
MODEL 3
REMARK VINA RESULT:     -10.1      3.473      9.817
REMARK SMILES [NH3+]CC1([C@H](O)C(=O)NCCCNC(=O)c2ccc(-c3c4nc(c(-c5c(F)c(F)c(F)c(F)c5F)c5ccc([nH]5)c(-c5c(F)c(F)c(F)c(F)c5F)c5nc(c(-c6c(F)c(F)c(F)c(F)c6F)c6ccc3[nH]6)C=C5)C=C4)cc2)Cc2ccccc2C1
REMARK SMILES IDX 9 1 8 2 6 3 7 4 4 6 3 7 78 8 85 9 79 10 84 11 80 12 83 13
REMARK SMILES IDX 81 14 82 15 2 16 1 17 5 21 10 23 11 24 12 25 13 26 14 28
REMARK SMILES IDX 15 29 16 30 77 31 17 32 76 33 18 34 19 35 20 36 70 37 21 38
REMARK SMILES IDX 75 39 69 40 71 41 22 42 74 43 68 44 67 45 23 47 55 48 35 49
REMARK SMILES IDX 54 50 36 51 39 52 53 53 72 54 37 55 38 56 52 58 73 59 40 60
REMARK SMILES IDX 24 61 25 62 33 63 26 64 27 65 31 66 34 67 28 68 29 69 32 70
REMARK SMILES IDX 30 71 56 72 57 73 65 74 58 75 59 76 63 77 66 78 60 79 61 80
REMARK SMILES IDX 64 81 62 82 41 83 42 84 50 85 43 86 44 87 48 88 51 89 45 90
REMARK SMILES IDX 46 91 49 92 47 93
REMARK H PARENT 8 5 1 18 1 19 1 20 5 22 12 27 71 46 39 57
REMARK Flexibility Score: inf
ROOT
ATOM      1  C   UNL A   1      31.800  30.565  26.441  1.00  0.00     0.117 C 
ENDROOT
BRANCH   1   2
ATOM      2  N   UNL A   1      33.133  30.132  26.785  1.00  0.00    -0.354 N 
ATOM      3  C   UNL A   1      33.569  28.871  27.051  1.00  0.00     0.249 C 
ATOM      4  O   UNL A   1      34.773  28.729  27.286  1.00  0.00    -0.272 OA
ATOM      5  H   UNL A   1      33.815  30.840  26.835  1.00  0.00     0.163 HD
BRANCH   3   6
ATOM      6  C   UNL A   1      32.600  27.667  27.125  1.00  0.00     0.215 C 
BRANCH   6   7
ATOM      7  C   UNL A   1      32.227  26.902  25.795  1.00  0.00     0.062 C 
ATOM      8  C   UNL A   1      31.658  25.494  26.207  1.00  0.00     0.052 C 
ATOM      9  C   UNL A   1      33.495  26.549  24.950  1.00  0.00     0.052 C 
ATOM     10  C   UNL A   1      32.892  24.646  26.240  1.00  0.00    -0.044 A 
ATOM     11  C   UNL A   1      33.936  25.254  25.543  1.00  0.00    -0.044 A 
ATOM     12  C   UNL A   1      33.054  23.397  26.814  1.00  0.00     0.004 A 
ATOM     13  C   UNL A   1      35.169  24.641  25.410  1.00  0.00     0.004 A 
ATOM     14  C   UNL A   1      34.296  22.770  26.691  1.00  0.00     0.000 A 
ATOM     15  C   UNL A   1      35.348  23.388  25.997  1.00  0.00     0.000 A 
BRANCH   7  16
ATOM     16  C   UNL A   1      31.188  27.577  24.856  1.00  0.00     0.269 C 
BRANCH  16  17
ATOM     17  N   UNL A   1      31.721  28.217  23.658  1.00  0.00    -0.357 N 
ATOM     18  H   UNL A   1      31.080  28.948  23.349  1.00  0.00     0.344 HD
ATOM     19  H   UNL A   1      31.827  27.522  22.919  1.00  0.00     0.344 HD
ATOM     20  H   UNL A   1      32.630  28.630  23.870  1.00  0.00     0.344 HD
ENDBRANCH  16  17
ENDBRANCH   7  16
ENDBRANCH   6   7
BRANCH   6  21
ATOM     21  O   UNL A   1      31.446  28.019  27.898  1.00  0.00    -0.382 OA
ATOM     22  H   UNL A   1      31.029  27.213  28.240  1.00  0.00     0.211 HD
ENDBRANCH   6  21
ENDBRANCH   3   6
ENDBRANCH   1   2
BRANCH   1  23
ATOM     23  C   UNL A   1      31.531  32.028  26.723  1.00  0.00     0.042 C 
BRANCH  23  24
ATOM     24  C   UNL A   1      32.689  32.788  27.344  1.00  0.00     0.118 C 
BRANCH  24  25
ATOM     25  N   UNL A   1      32.382  34.173  27.673  1.00  0.00    -0.352 N 
ATOM     26  C   UNL A   1      32.963  35.020  28.590  1.00  0.00     0.251 C 
ATOM     27  H   UNL A   1      31.641  34.566  27.157  1.00  0.00     0.163 HD
ATOM     28  O   UNL A   1      32.482  36.129  28.788  1.00  0.00    -0.269 OA
BRANCH  26  29
ATOM     29  C   UNL A   1      34.141  34.579  29.372  1.00  0.00     0.039 A 
ATOM     30  C   UNL A   1      33.949  34.080  30.663  1.00  0.00     0.014 A 
ATOM     31  C   UNL A   1      35.426  34.631  28.832  1.00  0.00     0.014 A 
ATOM     32  C   UNL A   1      35.030  33.540  31.366  1.00  0.00     0.010 A 
ATOM     33  C   UNL A   1      36.475  33.989  29.480  1.00  0.00     0.010 A 
ATOM     34  C   UNL A   1      36.292  33.439  30.757  1.00  0.00    -0.014 A 
BRANCH  34  35
ATOM     35  C   UNL A   1      37.437  32.775  31.433  1.00  0.00     0.031 A 
ATOM     36  C   UNL A   1      38.132  31.617  30.769  1.00  0.00     0.074 A 
ATOM     37  C   UNL A   1      37.799  33.156  32.674  1.00  0.00     0.049 A 
ATOM     38  N   UNL A   1      39.077  30.839  31.234  1.00  0.00    -0.248 NA
ATOM     39  C   UNL A   1      37.678  31.261  29.415  1.00  0.00     0.031 C 
ATOM     40  C   UNL A   1      37.170  34.226  33.451  1.00  0.00     0.029 A 
ATOM     41  N   UNL A   1      38.780  32.677  33.507  1.00  0.00    -0.354 N 
ATOM     42  C   UNL A   1      39.309  29.895  30.243  1.00  0.00     0.074 A 
ATOM     43  C   UNL A   1      38.366  30.155  29.178  1.00  0.00     0.031 C 
ATOM     44  C   UNL A   1      37.798  34.342  34.632  1.00  0.00     0.029 A 
ATOM     45  C   UNL A   1      38.845  33.329  34.714  1.00  0.00     0.049 A 
ATOM     46  H   UNL A   1      39.379  31.936  33.262  1.00  0.00     0.167 HD
ATOM     47  C   UNL A   1      40.246  28.917  30.207  1.00  0.00     0.037 A 
ATOM     48  C   UNL A   1      39.655  33.127  35.772  1.00  0.00     0.037 A 
ATOM     49  C   UNL A   1      41.209  28.684  31.250  1.00  0.00     0.049 A 
ATOM     50  C   UNL A   1      40.691  32.038  35.706  1.00  0.00     0.074 A 
ATOM     51  C   UNL A   1      42.239  27.760  31.281  1.00  0.00     0.029 A 
ATOM     52  N   UNL A   1      41.262  29.385  32.445  1.00  0.00    -0.354 N 
ATOM     53  N   UNL A   1      40.946  31.195  34.735  1.00  0.00    -0.248 NA
ATOM     54  C   UNL A   1      41.558  31.877  36.881  1.00  0.00     0.031 C 
ATOM     55  C   UNL A   1      42.890  27.875  32.515  1.00  0.00     0.029 A 
ATOM     56  C   UNL A   1      42.296  28.903  33.230  1.00  0.00     0.049 A 
ATOM     57  H   UNL A   1      40.654  30.117  32.699  1.00  0.00     0.167 HD
ATOM     58  C   UNL A   1      42.017  30.426  35.168  1.00  0.00     0.074 A 
ATOM     59  C   UNL A   1      42.375  30.912  36.485  1.00  0.00     0.031 C 
ATOM     60  C   UNL A   1      42.647  29.407  34.533  1.00  0.00     0.037 A 
BRANCH  47  61
ATOM     61  C   UNL A   1      40.279  28.033  28.994  1.00  0.00     0.064 A 
ATOM     62  C   UNL A   1      41.022  28.378  27.853  1.00  0.00     0.173 A 
ATOM     63  C   UNL A   1      39.585  26.814  28.979  1.00  0.00     0.173 A 
ATOM     64  F   UNL A   1      41.692  29.540  27.810  1.00  0.00    -0.203 F 
ATOM     65  C   UNL A   1      41.041  27.552  26.732  1.00  0.00     0.198 A 
ATOM     66  C   UNL A   1      39.634  25.974  27.868  1.00  0.00     0.198 A 
ATOM     67  F   UNL A   1      38.865  26.433  30.044  1.00  0.00    -0.203 F 
ATOM     68  F   UNL A   1      41.712  27.930  25.635  1.00  0.00    -0.200 F 
ATOM     69  C   UNL A   1      40.354  26.348  26.744  1.00  0.00     0.200 A 
ATOM     70  F   UNL A   1      38.980  24.805  27.886  1.00  0.00    -0.200 F 
ATOM     71  F   UNL A   1      40.379  25.551  25.667  1.00  0.00    -0.200 F 
ENDBRANCH  47  61
BRANCH  48  72
ATOM     72  C   UNL A   1      39.542  33.997  36.974  1.00  0.00     0.064 A 
ATOM     73  C   UNL A   1      38.777  33.597  38.078  1.00  0.00     0.173 A 
ATOM     74  C   UNL A   1      40.186  35.240  37.041  1.00  0.00     0.173 A 
ATOM     75  F   UNL A   1      38.126  32.425  38.052  1.00  0.00    -0.203 F 
ATOM     76  C   UNL A   1      38.643  34.418  39.197  1.00  0.00     0.198 A 
ATOM     77  C   UNL A   1      40.072  36.048  38.172  1.00  0.00     0.198 A 
ATOM     78  F   UNL A   1      40.933  35.668  36.013  1.00  0.00    -0.203 F 
ATOM     79  F   UNL A   1      37.867  34.031  40.218  1.00  0.00    -0.200 F 
ATOM     80  C   UNL A   1      39.295  35.640  39.244  1.00  0.00     0.200 A 
ATOM     81  F   UNL A   1      40.715  37.223  38.220  1.00  0.00    -0.200 F 
ATOM     82  F   UNL A   1      39.167  36.428  40.320  1.00  0.00    -0.200 F 
ENDBRANCH  48  72
BRANCH  60  83
ATOM     83  C   UNL A   1      43.815  28.777  35.233  1.00  0.00     0.064 A 
ATOM     84  C   UNL A   1      43.658  27.669  36.078  1.00  0.00     0.173 A 
ATOM     85  C   UNL A   1      45.115  29.263  35.019  1.00  0.00     0.173 A 
ATOM     86  F   UNL A   1      42.435  27.177  36.325  1.00  0.00    -0.203 F 
ATOM     87  C   UNL A   1      44.756  27.085  36.703  1.00  0.00     0.198 A 
ATOM     88  C   UNL A   1      46.214  28.658  35.622  1.00  0.00     0.198 A 
ATOM     89  F   UNL A   1      45.319  30.316  34.214  1.00  0.00    -0.203 F 
ATOM     90  F   UNL A   1      44.578  26.056  37.543  1.00  0.00    -0.200 F 
ATOM     91  C   UNL A   1      46.033  27.575  36.468  1.00  0.00     0.200 A 
ATOM     92  F   UNL A   1      47.447  29.123  35.382  1.00  0.00    -0.200 F 
ATOM     93  F   UNL A   1      47.090  27.006  37.064  1.00  0.00    -0.200 F 
ENDBRANCH  60  83
ENDBRANCH  34  35
ENDBRANCH  26  29
ENDBRANCH  24  25
ENDBRANCH  23  24
ENDBRANCH   1  23
TORSDOF 14
ENDMDL
