MODEL 1
REMARK VINA RESULT:     -11.3      0.000      0.000
REMARK SMILES Cc1c(/C=C/c2cc(C(=O)NCCCNC(=O)c3ccc(-c4c5nc(c(-c6c(F)c(F)c(F)c(F)c6F)c6ccc([nH]6)c(-c6c(F)c(F)c(F)c(F)c6F)c6nc(c(-c7c(F)c(F)c(F)c(F)c7F)c7ccc4[nH]7)C=C6)C=C5)cc3)c3ccccc3n2)cc(C#N)n1C
REMARK SMILES IDX 12 1 11 2 9 3 10 4 8 6 6 7 7 8 87 9 86 10 81 11 85 12 82 13
REMARK SMILES IDX 84 14 83 15 5 16 4 17 3 18 1 19 2 20 92 21 88 22 89 23 93 24
REMARK SMILES IDX 90 25 91 26 13 27 14 28 15 29 16 30 17 32 18 33 19 34 80 35
REMARK SMILES IDX 20 36 79 37 21 38 22 39 23 40 73 41 24 42 78 43 72 44 74 45
REMARK SMILES IDX 25 46 77 47 71 48 70 49 26 51 58 52 38 53 57 54 39 55 42 56
REMARK SMILES IDX 56 57 75 58 40 59 41 60 55 62 76 63 43 64 27 65 28 66 36 67
REMARK SMILES IDX 29 68 30 69 34 70 37 71 31 72 32 73 35 74 33 75 59 76 60 77
REMARK SMILES IDX 68 78 61 79 62 80 66 81 69 82 63 83 64 84 67 85 65 86 44 87
REMARK SMILES IDX 45 88 53 89 46 90 47 91 51 92 54 93 48 94 49 95 52 96 50 97
REMARK H PARENT 11 5 15 31 74 50 42 61
REMARK Flexibility Score: inf
ROOT
ATOM      1  C   UNL A   1      34.015  34.866  29.540  1.00  0.00     0.118 C 
ENDROOT
BRANCH   1   2
ATOM      2  N   UNL A   1      33.797  33.933  30.619  1.00  0.00    -0.352 N 
ATOM      3  C   UNL A   1      34.605  33.336  31.543  1.00  0.00     0.252 C 
ATOM      4  O   UNL A   1      34.052  32.438  32.190  1.00  0.00    -0.269 OA
ATOM      5  H   UNL A   1      32.853  33.667  30.708  1.00  0.00     0.163 HD
BRANCH   3   6
ATOM      6  C   UNL A   1      36.002  33.731  31.929  1.00  0.00     0.051 A 
ATOM      7  C   UNL A   1      37.287  34.323  33.873  1.00  0.00     0.065 A 
ATOM      8  C   UNL A   1      36.094  33.927  33.313  1.00  0.00     0.042 A 
ATOM      9  N   UNL A   1      38.371  34.622  33.143  1.00  0.00    -0.248 NA
ATOM     10  C   UNL A   1      38.324  34.419  31.825  1.00  0.00     0.072 A 
ATOM     11  C   UNL A   1      37.188  33.901  31.158  1.00  0.00     0.013 A 
ATOM     12  C   UNL A   1      39.486  34.705  31.115  1.00  0.00     0.029 A 
ATOM     13  C   UNL A   1      37.390  33.552  29.805  1.00  0.00     0.011 A 
ATOM     14  C   UNL A   1      39.593  34.481  29.746  1.00  0.00     0.002 A 
ATOM     15  C   UNL A   1      38.541  33.879  29.087  1.00  0.00     0.001 A 
BRANCH   7  16
ATOM     16  C   UNL A   1      37.405  34.340  35.326  1.00  0.00     0.029 C 
ATOM     17  C   UNL A   1      38.079  33.429  36.039  1.00  0.00     0.012 C 
BRANCH  17  18
ATOM     18  C   UNL A   1      38.201  33.376  37.462  1.00  0.00    -0.003 A 
ATOM     19  C   UNL A   1      39.420  35.622  38.071  1.00  0.00     0.065 C 
ATOM     20  C   UNL A   1      38.764  34.304  38.330  1.00  0.00     0.023 A 
ATOM     21  N   UNL A   1      38.602  33.800  39.612  1.00  0.00    -0.339 N 
ATOM     22  C   UNL A   1      37.696  32.305  38.242  1.00  0.00     0.048 A 
ATOM     23  C   UNL A   1      37.949  32.592  39.563  1.00  0.00     0.120 A 
ATOM     24  C   UNL A   1      39.040  34.469  40.821  1.00  0.00     0.150 C 
BRANCH  23  25
ATOM     25  C   UNL A   1      37.587  31.789  40.684  1.00  0.00     0.118 C 
ATOM     26  N   UNL A   1      37.309  31.147  41.606  1.00  0.00    -0.191 NA
ENDBRANCH  23  25
ENDBRANCH  17  18
ENDBRANCH   7  16
ENDBRANCH   3   6
ENDBRANCH   1   2
BRANCH   1  27
ATOM     27  C   UNL A   1      33.762  34.154  28.211  1.00  0.00     0.042 C 
BRANCH  27  28
ATOM     28  C   UNL A   1      34.703  33.001  27.944  1.00  0.00     0.118 C 
BRANCH  28  29
ATOM     29  N   UNL A   1      33.959  31.774  27.712  1.00  0.00    -0.352 N 
ATOM     30  C   UNL A   1      34.410  30.481  27.631  1.00  0.00     0.251 C 
ATOM     31  H   UNL A   1      32.989  31.887  27.596  1.00  0.00     0.163 HD
ATOM     32  O   UNL A   1      33.707  29.629  27.099  1.00  0.00    -0.269 OA
BRANCH  30  33
ATOM     33  C   UNL A   1      35.737  30.114  28.173  1.00  0.00     0.039 A 
ATOM     34  C   UNL A   1      35.826  29.647  29.488  1.00  0.00     0.014 A 
ATOM     35  C   UNL A   1      36.897  30.263  27.410  1.00  0.00     0.014 A 
ATOM     36  C   UNL A   1      37.068  29.289  30.013  1.00  0.00     0.010 A 
ATOM     37  C   UNL A   1      38.112  29.792  27.889  1.00  0.00     0.010 A 
ATOM     38  C   UNL A   1      38.215  29.325  29.205  1.00  0.00    -0.014 A 
BRANCH  38  39
ATOM     39  C   UNL A   1      39.540  28.908  29.724  1.00  0.00     0.031 A 
ATOM     40  C   UNL A   1      40.231  29.737  30.772  1.00  0.00     0.074 A 
ATOM     41  C   UNL A   1      40.142  27.820  29.208  1.00  0.00     0.049 A 
ATOM     42  N   UNL A   1      41.417  29.578  31.303  1.00  0.00    -0.248 NA
ATOM     43  C   UNL A   1      39.508  30.919  31.268  1.00  0.00     0.031 C 
ATOM     44  C   UNL A   1      39.586  26.967  28.156  1.00  0.00     0.029 A 
ATOM     45  N   UNL A   1      41.357  27.250  29.491  1.00  0.00    -0.354 N 
ATOM     46  C   UNL A   1      41.583  30.643  32.179  1.00  0.00     0.074 A 
ATOM     47  C   UNL A   1      40.409  31.480  32.058  1.00  0.00     0.031 C 
ATOM     48  C   UNL A   1      40.441  25.964  27.906  1.00  0.00     0.029 A 
ATOM     49  C   UNL A   1      41.629  26.136  28.736  1.00  0.00     0.049 A 
ATOM     50  H   UNL A   1      41.975  27.607  30.170  1.00  0.00     0.167 HD
ATOM     51  C   UNL A   1      42.610  30.888  33.026  1.00  0.00     0.037 A 
ATOM     52  C   UNL A   1      42.722  25.349  28.708  1.00  0.00     0.037 A 
ATOM     53  C   UNL A   1      43.769  30.042  33.143  1.00  0.00     0.049 A 
ATOM     54  C   UNL A   1      43.866  25.662  29.633  1.00  0.00     0.074 A 
ATOM     55  C   UNL A   1      44.843  30.166  34.006  1.00  0.00     0.029 A 
ATOM     56  N   UNL A   1      44.010  28.921  32.361  1.00  0.00    -0.354 N 
ATOM     57  N   UNL A   1      43.981  26.630  30.511  1.00  0.00    -0.248 NA
ATOM     58  C   UNL A   1      45.029  24.769  29.570  1.00  0.00     0.031 C 
ATOM     59  C   UNL A   1      45.769  29.167  33.694  1.00  0.00     0.029 A 
ATOM     60  C   UNL A   1      45.236  28.367  32.696  1.00  0.00     0.049 A 
ATOM     61  H   UNL A   1      43.402  28.571  31.671  1.00  0.00     0.167 HD
ATOM     62  C   UNL A   1      45.212  26.443  31.126  1.00  0.00     0.074 A 
ATOM     63  C   UNL A   1      45.798  25.261  30.531  1.00  0.00     0.031 C 
ATOM     64  C   UNL A   1      45.803  27.184  32.096  1.00  0.00     0.037 A 
BRANCH  51  65
ATOM     65  C   UNL A   1      42.533  32.122  33.880  1.00  0.00     0.064 A 
ATOM     66  C   UNL A   1      42.893  33.389  33.391  1.00  0.00     0.173 A 
ATOM     67  C   UNL A   1      42.069  32.043  35.203  1.00  0.00     0.173 A 
ATOM     68  F   UNL A   1      43.353  33.524  32.137  1.00  0.00    -0.203 F 
ATOM     69  C   UNL A   1      42.829  34.519  34.203  1.00  0.00     0.198 A 
ATOM     70  C   UNL A   1      41.967  33.181  35.998  1.00  0.00     0.198 A 
ATOM     71  F   UNL A   1      41.706  30.862  35.723  1.00  0.00    -0.203 F 
ATOM     72  F   UNL A   1      43.241  35.704  33.732  1.00  0.00    -0.200 F 
ATOM     73  C   UNL A   1      42.359  34.415  35.503  1.00  0.00     0.200 A 
ATOM     74  F   UNL A   1      41.494  33.081  37.249  1.00  0.00    -0.200 F 
ATOM     75  F   UNL A   1      42.290  35.504  36.281  1.00  0.00    -0.200 F 
ENDBRANCH  51  65
BRANCH  52  76
ATOM     76  C   UNL A   1      42.777  24.189  27.779  1.00  0.00     0.064 A 
ATOM     77  C   UNL A   1      42.443  22.899  28.213  1.00  0.00     0.173 A 
ATOM     78  C   UNL A   1      43.163  24.345  26.439  1.00  0.00     0.173 A 
ATOM     79  F   UNL A   1      42.082  22.695  29.489  1.00  0.00    -0.203 F 
ATOM     80  C   UNL A   1      42.520  21.806  27.352  1.00  0.00     0.198 A 
ATOM     81  C   UNL A   1      43.204  23.258  25.569  1.00  0.00     0.198 A 
ATOM     82  F   UNL A   1      43.482  25.560  25.968  1.00  0.00    -0.203 F 
ATOM     83  F   UNL A   1      42.248  20.576  27.808  1.00  0.00    -0.200 F 
ATOM     84  C   UNL A   1      42.893  21.988  26.029  1.00  0.00     0.200 A 
ATOM     85  F   UNL A   1      43.543  23.442  24.286  1.00  0.00    -0.200 F 
ATOM     86  F   UNL A   1      42.960  20.937  25.200  1.00  0.00    -0.200 F 
ENDBRANCH  52  76
BRANCH  64  87
ATOM     87  C   UNL A   1      47.133  26.713  32.613  1.00  0.00     0.064 A 
ATOM     88  C   UNL A   1      47.237  25.749  33.628  1.00  0.00     0.173 A 
ATOM     89  C   UNL A   1      48.323  27.202  32.050  1.00  0.00     0.173 A 
ATOM     90  F   UNL A   1      46.132  25.257  34.208  1.00  0.00    -0.203 F 
ATOM     91  C   UNL A   1      48.481  25.316  34.079  1.00  0.00     0.198 A 
ATOM     92  C   UNL A   1      49.563  26.737  32.476  1.00  0.00     0.198 A 
ATOM     93  F   UNL A   1      48.282  28.119  31.072  1.00  0.00    -0.203 F 
ATOM     94  F   UNL A   1      48.555  24.438  35.088  1.00  0.00    -0.200 F 
ATOM     95  C   UNL A   1      49.642  25.802  33.496  1.00  0.00     0.200 A 
ATOM     96  F   UNL A   1      50.682  27.191  31.896  1.00  0.00    -0.200 F 
ATOM     97  F   UNL A   1      50.837  25.373  33.924  1.00  0.00    -0.200 F 
ENDBRANCH  64  87
ENDBRANCH  38  39
ENDBRANCH  30  33
ENDBRANCH  28  29
ENDBRANCH  27  28
ENDBRANCH   1  27
TORSDOF 13
ENDMDL
MODEL 2
REMARK VINA RESULT:     -11.2      6.151     11.657
REMARK SMILES Cc1c(/C=C/c2cc(C(=O)NCCCNC(=O)c3ccc(-c4c5nc(c(-c6c(F)c(F)c(F)c(F)c6F)c6ccc([nH]6)c(-c6c(F)c(F)c(F)c(F)c6F)c6nc(c(-c7c(F)c(F)c(F)c(F)c7F)c7ccc4[nH]7)C=C6)C=C5)cc3)c3ccccc3n2)cc(C#N)n1C
REMARK SMILES IDX 12 1 11 2 9 3 10 4 8 6 6 7 7 8 87 9 86 10 81 11 85 12 82 13
REMARK SMILES IDX 84 14 83 15 5 16 4 17 3 18 1 19 2 20 92 21 88 22 89 23 93 24
REMARK SMILES IDX 90 25 91 26 13 27 14 28 15 29 16 30 17 32 18 33 19 34 80 35
REMARK SMILES IDX 20 36 79 37 21 38 22 39 23 40 73 41 24 42 78 43 72 44 74 45
REMARK SMILES IDX 25 46 77 47 71 48 70 49 26 51 58 52 38 53 57 54 39 55 42 56
REMARK SMILES IDX 56 57 75 58 40 59 41 60 55 62 76 63 43 64 27 65 28 66 36 67
REMARK SMILES IDX 29 68 30 69 34 70 37 71 31 72 32 73 35 74 33 75 59 76 60 77
REMARK SMILES IDX 68 78 61 79 62 80 66 81 69 82 63 83 64 84 67 85 65 86 44 87
REMARK SMILES IDX 45 88 53 89 46 90 47 91 51 92 54 93 48 94 49 95 52 96 50 97
REMARK H PARENT 11 5 15 31 74 50 42 61
REMARK Flexibility Score: inf
ROOT
ATOM      1  C   UNL A   1      37.499  20.949  24.651  1.00  0.00     0.118 C 
ENDROOT
BRANCH   1   2
ATOM      2  N   UNL A   1      36.652  21.228  25.786  1.00  0.00    -0.352 N 
ATOM      3  C   UNL A   1      35.315  21.454  25.946  1.00  0.00     0.252 C 
ATOM      4  O   UNL A   1      35.004  21.847  27.077  1.00  0.00    -0.269 OA
ATOM      5  H   UNL A   1      37.150  21.262  26.634  1.00  0.00     0.163 HD
BRANCH   3   6
ATOM      6  C   UNL A   1      34.213  21.163  24.968  1.00  0.00     0.051 A 
ATOM      7  C   UNL A   1      32.449  22.283  23.780  1.00  0.00     0.065 A 
ATOM      8  C   UNL A   1      33.521  22.335  24.642  1.00  0.00     0.042 A 
ATOM      9  N   UNL A   1      31.966  21.134  23.286  1.00  0.00    -0.248 NA
ATOM     10  C   UNL A   1      32.620  20.003  23.555  1.00  0.00     0.072 A 
ATOM     11  C   UNL A   1      33.802  19.955  24.333  1.00  0.00     0.013 A 
ATOM     12  C   UNL A   1      32.105  18.842  22.988  1.00  0.00     0.029 A 
ATOM     13  C   UNL A   1      34.474  18.713  24.334  1.00  0.00     0.011 A 
ATOM     14  C   UNL A   1      32.724  17.605  23.138  1.00  0.00     0.002 A 
ATOM     15  C   UNL A   1      33.932  17.542  23.800  1.00  0.00     0.001 A 
BRANCH   7  16
ATOM     16  C   UNL A   1      31.865  23.536  23.315  1.00  0.00     0.029 C 
ATOM     17  C   UNL A   1      31.711  24.626  24.077  1.00  0.00     0.012 C 
BRANCH  17  18
ATOM     18  C   UNL A   1      31.118  25.866  23.687  1.00  0.00    -0.003 A 
ATOM     19  C   UNL A   1      33.139  27.262  22.758  1.00  0.00     0.065 C 
ATOM     20  C   UNL A   1      31.716  26.986  23.123  1.00  0.00     0.023 A 
ATOM     21  N   UNL A   1      30.705  27.909  22.900  1.00  0.00    -0.339 N 
ATOM     22  C   UNL A   1      29.729  26.128  23.801  1.00  0.00     0.048 A 
ATOM     23  C   UNL A   1      29.498  27.390  23.303  1.00  0.00     0.120 A 
ATOM     24  C   UNL A   1      30.900  29.217  22.308  1.00  0.00     0.150 C 
BRANCH  23  25
ATOM     25  C   UNL A   1      28.233  28.039  23.209  1.00  0.00     0.118 C 
ATOM     26  N   UNL A   1      27.216  28.587  23.130  1.00  0.00    -0.191 NA
ENDBRANCH  23  25
ENDBRANCH  17  18
ENDBRANCH   7  16
ENDBRANCH   3   6
ENDBRANCH   1   2
BRANCH   1  27
ATOM     27  C   UNL A   1      38.379  19.741  24.976  1.00  0.00     0.042 C 
BRANCH  27  28
ATOM     28  C   UNL A   1      39.274  19.940  26.179  1.00  0.00     0.118 C 
BRANCH  28  29
ATOM     29  N   UNL A   1      40.414  19.039  26.126  1.00  0.00    -0.352 N 
ATOM     30  C   UNL A   1      41.750  19.326  26.007  1.00  0.00     0.251 C 
ATOM     31  H   UNL A   1      40.194  18.081  26.183  1.00  0.00     0.163 HD
ATOM     32  O   UNL A   1      42.524  18.450  25.639  1.00  0.00    -0.269 OA
BRANCH  30  33
ATOM     33  C   UNL A   1      42.256  20.682  26.313  1.00  0.00     0.039 A 
ATOM     34  C   UNL A   1      42.648  21.512  25.258  1.00  0.00     0.014 A 
ATOM     35  C   UNL A   1      42.383  21.128  27.630  1.00  0.00     0.014 A 
ATOM     36  C   UNL A   1      43.121  22.797  25.527  1.00  0.00     0.010 A 
ATOM     37  C   UNL A   1      42.736  22.445  27.890  1.00  0.00     0.010 A 
ATOM     38  C   UNL A   1      43.134  23.285  26.843  1.00  0.00    -0.014 A 
BRANCH  38  39
ATOM     39  C   UNL A   1      43.589  24.662  27.152  1.00  0.00     0.031 A 
ATOM     40  C   UNL A   1      42.615  25.670  27.700  1.00  0.00     0.074 A 
ATOM     41  C   UNL A   1      44.859  25.017  26.883  1.00  0.00     0.049 A 
ATOM     42  N   UNL A   1      42.800  26.937  27.970  1.00  0.00    -0.248 NA
ATOM     43  C   UNL A   1      41.242  25.200  27.949  1.00  0.00     0.031 C 
ATOM     44  C   UNL A   1      45.878  24.137  26.309  1.00  0.00     0.029 A 
ATOM     45  N   UNL A   1      45.508  26.215  27.048  1.00  0.00    -0.354 N 
ATOM     46  C   UNL A   1      41.569  27.412  28.404  1.00  0.00     0.074 A 
ATOM     47  C   UNL A   1      40.629  26.320  28.295  1.00  0.00     0.031 C 
ATOM     48  C   UNL A   1      47.032  24.813  26.200  1.00  0.00     0.029 A 
ATOM     49  C   UNL A   1      46.820  26.187  26.642  1.00  0.00     0.049 A 
ATOM     50  H   UNL A   1      45.075  27.016  27.421  1.00  0.00     0.167 HD
ATOM     51  C   UNL A   1      41.258  28.643  28.875  1.00  0.00     0.037 A 
ATOM     52  C   UNL A   1      47.743  27.167  26.616  1.00  0.00     0.037 A 
ATOM     53  C   UNL A   1      42.206  29.720  28.987  1.00  0.00     0.049 A 
ATOM     54  C   UNL A   1      47.364  28.536  27.111  1.00  0.00     0.074 A 
ATOM     55  C   UNL A   1      42.012  30.990  29.500  1.00  0.00     0.029 A 
ATOM     56  N   UNL A   1      43.528  29.656  28.565  1.00  0.00    -0.354 N 
ATOM     57  N   UNL A   1      46.216  28.957  27.589  1.00  0.00    -0.248 NA
ATOM     58  C   UNL A   1      48.409  29.566  27.071  1.00  0.00     0.031 C 
ATOM     59  C   UNL A   1      43.191  31.718  29.317  1.00  0.00     0.029 A 
ATOM     60  C   UNL A   1      44.148  30.879  28.770  1.00  0.00     0.049 A 
ATOM     61  H   UNL A   1      43.959  28.861  28.177  1.00  0.00     0.167 HD
ATOM     62  C   UNL A   1      46.410  30.287  27.935  1.00  0.00     0.074 A 
ATOM     63  C   UNL A   1      47.790  30.599  27.628  1.00  0.00     0.031 C 
ATOM     64  C   UNL A   1      45.527  31.170  28.462  1.00  0.00     0.037 A 
BRANCH  51  65
ATOM     65  C   UNL A   1      39.835  28.893  29.291  1.00  0.00     0.064 A 
ATOM     66  C   UNL A   1      39.397  28.684  30.608  1.00  0.00     0.173 A 
ATOM     67  C   UNL A   1      38.898  29.373  28.362  1.00  0.00     0.173 A 
ATOM     68  F   UNL A   1      40.247  28.217  31.537  1.00  0.00    -0.203 F 
ATOM     69  C   UNL A   1      38.071  28.906  30.970  1.00  0.00     0.198 A 
ATOM     70  C   UNL A   1      37.584  29.633  28.736  1.00  0.00     0.198 A 
ATOM     71  F   UNL A   1      39.260  29.596  27.090  1.00  0.00    -0.203 F 
ATOM     72  F   UNL A   1      37.664  28.635  32.218  1.00  0.00    -0.200 F 
ATOM     73  C   UNL A   1      37.167  29.388  30.035  1.00  0.00     0.200 A 
ATOM     74  F   UNL A   1      36.716  30.117  27.836  1.00  0.00    -0.200 F 
ATOM     75  F   UNL A   1      35.893  29.609  30.386  1.00  0.00    -0.200 F 
ENDBRANCH  51  65
BRANCH  52  76
ATOM     76  C   UNL A   1      49.113  26.883  26.113  1.00  0.00     0.064 A 
ATOM     77  C   UNL A   1      49.430  27.031  24.756  1.00  0.00     0.173 A 
ATOM     78  C   UNL A   1      50.134  26.458  26.976  1.00  0.00     0.173 A 
ATOM     79  F   UNL A   1      48.486  27.421  23.886  1.00  0.00    -0.203 F 
ATOM     80  C   UNL A   1      50.706  26.739  24.277  1.00  0.00     0.198 A 
ATOM     81  C   UNL A   1      51.419  26.201  26.504  1.00  0.00     0.198 A 
ATOM     82  F   UNL A   1      49.887  26.309  28.287  1.00  0.00    -0.203 F 
ATOM     83  F   UNL A   1      50.967  26.838  22.967  1.00  0.00    -0.200 F 
ATOM     84  C   UNL A   1      51.701  26.331  25.153  1.00  0.00     0.200 A 
ATOM     85  F   UNL A   1      52.382  25.829  27.357  1.00  0.00    -0.200 F 
ATOM     86  F   UNL A   1      52.930  26.057  24.694  1.00  0.00    -0.200 F 
ENDBRANCH  52  76
BRANCH  64  87
ATOM     87  C   UNL A   1      46.034  32.547  28.786  1.00  0.00     0.064 A 
ATOM     88  C   UNL A   1      46.626  32.850  30.021  1.00  0.00     0.173 A 
ATOM     89  C   UNL A   1      45.966  33.569  27.824  1.00  0.00     0.173 A 
ATOM     90  F   UNL A   1      46.705  31.915  30.980  1.00  0.00    -0.203 F 
ATOM     91  C   UNL A   1      47.104  34.130  30.292  1.00  0.00     0.198 A 
ATOM     92  C   UNL A   1      46.481  34.835  28.084  1.00  0.00     0.198 A 
ATOM     93  F   UNL A   1      45.417  33.332  26.623  1.00  0.00    -0.203 F 
ATOM     94  F   UNL A   1      47.613  34.410  31.499  1.00  0.00    -0.200 F 
ATOM     95  C   UNL A   1      47.040  35.117  29.320  1.00  0.00     0.200 A 
ATOM     96  F   UNL A   1      46.439  35.781  27.136  1.00  0.00    -0.200 F 
ATOM     97  F   UNL A   1      47.513  36.344  29.579  1.00  0.00    -0.200 F 
ENDBRANCH  64  87
ENDBRANCH  38  39
ENDBRANCH  30  33
ENDBRANCH  28  29
ENDBRANCH  27  28
ENDBRANCH   1  27
TORSDOF 13
ENDMDL
MODEL 3
REMARK VINA RESULT:     -11.2      3.615     10.869
REMARK SMILES Cc1c(/C=C/c2cc(C(=O)NCCCNC(=O)c3ccc(-c4c5nc(c(-c6c(F)c(F)c(F)c(F)c6F)c6ccc([nH]6)c(-c6c(F)c(F)c(F)c(F)c6F)c6nc(c(-c7c(F)c(F)c(F)c(F)c7F)c7ccc4[nH]7)C=C6)C=C5)cc3)c3ccccc3n2)cc(C#N)n1C
REMARK SMILES IDX 12 1 11 2 9 3 10 4 8 6 6 7 7 8 87 9 86 10 81 11 85 12 82 13
REMARK SMILES IDX 84 14 83 15 5 16 4 17 3 18 1 19 2 20 92 21 88 22 89 23 93 24
REMARK SMILES IDX 90 25 91 26 13 27 14 28 15 29 16 30 17 32 18 33 19 34 80 35
REMARK SMILES IDX 20 36 79 37 21 38 22 39 23 40 73 41 24 42 78 43 72 44 74 45
REMARK SMILES IDX 25 46 77 47 71 48 70 49 26 51 58 52 38 53 57 54 39 55 42 56
REMARK SMILES IDX 56 57 75 58 40 59 41 60 55 62 76 63 43 64 27 65 28 66 36 67
REMARK SMILES IDX 29 68 30 69 34 70 37 71 31 72 32 73 35 74 33 75 59 76 60 77
REMARK SMILES IDX 68 78 61 79 62 80 66 81 69 82 63 83 64 84 67 85 65 86 44 87
REMARK SMILES IDX 45 88 53 89 46 90 47 91 51 92 54 93 48 94 49 95 52 96 50 97
REMARK H PARENT 11 5 15 31 74 50 42 61
REMARK Flexibility Score: inf
ROOT
ATOM      1  C   UNL A   1      33.937  30.819  26.990  1.00  0.00     0.118 C 
ENDROOT
BRANCH   1   2
ATOM      2  N   UNL A   1      33.039  29.855  27.579  1.00  0.00    -0.352 N 
ATOM      3  C   UNL A   1      32.201  28.901  27.078  1.00  0.00     0.252 C 
ATOM      4  O   UNL A   1      31.449  28.399  27.922  1.00  0.00    -0.269 OA
ATOM      5  H   UNL A   1      33.030  29.893  28.562  1.00  0.00     0.163 HD
BRANCH   3   6
ATOM      6  C   UNL A   1      32.188  28.330  25.688  1.00  0.00     0.051 A 
ATOM      7  C   UNL A   1      33.259  26.620  24.381  1.00  0.00     0.065 A 
ATOM      8  C   UNL A   1      33.093  27.267  25.584  1.00  0.00     0.042 A 
ATOM      9  N   UNL A   1      32.650  27.014  23.253  1.00  0.00    -0.248 NA
ATOM     10  C   UNL A   1      31.760  28.005  23.324  1.00  0.00     0.072 A 
ATOM     11  C   UNL A   1      31.424  28.662  24.532  1.00  0.00     0.013 A 
ATOM     12  C   UNL A   1      31.124  28.351  22.137  1.00  0.00     0.029 A 
ATOM     13  C   UNL A   1      30.315  29.533  24.457  1.00  0.00     0.011 A 
ATOM     14  C   UNL A   1      30.132  29.325  22.082  1.00  0.00     0.002 A 
ATOM     15  C   UNL A   1      29.709  29.908  23.257  1.00  0.00     0.001 A 
BRANCH   7  16
ATOM     16  C   UNL A   1      34.064  25.405  24.345  1.00  0.00     0.029 C 
ATOM     17  C   UNL A   1      34.667  24.868  25.413  1.00  0.00     0.012 C 
BRANCH  17  18
ATOM     18  C   UNL A   1      35.493  23.702  25.432  1.00  0.00    -0.003 A 
ATOM     19  C   UNL A   1      33.896  21.790  24.599  1.00  0.00     0.065 C 
ATOM     20  C   UNL A   1      35.174  22.395  25.085  1.00  0.00     0.023 A 
ATOM     21  N   UNL A   1      36.331  21.646  25.245  1.00  0.00    -0.339 N 
ATOM     22  C   UNL A   1      36.860  23.729  25.805  1.00  0.00     0.048 A 
ATOM     23  C   UNL A   1      37.357  22.453  25.675  1.00  0.00     0.120 A 
ATOM     24  C   UNL A   1      36.436  20.226  24.975  1.00  0.00     0.150 C 
BRANCH  23  25
ATOM     25  C   UNL A   1      38.697  22.040  25.927  1.00  0.00     0.118 C 
ATOM     26  N   UNL A   1      39.793  21.725  26.125  1.00  0.00    -0.191 NA
ENDBRANCH  23  25
ENDBRANCH  17  18
ENDBRANCH   7  16
ENDBRANCH   3   6
ENDBRANCH   1   2
BRANCH   1  27
ATOM     27  C   UNL A   1      33.730  32.170  27.675  1.00  0.00     0.042 C 
BRANCH  27  28
ATOM     28  C   UNL A   1      32.350  32.756  27.474  1.00  0.00     0.118 C 
BRANCH  28  29
ATOM     29  N   UNL A   1      32.362  34.190  27.706  1.00  0.00    -0.352 N 
ATOM     30  C   UNL A   1      33.030  34.916  28.659  1.00  0.00     0.251 C 
ATOM     31  H   UNL A   1      31.808  34.720  27.088  1.00  0.00     0.163 HD
ATOM     32  O   UNL A   1      32.660  36.056  28.918  1.00  0.00    -0.269 OA
BRANCH  30  33
ATOM     33  C   UNL A   1      34.183  34.330  29.376  1.00  0.00     0.039 A 
ATOM     34  C   UNL A   1      33.954  33.613  30.554  1.00  0.00     0.014 A 
ATOM     35  C   UNL A   1      35.490  34.514  28.919  1.00  0.00     0.014 A 
ATOM     36  C   UNL A   1      35.029  33.047  31.241  1.00  0.00     0.010 A 
ATOM     37  C   UNL A   1      36.543  33.849  29.532  1.00  0.00     0.010 A 
ATOM     38  C   UNL A   1      36.328  33.131  30.715  1.00  0.00    -0.014 A 
BRANCH  38  39
ATOM     39  C   UNL A   1      37.482  32.500  31.399  1.00  0.00     0.031 A 
ATOM     40  C   UNL A   1      38.185  31.332  30.764  1.00  0.00     0.074 A 
ATOM     41  C   UNL A   1      37.854  32.941  32.615  1.00  0.00     0.049 A 
ATOM     42  N   UNL A   1      39.167  30.603  31.232  1.00  0.00    -0.248 NA
ATOM     43  C   UNL A   1      37.702  30.904  29.441  1.00  0.00     0.031 C 
ATOM     44  C   UNL A   1      37.216  34.037  33.347  1.00  0.00     0.029 A 
ATOM     45  N   UNL A   1      38.853  32.518  33.455  1.00  0.00    -0.354 N 
ATOM     46  C   UNL A   1      39.405  29.630  30.269  1.00  0.00     0.074 A 
ATOM     47  C   UNL A   1      38.422  29.815  29.226  1.00  0.00     0.031 C 
ATOM     48  C   UNL A   1      37.859  34.222  34.510  1.00  0.00     0.029 A 
ATOM     49  C   UNL A   1      38.915  33.223  34.631  1.00  0.00     0.049 A 
ATOM     50  H   UNL A   1      39.466  31.779  33.234  1.00  0.00     0.167 HD
ATOM     51  C   UNL A   1      40.373  28.683  30.247  1.00  0.00     0.037 A 
ATOM     52  C   UNL A   1      39.726  33.068  35.696  1.00  0.00     0.037 A 
ATOM     53  C   UNL A   1      41.351  28.515  31.289  1.00  0.00     0.049 A 
ATOM     54  C   UNL A   1      40.770  31.986  35.663  1.00  0.00     0.074 A 
ATOM     55  C   UNL A   1      42.408  27.625  31.344  1.00  0.00     0.029 A 
ATOM     56  N   UNL A   1      41.383  29.248  32.468  1.00  0.00    -0.354 N 
ATOM     57  N   UNL A   1      41.035  31.118  34.716  1.00  0.00    -0.248 NA
ATOM     58  C   UNL A   1      41.634  31.866  36.844  1.00  0.00     0.031 C 
ATOM     59  C   UNL A   1      43.031  27.764  32.587  1.00  0.00     0.029 A 
ATOM     60  C   UNL A   1      42.419  28.800  33.273  1.00  0.00     0.049 A 
ATOM     61  H   UNL A   1      40.762  29.976  32.698  1.00  0.00     0.167 HD
ATOM     62  C   UNL A   1      42.114  30.372  35.171  1.00  0.00     0.074 A 
ATOM     63  C   UNL A   1      42.464  30.901  36.473  1.00  0.00     0.031 C 
ATOM     64  C   UNL A   1      42.757  29.343  34.566  1.00  0.00     0.037 A 
BRANCH  51  65
ATOM     65  C   UNL A   1      40.411  27.751  29.069  1.00  0.00     0.064 A 
ATOM     66  C   UNL A   1      41.189  28.021  27.932  1.00  0.00     0.173 A 
ATOM     67  C   UNL A   1      39.676  26.555  29.086  1.00  0.00     0.173 A 
ATOM     68  F   UNL A   1      41.905  29.155  27.855  1.00  0.00    -0.203 F 
ATOM     69  C   UNL A   1      41.199  27.152  26.843  1.00  0.00     0.198 A 
ATOM     70  C   UNL A   1      39.720  25.669  28.013  1.00  0.00     0.198 A 
ATOM     71  F   UNL A   1      38.919  26.241  30.147  1.00  0.00    -0.203 F 
ATOM     72  F   UNL A   1      41.898  27.467  25.744  1.00  0.00    -0.200 F 
ATOM     73  C   UNL A   1      40.471  25.973  26.888  1.00  0.00     0.200 A 
ATOM     74  F   UNL A   1      39.031  24.520  28.067  1.00  0.00    -0.200 F 
ATOM     75  F   UNL A   1      40.487  25.134  25.844  1.00  0.00    -0.200 F 
ENDBRANCH  51  65
BRANCH  52  76
ATOM     76  C   UNL A   1      39.585  33.967  36.872  1.00  0.00     0.064 A 
ATOM     77  C   UNL A   1      38.822  33.587  37.985  1.00  0.00     0.173 A 
ATOM     78  C   UNL A   1      40.209  35.223  36.910  1.00  0.00     0.173 A 
ATOM     79  F   UNL A   1      38.193  32.402  37.993  1.00  0.00    -0.203 F 
ATOM     80  C   UNL A   1      38.666  34.439  39.077  1.00  0.00     0.198 A 
ATOM     81  C   UNL A   1      40.083  36.059  38.017  1.00  0.00     0.198 A 
ATOM     82  F   UNL A   1      40.959  35.632  35.875  1.00  0.00    -0.203 F 
ATOM     83  F   UNL A   1      37.888  34.073  40.104  1.00  0.00    -0.200 F 
ATOM     84  C   UNL A   1      39.303  35.671  39.095  1.00  0.00     0.200 A 
ATOM     85  F   UNL A   1      40.718  37.239  38.039  1.00  0.00    -0.200 F 
ATOM     86  F   UNL A   1      39.158  36.487  40.148  1.00  0.00    -0.200 F 
ENDBRANCH  52  76
BRANCH  64  87
ATOM     87  C   UNL A   1      43.938  28.749  35.281  1.00  0.00     0.064 A 
ATOM     88  C   UNL A   1      45.247  29.204  35.061  1.00  0.00     0.173 A 
ATOM     89  C   UNL A   1      43.749  27.737  36.238  1.00  0.00     0.173 A 
ATOM     90  F   UNL A   1      45.485  30.159  34.149  1.00  0.00    -0.203 F 
ATOM     91  C   UNL A   1      46.323  28.648  35.747  1.00  0.00     0.198 A 
ATOM     92  C   UNL A   1      44.822  27.214  36.951  1.00  0.00     0.198 A 
ATOM     93  F   UNL A   1      42.517  27.271  36.494  1.00  0.00    -0.203 F 
ATOM     94  F   UNL A   1      47.570  29.059  35.477  1.00  0.00    -0.200 F 
ATOM     95  C   UNL A   1      46.109  27.662  36.698  1.00  0.00     0.200 A 
ATOM     96  F   UNL A   1      44.610  26.277  37.885  1.00  0.00    -0.200 F 
ATOM     97  F   UNL A   1      47.146  27.139  37.367  1.00  0.00    -0.200 F 
ENDBRANCH  64  87
ENDBRANCH  38  39
ENDBRANCH  30  33
ENDBRANCH  28  29
ENDBRANCH  27  28
ENDBRANCH   1  27
TORSDOF 13
ENDMDL
