MODEL 1
REMARK VINA RESULT:     -11.7      0.000      0.000
REMARK SMILES C=CC[N@@H+](CC(=O)NCCCNC(=O)c1ccc(-c2c3nc(c(-c4c(F)c(F)c(F)c(F)c4F)c4ccc([nH]4)c(-c4c(F)c(F)c(F)c(F)c4F)c4nc(c(-c5c(F)c(F)c(F)c(F)c5F)c5ccc2[nH]5)C=C4)C=C3)cc1)Cc1cccc2ccccc12
REMARK SMILES IDX 9 1 8 2 6 3 7 4 5 6 4 7 3 9 2 10 1 11 78 12 79 13 80 14
REMARK SMILES IDX 88 15 81 16 83 17 87 18 82 19 84 20 86 21 85 22 10 23 11 24
REMARK SMILES IDX 12 25 13 26 14 28 15 29 16 30 77 31 17 32 76 33 18 34 19 35
REMARK SMILES IDX 20 36 70 37 21 38 75 39 69 40 71 41 22 42 74 43 68 44 67 45
REMARK SMILES IDX 23 47 55 48 35 49 54 50 36 51 39 52 53 53 72 54 37 55 38 56
REMARK SMILES IDX 52 58 73 59 40 60 24 61 25 62 33 63 26 64 27 65 31 66 34 67
REMARK SMILES IDX 28 68 29 69 32 70 30 71 56 72 57 73 65 74 58 75 59 76 63 77
REMARK SMILES IDX 66 78 60 79 61 80 64 81 62 82 41 83 42 84 50 85 43 86 44 87
REMARK SMILES IDX 48 88 51 89 45 90 46 91 49 92 47 93
REMARK H PARENT 8 5 4 8 12 27 71 46 39 57
REMARK Flexibility Score: inf
ROOT
ATOM      1  C   UNL A   1      31.409  30.782  25.869  1.00  0.00     0.118 C 
ENDROOT
BRANCH   1   2
ATOM      2  N   UNL A   1      31.901  29.660  26.647  1.00  0.00    -0.351 N 
ATOM      3  C   UNL A   1      33.079  28.956  26.580  1.00  0.00     0.275 C 
ATOM      4  O   UNL A   1      33.549  28.545  27.647  1.00  0.00    -0.269 OA
ATOM      5  H   UNL A   1      31.281  29.349  27.345  1.00  0.00     0.163 HD
BRANCH   3   6
ATOM      6  C   UNL A   1      33.808  28.678  25.267  1.00  0.00     0.364 C 
BRANCH   6   7
ATOM      7  N   UNL A   1      33.185  27.655  24.419  1.00  0.00    -0.320 N 
ATOM      8  H   UNL A   1      32.371  27.433  24.992  1.00  0.00     0.349 HD
BRANCH   7   9
ATOM      9  C   UNL A   1      33.899  26.409  24.353  1.00  0.00     0.291 C 
BRANCH   9  10
ATOM     10  C   UNL A   1      33.959  25.591  25.603  1.00  0.00     0.025 C 
ATOM     11  C   UNL A   1      33.640  24.290  25.625  1.00  0.00     0.010 C 
ENDBRANCH   9  10
ENDBRANCH   7   9
BRANCH   7  12
ATOM     12  C   UNL A   1      32.293  28.027  23.319  1.00  0.00     0.300 C 
BRANCH  12  13
ATOM     13  C   UNL A   1      30.771  27.870  23.277  1.00  0.00     0.014 A 
ATOM     14  C   UNL A   1      30.328  26.610  23.749  1.00  0.00     0.010 A 
ATOM     15  C   UNL A   1      29.763  28.756  22.799  1.00  0.00    -0.010 A 
ATOM     16  C   UNL A   1      28.981  26.308  23.914  1.00  0.00     0.001 A 
ATOM     17  C   UNL A   1      28.403  28.514  23.140  1.00  0.00    -0.018 A 
ATOM     18  C   UNL A   1      29.973  29.867  21.971  1.00  0.00     0.009 A 
ATOM     19  C   UNL A   1      28.030  27.289  23.687  1.00  0.00     0.009 A 
ATOM     20  C   UNL A   1      27.407  29.477  22.904  1.00  0.00     0.009 A 
ATOM     21  C   UNL A   1      28.967  30.806  21.705  1.00  0.00     0.001 A 
ATOM     22  C   UNL A   1      27.695  30.642  22.215  1.00  0.00     0.001 A 
ENDBRANCH  12  13
ENDBRANCH   7  12
ENDBRANCH   6   7
ENDBRANCH   3   6
ENDBRANCH   1   2
BRANCH   1  23
ATOM     23  C   UNL A   1      31.344  32.193  26.497  1.00  0.00     0.042 C 
BRANCH  23  24
ATOM     24  C   UNL A   1      32.580  32.881  27.081  1.00  0.00     0.118 C 
BRANCH  24  25
ATOM     25  N   UNL A   1      32.357  34.212  27.609  1.00  0.00    -0.352 N 
ATOM     26  C   UNL A   1      33.044  34.839  28.626  1.00  0.00     0.251 C 
ATOM     27  H   UNL A   1      31.630  34.728  27.192  1.00  0.00     0.163 HD
ATOM     28  O   UNL A   1      32.693  35.941  29.028  1.00  0.00    -0.269 OA
BRANCH  26  29
ATOM     29  C   UNL A   1      34.210  34.177  29.254  1.00  0.00     0.039 A 
ATOM     30  C   UNL A   1      35.499  34.550  28.865  1.00  0.00     0.014 A 
ATOM     31  C   UNL A   1      34.032  33.126  30.156  1.00  0.00     0.014 A 
ATOM     32  C   UNL A   1      36.607  33.890  29.410  1.00  0.00     0.010 A 
ATOM     33  C   UNL A   1      35.140  32.500  30.734  1.00  0.00     0.010 A 
ATOM     34  C   UNL A   1      36.441  32.869  30.363  1.00  0.00    -0.014 A 
BRANCH  34  35
ATOM     35  C   UNL A   1      37.623  32.200  30.978  1.00  0.00     0.031 A 
ATOM     36  C   UNL A   1      38.103  32.580  32.354  1.00  0.00     0.074 A 
ATOM     37  C   UNL A   1      38.290  31.262  30.278  1.00  0.00     0.049 A 
ATOM     38  N   UNL A   1      39.098  32.084  33.052  1.00  0.00    -0.248 NA
ATOM     39  C   UNL A   1      37.387  33.671  33.028  1.00  0.00     0.031 C 
ATOM     40  C   UNL A   1      37.961  30.840  28.916  1.00  0.00     0.029 A 
ATOM     41  N   UNL A   1      39.381  30.496  30.609  1.00  0.00    -0.354 N 
ATOM     42  C   UNL A   1      39.123  32.800  34.242  1.00  0.00     0.074 A 
ATOM     43  C   UNL A   1      38.085  33.806  34.147  1.00  0.00     0.031 C 
ATOM     44  C   UNL A   1      38.809  29.869  28.540  1.00  0.00     0.029 A 
ATOM     45  C   UNL A   1      39.762  29.623  29.618  1.00  0.00     0.049 A 
ATOM     46  H   UNL A   1      39.846  30.566  31.474  1.00  0.00     0.167 HD
ATOM     47  C   UNL A   1      39.921  32.624  35.325  1.00  0.00     0.037 A 
ATOM     48  C   UNL A   1      40.765  28.725  29.582  1.00  0.00     0.037 A 
ATOM     49  C   UNL A   1      40.956  31.624  35.416  1.00  0.00     0.049 A 
ATOM     50  C   UNL A   1      41.654  28.563  30.786  1.00  0.00     0.074 A 
ATOM     51  C   UNL A   1      41.782  31.330  36.487  1.00  0.00     0.029 A 
ATOM     52  N   UNL A   1      41.318  30.763  34.388  1.00  0.00    -0.354 N 
ATOM     53  N   UNL A   1      41.611  29.185  31.938  1.00  0.00    -0.248 NA
ATOM     54  C   UNL A   1      42.726  27.561  30.687  1.00  0.00     0.031 C 
ATOM     55  C   UNL A   1      42.683  30.335  36.088  1.00  0.00     0.029 A 
ATOM     56  C   UNL A   1      42.375  29.960  34.790  1.00  0.00     0.049 A 
ATOM     57  H   UNL A   1      40.887  30.729  33.504  1.00  0.00     0.167 HD
ATOM     58  C   UNL A   1      42.625  28.635  32.710  1.00  0.00     0.074 A 
ATOM     59  C   UNL A   1      43.256  27.614  31.900  1.00  0.00     0.031 C 
ATOM     60  C   UNL A   1      42.997  28.946  33.976  1.00  0.00     0.037 A 
BRANCH  47  61
ATOM     61  C   UNL A   1      39.711  33.539  36.501  1.00  0.00     0.064 A 
ATOM     62  C   UNL A   1      40.364  34.779  36.597  1.00  0.00     0.173 A 
ATOM     63  C   UNL A   1      38.824  33.189  37.531  1.00  0.00     0.173 A 
ATOM     64  F   UNL A   1      41.224  35.165  35.642  1.00  0.00    -0.203 F 
ATOM     65  C   UNL A   1      40.170  35.611  37.698  1.00  0.00     0.198 A 
ATOM     66  C   UNL A   1      38.607  34.039  38.613  1.00  0.00     0.198 A 
ATOM     67  F   UNL A   1      38.161  32.024  37.487  1.00  0.00    -0.203 F 
ATOM     68  F   UNL A   1      40.851  36.761  37.794  1.00  0.00    -0.200 F 
ATOM     69  C   UNL A   1      39.288  35.243  38.702  1.00  0.00     0.200 A 
ATOM     70  F   UNL A   1      37.738  33.691  39.574  1.00  0.00    -0.200 F 
ATOM     71  F   UNL A   1      39.100  36.046  39.758  1.00  0.00    -0.200 F 
ENDBRANCH  47  61
BRANCH  48  72
ATOM     72  C   UNL A   1      40.958  27.882  28.372  1.00  0.00     0.064 A 
ATOM     73  C   UNL A   1      41.804  28.295  27.332  1.00  0.00     0.173 A 
ATOM     74  C   UNL A   1      40.311  26.645  28.233  1.00  0.00     0.173 A 
ATOM     75  F   UNL A   1      42.431  29.478  27.409  1.00  0.00    -0.203 F 
ATOM     76  C   UNL A   1      41.981  27.511  26.194  1.00  0.00     0.198 A 
ATOM     77  C   UNL A   1      40.513  25.849  27.108  1.00  0.00     0.198 A 
ATOM     78  F   UNL A   1      39.496  26.201  29.201  1.00  0.00    -0.203 F 
ATOM     79  F   UNL A   1      42.762  27.949  25.197  1.00  0.00    -0.200 F 
ATOM     80  C   UNL A   1      41.342  26.286  26.086  1.00  0.00     0.200 A 
ATOM     81  F   UNL A   1      39.908  24.657  27.016  1.00  0.00    -0.200 F 
ATOM     82  F   UNL A   1      41.521  25.529  24.995  1.00  0.00    -0.200 F 
ENDBRANCH  48  72
BRANCH  60  83
ATOM     83  C   UNL A   1      44.119  28.149  34.582  1.00  0.00     0.064 A 
ATOM     84  C   UNL A   1      43.892  26.939  35.253  1.00  0.00     0.173 A 
ATOM     85  C   UNL A   1      45.447  28.589  34.460  1.00  0.00     0.173 A 
ATOM     86  F   UNL A   1      42.641  26.479  35.412  1.00  0.00    -0.203 F 
ATOM     87  C   UNL A   1      44.946  26.214  35.804  1.00  0.00     0.198 A 
ATOM     88  C   UNL A   1      46.502  27.845  34.981  1.00  0.00     0.198 A 
ATOM     89  F   UNL A   1      45.723  29.738  33.824  1.00  0.00    -0.203 F 
ATOM     90  F   UNL A   1      44.698  25.090  36.488  1.00  0.00    -0.200 F 
ATOM     91  C   UNL A   1      46.250  26.664  35.661  1.00  0.00     0.200 A 
ATOM     92  F   UNL A   1      47.763  28.274  34.828  1.00  0.00    -0.200 F 
ATOM     93  F   UNL A   1      47.264  25.962  36.186  1.00  0.00    -0.200 F 
ENDBRANCH  60  83
ENDBRANCH  34  35
ENDBRANCH  26  29
ENDBRANCH  24  25
ENDBRANCH  23  24
ENDBRANCH   1  23
TORSDOF 15
ENDMDL
MODEL 2
REMARK VINA RESULT:     -11.7      1.343      3.658
REMARK SMILES C=CC[N@@H+](CC(=O)NCCCNC(=O)c1ccc(-c2c3nc(c(-c4c(F)c(F)c(F)c(F)c4F)c4ccc([nH]4)c(-c4c(F)c(F)c(F)c(F)c4F)c4nc(c(-c5c(F)c(F)c(F)c(F)c5F)c5ccc2[nH]5)C=C4)C=C3)cc1)Cc1cccc2ccccc12
REMARK SMILES IDX 9 1 8 2 6 3 7 4 5 6 4 7 3 9 2 10 1 11 78 12 79 13 80 14
REMARK SMILES IDX 88 15 81 16 83 17 87 18 82 19 84 20 86 21 85 22 10 23 11 24
REMARK SMILES IDX 12 25 13 26 14 28 15 29 16 30 77 31 17 32 76 33 18 34 19 35
REMARK SMILES IDX 20 36 70 37 21 38 75 39 69 40 71 41 22 42 74 43 68 44 67 45
REMARK SMILES IDX 23 47 55 48 35 49 54 50 36 51 39 52 53 53 72 54 37 55 38 56
REMARK SMILES IDX 52 58 73 59 40 60 24 61 25 62 33 63 26 64 27 65 31 66 34 67
REMARK SMILES IDX 28 68 29 69 32 70 30 71 56 72 57 73 65 74 58 75 59 76 63 77
REMARK SMILES IDX 66 78 60 79 61 80 64 81 62 82 41 83 42 84 50 85 43 86 44 87
REMARK SMILES IDX 48 88 51 89 45 90 46 91 49 92 47 93
REMARK H PARENT 8 5 4 8 12 27 71 46 39 57
REMARK Flexibility Score: inf
ROOT
ATOM      1  C   UNL A   1      31.366  30.768  26.193  1.00  0.00     0.118 C 
ENDROOT
BRANCH   1   2
ATOM      2  N   UNL A   1      31.054  30.333  24.844  1.00  0.00    -0.351 N 
ATOM      3  C   UNL A   1      31.406  29.199  24.152  1.00  0.00     0.275 C 
ATOM      4  O   UNL A   1      30.571  28.740  23.365  1.00  0.00    -0.269 OA
ATOM      5  H   UNL A   1      30.491  30.961  24.336  1.00  0.00     0.163 HD
BRANCH   3   6
ATOM      6  C   UNL A   1      32.756  28.505  24.324  1.00  0.00     0.364 C 
BRANCH   6   7
ATOM      7  N   UNL A   1      32.772  27.425  25.317  1.00  0.00    -0.320 N 
ATOM      8  H   UNL A   1      31.802  27.465  25.627  1.00  0.00     0.349 HD
BRANCH   7   9
ATOM      9  C   UNL A   1      33.520  27.712  26.510  1.00  0.00     0.291 C 
BRANCH   9  10
ATOM     10  C   UNL A   1      34.478  28.858  26.454  1.00  0.00     0.025 C 
ATOM     11  C   UNL A   1      34.687  29.670  27.500  1.00  0.00     0.010 C 
ENDBRANCH   9  10
ENDBRANCH   7   9
BRANCH   7  12
ATOM     12  C   UNL A   1      32.572  26.030  24.917  1.00  0.00     0.300 C 
BRANCH  12  13
ATOM     13  C   UNL A   1      32.936  24.781  25.724  1.00  0.00     0.014 A 
ATOM     14  C   UNL A   1      31.875  24.319  26.542  1.00  0.00     0.010 A 
ATOM     15  C   UNL A   1      34.162  24.062  25.814  1.00  0.00    -0.010 A 
ATOM     16  C   UNL A   1      31.951  23.129  27.258  1.00  0.00     0.001 A 
ATOM     17  C   UNL A   1      34.169  22.763  26.394  1.00  0.00    -0.018 A 
ATOM     18  C   UNL A   1      35.418  24.529  25.401  1.00  0.00     0.009 A 
ATOM     19  C   UNL A   1      33.064  22.318  27.116  1.00  0.00     0.009 A 
ATOM     20  C   UNL A   1      35.289  21.920  26.289  1.00  0.00     0.009 A 
ATOM     21  C   UNL A   1      36.543  23.696  25.334  1.00  0.00     0.001 A 
ATOM     22  C   UNL A   1      36.469  22.375  25.728  1.00  0.00     0.001 A 
ENDBRANCH  12  13
ENDBRANCH   7  12
ENDBRANCH   6   7
ENDBRANCH   3   6
ENDBRANCH   1   2
BRANCH   1  23
ATOM     23  C   UNL A   1      31.450  32.276  26.522  1.00  0.00     0.042 C 
BRANCH  23  24
ATOM     24  C   UNL A   1      32.683  32.897  27.185  1.00  0.00     0.118 C 
BRANCH  24  25
ATOM     25  N   UNL A   1      32.497  34.235  27.707  1.00  0.00    -0.352 N 
ATOM     26  C   UNL A   1      33.211  34.852  28.712  1.00  0.00     0.251 C 
ATOM     27  H   UNL A   1      31.778  34.766  27.294  1.00  0.00     0.163 HD
ATOM     28  O   UNL A   1      32.891  35.965  29.110  1.00  0.00    -0.269 OA
BRANCH  26  29
ATOM     29  C   UNL A   1      34.367  34.166  29.331  1.00  0.00     0.039 A 
ATOM     30  C   UNL A   1      35.657  34.468  28.890  1.00  0.00     0.014 A 
ATOM     31  C   UNL A   1      34.174  33.160  30.280  1.00  0.00     0.014 A 
ATOM     32  C   UNL A   1      36.754  33.783  29.427  1.00  0.00     0.010 A 
ATOM     33  C   UNL A   1      35.273  32.511  30.851  1.00  0.00     0.010 A 
ATOM     34  C   UNL A   1      36.576  32.809  30.426  1.00  0.00    -0.014 A 
BRANCH  34  35
ATOM     35  C   UNL A   1      37.747  32.115  31.032  1.00  0.00     0.031 A 
ATOM     36  C   UNL A   1      38.231  32.467  32.415  1.00  0.00     0.074 A 
ATOM     37  C   UNL A   1      38.403  31.178  30.319  1.00  0.00     0.049 A 
ATOM     38  N   UNL A   1      39.218  31.947  33.106  1.00  0.00    -0.248 NA
ATOM     39  C   UNL A   1      37.529  33.558  33.103  1.00  0.00     0.031 C 
ATOM     40  C   UNL A   1      38.070  30.781  28.951  1.00  0.00     0.029 A 
ATOM     41  N   UNL A   1      39.483  30.392  30.640  1.00  0.00    -0.354 N 
ATOM     42  C   UNL A   1      39.251  32.646  34.307  1.00  0.00     0.074 A 
ATOM     43  C   UNL A   1      38.227  33.667  34.225  1.00  0.00     0.031 C 
ATOM     44  C   UNL A   1      38.905  29.804  28.561  1.00  0.00     0.029 A 
ATOM     45  C   UNL A   1      39.853  29.529  29.637  1.00  0.00     0.049 A 
ATOM     46  H   UNL A   1      39.947  30.443  31.507  1.00  0.00     0.167 HD
ATOM     47  C   UNL A   1      40.046  32.443  35.388  1.00  0.00     0.037 A 
ATOM     48  C   UNL A   1      40.844  28.618  29.588  1.00  0.00     0.037 A 
ATOM     49  C   UNL A   1      41.067  31.427  35.466  1.00  0.00     0.049 A 
ATOM     50  C   UNL A   1      41.729  28.425  30.791  1.00  0.00     0.074 A 
ATOM     51  C   UNL A   1      41.887  31.106  36.533  1.00  0.00     0.029 A 
ATOM     52  N   UNL A   1      41.417  30.577  34.425  1.00  0.00    -0.354 N 
ATOM     53  N   UNL A   1      41.692  29.031  31.952  1.00  0.00    -0.248 NA
ATOM     54  C   UNL A   1      42.787  27.411  30.678  1.00  0.00     0.031 C 
ATOM     55  C   UNL A   1      42.774  30.105  36.120  1.00  0.00     0.029 A 
ATOM     56  C   UNL A   1      42.463  29.753  34.817  1.00  0.00     0.049 A 
ATOM     57  H   UNL A   1      40.987  30.561  33.540  1.00  0.00     0.167 HD
ATOM     58  C   UNL A   1      42.698  28.456  32.717  1.00  0.00     0.074 A 
ATOM     59  C   UNL A   1      43.316  27.438  31.893  1.00  0.00     0.031 C 
ATOM     60  C   UNL A   1      43.072  28.743  33.988  1.00  0.00     0.037 A 
BRANCH  47  61
ATOM     61  C   UNL A   1      39.846  33.342  36.577  1.00  0.00     0.064 A 
ATOM     62  C   UNL A   1      38.902  33.048  37.574  1.00  0.00     0.173 A 
ATOM     63  C   UNL A   1      40.626  34.498  36.740  1.00  0.00     0.173 A 
ATOM     64  F   UNL A   1      38.127  31.958  37.470  1.00  0.00    -0.203 F 
ATOM     65  C   UNL A   1      38.718  33.897  38.664  1.00  0.00     0.198 A 
ATOM     66  C   UNL A   1      40.464  35.325  37.849  1.00  0.00     0.198 A 
ATOM     67  F   UNL A   1      41.554  34.823  35.827  1.00  0.00    -0.203 F 
ATOM     68  F   UNL A   1      37.769  33.625  39.570  1.00  0.00    -0.200 F 
ATOM     69  C   UNL A   1      39.503  35.031  38.803  1.00  0.00     0.200 A 
ATOM     70  F   UNL A   1      41.237  36.412  37.992  1.00  0.00    -0.200 F 
ATOM     71  F   UNL A   1      39.327  35.845  39.854  1.00  0.00    -0.200 F 
ENDBRANCH  47  61
BRANCH  48  72
ATOM     72  C   UNL A   1      41.027  27.790  28.367  1.00  0.00     0.064 A 
ATOM     73  C   UNL A   1      40.336  26.580  28.205  1.00  0.00     0.173 A 
ATOM     74  C   UNL A   1      41.886  28.193  27.333  1.00  0.00     0.173 A 
ATOM     75  F   UNL A   1      39.517  26.143  29.173  1.00  0.00    -0.203 F 
ATOM     76  C   UNL A   1      40.511  25.798  27.065  1.00  0.00     0.198 A 
ATOM     77  C   UNL A   1      42.036  27.425  26.181  1.00  0.00     0.198 A 
ATOM     78  F   UNL A   1      42.565  29.344  27.434  1.00  0.00    -0.203 F 
ATOM     79  F   UNL A   1      39.870  24.625  26.956  1.00  0.00    -0.200 F 
ATOM     80  C   UNL A   1      41.355  26.224  26.051  1.00  0.00     0.200 A 
ATOM     81  F   UNL A   1      42.837  27.849  25.195  1.00  0.00    -0.200 F 
ATOM     82  F   UNL A   1      41.514  25.476  24.951  1.00  0.00    -0.200 F 
ENDBRANCH  48  72
BRANCH  60  83
ATOM     83  C   UNL A   1      44.183  27.922  34.584  1.00  0.00     0.064 A 
ATOM     84  C   UNL A   1      45.522  28.333  34.525  1.00  0.00     0.173 A 
ATOM     85  C   UNL A   1      43.896  26.721  35.252  1.00  0.00     0.173 A 
ATOM     86  F   UNL A   1      45.854  29.465  33.884  1.00  0.00    -0.203 F 
ATOM     87  C   UNL A   1      46.536  27.560  35.085  1.00  0.00     0.198 A 
ATOM     88  C   UNL A   1      44.908  25.968  35.843  1.00  0.00     0.198 A 
ATOM     89  F   UNL A   1      42.632  26.283  35.344  1.00  0.00    -0.203 F 
ATOM     90  F   UNL A   1      47.813  27.945  34.967  1.00  0.00    -0.200 F 
ATOM     91  C   UNL A   1      46.227  26.383  35.750  1.00  0.00     0.200 A 
ATOM     92  F   UNL A   1      44.605  24.839  36.499  1.00  0.00    -0.200 F 
ATOM     93  F   UNL A   1      47.203  25.643  36.296  1.00  0.00    -0.200 F 
ENDBRANCH  60  83
ENDBRANCH  34  35
ENDBRANCH  26  29
ENDBRANCH  24  25
ENDBRANCH  23  24
ENDBRANCH   1  23
TORSDOF 15
ENDMDL
MODEL 3
REMARK VINA RESULT:     -11.7      1.471      7.900
REMARK SMILES C=CC[N@@H+](CC(=O)NCCCNC(=O)c1ccc(-c2c3nc(c(-c4c(F)c(F)c(F)c(F)c4F)c4ccc([nH]4)c(-c4c(F)c(F)c(F)c(F)c4F)c4nc(c(-c5c(F)c(F)c(F)c(F)c5F)c5ccc2[nH]5)C=C4)C=C3)cc1)Cc1cccc2ccccc12
REMARK SMILES IDX 9 1 8 2 6 3 7 4 5 6 4 7 3 9 2 10 1 11 78 12 79 13 80 14
REMARK SMILES IDX 88 15 81 16 83 17 87 18 82 19 84 20 86 21 85 22 10 23 11 24
REMARK SMILES IDX 12 25 13 26 14 28 15 29 16 30 77 31 17 32 76 33 18 34 19 35
REMARK SMILES IDX 20 36 70 37 21 38 75 39 69 40 71 41 22 42 74 43 68 44 67 45
REMARK SMILES IDX 23 47 55 48 35 49 54 50 36 51 39 52 53 53 72 54 37 55 38 56
REMARK SMILES IDX 52 58 73 59 40 60 24 61 25 62 33 63 26 64 27 65 31 66 34 67
REMARK SMILES IDX 28 68 29 69 32 70 30 71 56 72 57 73 65 74 58 75 59 76 63 77
REMARK SMILES IDX 66 78 60 79 61 80 64 81 62 82 41 83 42 84 50 85 43 86 44 87
REMARK SMILES IDX 48 88 51 89 45 90 46 91 49 92 47 93
REMARK H PARENT 8 5 4 8 12 27 71 46 39 57
REMARK Flexibility Score: inf
ROOT
ATOM      1  C   UNL A   1      31.403  30.862  26.317  1.00  0.00     0.118 C 
ENDROOT
BRANCH   1   2
ATOM      2  N   UNL A   1      31.084  30.437  24.966  1.00  0.00    -0.351 N 
ATOM      3  C   UNL A   1      31.448  29.318  24.258  1.00  0.00     0.275 C 
ATOM      4  O   UNL A   1      30.613  28.853  23.474  1.00  0.00    -0.269 OA
ATOM      5  H   UNL A   1      30.505  31.061  24.472  1.00  0.00     0.163 HD
BRANCH   3   6
ATOM      6  C   UNL A   1      32.812  28.645  24.408  1.00  0.00     0.364 C 
BRANCH   6   7
ATOM      7  N   UNL A   1      32.851  27.535  25.366  1.00  0.00    -0.320 N 
ATOM      8  H   UNL A   1      31.893  27.578  25.713  1.00  0.00     0.349 HD
BRANCH   7   9
ATOM      9  C   UNL A   1      33.644  27.777  26.540  1.00  0.00     0.291 C 
BRANCH   9  10
ATOM     10  C   UNL A   1      34.538  28.976  26.522  1.00  0.00     0.025 C 
ATOM     11  C   UNL A   1      34.661  29.795  27.576  1.00  0.00     0.010 C 
ENDBRANCH   9  10
ENDBRANCH   7   9
BRANCH   7  12
ATOM     12  C   UNL A   1      32.619  26.156  24.932  1.00  0.00     0.300 C 
BRANCH  12  13
ATOM     13  C   UNL A   1      32.930  24.879  25.719  1.00  0.00     0.014 A 
ATOM     14  C   UNL A   1      31.845  24.440  26.517  1.00  0.00     0.010 A 
ATOM     15  C   UNL A   1      34.130  24.117  25.808  1.00  0.00    -0.010 A 
ATOM     16  C   UNL A   1      31.871  23.234  27.210  1.00  0.00     0.001 A 
ATOM     17  C   UNL A   1      34.085  22.808  26.363  1.00  0.00    -0.018 A 
ATOM     18  C   UNL A   1      35.405  24.548  25.418  1.00  0.00     0.009 A 
ATOM     19  C   UNL A   1      32.957  22.388  27.064  1.00  0.00     0.009 A 
ATOM     20  C   UNL A   1      35.177  21.929  26.254  1.00  0.00     0.009 A 
ATOM     21  C   UNL A   1      36.502  23.678  25.348  1.00  0.00     0.001 A 
ATOM     22  C   UNL A   1      36.378  22.353  25.714  1.00  0.00     0.001 A 
ENDBRANCH  12  13
ENDBRANCH   7  12
ENDBRANCH   6   7
ENDBRANCH   3   6
ENDBRANCH   1   2
BRANCH   1  23
ATOM     23  C   UNL A   1      31.390  32.365  26.681  1.00  0.00     0.042 C 
BRANCH  23  24
ATOM     24  C   UNL A   1      32.632  33.082  27.216  1.00  0.00     0.118 C 
BRANCH  24  25
ATOM     25  N   UNL A   1      32.406  34.426  27.710  1.00  0.00    -0.352 N 
ATOM     26  C   UNL A   1      33.055  35.060  28.747  1.00  0.00     0.251 C 
ATOM     27  H   UNL A   1      31.708  34.946  27.249  1.00  0.00     0.163 HD
ATOM     28  O   UNL A   1      32.704  36.175  29.112  1.00  0.00    -0.269 OA
BRANCH  26  29
ATOM     29  C   UNL A   1      34.179  34.391  29.441  1.00  0.00     0.039 A 
ATOM     30  C   UNL A   1      35.477  34.554  28.953  1.00  0.00     0.014 A 
ATOM     31  C   UNL A   1      33.941  33.532  30.515  1.00  0.00     0.014 A 
ATOM     32  C   UNL A   1      36.539  33.879  29.566  1.00  0.00     0.010 A 
ATOM     33  C   UNL A   1      35.009  32.896  31.157  1.00  0.00     0.010 A 
ATOM     34  C   UNL A   1      36.320  33.056  30.685  1.00  0.00    -0.014 A 
BRANCH  34  35
ATOM     35  C   UNL A   1      37.458  32.376  31.367  1.00  0.00     0.031 A 
ATOM     36  C   UNL A   1      38.180  31.226  30.716  1.00  0.00     0.074 A 
ATOM     37  C   UNL A   1      37.826  32.778  32.599  1.00  0.00     0.049 A 
ATOM     38  N   UNL A   1      39.207  30.535  31.155  1.00  0.00    -0.248 NA
ATOM     39  C   UNL A   1      37.673  30.779  29.413  1.00  0.00     0.031 C 
ATOM     40  C   UNL A   1      37.177  33.844  33.362  1.00  0.00     0.029 A 
ATOM     41  N   UNL A   1      38.831  32.341  33.428  1.00  0.00    -0.354 N 
ATOM     42  C   UNL A   1      39.466  29.577  30.182  1.00  0.00     0.074 A 
ATOM     43  C   UNL A   1      38.452  29.735  29.160  1.00  0.00     0.031 C 
ATOM     44  C   UNL A   1      37.818  34.002  34.531  1.00  0.00     0.029 A 
ATOM     45  C   UNL A   1      38.902  33.027  34.616  1.00  0.00     0.049 A 
ATOM     46  H   UNL A   1      39.442  31.607  33.192  1.00  0.00     0.167 HD
ATOM     47  C   UNL A   1      40.468  28.665  30.131  1.00  0.00     0.037 A 
ATOM     48  C   UNL A   1      39.744  32.887  35.658  1.00  0.00     0.037 A 
ATOM     49  C   UNL A   1      41.475  28.508  31.152  1.00  0.00     0.049 A 
ATOM     50  C   UNL A   1      40.836  31.852  35.591  1.00  0.00     0.074 A 
ATOM     51  C   UNL A   1      42.562  27.651  31.170  1.00  0.00     0.029 A 
ATOM     52  N   UNL A   1      41.509  29.217  32.346  1.00  0.00    -0.354 N 
ATOM     53  N   UNL A   1      41.124  31.013  34.627  1.00  0.00    -0.248 NA
ATOM     54  C   UNL A   1      41.727  31.754  36.756  1.00  0.00     0.031 C 
ATOM     55  C   UNL A   1      43.217  27.797  32.398  1.00  0.00     0.029 A 
ATOM     56  C   UNL A   1      42.579  28.793  33.119  1.00  0.00     0.049 A 
ATOM     57  H   UNL A   1      40.866  29.916  32.605  1.00  0.00     0.167 HD
ATOM     58  C   UNL A   1      42.242  30.309  35.052  1.00  0.00     0.074 A 
ATOM     59  C   UNL A   1      42.591  30.833  36.356  1.00  0.00     0.031 C 
ATOM     60  C   UNL A   1      42.919  29.321  34.417  1.00  0.00     0.037 A 
BRANCH  47  61
ATOM     61  C   UNL A   1      40.524  27.758  28.933  1.00  0.00     0.064 A 
ATOM     62  C   UNL A   1      41.340  28.046  27.827  1.00  0.00     0.173 A 
ATOM     63  C   UNL A   1      39.777  26.570  28.897  1.00  0.00     0.173 A 
ATOM     64  F   UNL A   1      42.075  29.169  27.804  1.00  0.00    -0.203 F 
ATOM     65  C   UNL A   1      41.372  27.204  26.716  1.00  0.00     0.198 A 
ATOM     66  C   UNL A   1      39.839  25.713  27.801  1.00  0.00     0.198 A 
ATOM     67  F   UNL A   1      38.990  26.235  29.931  1.00  0.00    -0.203 F 
ATOM     68  F   UNL A   1      42.113  27.533  25.650  1.00  0.00    -0.200 F 
ATOM     69  C   UNL A   1      40.627  26.036  26.707  1.00  0.00     0.200 A 
ATOM     70  F   UNL A   1      39.131  24.573  27.801  1.00  0.00    -0.200 F 
ATOM     71  F   UNL A   1      40.661  25.225  25.641  1.00  0.00    -0.200 F 
ENDBRANCH  47  61
BRANCH  48  72
ATOM     72  C   UNL A   1      39.611  33.779  36.840  1.00  0.00     0.064 A 
ATOM     73  C   UNL A   1      40.235  35.035  36.870  1.00  0.00     0.173 A 
ATOM     74  C   UNL A   1      38.853  33.402  37.959  1.00  0.00     0.173 A 
ATOM     75  F   UNL A   1      40.985  35.435  35.833  1.00  0.00    -0.203 F 
ATOM     76  C   UNL A   1      40.119  35.871  37.980  1.00  0.00     0.198 A 
ATOM     77  C   UNL A   1      38.713  34.251  39.054  1.00  0.00     0.198 A 
ATOM     78  F   UNL A   1      38.232  32.214  37.979  1.00  0.00    -0.203 F 
ATOM     79  F   UNL A   1      40.760  37.048  37.999  1.00  0.00    -0.200 F 
ATOM     80  C   UNL A   1      39.353  35.482  39.067  1.00  0.00     0.200 A 
ATOM     81  F   UNL A   1      37.956  33.879  40.095  1.00  0.00    -0.200 F 
ATOM     82  F   UNL A   1      39.233  36.290  40.129  1.00  0.00    -0.200 F 
ENDBRANCH  48  72
BRANCH  60  83
ATOM     83  C   UNL A   1      44.132  28.760  35.108  1.00  0.00     0.064 A 
ATOM     84  C   UNL A   1      44.052  27.651  35.962  1.00  0.00     0.173 A 
ATOM     85  C   UNL A   1      45.399  29.323  34.885  1.00  0.00     0.173 A 
ATOM     86  F   UNL A   1      42.864  27.083  36.223  1.00  0.00    -0.203 F 
ATOM     87  C   UNL A   1      45.187  27.145  36.590  1.00  0.00     0.198 A 
ATOM     88  C   UNL A   1      46.537  28.793  35.486  1.00  0.00     0.198 A 
ATOM     89  F   UNL A   1      45.535  30.382  34.072  1.00  0.00    -0.203 F 
ATOM     90  F   UNL A   1      45.077  26.120  37.445  1.00  0.00    -0.200 F 
ATOM     91  C   UNL A   1      46.429  27.712  36.345  1.00  0.00     0.200 A 
ATOM     92  F   UNL A   1      47.738  29.332  35.235  1.00  0.00    -0.200 F 
ATOM     93  F   UNL A   1      47.523  27.219  36.944  1.00  0.00    -0.200 F 
ENDBRANCH  60  83
ENDBRANCH  34  35
ENDBRANCH  26  29
ENDBRANCH  24  25
ENDBRANCH  23  24
ENDBRANCH   1  23
TORSDOF 15
ENDMDL
