MODEL 1
REMARK VINA RESULT:     -13.3      0.000      0.000
REMARK SMILES N#Cc1ccc2c(c1)C=C(C(=O)NCCCNC(=O)c1ccc(-c3c4nc(c(-c5c(F)c(F)c(F)c(F)c5F)c5ccc([nH]5)c(-c5c(F)c(F)c(F)c(F)c5F)c5nc(c(-c6c(F)c(F)c(F)c(F)c6F)c6ccc3[nH]6)C=C5)C=C4)cc1)[C@@H](C(F)(F)F)O2
REMARK SMILES IDX 15 1 14 2 13 3 11 4 12 5 10 7 3 8 4 9 8 10 5 11 7 12 6 13
REMARK SMILES IDX 9 14 88 15 83 16 2 17 1 18 84 19 85 20 86 21 87 22 16 23
REMARK SMILES IDX 17 24 18 25 19 27 20 28 21 29 82 30 22 31 81 32 23 33 24 34
REMARK SMILES IDX 25 35 75 36 26 37 80 38 74 39 76 40 27 41 79 42 73 43 72 44
REMARK SMILES IDX 28 46 60 47 40 48 59 49 41 50 44 51 58 52 77 53 42 54 43 55
REMARK SMILES IDX 57 57 78 58 45 59 29 60 30 61 38 62 31 63 32 64 36 65 39 66
REMARK SMILES IDX 33 67 34 68 37 69 35 70 61 71 62 72 70 73 63 74 64 75 68 76
REMARK SMILES IDX 71 77 65 78 66 79 69 80 67 81 46 82 47 83 55 84 48 85 49 86
REMARK SMILES IDX 53 87 56 88 50 89 51 90 54 91 52 92
REMARK H PARENT 13 6 17 26 76 45 44 56
REMARK Flexibility Score: inf
ROOT
ATOM      1  C   UNL A   1      31.674  31.937  26.749  1.00  0.00     0.042 C 
ENDROOT
BRANCH   1   2
ATOM      2  C   UNL A   1      31.954  30.451  26.638  1.00  0.00     0.118 C 
BRANCH   2   3
ATOM      3  N   UNL A   1      32.455  30.090  25.320  1.00  0.00    -0.352 N 
ATOM      4  C   UNL A   1      32.685  28.951  24.624  1.00  0.00     0.251 C 
ATOM      5  O   UNL A   1      33.116  29.108  23.478  1.00  0.00    -0.270 OA
ATOM      6  H   UNL A   1      32.691  30.888  24.794  1.00  0.00     0.163 HD
BRANCH   4   7
ATOM      7  C   UNL A   1      32.458  27.574  25.150  1.00  0.00     0.067 C 
ATOM      8  C   UNL A   1      34.186  23.163  26.117  1.00  0.00     0.053 A 
ATOM      9  C   UNL A   1      32.989  22.841  26.767  1.00  0.00     0.023 A 
ATOM     10  C   UNL A   1      34.369  24.443  25.574  1.00  0.00     0.031 A 
ATOM     11  C   UNL A   1      31.981  23.794  26.877  1.00  0.00     0.048 A 
ATOM     12  C   UNL A   1      33.354  25.399  25.679  1.00  0.00     0.018 A 
ATOM     13  C   UNL A   1      32.166  25.060  26.329  1.00  0.00     0.128 A 
ATOM     14  C   UNL A   1      33.525  26.755  25.169  1.00  0.00     0.025 C 
ATOM     15  O   UNL A   1      31.143  25.941  26.510  1.00  0.00    -0.475 OA
ATOM     16  C   UNL A   1      31.118  27.084  25.620  1.00  0.00     0.314 C 
BRANCH   8  17
ATOM     17  C   UNL A   1      35.224  22.181  26.020  1.00  0.00     0.099 C 
ATOM     18  N   UNL A   1      36.064  21.383  25.931  1.00  0.00    -0.192 NA
ENDBRANCH   8  17
BRANCH  16  19
ATOM     19  C   UNL A   1      30.153  26.798  24.453  1.00  0.00     0.429 C 
ATOM     20  F   UNL A   1      29.090  26.075  24.890  1.00  0.00    -0.167 F 
ATOM     21  F   UNL A   1      29.645  27.926  23.901  1.00  0.00    -0.167 F 
ATOM     22  F   UNL A   1      30.735  26.104  23.452  1.00  0.00    -0.167 F 
ENDBRANCH  16  19
ENDBRANCH   4   7
ENDBRANCH   2   3
ENDBRANCH   1   2
BRANCH   1  23
ATOM     23  C   UNL A   1      32.816  32.668  27.431  1.00  0.00     0.118 C 
BRANCH  23  24
ATOM     24  N   UNL A   1      32.501  34.076  27.681  1.00  0.00    -0.352 N 
ATOM     25  C   UNL A   1      32.995  34.951  28.620  1.00  0.00     0.251 C 
ATOM     26  H   UNL A   1      31.824  34.460  27.078  1.00  0.00     0.163 HD
ATOM     27  O   UNL A   1      32.440  36.026  28.817  1.00  0.00    -0.269 OA
BRANCH  25  28
ATOM     28  C   UNL A   1      34.179  34.565  29.408  1.00  0.00     0.039 A 
ATOM     29  C   UNL A   1      35.445  34.674  28.842  1.00  0.00     0.014 A 
ATOM     30  C   UNL A   1      34.022  34.034  30.690  1.00  0.00     0.014 A 
ATOM     31  C   UNL A   1      36.505  34.005  29.425  1.00  0.00     0.010 A 
ATOM     32  C   UNL A   1      35.130  33.500  31.350  1.00  0.00     0.010 A 
ATOM     33  C   UNL A   1      36.366  33.413  30.690  1.00  0.00    -0.014 A 
BRANCH  33  34
ATOM     34  C   UNL A   1      37.531  32.706  31.279  1.00  0.00     0.031 A 
ATOM     35  C   UNL A   1      38.011  33.030  32.669  1.00  0.00     0.074 A 
ATOM     36  C   UNL A   1      38.106  31.708  30.579  1.00  0.00     0.049 A 
ATOM     37  N   UNL A   1      38.994  32.490  33.345  1.00  0.00    -0.248 NA
ATOM     38  C   UNL A   1      37.306  34.098  33.395  1.00  0.00     0.031 C 
ATOM     39  C   UNL A   1      37.713  31.292  29.230  1.00  0.00     0.029 A 
ATOM     40  N   UNL A   1      39.115  30.841  30.909  1.00  0.00    -0.354 N 
ATOM     41  C   UNL A   1      39.037  33.164  34.559  1.00  0.00     0.074 A 
ATOM     42  C   UNL A   1      38.011  34.181  34.515  1.00  0.00     0.031 C 
ATOM     43  C   UNL A   1      38.419  30.211  28.877  1.00  0.00     0.029 A 
ATOM     44  C   UNL A   1      39.381  29.913  29.931  1.00  0.00     0.049 A 
ATOM     45  H   UNL A   1      39.601  30.877  31.764  1.00  0.00     0.167 HD
ATOM     46  C   UNL A   1      39.847  32.938  35.620  1.00  0.00     0.037 A 
ATOM     47  C   UNL A   1      40.313  28.944  29.872  1.00  0.00     0.037 A 
ATOM     48  C   UNL A   1      40.850  31.905  35.663  1.00  0.00     0.049 A 
ATOM     49  C   UNL A   1      41.245  28.763  31.036  1.00  0.00     0.074 A 
ATOM     50  C   UNL A   1      41.704  31.582  36.702  1.00  0.00     0.029 A 
ATOM     51  N   UNL A   1      41.134  31.031  34.623  1.00  0.00    -0.354 N 
ATOM     52  N   UNL A   1      41.257  29.391  32.186  1.00  0.00    -0.248 NA
ATOM     53  C   UNL A   1      42.294  27.748  30.893  1.00  0.00     0.031 C 
ATOM     54  C   UNL A   1      42.550  30.560  36.268  1.00  0.00     0.029 A 
ATOM     55  C   UNL A   1      42.178  30.194  34.984  1.00  0.00     0.049 A 
ATOM     56  H   UNL A   1      40.664  31.009  33.759  1.00  0.00     0.167 HD
ATOM     57  C   UNL A   1      42.303  28.838  32.911  1.00  0.00     0.074 A 
ATOM     58  C   UNL A   1      42.885  27.806  32.078  1.00  0.00     0.031 C 
ATOM     59  C   UNL A   1      42.744  29.164  34.149  1.00  0.00     0.037 A 
BRANCH  46  60
ATOM     60  C   UNL A   1      39.701  33.822  36.826  1.00  0.00     0.064 A 
ATOM     61  C   UNL A   1      40.299  35.089  36.891  1.00  0.00     0.173 A 
ATOM     62  C   UNL A   1      38.881  33.431  37.898  1.00  0.00     0.173 A 
ATOM     63  F   UNL A   1      41.101  35.510  35.900  1.00  0.00    -0.203 F 
ATOM     64  C   UNL A   1      40.095  35.925  37.987  1.00  0.00     0.198 A 
ATOM     65  C   UNL A   1      38.651  34.282  38.976  1.00  0.00     0.198 A 
ATOM     66  F   UNL A   1      38.278  32.233  37.885  1.00  0.00    -0.203 F 
ATOM     67  F   UNL A   1      40.708  37.115  38.043  1.00  0.00    -0.200 F 
ATOM     68  C   UNL A   1      39.262  35.526  39.022  1.00  0.00     0.200 A 
ATOM     69  F   UNL A   1      37.830  33.903  39.964  1.00  0.00    -0.200 F 
ATOM     70  F   UNL A   1      39.049  36.341  40.064  1.00  0.00    -0.200 F 
ENDBRANCH  46  60
BRANCH  47  71
ATOM     71  C   UNL A   1      40.404  28.088  28.661  1.00  0.00     0.064 A 
ATOM     72  C   UNL A   1      41.168  28.482  27.555  1.00  0.00     0.173 A 
ATOM     73  C   UNL A   1      39.764  26.840  28.600  1.00  0.00     0.173 A 
ATOM     74  F   UNL A   1      41.786  29.672  27.558  1.00  0.00    -0.203 F 
ATOM     75  C   UNL A   1      41.281  27.665  26.431  1.00  0.00     0.198 A 
ATOM     76  C   UNL A   1      39.908  26.008  27.493  1.00  0.00     0.198 A 
ATOM     77  F   UNL A   1      39.027  26.411  29.636  1.00  0.00    -0.203 F 
ATOM     78  F   UNL A   1      41.987  28.082  25.372  1.00  0.00    -0.200 F 
ATOM     79  C   UNL A   1      40.660  26.424  26.405  1.00  0.00     0.200 A 
ATOM     80  F   UNL A   1      39.328  24.800  27.484  1.00  0.00    -0.200 F 
ATOM     81  F   UNL A   1      40.787  25.631  25.334  1.00  0.00    -0.200 F 
ENDBRANCH  47  71
BRANCH  59  82
ATOM     82  C   UNL A   1      43.908  28.394  34.702  1.00  0.00     0.064 A 
ATOM     83  C   UNL A   1      45.221  28.872  34.590  1.00  0.00     0.173 A 
ATOM     84  C   UNL A   1      43.696  27.218  35.440  1.00  0.00     0.173 A 
ATOM     85  F   UNL A   1      45.477  29.983  33.884  1.00  0.00    -0.203 F 
ATOM     86  C   UNL A   1      46.281  28.198  35.189  1.00  0.00     0.198 A 
ATOM     87  C   UNL A   1      44.753  26.568  36.069  1.00  0.00     0.198 A 
ATOM     88  F   UNL A   1      42.458  26.724  35.584  1.00  0.00    -0.203 F 
ATOM     89  F   UNL A   1      47.531  28.656  35.043  1.00  0.00    -0.200 F 
ATOM     90  C   UNL A   1      46.045  27.056  35.941  1.00  0.00     0.200 A 
ATOM     91  F   UNL A   1      44.519  25.477  36.811  1.00  0.00    -0.200 F 
ATOM     92  F   UNL A   1      47.062  26.426  36.542  1.00  0.00    -0.200 F 
ENDBRANCH  59  82
ENDBRANCH  33  34
ENDBRANCH  25  28
ENDBRANCH  23  24
ENDBRANCH   1  23
TORSDOF 12
ENDMDL
MODEL 2
REMARK VINA RESULT:     -13.3      1.897      3.186
REMARK SMILES N#Cc1ccc2c(c1)C=C(C(=O)NCCCNC(=O)c1ccc(-c3c4nc(c(-c5c(F)c(F)c(F)c(F)c5F)c5ccc([nH]5)c(-c5c(F)c(F)c(F)c(F)c5F)c5nc(c(-c6c(F)c(F)c(F)c(F)c6F)c6ccc3[nH]6)C=C5)C=C4)cc1)[C@@H](C(F)(F)F)O2
REMARK SMILES IDX 15 1 14 2 13 3 11 4 12 5 10 7 3 8 4 9 8 10 5 11 7 12 6 13
REMARK SMILES IDX 9 14 88 15 83 16 2 17 1 18 84 19 85 20 86 21 87 22 16 23
REMARK SMILES IDX 17 24 18 25 19 27 20 28 21 29 82 30 22 31 81 32 23 33 24 34
REMARK SMILES IDX 25 35 75 36 26 37 80 38 74 39 76 40 27 41 79 42 73 43 72 44
REMARK SMILES IDX 28 46 60 47 40 48 59 49 41 50 44 51 58 52 77 53 42 54 43 55
REMARK SMILES IDX 57 57 78 58 45 59 29 60 30 61 38 62 31 63 32 64 36 65 39 66
REMARK SMILES IDX 33 67 34 68 37 69 35 70 61 71 62 72 70 73 63 74 64 75 68 76
REMARK SMILES IDX 71 77 65 78 66 79 69 80 67 81 46 82 47 83 55 84 48 85 49 86
REMARK SMILES IDX 53 87 56 88 50 89 51 90 54 91 52 92
REMARK H PARENT 13 6 17 26 76 45 44 56
REMARK Flexibility Score: inf
ROOT
ATOM      1  C   UNL A   1      31.783  29.128  26.822  1.00  0.00     0.042 C 
ENDROOT
BRANCH   1   2
ATOM      2  C   UNL A   1      32.409  27.813  27.243  1.00  0.00     0.118 C 
BRANCH   2   3
ATOM      3  N   UNL A   1      31.492  26.696  27.068  1.00  0.00    -0.352 N 
ATOM      4  C   UNL A   1      31.482  25.516  26.404  1.00  0.00     0.251 C 
ATOM      5  O   UNL A   1      30.465  24.833  26.552  1.00  0.00    -0.270 OA
ATOM      6  H   UNL A   1      30.654  26.836  27.567  1.00  0.00     0.163 HD
BRANCH   4   7
ATOM      7  C   UNL A   1      32.589  25.021  25.535  1.00  0.00     0.067 C 
ATOM      8  C   UNL A   1      36.881  22.833  25.121  1.00  0.00     0.053 A 
ATOM      9  C   UNL A   1      36.742  22.832  23.729  1.00  0.00     0.023 A 
ATOM     10  C   UNL A   1      35.860  23.353  25.929  1.00  0.00     0.031 A 
ATOM     11  C   UNL A   1      35.587  23.346  23.146  1.00  0.00     0.048 A 
ATOM     12  C   UNL A   1      34.702  23.875  25.345  1.00  0.00     0.018 A 
ATOM     13  C   UNL A   1      34.581  23.868  23.954  1.00  0.00     0.128 A 
ATOM     14  C   UNL A   1      33.598  24.382  26.153  1.00  0.00     0.025 C 
ATOM     15  O   UNL A   1      33.472  24.321  23.305  1.00  0.00    -0.475 OA
ATOM     16  C   UNL A   1      32.621  25.227  24.048  1.00  0.00     0.314 C 
BRANCH   8  17
ATOM     17  C   UNL A   1      38.066  22.289  25.713  1.00  0.00     0.099 C 
ATOM     18  N   UNL A   1      39.021  21.841  26.202  1.00  0.00    -0.192 NA
ENDBRANCH   8  17
BRANCH  16  19
ATOM     19  C   UNL A   1      32.966  26.679  23.661  1.00  0.00     0.429 C 
ATOM     20  F   UNL A   1      33.986  27.139  24.430  1.00  0.00    -0.167 F 
ATOM     21  F   UNL A   1      33.374  26.799  22.376  1.00  0.00    -0.167 F 
ATOM     22  F   UNL A   1      31.924  27.524  23.818  1.00  0.00    -0.167 F 
ENDBRANCH  16  19
ENDBRANCH   4   7
ENDBRANCH   2   3
ENDBRANCH   1   2
BRANCH   1  23
ATOM     23  C   UNL A   1      32.805  30.050  26.183  1.00  0.00     0.118 C 
BRANCH  23  24
ATOM     24  N   UNL A   1      32.637  31.442  26.608  1.00  0.00    -0.352 N 
ATOM     25  C   UNL A   1      33.399  32.220  27.448  1.00  0.00     0.251 C 
ATOM     26  H   UNL A   1      31.849  31.896  26.230  1.00  0.00     0.163 HD
ATOM     27  O   UNL A   1      32.970  33.291  27.859  1.00  0.00    -0.269 OA
BRANCH  25  28
ATOM     28  C   UNL A   1      34.724  31.733  27.873  1.00  0.00     0.039 A 
ATOM     29  C   UNL A   1      34.874  30.404  28.260  1.00  0.00     0.014 A 
ATOM     30  C   UNL A   1      35.801  32.617  27.949  1.00  0.00     0.014 A 
ATOM     31  C   UNL A   1      35.997  30.033  28.975  1.00  0.00     0.010 A 
ATOM     32  C   UNL A   1      36.997  32.189  28.529  1.00  0.00     0.010 A 
ATOM     33  C   UNL A   1      37.078  30.917  29.116  1.00  0.00    -0.014 A 
BRANCH  33  34
ATOM     34  C   UNL A   1      38.265  30.475  29.892  1.00  0.00     0.031 A 
ATOM     35  C   UNL A   1      38.447  30.889  31.328  1.00  0.00     0.074 A 
ATOM     36  C   UNL A   1      39.139  29.627  29.314  1.00  0.00     0.049 A 
ATOM     37  N   UNL A   1      39.408  30.571  32.158  1.00  0.00    -0.248 NA
ATOM     38  C   UNL A   1      37.428  31.777  31.910  1.00  0.00     0.031 C 
ATOM     39  C   UNL A   1      39.053  29.142  27.934  1.00  0.00     0.029 A 
ATOM     40  N   UNL A   1      40.248  28.996  29.816  1.00  0.00    -0.354 N 
ATOM     41  C   UNL A   1      39.122  31.233  33.345  1.00  0.00     0.074 A 
ATOM     42  C   UNL A   1      37.921  32.006  33.119  1.00  0.00     0.031 C 
ATOM     43  C   UNL A   1      40.019  28.240  27.722  1.00  0.00     0.029 A 
ATOM     44  C   UNL A   1      40.851  28.152  28.916  1.00  0.00     0.049 A 
ATOM     45  H   UNL A   1      40.579  29.133  30.733  1.00  0.00     0.167 HD
ATOM     46  C   UNL A   1      39.791  31.183  34.521  1.00  0.00     0.037 A 
ATOM     47  C   UNL A   1      41.967  27.407  29.025  1.00  0.00     0.037 A 
ATOM     48  C   UNL A   1      40.973  30.391  34.743  1.00  0.00     0.049 A 
ATOM     49  C   UNL A   1      42.727  27.426  30.319  1.00  0.00     0.074 A 
ATOM     50  C   UNL A   1      41.708  30.255  35.907  1.00  0.00     0.029 A 
ATOM     51  N   UNL A   1      41.591  29.603  33.783  1.00  0.00    -0.354 N 
ATOM     52  N   UNL A   1      42.430  28.038  31.440  1.00  0.00    -0.248 NA
ATOM     53  C   UNL A   1      43.979  26.662  30.364  1.00  0.00     0.031 C 
ATOM     54  C   UNL A   1      42.809  29.441  35.634  1.00  0.00     0.029 A 
ATOM     55  C   UNL A   1      42.723  29.008  34.320  1.00  0.00     0.049 A 
ATOM     56  H   UNL A   1      41.274  29.484  32.859  1.00  0.00     0.167 HD
ATOM     57  C   UNL A   1      43.448  27.720  32.328  1.00  0.00     0.074 A 
ATOM     58  C   UNL A   1      44.357  26.840  31.622  1.00  0.00     0.031 C 
ATOM     59  C   UNL A   1      43.616  28.128  33.608  1.00  0.00     0.037 A 
BRANCH  46  60
ATOM     60  C   UNL A   1      39.277  32.010  35.666  1.00  0.00     0.064 A 
ATOM     61  C   UNL A   1      38.372  31.491  36.604  1.00  0.00     0.173 A 
ATOM     62  C   UNL A   1      39.762  33.311  35.877  1.00  0.00     0.173 A 
ATOM     63  F   UNL A   1      37.868  30.258  36.447  1.00  0.00    -0.203 F 
ATOM     64  C   UNL A   1      37.961  32.248  37.700  1.00  0.00     0.198 A 
ATOM     65  C   UNL A   1      39.376  34.052  36.991  1.00  0.00     0.198 A 
ATOM     66  F   UNL A   1      40.635  33.854  35.015  1.00  0.00    -0.203 F 
ATOM     67  F   UNL A   1      37.066  31.745  38.561  1.00  0.00    -0.200 F 
ATOM     68  C   UNL A   1      38.472  33.522  37.898  1.00  0.00     0.200 A 
ATOM     69  F   UNL A   1      39.887  35.274  37.192  1.00  0.00    -0.200 F 
ATOM     70  F   UNL A   1      38.093  34.239  38.965  1.00  0.00    -0.200 F 
ENDBRANCH  46  60
BRANCH  47  71
ATOM     71  C   UNL A   1      42.421  26.595  27.866  1.00  0.00     0.064 A 
ATOM     72  C   UNL A   1      41.923  25.304  27.651  1.00  0.00     0.173 A 
ATOM     73  C   UNL A   1      43.331  27.107  26.928  1.00  0.00     0.173 A 
ATOM     74  F   UNL A   1      41.063  24.764  28.527  1.00  0.00    -0.203 F 
ATOM     75  C   UNL A   1      42.323  24.553  26.546  1.00  0.00     0.198 A 
ATOM     76  C   UNL A   1      43.701  26.372  25.806  1.00  0.00     0.198 A 
ATOM     77  F   UNL A   1      43.833  28.342  27.083  1.00  0.00    -0.203 F 
ATOM     78  F   UNL A   1      41.859  23.307  26.384  1.00  0.00    -0.200 F 
ATOM     79  C   UNL A   1      43.203  25.092  25.619  1.00  0.00     0.200 A 
ATOM     80  F   UNL A   1      44.531  26.907  24.900  1.00  0.00    -0.200 F 
ATOM     81  F   UNL A   1      43.571  24.378  24.548  1.00  0.00    -0.200 F 
ENDBRANCH  47  71
BRANCH  59  82
ATOM     82  C   UNL A   1      44.819  27.624  34.351  1.00  0.00     0.064 A 
ATOM     83  C   UNL A   1      46.005  28.370  34.413  1.00  0.00     0.173 A 
ATOM     84  C   UNL A   1      44.751  26.434  35.092  1.00  0.00     0.173 A 
ATOM     85  F   UNL A   1      46.125  29.508  33.713  1.00  0.00    -0.203 F 
ATOM     86  C   UNL A   1      47.081  27.939  35.183  1.00  0.00     0.198 A 
ATOM     87  C   UNL A   1      45.815  26.025  35.889  1.00  0.00     0.198 A 
ATOM     88  F   UNL A   1      43.636  25.688  35.072  1.00  0.00    -0.203 F 
ATOM     89  F   UNL A   1      48.216  28.652  35.204  1.00  0.00    -0.200 F 
ATOM     90  C   UNL A   1      46.980  26.776  35.933  1.00  0.00     0.200 A 
ATOM     91  F   UNL A   1      45.707  24.912  36.628  1.00  0.00    -0.200 F 
ATOM     92  F   UNL A   1      48.006  26.378  36.697  1.00  0.00    -0.200 F 
ENDBRANCH  59  82
ENDBRANCH  33  34
ENDBRANCH  25  28
ENDBRANCH  23  24
ENDBRANCH   1  23
TORSDOF 12
ENDMDL
MODEL 3
REMARK VINA RESULT:     -13.3      0.126      1.209
REMARK SMILES N#Cc1ccc2c(c1)C=C(C(=O)NCCCNC(=O)c1ccc(-c3c4nc(c(-c5c(F)c(F)c(F)c(F)c5F)c5ccc([nH]5)c(-c5c(F)c(F)c(F)c(F)c5F)c5nc(c(-c6c(F)c(F)c(F)c(F)c6F)c6ccc3[nH]6)C=C5)C=C4)cc1)[C@@H](C(F)(F)F)O2
REMARK SMILES IDX 15 1 14 2 13 3 11 4 12 5 10 7 3 8 4 9 8 10 5 11 7 12 6 13
REMARK SMILES IDX 9 14 88 15 83 16 2 17 1 18 84 19 85 20 86 21 87 22 16 23
REMARK SMILES IDX 17 24 18 25 19 27 20 28 21 29 82 30 22 31 81 32 23 33 24 34
REMARK SMILES IDX 25 35 75 36 26 37 80 38 74 39 76 40 27 41 79 42 73 43 72 44
REMARK SMILES IDX 28 46 60 47 40 48 59 49 41 50 44 51 58 52 77 53 42 54 43 55
REMARK SMILES IDX 57 57 78 58 45 59 29 60 30 61 38 62 31 63 32 64 36 65 39 66
REMARK SMILES IDX 33 67 34 68 37 69 35 70 61 71 62 72 70 73 63 74 64 75 68 76
REMARK SMILES IDX 71 77 65 78 66 79 69 80 67 81 46 82 47 83 55 84 48 85 49 86
REMARK SMILES IDX 53 87 56 88 50 89 51 90 54 91 52 92
REMARK H PARENT 13 6 17 26 76 45 44 56
REMARK Flexibility Score: inf
ROOT
ATOM      1  C   UNL A   1      31.652  31.936  26.856  1.00  0.00     0.042 C 
ENDROOT
BRANCH   1   2
ATOM      2  C   UNL A   1      31.953  30.455  26.729  1.00  0.00     0.118 C 
BRANCH   2   3
ATOM      3  N   UNL A   1      32.466  30.117  25.410  1.00  0.00    -0.352 N 
ATOM      4  C   UNL A   1      32.705  28.990  24.698  1.00  0.00     0.251 C 
ATOM      5  O   UNL A   1      33.146  29.166  23.559  1.00  0.00    -0.270 OA
ATOM      6  H   UNL A   1      32.705  30.924  24.898  1.00  0.00     0.163 HD
BRANCH   4   7
ATOM      7  C   UNL A   1      32.477  27.604  25.200  1.00  0.00     0.067 C 
ATOM      8  C   UNL A   1      34.213  23.185  26.120  1.00  0.00     0.053 A 
ATOM      9  C   UNL A   1      33.010  22.849  26.752  1.00  0.00     0.023 A 
ATOM     10  C   UNL A   1      34.397  24.474  25.600  1.00  0.00     0.031 A 
ATOM     11  C   UNL A   1      31.996  23.796  26.864  1.00  0.00     0.048 A 
ATOM     12  C   UNL A   1      33.377  25.425  25.707  1.00  0.00     0.018 A 
ATOM     13  C   UNL A   1      32.182  25.071  26.338  1.00  0.00     0.128 A 
ATOM     14  C   UNL A   1      33.548  26.789  25.219  1.00  0.00     0.025 C 
ATOM     15  O   UNL A   1      31.154  25.945  26.520  1.00  0.00    -0.475 OA
ATOM     16  C   UNL A   1      31.135  27.102  25.647  1.00  0.00     0.314 C 
BRANCH   8  17
ATOM     17  C   UNL A   1      35.256  22.209  26.022  1.00  0.00     0.099 C 
ATOM     18  N   UNL A   1      36.095  21.409  25.938  1.00  0.00    -0.192 NA
ENDBRANCH   8  17
BRANCH  16  19
ATOM     19  C   UNL A   1      30.184  26.830  24.464  1.00  0.00     0.429 C 
ATOM     20  F   UNL A   1      30.833  26.141  23.490  1.00  0.00    -0.167 F 
ATOM     21  F   UNL A   1      29.113  26.078  24.812  1.00  0.00    -0.167 F 
ATOM     22  F   UNL A   1      29.702  27.963  23.910  1.00  0.00    -0.167 F 
ENDBRANCH  16  19
ENDBRANCH   4   7
ENDBRANCH   2   3
ENDBRANCH   1   2
BRANCH   1  23
ATOM     23  C   UNL A   1      32.841  32.698  27.413  1.00  0.00     0.118 C 
BRANCH  23  24
ATOM     24  N   UNL A   1      32.526  34.106  27.666  1.00  0.00    -0.352 N 
ATOM     25  C   UNL A   1      33.012  34.976  28.614  1.00  0.00     0.251 C 
ATOM     26  H   UNL A   1      31.856  34.494  27.058  1.00  0.00     0.163 HD
ATOM     27  O   UNL A   1      32.458  36.051  28.810  1.00  0.00    -0.269 OA
BRANCH  25  28
ATOM     28  C   UNL A   1      34.187  34.584  29.413  1.00  0.00     0.039 A 
ATOM     29  C   UNL A   1      35.462  34.727  28.873  1.00  0.00     0.014 A 
ATOM     30  C   UNL A   1      34.014  34.014  30.675  1.00  0.00     0.014 A 
ATOM     31  C   UNL A   1      36.520  34.055  29.457  1.00  0.00     0.010 A 
ATOM     32  C   UNL A   1      35.118  33.477  31.341  1.00  0.00     0.010 A 
ATOM     33  C   UNL A   1      36.367  33.426  30.702  1.00  0.00    -0.014 A 
BRANCH  33  34
ATOM     34  C   UNL A   1      37.531  32.718  31.292  1.00  0.00     0.031 A 
ATOM     35  C   UNL A   1      38.012  33.045  32.681  1.00  0.00     0.074 A 
ATOM     36  C   UNL A   1      38.104  31.718  30.594  1.00  0.00     0.049 A 
ATOM     37  N   UNL A   1      38.994  32.505  33.358  1.00  0.00    -0.248 NA
ATOM     38  C   UNL A   1      37.309  34.117  33.405  1.00  0.00     0.031 C 
ATOM     39  C   UNL A   1      37.709  31.299  29.247  1.00  0.00     0.029 A 
ATOM     40  N   UNL A   1      39.111  30.849  30.927  1.00  0.00    -0.354 N 
ATOM     41  C   UNL A   1      39.039  33.182  34.571  1.00  0.00     0.074 A 
ATOM     42  C   UNL A   1      38.014  34.201  34.524  1.00  0.00     0.031 C 
ATOM     43  C   UNL A   1      38.413  30.216  28.897  1.00  0.00     0.029 A 
ATOM     44  C   UNL A   1      39.375  29.919  29.951  1.00  0.00     0.049 A 
ATOM     45  H   UNL A   1      39.598  30.887  31.782  1.00  0.00     0.167 HD
ATOM     46  C   UNL A   1      39.849  32.958  35.632  1.00  0.00     0.037 A 
ATOM     47  C   UNL A   1      40.306  28.948  29.894  1.00  0.00     0.037 A 
ATOM     48  C   UNL A   1      40.851  31.924  35.677  1.00  0.00     0.049 A 
ATOM     49  C   UNL A   1      41.237  28.769  31.058  1.00  0.00     0.074 A 
ATOM     50  C   UNL A   1      41.704  31.601  36.716  1.00  0.00     0.029 A 
ATOM     51  N   UNL A   1      41.132  31.046  34.639  1.00  0.00    -0.354 N 
ATOM     52  N   UNL A   1      41.251  29.400  32.207  1.00  0.00    -0.248 NA
ATOM     53  C   UNL A   1      42.285  27.751  30.917  1.00  0.00     0.031 C 
ATOM     54  C   UNL A   1      42.549  30.577  36.285  1.00  0.00     0.029 A 
ATOM     55  C   UNL A   1      42.175  30.208  35.002  1.00  0.00     0.049 A 
ATOM     56  H   UNL A   1      40.662  31.023  33.775  1.00  0.00     0.167 HD
ATOM     57  C   UNL A   1      42.297  28.847  32.932  1.00  0.00     0.074 A 
ATOM     58  C   UNL A   1      42.877  27.811  32.102  1.00  0.00     0.031 C 
ATOM     59  C   UNL A   1      42.739  29.175  34.169  1.00  0.00     0.037 A 
BRANCH  46  60
ATOM     60  C   UNL A   1      39.705  33.846  36.836  1.00  0.00     0.064 A 
ATOM     61  C   UNL A   1      40.320  35.105  36.903  1.00  0.00     0.173 A 
ATOM     62  C   UNL A   1      38.871  33.467  37.901  1.00  0.00     0.173 A 
ATOM     63  F   UNL A   1      41.134  35.513  35.919  1.00  0.00    -0.203 F 
ATOM     64  C   UNL A   1      40.117  35.944  37.997  1.00  0.00     0.198 A 
ATOM     65  C   UNL A   1      38.644  34.322  38.976  1.00  0.00     0.198 A 
ATOM     66  F   UNL A   1      38.253  32.277  37.885  1.00  0.00    -0.203 F 
ATOM     67  F   UNL A   1      40.745  37.126  38.056  1.00  0.00    -0.200 F 
ATOM     68  C   UNL A   1      39.271  35.558  39.026  1.00  0.00     0.200 A 
ATOM     69  F   UNL A   1      37.810  33.955  39.959  1.00  0.00    -0.200 F 
ATOM     70  F   UNL A   1      39.060  36.377  40.065  1.00  0.00    -0.200 F 
ENDBRANCH  46  60
BRANCH  47  71
ATOM     71  C   UNL A   1      40.395  28.089  28.685  1.00  0.00     0.064 A 
ATOM     72  C   UNL A   1      41.157  28.479  27.577  1.00  0.00     0.173 A 
ATOM     73  C   UNL A   1      39.754  26.841  28.628  1.00  0.00     0.173 A 
ATOM     74  F   UNL A   1      41.776  29.669  27.576  1.00  0.00    -0.203 F 
ATOM     75  C   UNL A   1      41.269  27.659  26.455  1.00  0.00     0.198 A 
ATOM     76  C   UNL A   1      39.896  26.006  27.524  1.00  0.00     0.198 A 
ATOM     77  F   UNL A   1      39.017  26.415  29.666  1.00  0.00    -0.203 F 
ATOM     78  F   UNL A   1      41.974  28.072  25.395  1.00  0.00    -0.200 F 
ATOM     79  C   UNL A   1      40.647  26.418  26.434  1.00  0.00     0.200 A 
ATOM     80  F   UNL A   1      39.315  24.798  27.519  1.00  0.00    -0.200 F 
ATOM     81  F   UNL A   1      40.772  25.623  25.364  1.00  0.00    -0.200 F 
ENDBRANCH  47  71
BRANCH  59  82
ATOM     82  C   UNL A   1      43.901  28.404  34.724  1.00  0.00     0.064 A 
ATOM     83  C   UNL A   1      43.717  27.189  35.398  1.00  0.00     0.173 A 
ATOM     84  C   UNL A   1      45.217  28.833  34.489  1.00  0.00     0.173 A 
ATOM     85  F   UNL A   1      42.479  26.742  35.659  1.00  0.00    -0.203 F 
ATOM     86  C   UNL A   1      44.806  26.435  35.824  1.00  0.00     0.198 A 
ATOM     87  C   UNL A   1      46.304  28.059  34.884  1.00  0.00     0.198 A 
ATOM     88  F   UNL A   1      45.448  29.985  33.841  1.00  0.00    -0.203 F 
ATOM     89  F   UNL A   1      44.606  25.292  36.494  1.00  0.00    -0.200 F 
ATOM     90  C   UNL A   1      46.098  26.862  35.553  1.00  0.00     0.200 A 
ATOM     91  F   UNL A   1      47.550  28.464  34.602  1.00  0.00    -0.200 F 
ATOM     92  F   UNL A   1      47.145  26.120  35.937  1.00  0.00    -0.200 F 
ENDBRANCH  59  82
ENDBRANCH  33  34
ENDBRANCH  25  28
ENDBRANCH  23  24
ENDBRANCH   1  23
TORSDOF 12
ENDMDL
