MODEL 1
REMARK VINA RESULT:     -13.5      0.000      0.000
REMARK SMILES Cc1ncc(CC(=O)N2CCc3c(c(C(=O)NCCCNC(=O)c4ccc(-c5c6nc(c(-c7c(F)c(F)c(F)c(F)c7F)c7ccc([nH]7)c(-c7c(F)c(F)c(F)c(F)c7F)c7nc(c(-c8c(F)c(F)c(F)c(F)c8F)c8ccc5[nH]8)C=C7)C=C6)cc4)nn3CC3CC3)C2)c(=O)[nH]1
REMARK SMILES IDX 18 1 17 2 15 3 16 4 14 6 9 7 10 8 93 9 11 10 13 11 12 12
REMARK SMILES IDX 88 13 87 14 7 15 8 16 6 17 5 18 1 19 2 20 3 21 96 22 4 23
REMARK SMILES IDX 94 24 95 26 89 27 90 28 91 29 92 30 19 31 20 32 21 33 22 34
REMARK SMILES IDX 23 36 24 37 25 38 86 39 26 40 85 41 27 42 28 43 29 44 79 45
REMARK SMILES IDX 30 46 84 47 78 48 80 49 31 50 83 51 77 52 76 53 32 55 64 56
REMARK SMILES IDX 44 57 63 58 45 59 48 60 62 61 81 62 46 63 47 64 61 66 82 67
REMARK SMILES IDX 49 68 33 69 34 70 42 71 35 72 36 73 40 74 43 75 37 76 38 77
REMARK SMILES IDX 41 78 39 79 65 80 66 81 74 82 67 83 68 84 72 85 75 86 69 87
REMARK SMILES IDX 70 88 73 89 71 90 50 91 51 92 59 93 52 94 53 95 57 96 60 97
REMARK SMILES IDX 54 98 55 99 58 100 56 101
REMARK H PARENT 17 5 96 25 21 35 80 54 48 65
REMARK Flexibility Score: inf
ROOT
ATOM      1  C   UNL A   1      31.363  31.538  26.704  1.00  0.00     0.118 C 
ENDROOT
BRANCH   1   2
ATOM      2  N   UNL A   1      32.634  30.822  26.792  1.00  0.00    -0.351 N 
ATOM      3  C   UNL A   1      33.064  29.673  26.153  1.00  0.00     0.272 C 
ATOM      4  O   UNL A   1      34.230  29.323  26.338  1.00  0.00    -0.267 OA
ATOM      5  H   UNL A   1      33.290  31.222  27.407  1.00  0.00     0.163 HD
BRANCH   3   6
ATOM      6  C   UNL A   1      32.153  28.892  25.299  1.00  0.00     0.155 A 
ATOM      7  N   UNL A   1      31.192  25.358  26.322  1.00  0.00    -0.338 N 
ATOM      8  C   UNL A   1      29.849  25.458  25.725  1.00  0.00     0.126 C 
ATOM      9  C   UNL A   1      31.792  26.653  26.724  1.00  0.00     0.159 C 
ATOM     10  C   UNL A   1      29.911  26.144  24.351  1.00  0.00     0.078 C 
ATOM     11  C   UNL A   1      31.601  27.605  25.574  1.00  0.00     0.026 A 
ATOM     12  C   UNL A   1      30.750  27.355  24.510  1.00  0.00     0.046 A 
ATOM     13  N   UNL A   1      30.858  28.405  23.661  1.00  0.00    -0.268 N 
ATOM     14  N   UNL A   1      31.695  29.344  24.118  1.00  0.00    -0.167 NA
BRANCH   7  15
ATOM     15  C   UNL A   1      31.916  24.199  26.548  1.00  0.00     0.227 C 
ATOM     16  O   UNL A   1      31.788  23.584  27.614  1.00  0.00    -0.275 OA
BRANCH  15  17
ATOM     17  C   UNL A   1      33.098  23.822  25.630  1.00  0.00     0.143 C 
BRANCH  17  18
ATOM     18  C   UNL A   1      33.098  24.215  24.194  1.00  0.00     0.045 A 
ATOM     19  C   UNL A   1      32.635  25.576  20.219  1.00  0.00     0.087 C 
ATOM     20  C   UNL A   1      32.881  25.092  21.617  1.00  0.00     0.105 A 
ATOM     21  N   UNL A   1      33.672  25.733  22.413  1.00  0.00    -0.243 NA
ATOM     22  N   UNL A   1      32.201  23.965  21.982  1.00  0.00    -0.311 N 
ATOM     23  C   UNL A   1      33.781  25.256  23.691  1.00  0.00     0.123 A 
ATOM     24  C   UNL A   1      32.274  23.443  23.242  1.00  0.00     0.254 A 
ATOM     25  H   UNL A   1      31.638  23.513  21.314  1.00  0.00     0.171 HD
ATOM     26  O   UNL A   1      31.662  22.434  23.568  1.00  0.00    -0.269 OA
ENDBRANCH  17  18
ENDBRANCH  15  17
ENDBRANCH   7  15
BRANCH  13  27
ATOM     27  C   UNL A   1      30.217  28.593  22.367  1.00  0.00     0.148 C 
BRANCH  27  28
ATOM     28  C   UNL A   1      29.559  29.934  22.177  1.00  0.00     0.011 C 
ATOM     29  C   UNL A   1      28.164  30.142  21.625  1.00  0.00     0.006 C 
ATOM     30  C   UNL A   1      28.423  30.334  23.091  1.00  0.00     0.006 C 
ENDBRANCH  27  28
ENDBRANCH  13  27
ENDBRANCH   3   6
ENDBRANCH   1   2
BRANCH   1  31
ATOM     31  C   UNL A   1      31.527  33.064  26.718  1.00  0.00     0.042 C 
BRANCH  31  32
ATOM     32  C   UNL A   1      32.813  33.466  27.421  1.00  0.00     0.118 C 
BRANCH  32  33
ATOM     33  N   UNL A   1      32.643  34.626  28.323  1.00  0.00    -0.352 N 
ATOM     34  C   UNL A   1      33.261  34.926  29.534  1.00  0.00     0.251 C 
ATOM     35  H   UNL A   1      31.988  35.293  28.017  1.00  0.00     0.163 HD
ATOM     36  O   UNL A   1      32.803  35.767  30.284  1.00  0.00    -0.269 OA
BRANCH  34  37
ATOM     37  C   UNL A   1      34.501  34.212  29.891  1.00  0.00     0.039 A 
ATOM     38  C   UNL A   1      34.638  33.369  31.001  1.00  0.00     0.014 A 
ATOM     39  C   UNL A   1      35.550  34.364  29.014  1.00  0.00     0.014 A 
ATOM     40  C   UNL A   1      35.857  32.711  31.183  1.00  0.00     0.010 A 
ATOM     41  C   UNL A   1      36.457  33.365  28.946  1.00  0.00     0.010 A 
ATOM     42  C   UNL A   1      36.779  32.755  30.137  1.00  0.00    -0.014 A 
BRANCH  42  43
ATOM     43  C   UNL A   1      38.103  32.166  30.144  1.00  0.00     0.031 A 
ATOM     44  C   UNL A   1      38.177  30.869  29.442  1.00  0.00     0.074 A 
ATOM     45  C   UNL A   1      39.192  32.925  30.415  1.00  0.00     0.049 A 
ATOM     46  N   UNL A   1      38.365  29.706  29.969  1.00  0.00    -0.248 NA
ATOM     47  C   UNL A   1      37.801  30.827  28.019  1.00  0.00     0.031 C 
ATOM     48  C   UNL A   1      39.259  34.355  30.757  1.00  0.00     0.029 A 
ATOM     49  N   UNL A   1      40.507  32.591  30.296  1.00  0.00    -0.354 N 
ATOM     50  C   UNL A   1      38.359  28.814  28.902  1.00  0.00     0.074 A 
ATOM     51  C   UNL A   1      37.734  29.511  27.813  1.00  0.00     0.031 C 
ATOM     52  C   UNL A   1      40.523  34.805  30.593  1.00  0.00     0.029 A 
ATOM     53  C   UNL A   1      41.378  33.683  30.265  1.00  0.00     0.049 A 
ATOM     54  H   UNL A   1      40.818  31.659  30.237  1.00  0.00     0.167 HD
ATOM     55  C   UNL A   1      39.149  27.704  28.919  1.00  0.00     0.037 A 
ATOM     56  C   UNL A   1      42.683  33.624  29.892  1.00  0.00     0.037 A 
ATOM     57  C   UNL A   1      39.665  27.477  30.253  1.00  0.00     0.049 A 
ATOM     58  C   UNL A   1      43.099  32.195  30.032  1.00  0.00     0.074 A 
ATOM     59  C   UNL A   1      39.083  27.309  31.496  1.00  0.00     0.029 A 
ATOM     60  N   UNL A   1      40.972  27.831  30.504  1.00  0.00    -0.354 N 
ATOM     61  N   UNL A   1      43.147  31.572  31.183  1.00  0.00    -0.248 NA
ATOM     62  C   UNL A   1      42.924  31.334  28.868  1.00  0.00     0.031 C 
ATOM     63  C   UNL A   1      39.896  28.075  32.385  1.00  0.00     0.029 A 
ATOM     64  C   UNL A   1      40.978  28.572  31.660  1.00  0.00     0.049 A 
ATOM     65  H   UNL A   1      41.755  27.598  29.957  1.00  0.00     0.167 HD
ATOM     66  C   UNL A   1      42.584  30.326  30.938  1.00  0.00     0.074 A 
ATOM     67  C   UNL A   1      42.512  30.220  29.481  1.00  0.00     0.031 C 
ATOM     68  C   UNL A   1      41.930  29.630  31.917  1.00  0.00     0.037 A 
BRANCH  55  69
ATOM     69  C   UNL A   1      39.794  27.074  27.700  1.00  0.00     0.064 A 
ATOM     70  C   UNL A   1      39.796  25.666  27.607  1.00  0.00     0.173 A 
ATOM     71  C   UNL A   1      40.651  27.733  26.792  1.00  0.00     0.173 A 
ATOM     72  F   UNL A   1      39.002  24.926  28.396  1.00  0.00    -0.203 F 
ATOM     73  C   UNL A   1      40.684  24.978  26.779  1.00  0.00     0.198 A 
ATOM     74  C   UNL A   1      41.501  27.043  25.929  1.00  0.00     0.198 A 
ATOM     75  F   UNL A   1      40.794  29.060  26.755  1.00  0.00    -0.203 F 
ATOM     76  F   UNL A   1      40.750  23.641  26.841  1.00  0.00    -0.200 F 
ATOM     77  C   UNL A   1      41.550  25.667  25.952  1.00  0.00     0.200 A 
ATOM     78  F   UNL A   1      42.331  27.734  25.135  1.00  0.00    -0.200 F 
ATOM     79  F   UNL A   1      42.455  25.015  25.213  1.00  0.00    -0.200 F 
ENDBRANCH  55  69
BRANCH  56  80
ATOM     80  C   UNL A   1      43.427  34.624  29.075  1.00  0.00     0.064 A 
ATOM     81  C   UNL A   1      44.822  34.763  29.168  1.00  0.00     0.173 A 
ATOM     82  C   UNL A   1      42.814  35.299  27.999  1.00  0.00     0.173 A 
ATOM     83  F   UNL A   1      45.501  34.114  30.125  1.00  0.00    -0.203 F 
ATOM     84  C   UNL A   1      45.553  35.519  28.239  1.00  0.00     0.198 A 
ATOM     85  C   UNL A   1      43.540  36.060  27.080  1.00  0.00     0.198 A 
ATOM     86  F   UNL A   1      41.503  35.163  27.754  1.00  0.00    -0.203 F 
ATOM     87  F   UNL A   1      46.890  35.581  28.330  1.00  0.00    -0.200 F 
ATOM     88  C   UNL A   1      44.912  36.161  27.192  1.00  0.00     0.200 A 
ATOM     89  F   UNL A   1      42.906  36.640  26.051  1.00  0.00    -0.200 F 
ATOM     90  F   UNL A   1      45.615  36.838  26.274  1.00  0.00    -0.200 F 
ENDBRANCH  56  80
BRANCH  68  91
ATOM     91  C   UNL A   1      42.000  30.127  33.337  1.00  0.00     0.064 A 
ATOM     92  C   UNL A   1      41.049  30.984  33.921  1.00  0.00     0.173 A 
ATOM     93  C   UNL A   1      42.950  29.556  34.195  1.00  0.00     0.173 A 
ATOM     94  F   UNL A   1      40.042  31.487  33.200  1.00  0.00    -0.203 F 
ATOM     95  C   UNL A   1      41.069  31.276  35.284  1.00  0.00     0.198 A 
ATOM     96  C   UNL A   1      42.948  29.820  35.562  1.00  0.00     0.198 A 
ATOM     97  F   UNL A   1      43.847  28.682  33.712  1.00  0.00    -0.203 F 
ATOM     98  F   UNL A   1      40.145  32.094  35.809  1.00  0.00    -0.200 F 
ATOM     99  C   UNL A   1      42.013  30.686  36.106  1.00  0.00     0.200 A 
ATOM    100  F   UNL A   1      43.829  29.202  36.360  1.00  0.00    -0.200 F 
ATOM    101  F   UNL A   1      42.003  30.927  37.424  1.00  0.00    -0.200 F 
ENDBRANCH  68  91
ENDBRANCH  42  43
ENDBRANCH  34  37
ENDBRANCH  32  33
ENDBRANCH  31  32
ENDBRANCH   1  31
TORSDOF 15
ENDMDL
MODEL 2
REMARK VINA RESULT:     -13.5      2.686      7.225
REMARK SMILES Cc1ncc(CC(=O)N2CCc3c(c(C(=O)NCCCNC(=O)c4ccc(-c5c6nc(c(-c7c(F)c(F)c(F)c(F)c7F)c7ccc([nH]7)c(-c7c(F)c(F)c(F)c(F)c7F)c7nc(c(-c8c(F)c(F)c(F)c(F)c8F)c8ccc5[nH]8)C=C7)C=C6)cc4)nn3CC3CC3)C2)c(=O)[nH]1
REMARK SMILES IDX 18 1 17 2 15 3 16 4 14 6 9 7 10 8 93 9 11 10 13 11 12 12
REMARK SMILES IDX 88 13 87 14 7 15 8 16 6 17 5 18 1 19 2 20 3 21 96 22 4 23
REMARK SMILES IDX 94 24 95 26 89 27 90 28 91 29 92 30 19 31 20 32 21 33 22 34
REMARK SMILES IDX 23 36 24 37 25 38 86 39 26 40 85 41 27 42 28 43 29 44 79 45
REMARK SMILES IDX 30 46 84 47 78 48 80 49 31 50 83 51 77 52 76 53 32 55 64 56
REMARK SMILES IDX 44 57 63 58 45 59 48 60 62 61 81 62 46 63 47 64 61 66 82 67
REMARK SMILES IDX 49 68 33 69 34 70 42 71 35 72 36 73 40 74 43 75 37 76 38 77
REMARK SMILES IDX 41 78 39 79 65 80 66 81 74 82 67 83 68 84 72 85 75 86 69 87
REMARK SMILES IDX 70 88 73 89 71 90 50 91 51 92 59 93 52 94 53 95 57 96 60 97
REMARK SMILES IDX 54 98 55 99 58 100 56 101
REMARK H PARENT 17 5 96 25 21 35 80 54 48 65
REMARK Flexibility Score: inf
ROOT
ATOM      1  C   UNL A   1      33.097  29.440  26.548  1.00  0.00     0.118 C 
ENDROOT
BRANCH   1   2
ATOM      2  N   UNL A   1      33.970  29.324  25.383  1.00  0.00    -0.351 N 
ATOM      3  C   UNL A   1      33.741  28.760  24.140  1.00  0.00     0.272 C 
ATOM      4  O   UNL A   1      34.627  28.875  23.292  1.00  0.00    -0.267 OA
ATOM      5  H   UNL A   1      34.868  29.710  25.501  1.00  0.00     0.163 HD
BRANCH   3   6
ATOM      6  C   UNL A   1      32.492  28.033  23.855  1.00  0.00     0.155 A 
ATOM      7  N   UNL A   1      32.506  24.231  23.787  1.00  0.00    -0.338 N 
ATOM      8  C   UNL A   1      31.125  24.132  24.289  1.00  0.00     0.126 C 
ATOM      9  C   UNL A   1      33.219  25.475  24.171  1.00  0.00     0.159 C 
ATOM     10  C   UNL A   1      30.217  25.163  23.600  1.00  0.00     0.078 C 
ATOM     11  C   UNL A   1      32.284  26.622  23.894  1.00  0.00     0.026 A 
ATOM     12  C   UNL A   1      30.933  26.461  23.635  1.00  0.00     0.046 A 
ATOM     13  N   UNL A   1      30.423  27.694  23.406  1.00  0.00    -0.268 N 
ATOM     14  N   UNL A   1      31.344  28.657  23.536  1.00  0.00    -0.167 NA
BRANCH   7  15
ATOM     15  C   UNL A   1      33.184  23.292  23.029  1.00  0.00     0.227 C 
ATOM     16  O   UNL A   1      32.896  23.130  21.837  1.00  0.00    -0.275 OA
BRANCH  15  17
ATOM     17  C   UNL A   1      34.082  22.236  23.708  1.00  0.00     0.143 C 
BRANCH  17  18
ATOM     18  C   UNL A   1      35.307  22.645  24.449  1.00  0.00     0.045 A 
ATOM     19  C   UNL A   1      38.641  24.311  26.443  1.00  0.00     0.087 C 
ATOM     20  C   UNL A   1      37.464  23.654  25.785  1.00  0.00     0.105 A 
ATOM     21  N   UNL A   1      36.447  23.262  26.480  1.00  0.00    -0.243 NA
ATOM     22  N   UNL A   1      37.537  23.531  24.426  1.00  0.00    -0.311 N 
ATOM     23  C   UNL A   1      35.391  22.736  25.785  1.00  0.00     0.123 A 
ATOM     24  C   UNL A   1      36.515  23.012  23.683  1.00  0.00     0.254 A 
ATOM     25  H   UNL A   1      38.356  23.825  23.967  1.00  0.00     0.171 HD
ATOM     26  O   UNL A   1      36.583  22.904  22.466  1.00  0.00    -0.269 OA
ENDBRANCH  17  18
ENDBRANCH  15  17
ENDBRANCH   7  15
BRANCH  13  27
ATOM     27  C   UNL A   1      29.064  28.057  23.028  1.00  0.00     0.148 C 
BRANCH  27  28
ATOM     28  C   UNL A   1      28.900  29.474  22.545  1.00  0.00     0.011 C 
ATOM     29  C   UNL A   1      27.618  30.052  21.982  1.00  0.00     0.006 C 
ATOM     30  C   UNL A   1      28.070  30.439  23.360  1.00  0.00     0.006 C 
ENDBRANCH  27  28
ENDBRANCH  13  27
ENDBRANCH   3   6
ENDBRANCH   1   2
BRANCH   1  31
ATOM     31  C   UNL A   1      33.168  30.816  27.223  1.00  0.00     0.042 C 
BRANCH  31  32
ATOM     32  C   UNL A   1      34.551  31.065  27.805  1.00  0.00     0.118 C 
BRANCH  32  33
ATOM     33  N   UNL A   1      34.529  31.933  29.002  1.00  0.00    -0.352 N 
ATOM     34  C   UNL A   1      35.252  31.853  30.188  1.00  0.00     0.251 C 
ATOM     35  H   UNL A   1      33.902  32.690  28.950  1.00  0.00     0.163 HD
ATOM     36  O   UNL A   1      34.910  32.473  31.178  1.00  0.00    -0.269 OA
BRANCH  34  37
ATOM     37  C   UNL A   1      36.462  31.009  30.224  1.00  0.00     0.039 A 
ATOM     38  C   UNL A   1      36.452  29.610  30.180  1.00  0.00     0.014 A 
ATOM     39  C   UNL A   1      37.660  31.686  30.239  1.00  0.00     0.014 A 
ATOM     40  C   UNL A   1      37.680  28.943  30.162  1.00  0.00     0.010 A 
ATOM     41  C   UNL A   1      38.737  31.059  29.719  1.00  0.00     0.010 A 
ATOM     42  C   UNL A   1      38.829  29.707  29.962  1.00  0.00    -0.014 A 
BRANCH  42  43
ATOM     43  C   UNL A   1      40.190  29.209  29.943  1.00  0.00     0.031 A 
ATOM     44  C   UNL A   1      40.764  29.005  31.289  1.00  0.00     0.074 A 
ATOM     45  C   UNL A   1      40.696  28.633  28.826  1.00  0.00     0.049 A 
ATOM     46  N   UNL A   1      41.709  29.684  31.845  1.00  0.00    -0.248 NA
ATOM     47  C   UNL A   1      40.081  28.072  32.201  1.00  0.00     0.031 C 
ATOM     48  C   UNL A   1      40.053  28.436  27.517  1.00  0.00     0.029 A 
ATOM     49  N   UNL A   1      41.871  27.960  28.679  1.00  0.00    -0.354 N 
ATOM     50  C   UNL A   1      41.890  29.105  33.096  1.00  0.00     0.074 A 
ATOM     51  C   UNL A   1      40.700  28.343  33.351  1.00  0.00     0.031 C 
ATOM     52  C   UNL A   1      40.740  27.514  26.805  1.00  0.00     0.029 A 
ATOM     53  C   UNL A   1      41.934  27.153  27.541  1.00  0.00     0.049 A 
ATOM     54  H   UNL A   1      42.614  28.037  29.320  1.00  0.00     0.167 HD
ATOM     55  C   UNL A   1      43.127  29.050  33.665  1.00  0.00     0.037 A 
ATOM     56  C   UNL A   1      42.876  26.200  27.317  1.00  0.00     0.037 A 
ATOM     57  C   UNL A   1      44.043  29.920  32.958  1.00  0.00     0.049 A 
ATOM     58  C   UNL A   1      44.034  26.533  28.201  1.00  0.00     0.074 A 
ATOM     59  C   UNL A   1      44.044  31.267  32.643  1.00  0.00     0.029 A 
ATOM     60  N   UNL A   1      44.937  29.339  32.086  1.00  0.00    -0.354 N 
ATOM     61  N   UNL A   1      44.752  27.619  28.062  1.00  0.00    -0.248 NA
ATOM     62  C   UNL A   1      44.037  25.954  29.540  1.00  0.00     0.031 C 
ATOM     63  C   UNL A   1      44.510  31.326  31.295  1.00  0.00     0.029 A 
ATOM     64  C   UNL A   1      44.867  30.035  30.905  1.00  0.00     0.049 A 
ATOM     65  H   UNL A   1      45.519  28.568  32.275  1.00  0.00     0.167 HD
ATOM     66  C   UNL A   1      44.934  28.094  29.355  1.00  0.00     0.074 A 
ATOM     67  C   UNL A   1      44.514  26.997  30.227  1.00  0.00     0.031 C 
ATOM     68  C   UNL A   1      45.096  29.427  29.613  1.00  0.00     0.037 A 
BRANCH  55  69
ATOM     69  C   UNL A   1      43.626  27.933  34.562  1.00  0.00     0.064 A 
ATOM     70  C   UNL A   1      43.532  26.610  34.082  1.00  0.00     0.173 A 
ATOM     71  C   UNL A   1      43.901  28.050  35.942  1.00  0.00     0.173 A 
ATOM     72  F   UNL A   1      43.302  26.366  32.783  1.00  0.00    -0.203 F 
ATOM     73  C   UNL A   1      43.568  25.506  34.937  1.00  0.00     0.198 A 
ATOM     74  C   UNL A   1      43.988  26.942  36.784  1.00  0.00     0.198 A 
ATOM     75  F   UNL A   1      44.001  29.224  36.571  1.00  0.00    -0.203 F 
ATOM     76  F   UNL A   1      43.322  24.282  34.450  1.00  0.00    -0.200 F 
ATOM     77  C   UNL A   1      43.778  25.674  36.291  1.00  0.00     0.200 A 
ATOM     78  F   UNL A   1      44.195  27.130  38.095  1.00  0.00    -0.200 F 
ATOM     79  F   UNL A   1      43.738  24.628  37.124  1.00  0.00    -0.200 F 
ENDBRANCH  55  69
BRANCH  56  80
ATOM     80  C   UNL A   1      42.662  24.857  26.706  1.00  0.00     0.064 A 
ATOM     81  C   UNL A   1      43.252  24.500  25.482  1.00  0.00     0.173 A 
ATOM     82  C   UNL A   1      42.074  23.801  27.435  1.00  0.00     0.173 A 
ATOM     83  F   UNL A   1      43.885  25.425  24.744  1.00  0.00    -0.203 F 
ATOM     84  C   UNL A   1      43.260  23.174  25.024  1.00  0.00     0.198 A 
ATOM     85  C   UNL A   1      42.073  22.483  26.974  1.00  0.00     0.198 A 
ATOM     86  F   UNL A   1      41.566  24.005  28.658  1.00  0.00    -0.203 F 
ATOM     87  F   UNL A   1      43.882  22.865  23.877  1.00  0.00    -0.200 F 
ATOM     88  C   UNL A   1      42.676  22.166  25.774  1.00  0.00     0.200 A 
ATOM     89  F   UNL A   1      41.538  21.515  27.733  1.00  0.00    -0.200 F 
ATOM     90  F   UNL A   1      42.731  20.891  25.363  1.00  0.00    -0.200 F 
ENDBRANCH  56  80
BRANCH  68  91
ATOM     91  C   UNL A   1      45.286  30.376  28.459  1.00  0.00     0.064 A 
ATOM     92  C   UNL A   1      44.241  31.085  27.839  1.00  0.00     0.173 A 
ATOM     93  C   UNL A   1      46.594  30.734  28.103  1.00  0.00     0.173 A 
ATOM     94  F   UNL A   1      42.968  30.886  28.196  1.00  0.00    -0.203 F 
ATOM     95  C   UNL A   1      44.493  32.075  26.891  1.00  0.00     0.198 A 
ATOM     96  C   UNL A   1      46.845  31.748  27.183  1.00  0.00     0.198 A 
ATOM     97  F   UNL A   1      47.637  30.140  28.703  1.00  0.00    -0.203 F 
ATOM     98  F   UNL A   1      43.473  32.735  26.321  1.00  0.00    -0.200 F 
ATOM     99  C   UNL A   1      45.795  32.413  26.570  1.00  0.00     0.200 A 
ATOM    100  F   UNL A   1      48.109  32.108  26.919  1.00  0.00    -0.200 F 
ATOM    101  F   UNL A   1      46.040  33.400  25.696  1.00  0.00    -0.200 F 
ENDBRANCH  68  91
ENDBRANCH  42  43
ENDBRANCH  34  37
ENDBRANCH  32  33
ENDBRANCH  31  32
ENDBRANCH   1  31
TORSDOF 15
ENDMDL
MODEL 3
REMARK VINA RESULT:     -13.5      3.164      7.977
REMARK SMILES Cc1ncc(CC(=O)N2CCc3c(c(C(=O)NCCCNC(=O)c4ccc(-c5c6nc(c(-c7c(F)c(F)c(F)c(F)c7F)c7ccc([nH]7)c(-c7c(F)c(F)c(F)c(F)c7F)c7nc(c(-c8c(F)c(F)c(F)c(F)c8F)c8ccc5[nH]8)C=C7)C=C6)cc4)nn3CC3CC3)C2)c(=O)[nH]1
REMARK SMILES IDX 18 1 17 2 15 3 16 4 14 6 9 7 10 8 93 9 11 10 13 11 12 12
REMARK SMILES IDX 88 13 87 14 7 15 8 16 6 17 5 18 1 19 2 20 3 21 96 22 4 23
REMARK SMILES IDX 94 24 95 26 89 27 90 28 91 29 92 30 19 31 20 32 21 33 22 34
REMARK SMILES IDX 23 36 24 37 25 38 86 39 26 40 85 41 27 42 28 43 29 44 79 45
REMARK SMILES IDX 30 46 84 47 78 48 80 49 31 50 83 51 77 52 76 53 32 55 64 56
REMARK SMILES IDX 44 57 63 58 45 59 48 60 62 61 81 62 46 63 47 64 61 66 82 67
REMARK SMILES IDX 49 68 33 69 34 70 42 71 35 72 36 73 40 74 43 75 37 76 38 77
REMARK SMILES IDX 41 78 39 79 65 80 66 81 74 82 67 83 68 84 72 85 75 86 69 87
REMARK SMILES IDX 70 88 73 89 71 90 50 91 51 92 59 93 52 94 53 95 57 96 60 97
REMARK SMILES IDX 54 98 55 99 58 100 56 101
REMARK H PARENT 17 5 96 25 21 35 80 54 48 65
REMARK Flexibility Score: inf
ROOT
ATOM      1  C   UNL A   1      36.981  22.641  25.228  1.00  0.00     0.118 C 
ENDROOT
BRANCH   1   2
ATOM      2  N   UNL A   1      36.143  22.812  26.412  1.00  0.00    -0.351 N 
ATOM      3  C   UNL A   1      34.859  22.368  26.678  1.00  0.00     0.272 C 
ATOM      4  O   UNL A   1      34.408  22.575  27.805  1.00  0.00    -0.267 OA
ATOM      5  H   UNL A   1      36.559  23.327  27.141  1.00  0.00     0.163 HD
BRANCH   3   6
ATOM      6  C   UNL A   1      34.060  21.692  25.641  1.00  0.00     0.155 A 
ATOM      7  N   UNL A   1      32.404  23.751  22.907  1.00  0.00    -0.338 N 
ATOM      8  C   UNL A   1      32.541  22.684  21.901  1.00  0.00     0.126 C 
ATOM      9  C   UNL A   1      33.404  23.706  24.002  1.00  0.00     0.159 C 
ATOM     10  C   UNL A   1      32.190  21.315  22.505  1.00  0.00     0.078 C 
ATOM     11  C   UNL A   1      33.461  22.282  24.488  1.00  0.00     0.026 A 
ATOM     12  C   UNL A   1      32.904  21.217  23.800  1.00  0.00     0.046 A 
ATOM     13  N   UNL A   1      33.122  20.107  24.543  1.00  0.00    -0.268 N 
ATOM     14  N   UNL A   1      33.820  20.368  25.656  1.00  0.00    -0.167 NA
BRANCH   7  15
ATOM     15  C   UNL A   1      31.466  24.770  22.915  1.00  0.00     0.227 C 
ATOM     16  O   UNL A   1      30.283  24.524  23.178  1.00  0.00    -0.275 OA
BRANCH  15  17
ATOM     17  C   UNL A   1      31.804  26.150  22.311  1.00  0.00     0.143 C 
BRANCH  17  18
ATOM     18  C   UNL A   1      31.855  27.363  23.173  1.00  0.00     0.045 A 
ATOM     19  C   UNL A   1      31.591  30.592  25.888  1.00  0.00     0.087 C 
ATOM     20  C   UNL A   1      31.765  29.465  24.915  1.00  0.00     0.105 A 
ATOM     21  N   UNL A   1      32.669  28.560  25.099  1.00  0.00    -0.243 NA
ATOM     22  N   UNL A   1      30.897  29.454  23.859  1.00  0.00    -0.311 N 
ATOM     23  C   UNL A   1      32.708  27.532  24.196  1.00  0.00     0.123 A 
ATOM     24  C   UNL A   1      30.892  28.455  22.927  1.00  0.00     0.254 A 
ATOM     25  H   UNL A   1      30.253  30.192  23.767  1.00  0.00     0.171 HD
ATOM     26  O   UNL A   1      30.114  28.447  21.983  1.00  0.00    -0.269 OA
ENDBRANCH  17  18
ENDBRANCH  15  17
ENDBRANCH   7  15
BRANCH  13  27
ATOM     27  C   UNL A   1      32.678  18.743  24.288  1.00  0.00     0.148 C 
BRANCH  27  28
ATOM     28  C   UNL A   1      33.769  17.706  24.324  1.00  0.00     0.011 C 
ATOM     29  C   UNL A   1      33.551  16.229  24.581  1.00  0.00     0.006 C 
ATOM     30  C   UNL A   1      33.875  16.706  23.196  1.00  0.00     0.006 C 
ENDBRANCH  27  28
ENDBRANCH  13  27
ENDBRANCH   3   6
ENDBRANCH   1   2
BRANCH   1  31
ATOM     31  C   UNL A   1      38.199  21.740  25.473  1.00  0.00     0.042 C 
BRANCH  31  32
ATOM     32  C   UNL A   1      39.156  22.379  26.467  1.00  0.00     0.118 C 
BRANCH  32  33
ATOM     33  N   UNL A   1      40.577  22.113  26.158  1.00  0.00    -0.352 N 
ATOM     34  C   UNL A   1      41.656  22.985  26.049  1.00  0.00     0.251 C 
ATOM     35  H   UNL A   1      40.795  21.165  26.005  1.00  0.00     0.163 HD
ATOM     36  O   UNL A   1      42.691  22.642  25.510  1.00  0.00    -0.269 OA
BRANCH  34  37
ATOM     37  C   UNL A   1      41.530  24.341  26.616  1.00  0.00     0.039 A 
ATOM     38  C   UNL A   1      40.622  25.307  26.164  1.00  0.00     0.014 A 
ATOM     39  C   UNL A   1      42.333  24.610  27.701  1.00  0.00     0.014 A 
ATOM     40  C   UNL A   1      40.574  26.531  26.837  1.00  0.00     0.010 A 
ATOM     41  C   UNL A   1      41.902  25.538  28.581  1.00  0.00     0.010 A 
ATOM     42  C   UNL A   1      41.263  26.634  28.045  1.00  0.00    -0.014 A 
BRANCH  42  43
ATOM     43  C   UNL A   1      41.359  27.820  28.872  1.00  0.00     0.031 A 
ATOM     44  C   UNL A   1      42.445  28.736  28.467  1.00  0.00     0.074 A 
ATOM     45  C   UNL A   1      40.319  28.202  29.651  1.00  0.00     0.049 A 
ATOM     46  N   UNL A   1      43.533  28.988  29.112  1.00  0.00    -0.248 NA
ATOM     47  C   UNL A   1      42.418  29.284  27.101  1.00  0.00     0.031 C 
ATOM     48  C   UNL A   1      39.013  27.549  29.832  1.00  0.00     0.029 A 
ATOM     49  N   UNL A   1      40.164  29.363  30.347  1.00  0.00    -0.354 N 
ATOM     50  C   UNL A   1      44.220  29.909  28.328  1.00  0.00     0.074 A 
ATOM     51  C   UNL A   1      43.637  29.819  27.018  1.00  0.00     0.031 C 
ATOM     52  C   UNL A   1      38.140  28.419  30.389  1.00  0.00     0.029 A 
ATOM     53  C   UNL A   1      38.847  29.638  30.723  1.00  0.00     0.049 A 
ATOM     54  H   UNL A   1      40.917  29.958  30.566  1.00  0.00     0.167 HD
ATOM     55  C   UNL A   1      44.985  30.879  28.902  1.00  0.00     0.037 A 
ATOM     56  C   UNL A   1      38.406  30.838  31.182  1.00  0.00     0.037 A 
ATOM     57  C   UNL A   1      45.202  30.582  30.303  1.00  0.00     0.049 A 
ATOM     58  C   UNL A   1      39.612  31.574  31.670  1.00  0.00     0.074 A 
ATOM     59  C   UNL A   1      45.727  29.501  30.989  1.00  0.00     0.029 A 
ATOM     60  N   UNL A   1      44.460  31.280  31.229  1.00  0.00    -0.354 N 
ATOM     61  N   UNL A   1      40.332  31.175  32.688  1.00  0.00    -0.248 NA
ATOM     62  C   UNL A   1      40.314  32.414  30.705  1.00  0.00     0.031 C 
ATOM     63  C   UNL A   1      44.858  29.324  32.108  1.00  0.00     0.029 A 
ATOM     64  C   UNL A   1      43.927  30.363  32.100  1.00  0.00     0.049 A 
ATOM     65  H   UNL A   1      44.336  32.256  31.261  1.00  0.00     0.167 HD
ATOM     66  C   UNL A   1      41.649  31.341  32.280  1.00  0.00     0.074 A 
ATOM     67  C   UNL A   1      41.574  32.156  31.068  1.00  0.00     0.031 C 
ATOM     68  C   UNL A   1      42.654  30.546  32.761  1.00  0.00     0.037 A 
BRANCH  55  69
ATOM     69  C   UNL A   1      45.185  32.275  28.347  1.00  0.00     0.064 A 
ATOM     70  C   UNL A   1      44.039  33.070  28.132  1.00  0.00     0.173 A 
ATOM     71  C   UNL A   1      46.368  32.759  27.746  1.00  0.00     0.173 A 
ATOM     72  F   UNL A   1      42.860  32.733  28.675  1.00  0.00    -0.203 F 
ATOM     73  C   UNL A   1      44.049  34.171  27.272  1.00  0.00     0.198 A 
ATOM     74  C   UNL A   1      46.385  33.888  26.929  1.00  0.00     0.198 A 
ATOM     75  F   UNL A   1      47.540  32.123  27.824  1.00  0.00    -0.203 F 
ATOM     76  F   UNL A   1      42.902  34.799  26.985  1.00  0.00    -0.200 F 
ATOM     77  C   UNL A   1      45.220  34.569  26.657  1.00  0.00     0.200 A 
ATOM     78  F   UNL A   1      47.534  34.257  26.344  1.00  0.00    -0.200 F 
ATOM     79  F   UNL A   1      45.221  35.575  25.775  1.00  0.00    -0.200 F 
ENDBRANCH  55  69
BRANCH  56  80
ATOM     80  C   UNL A   1      37.110  31.499  30.857  1.00  0.00     0.064 A 
ATOM     81  C   UNL A   1      36.148  31.764  31.846  1.00  0.00     0.173 A 
ATOM     82  C   UNL A   1      36.890  32.113  29.606  1.00  0.00     0.173 A 
ATOM     83  F   UNL A   1      36.300  31.270  33.083  1.00  0.00    -0.203 F 
ATOM     84  C   UNL A   1      35.045  32.596  31.599  1.00  0.00     0.198 A 
ATOM     85  C   UNL A   1      35.787  32.932  29.358  1.00  0.00     0.198 A 
ATOM     86  F   UNL A   1      37.789  32.010  28.617  1.00  0.00    -0.203 F 
ATOM     87  F   UNL A   1      34.179  32.869  32.586  1.00  0.00    -0.200 F 
ATOM     88  C   UNL A   1      34.869  33.184  30.357  1.00  0.00     0.200 A 
ATOM     89  F   UNL A   1      35.656  33.525  28.162  1.00  0.00    -0.200 F 
ATOM     90  F   UNL A   1      33.846  34.022  30.139  1.00  0.00    -0.200 F 
ENDBRANCH  56  80
BRANCH  68  91
ATOM     91  C   UNL A   1      42.361  29.611  33.905  1.00  0.00     0.064 A 
ATOM     92  C   UNL A   1      41.876  28.299  33.748  1.00  0.00     0.173 A 
ATOM     93  C   UNL A   1      42.777  29.984  35.190  1.00  0.00     0.173 A 
ATOM     94  F   UNL A   1      41.558  27.823  32.541  1.00  0.00    -0.203 F 
ATOM     95  C   UNL A   1      41.784  27.422  34.827  1.00  0.00     0.198 A 
ATOM     96  C   UNL A   1      42.719  29.095  36.260  1.00  0.00     0.198 A 
ATOM     97  F   UNL A   1      43.307  31.200  35.395  1.00  0.00    -0.203 F 
ATOM     98  F   UNL A   1      41.320  26.177  34.643  1.00  0.00    -0.200 F 
ATOM     99  C   UNL A   1      42.214  27.817  36.081  1.00  0.00     0.200 A 
ATOM    100  F   UNL A   1      43.189  29.466  37.459  1.00  0.00    -0.200 F 
ATOM    101  F   UNL A   1      42.173  26.959  37.110  1.00  0.00    -0.200 F 
ENDBRANCH  68  91
ENDBRANCH  42  43
ENDBRANCH  34  37
ENDBRANCH  32  33
ENDBRANCH  31  32
ENDBRANCH   1  31
TORSDOF 15
ENDMDL
