MODEL 1
REMARK VINA RESULT:     -12.6      0.000      0.000
REMARK SMILES COc1ccc(C(=O)N2CCC(C(=O)NCCCNC(=O)c3ccc(-c4c5nc(c(-c6c(F)c(F)c(F)c(F)c6F)c6ccc([nH]6)c(-c6c(F)c(F)c(F)c(F)c6F)c6nc(c(-c7c(F)c(F)c(F)c(F)c7F)c7ccc4[nH]7)C=C6)C=C5)cc3)CC2)c(OC)c1
REMARK SMILES IDX 17 1 16 2 15 3 13 4 14 5 12 7 7 8 8 9 9 10 10 11 86 12 11 13
REMARK SMILES IDX 85 14 6 15 3 16 4 17 90 18 5 19 87 20 2 21 1 22 88 23 89 24
REMARK SMILES IDX 18 25 19 26 20 27 21 29 22 30 23 31 84 32 24 33 83 34 25 35
REMARK SMILES IDX 26 36 27 37 77 38 28 39 82 40 76 41 78 42 29 43 81 44 75 45
REMARK SMILES IDX 74 46 30 48 62 49 42 50 61 51 43 52 46 53 60 54 79 55 44 56
REMARK SMILES IDX 45 57 59 59 80 60 47 61 31 62 32 63 40 64 33 65 34 66 38 67
REMARK SMILES IDX 41 68 35 69 36 70 39 71 37 72 63 73 64 74 72 75 65 76 66 77
REMARK SMILES IDX 70 78 73 79 67 80 68 81 71 82 69 83 48 84 49 85 57 86 50 87
REMARK SMILES IDX 51 88 55 89 58 90 52 91 53 92 56 93 54 94
REMARK H PARENT 15 6 19 28 78 47 46 58
REMARK Flexibility Score: inf
ROOT
ATOM      1  C   UNL A   1      31.339  32.293  26.518  1.00  0.00     0.042 C 
ENDROOT
BRANCH   1   2
ATOM      2  C   UNL A   1      31.408  30.792  26.269  1.00  0.00     0.117 C 
BRANCH   2   3
ATOM      3  N   UNL A   1      31.057  30.430  24.904  1.00  0.00    -0.356 N 
ATOM      4  C   UNL A   1      31.056  29.230  24.266  1.00  0.00     0.223 C 
ATOM      5  O   UNL A   1      30.697  29.208  23.086  1.00  0.00    -0.275 OA
ATOM      6  H   UNL A   1      30.768  31.188  24.345  1.00  0.00     0.163 HD
BRANCH   4   7
ATOM      7  C   UNL A   1      31.486  27.948  24.961  1.00  0.00     0.082 C 
ATOM      8  C   UNL A   1      33.231  24.327  24.035  1.00  0.00     0.257 C 
ATOM      9  O   UNL A   1      32.656  23.925  23.020  1.00  0.00    -0.269 OA
ATOM     10  N   UNL A   1      32.702  25.366  24.786  1.00  0.00    -0.338 N 
ATOM     11  C   UNL A   1      31.261  25.436  24.932  1.00  0.00     0.120 C 
ATOM     12  C   UNL A   1      33.465  26.411  25.453  1.00  0.00     0.120 C 
ATOM     13  C   UNL A   1      30.718  26.745  24.403  1.00  0.00     0.035 C 
ATOM     14  C   UNL A   1      33.018  27.797  24.997  1.00  0.00     0.035 C 
BRANCH   8  15
ATOM     15  C   UNL A   1      34.450  23.583  24.486  1.00  0.00     0.082 A 
ATOM     16  C   UNL A   1      36.646  21.862  24.889  1.00  0.00     0.122 A 
ATOM     17  C   UNL A   1      36.638  22.740  23.809  1.00  0.00     0.047 A 
ATOM     18  C   UNL A   1      35.590  21.885  25.800  1.00  0.00     0.093 A 
ATOM     19  C   UNL A   1      35.545  23.585  23.602  1.00  0.00     0.021 A 
ATOM     20  C   UNL A   1      34.490  22.738  25.610  1.00  0.00     0.135 A 
BRANCH  16  21
ATOM     21  O   UNL A   1      37.721  21.019  24.962  1.00  0.00    -0.497 OA
ATOM     22  C   UNL A   1      38.827  21.496  25.726  1.00  0.00     0.278 C 
ENDBRANCH  16  21
BRANCH  20  23
ATOM     23  O   UNL A   1      33.401  22.659  26.440  1.00  0.00    -0.496 OA
ATOM     24  C   UNL A   1      33.640  22.052  27.709  1.00  0.00     0.278 C 
ENDBRANCH  20  23
ENDBRANCH   8  15
ENDBRANCH   4   7
ENDBRANCH   2   3
ENDBRANCH   1   2
BRANCH   1  25
ATOM     25  C   UNL A   1      32.593  32.882  27.146  1.00  0.00     0.118 C 
BRANCH  25  26
ATOM     26  N   UNL A   1      32.405  34.250  27.607  1.00  0.00    -0.352 N 
ATOM     27  C   UNL A   1      33.007  34.937  28.628  1.00  0.00     0.251 C 
ATOM     28  H   UNL A   1      31.737  34.767  27.101  1.00  0.00     0.163 HD
ATOM     29  O   UNL A   1      32.560  36.038  28.960  1.00  0.00    -0.269 OA
BRANCH  27  30
ATOM     30  C   UNL A   1      34.168  34.375  29.349  1.00  0.00     0.039 A 
ATOM     31  C   UNL A   1      33.942  33.684  30.543  1.00  0.00     0.014 A 
ATOM     32  C   UNL A   1      35.474  34.551  28.885  1.00  0.00     0.014 A 
ATOM     33  C   UNL A   1      35.016  33.119  31.235  1.00  0.00     0.010 A 
ATOM     34  C   UNL A   1      36.534  33.916  29.527  1.00  0.00     0.010 A 
ATOM     35  C   UNL A   1      36.318  33.200  30.713  1.00  0.00    -0.014 A 
BRANCH  35  36
ATOM     36  C   UNL A   1      37.456  32.540  31.399  1.00  0.00     0.031 A 
ATOM     37  C   UNL A   1      38.178  31.393  30.748  1.00  0.00     0.074 A 
ATOM     38  C   UNL A   1      37.804  32.941  32.637  1.00  0.00     0.049 A 
ATOM     39  N   UNL A   1      39.175  30.678  31.205  1.00  0.00    -0.248 NA
ATOM     40  C   UNL A   1      37.701  30.976  29.421  1.00  0.00     0.031 C 
ATOM     41  C   UNL A   1      37.137  33.996  33.402  1.00  0.00     0.029 A 
ATOM     42  N   UNL A   1      38.802  32.505  33.472  1.00  0.00    -0.354 N 
ATOM     43  C   UNL A   1      39.430  29.720  30.233  1.00  0.00     0.074 A 
ATOM     44  C   UNL A   1      38.453  29.911  29.183  1.00  0.00     0.031 C 
ATOM     45  C   UNL A   1      37.760  34.144  34.582  1.00  0.00     0.029 A 
ATOM     46  C   UNL A   1      38.851  33.179  34.668  1.00  0.00     0.049 A 
ATOM     47  H   UNL A   1      39.423  31.778  33.237  1.00  0.00     0.167 HD
ATOM     48  C   UNL A   1      40.405  28.779  30.208  1.00  0.00     0.037 A 
ATOM     49  C   UNL A   1      39.684  33.034  35.715  1.00  0.00     0.037 A 
ATOM     50  C   UNL A   1      41.400  28.614  31.235  1.00  0.00     0.049 A 
ATOM     51  C   UNL A   1      40.779  32.007  35.645  1.00  0.00     0.074 A 
ATOM     52  C   UNL A   1      42.478  27.747  31.262  1.00  0.00     0.029 A 
ATOM     53  N   UNL A   1      41.435  29.336  32.419  1.00  0.00    -0.354 N 
ATOM     54  N   UNL A   1      41.062  31.162  34.684  1.00  0.00    -0.248 NA
ATOM     55  C   UNL A   1      41.679  31.922  36.804  1.00  0.00     0.031 C 
ATOM     56  C   UNL A   1      43.145  27.918  32.480  1.00  0.00     0.029 A 
ATOM     57  C   UNL A   1      42.507  28.919  33.194  1.00  0.00     0.049 A 
ATOM     58  H   UNL A   1      40.795  30.040  32.672  1.00  0.00     0.167 HD
ATOM     59  C   UNL A   1      42.179  30.458  35.112  1.00  0.00     0.074 A 
ATOM     60  C   UNL A   1      42.536  30.990  36.410  1.00  0.00     0.031 C 
ATOM     61  C   UNL A   1      42.845  29.457  34.485  1.00  0.00     0.037 A 
BRANCH  48  62
ATOM     62  C   UNL A   1      40.452  27.860  29.023  1.00  0.00     0.064 A 
ATOM     63  C   UNL A   1      41.259  28.138  27.909  1.00  0.00     0.173 A 
ATOM     64  C   UNL A   1      39.713  26.668  29.016  1.00  0.00     0.173 A 
ATOM     65  F   UNL A   1      41.976  29.271  27.861  1.00  0.00    -0.203 F 
ATOM     66  C   UNL A   1      41.304  27.270  26.821  1.00  0.00     0.198 A 
ATOM     67  C   UNL A   1      39.782  25.788  27.938  1.00  0.00     0.198 A 
ATOM     68  F   UNL A   1      38.929  26.352  30.058  1.00  0.00    -0.203 F 
ATOM     69  F   UNL A   1      42.047  27.578  25.749  1.00  0.00    -0.200 F 
ATOM     70  C   UNL A   1      40.571  26.093  26.840  1.00  0.00     0.200 A 
ATOM     71  F   UNL A   1      39.082  24.646  27.962  1.00  0.00    -0.200 F 
ATOM     72  F   UNL A   1      40.621  25.254  25.796  1.00  0.00    -0.200 F 
ENDBRANCH  48  62
BRANCH  49  73
ATOM     73  C   UNL A   1      39.536  33.911  36.904  1.00  0.00     0.064 A 
ATOM     74  C   UNL A   1      38.795  33.493  38.017  1.00  0.00     0.173 A 
ATOM     75  C   UNL A   1      40.133  35.178  36.954  1.00  0.00     0.173 A 
ATOM     76  F   UNL A   1      38.188  32.297  38.006  1.00  0.00    -0.203 F 
ATOM     77  C   UNL A   1      38.642  34.316  39.130  1.00  0.00     0.198 A 
ATOM     78  C   UNL A   1      40.000  35.992  38.077  1.00  0.00     0.198 A 
ATOM     79  F   UNL A   1      40.856  35.622  35.915  1.00  0.00    -0.203 F 
ATOM     80  F   UNL A   1      37.894  33.909  40.164  1.00  0.00    -0.200 F 
ATOM     81  C   UNL A   1      39.249  35.563  39.162  1.00  0.00     0.200 A 
ATOM     82  F   UNL A   1      40.598  37.191  38.109  1.00  0.00    -0.200 F 
ATOM     83  F   UNL A   1      39.104  36.354  40.233  1.00  0.00    -0.200 F 
ENDBRANCH  49  73
BRANCH  61  84
ATOM     84  C   UNL A   1      44.038  28.886  35.194  1.00  0.00     0.064 A 
ATOM     85  C   UNL A   1      45.317  29.440  35.037  1.00  0.00     0.173 A 
ATOM     86  C   UNL A   1      43.895  27.789  36.057  1.00  0.00     0.173 A 
ATOM     87  F   UNL A   1      45.505  30.478  34.209  1.00  0.00    -0.203 F 
ATOM     88  C   UNL A   1      46.415  28.900  35.699  1.00  0.00     0.198 A 
ATOM     89  C   UNL A   1      44.991  27.270  36.739  1.00  0.00     0.198 A 
ATOM     90  F   UNL A   1      42.692  27.228  36.246  1.00  0.00    -0.203 F 
ATOM     91  F   UNL A   1      47.636  29.414  35.498  1.00  0.00    -0.200 F 
ATOM     92  C   UNL A   1      46.252  27.819  36.554  1.00  0.00     0.200 A 
ATOM     93  F   UNL A   1      44.830  26.233  37.573  1.00  0.00    -0.200 F 
ATOM     94  F   UNL A   1      47.310  27.303  37.192  1.00  0.00    -0.200 F 
ENDBRANCH  61  84
ENDBRANCH  35  36
ENDBRANCH  27  30
ENDBRANCH  25  26
ENDBRANCH   1  25
TORSDOF 13
ENDMDL
MODEL 2
REMARK VINA RESULT:     -12.5      0.711      7.292
REMARK SMILES COc1ccc(C(=O)N2CCC(C(=O)NCCCNC(=O)c3ccc(-c4c5nc(c(-c6c(F)c(F)c(F)c(F)c6F)c6ccc([nH]6)c(-c6c(F)c(F)c(F)c(F)c6F)c6nc(c(-c7c(F)c(F)c(F)c(F)c7F)c7ccc4[nH]7)C=C6)C=C5)cc3)CC2)c(OC)c1
REMARK SMILES IDX 17 1 16 2 15 3 13 4 14 5 12 7 7 8 8 9 9 10 10 11 86 12 11 13
REMARK SMILES IDX 85 14 6 15 3 16 4 17 90 18 5 19 87 20 2 21 1 22 88 23 89 24
REMARK SMILES IDX 18 25 19 26 20 27 21 29 22 30 23 31 84 32 24 33 83 34 25 35
REMARK SMILES IDX 26 36 27 37 77 38 28 39 82 40 76 41 78 42 29 43 81 44 75 45
REMARK SMILES IDX 74 46 30 48 62 49 42 50 61 51 43 52 46 53 60 54 79 55 44 56
REMARK SMILES IDX 45 57 59 59 80 60 47 61 31 62 32 63 40 64 33 65 34 66 38 67
REMARK SMILES IDX 41 68 35 69 36 70 39 71 37 72 63 73 64 74 72 75 65 76 66 77
REMARK SMILES IDX 70 78 73 79 67 80 68 81 71 82 69 83 48 84 49 85 57 86 50 87
REMARK SMILES IDX 51 88 55 89 58 90 52 91 53 92 56 93 54 94
REMARK H PARENT 15 6 19 28 78 47 46 58
REMARK Flexibility Score: inf
ROOT
ATOM      1  C   UNL A   1      31.381  32.303  26.515  1.00  0.00     0.042 C 
ENDROOT
BRANCH   1   2
ATOM      2  C   UNL A   1      31.412  30.795  26.299  1.00  0.00     0.117 C 
BRANCH   2   3
ATOM      3  N   UNL A   1      31.057  30.413  24.941  1.00  0.00    -0.356 N 
ATOM      4  C   UNL A   1      31.082  29.208  24.312  1.00  0.00     0.223 C 
ATOM      5  O   UNL A   1      30.711  29.168  23.136  1.00  0.00    -0.275 OA
ATOM      6  H   UNL A   1      30.742  31.158  24.378  1.00  0.00     0.163 HD
BRANCH   4   7
ATOM      7  C   UNL A   1      31.554  27.944  25.012  1.00  0.00     0.082 C 
ATOM      8  C   UNL A   1      33.303  24.326  24.083  1.00  0.00     0.257 C 
ATOM      9  O   UNL A   1      32.693  23.899  23.098  1.00  0.00    -0.269 OA
ATOM     10  N   UNL A   1      32.792  25.373  24.835  1.00  0.00    -0.338 N 
ATOM     11  C   UNL A   1      31.357  25.429  25.037  1.00  0.00     0.120 C 
ATOM     12  C   UNL A   1      33.569  26.438  25.452  1.00  0.00     0.120 C 
ATOM     13  C   UNL A   1      30.779  26.723  24.507  1.00  0.00     0.035 C 
ATOM     14  C   UNL A   1      33.087  27.810  24.990  1.00  0.00     0.035 C 
BRANCH   8  15
ATOM     15  C   UNL A   1      34.547  23.604  24.497  1.00  0.00     0.082 A 
ATOM     16  C   UNL A   1      36.740  21.876  24.889  1.00  0.00     0.122 A 
ATOM     17  C   UNL A   1      36.638  22.617  23.715  1.00  0.00     0.047 A 
ATOM     18  C   UNL A   1      35.784  22.041  25.890  1.00  0.00     0.093 A 
ATOM     19  C   UNL A   1      35.545  23.466  23.515  1.00  0.00     0.021 A 
ATOM     20  C   UNL A   1      34.686  22.899  25.707  1.00  0.00     0.135 A 
BRANCH  16  21
ATOM     21  O   UNL A   1      37.801  21.014  24.957  1.00  0.00    -0.497 OA
ATOM     22  C   UNL A   1      38.900  21.453  25.752  1.00  0.00     0.278 C 
ENDBRANCH  16  21
BRANCH  20  23
ATOM     23  O   UNL A   1      33.686  22.954  26.645  1.00  0.00    -0.496 OA
ATOM     24  C   UNL A   1      33.677  21.888  27.594  1.00  0.00     0.278 C 
ENDBRANCH  20  23
ENDBRANCH   8  15
ENDBRANCH   4   7
ENDBRANCH   2   3
ENDBRANCH   1   2
BRANCH   1  25
ATOM     25  C   UNL A   1      32.676  32.884  27.061  1.00  0.00     0.118 C 
BRANCH  25  26
ATOM     26  N   UNL A   1      32.499  34.206  27.646  1.00  0.00    -0.352 N 
ATOM     27  C   UNL A   1      33.116  34.796  28.718  1.00  0.00     0.251 C 
ATOM     28  H   UNL A   1      31.826  34.768  27.198  1.00  0.00     0.163 HD
ATOM     29  O   UNL A   1      32.679  35.862  29.154  1.00  0.00    -0.269 OA
BRANCH  27  30
ATOM     30  C   UNL A   1      34.284  34.166  29.369  1.00  0.00     0.039 A 
ATOM     31  C   UNL A   1      34.060  33.221  30.375  1.00  0.00     0.014 A 
ATOM     32  C   UNL A   1      35.592  34.521  29.030  1.00  0.00     0.014 A 
ATOM     33  C   UNL A   1      35.143  32.591  30.992  1.00  0.00     0.010 A 
ATOM     34  C   UNL A   1      36.668  33.833  29.584  1.00  0.00     0.010 A 
ATOM     35  C   UNL A   1      36.456  32.866  30.576  1.00  0.00    -0.014 A 
BRANCH  35  36
ATOM     36  C   UNL A   1      37.610  32.148  31.172  1.00  0.00     0.031 A 
ATOM     37  C   UNL A   1      38.091  32.491  32.555  1.00  0.00     0.074 A 
ATOM     38  C   UNL A   1      38.260  31.221  30.443  1.00  0.00     0.049 A 
ATOM     39  N   UNL A   1      39.097  31.992  33.228  1.00  0.00    -0.248 NA
ATOM     40  C   UNL A   1      37.364  33.555  33.265  1.00  0.00     0.031 C 
ATOM     41  C   UNL A   1      37.933  30.848  29.065  1.00  0.00     0.029 A 
ATOM     42  N   UNL A   1      39.336  30.429  30.755  1.00  0.00    -0.354 N 
ATOM     43  C   UNL A   1      39.133  32.690  34.428  1.00  0.00     0.074 A 
ATOM     44  C   UNL A   1      38.082  33.683  34.372  1.00  0.00     0.031 C 
ATOM     45  C   UNL A   1      38.771  29.881  28.661  1.00  0.00     0.029 A 
ATOM     46  C   UNL A   1      39.710  29.585  29.738  1.00  0.00     0.049 A 
ATOM     47  H   UNL A   1      39.795  30.462  31.625  1.00  0.00     0.167 HD
ATOM     48  C   UNL A   1      39.955  32.506  35.488  1.00  0.00     0.037 A 
ATOM     49  C   UNL A   1      40.700  28.675  29.682  1.00  0.00     0.037 A 
ATOM     50  C   UNL A   1      40.976  31.494  35.558  1.00  0.00     0.049 A 
ATOM     51  C   UNL A   1      41.574  28.465  30.887  1.00  0.00     0.074 A 
ATOM     52  C   UNL A   1      41.803  31.173  36.619  1.00  0.00     0.029 A 
ATOM     53  N   UNL A   1      41.307  30.638  34.518  1.00  0.00    -0.354 N 
ATOM     54  N   UNL A   1      41.545  29.075  32.046  1.00  0.00    -0.248 NA
ATOM     55  C   UNL A   1      42.613  27.431  30.778  1.00  0.00     0.031 C 
ATOM     56  C   UNL A   1      42.661  30.146  36.209  1.00  0.00     0.029 A 
ATOM     57  C   UNL A   1      42.341  29.800  34.906  1.00  0.00     0.049 A 
ATOM     58  H   UNL A   1      40.872  30.625  33.635  1.00  0.00     0.167 HD
ATOM     59  C   UNL A   1      42.546  28.491  32.810  1.00  0.00     0.074 A 
ATOM     60  C   UNL A   1      43.149  27.462  31.990  1.00  0.00     0.031 C 
ATOM     61  C   UNL A   1      42.932  28.784  34.076  1.00  0.00     0.037 A 
BRANCH  48  62
ATOM     62  C   UNL A   1      39.777  33.413  36.670  1.00  0.00     0.064 A 
ATOM     63  C   UNL A   1      40.474  34.626  36.778  1.00  0.00     0.173 A 
ATOM     64  C   UNL A   1      38.869  33.087  37.688  1.00  0.00     0.173 A 
ATOM     65  F   UNL A   1      41.363  34.980  35.836  1.00  0.00    -0.203 F 
ATOM     66  C   UNL A   1      40.289  35.466  37.873  1.00  0.00     0.198 A 
ATOM     67  C   UNL A   1      38.666  33.942  38.769  1.00  0.00     0.198 A 
ATOM     68  F   UNL A   1      38.172  31.942  37.632  1.00  0.00    -0.203 F 
ATOM     69  F   UNL A   1      41.000  36.598  37.976  1.00  0.00    -0.200 F 
ATOM     70  C   UNL A   1      39.380  35.126  38.864  1.00  0.00     0.200 A 
ATOM     71  F   UNL A   1      37.779  33.619  39.720  1.00  0.00    -0.200 F 
ATOM     72  F   UNL A   1      39.197  35.939  39.914  1.00  0.00    -0.200 F 
ENDBRANCH  48  62
BRANCH  49  73
ATOM     73  C   UNL A   1      40.891  27.865  28.452  1.00  0.00     0.064 A 
ATOM     74  C   UNL A   1      40.259  26.624  28.304  1.00  0.00     0.173 A 
ATOM     75  C   UNL A   1      41.701  28.317  27.401  1.00  0.00     0.173 A 
ATOM     76  F   UNL A   1      39.491  26.142  29.293  1.00  0.00    -0.203 F 
ATOM     77  C   UNL A   1      40.444  25.854  27.158  1.00  0.00     0.198 A 
ATOM     78  C   UNL A   1      41.867  27.557  26.244  1.00  0.00     0.198 A 
ATOM     79  F   UNL A   1      42.324  29.501  27.493  1.00  0.00    -0.203 F 
ATOM     80  F   UNL A   1      39.862  24.652  27.060  1.00  0.00    -0.200 F 
ATOM     81  C   UNL A   1      41.244  26.324  26.126  1.00  0.00     0.200 A 
ATOM     82  F   UNL A   1      42.630  28.019  25.244  1.00  0.00    -0.200 F 
ATOM     83  F   UNL A   1      41.419  25.585  25.023  1.00  0.00    -0.200 F 
ENDBRANCH  49  73
BRANCH  61  84
ATOM     84  C   UNL A   1      44.051  27.968  34.652  1.00  0.00     0.064 A 
ATOM     85  C   UNL A   1      43.807  26.749  35.303  1.00  0.00     0.173 A 
ATOM     86  C   UNL A   1      45.381  28.397  34.531  1.00  0.00     0.173 A 
ATOM     87  F   UNL A   1      42.551  26.306  35.457  1.00  0.00    -0.203 F 
ATOM     88  C   UNL A   1      44.854  26.002  35.834  1.00  0.00     0.198 A 
ATOM     89  C   UNL A   1      46.427  27.633  35.040  1.00  0.00     0.198 A 
ATOM     90  F   UNL A   1      45.666  29.553  33.913  1.00  0.00    -0.203 F 
ATOM     91  F   UNL A   1      44.595  24.865  36.494  1.00  0.00    -0.200 F 
ATOM     92  C   UNL A   1      46.163  26.441  35.698  1.00  0.00     0.200 A 
ATOM     93  F   UNL A   1      47.692  28.053  34.898  1.00  0.00    -0.200 F 
ATOM     94  F   UNL A   1      47.169  25.719  36.208  1.00  0.00    -0.200 F 
ENDBRANCH  61  84
ENDBRANCH  35  36
ENDBRANCH  27  30
ENDBRANCH  25  26
ENDBRANCH   1  25
TORSDOF 13
ENDMDL
MODEL 3
REMARK VINA RESULT:     -12.5      5.381     11.343
REMARK SMILES COc1ccc(C(=O)N2CCC(C(=O)NCCCNC(=O)c3ccc(-c4c5nc(c(-c6c(F)c(F)c(F)c(F)c6F)c6ccc([nH]6)c(-c6c(F)c(F)c(F)c(F)c6F)c6nc(c(-c7c(F)c(F)c(F)c(F)c7F)c7ccc4[nH]7)C=C6)C=C5)cc3)CC2)c(OC)c1
REMARK SMILES IDX 17 1 16 2 15 3 13 4 14 5 12 7 7 8 8 9 9 10 10 11 86 12 11 13
REMARK SMILES IDX 85 14 6 15 3 16 4 17 90 18 5 19 87 20 2 21 1 22 88 23 89 24
REMARK SMILES IDX 18 25 19 26 20 27 21 29 22 30 23 31 84 32 24 33 83 34 25 35
REMARK SMILES IDX 26 36 27 37 77 38 28 39 82 40 76 41 78 42 29 43 81 44 75 45
REMARK SMILES IDX 74 46 30 48 62 49 42 50 61 51 43 52 46 53 60 54 79 55 44 56
REMARK SMILES IDX 45 57 59 59 80 60 47 61 31 62 32 63 40 64 33 65 34 66 38 67
REMARK SMILES IDX 41 68 35 69 36 70 39 71 37 72 63 73 64 74 72 75 65 76 66 77
REMARK SMILES IDX 70 78 73 79 67 80 68 81 71 82 69 83 48 84 49 85 57 86 50 87
REMARK SMILES IDX 51 88 55 89 58 90 52 91 53 92 56 93 54 94
REMARK H PARENT 15 6 19 28 78 47 46 58
REMARK Flexibility Score: inf
ROOT
ATOM      1  C   UNL A   1      38.126  19.399  25.000  1.00  0.00     0.042 C 
ENDROOT
BRANCH   1   2
ATOM      2  C   UNL A   1      37.037  20.423  24.705  1.00  0.00     0.117 C 
BRANCH   2   3
ATOM      3  N   UNL A   1      35.710  19.954  25.072  1.00  0.00    -0.356 N 
ATOM      4  C   UNL A   1      34.493  20.556  24.996  1.00  0.00     0.223 C 
ATOM      5  O   UNL A   1      33.511  19.913  25.376  1.00  0.00    -0.275 OA
ATOM      6  H   UNL A   1      35.688  19.040  25.439  1.00  0.00     0.163 HD
BRANCH   4   7
ATOM      7  C   UNL A   1      34.327  21.974  24.472  1.00  0.00     0.082 C 
ATOM      8  C   UNL A   1      31.878  25.245  25.034  1.00  0.00     0.257 C 
ATOM      9  O   UNL A   1      30.725  24.805  25.046  1.00  0.00    -0.269 OA
ATOM     10  N   UNL A   1      32.929  24.465  24.575  1.00  0.00    -0.338 N 
ATOM     11  C   UNL A   1      32.686  23.591  23.444  1.00  0.00     0.120 C 
ATOM     12  C   UNL A   1      34.277  24.441  25.126  1.00  0.00     0.120 C 
ATOM     13  C   UNL A   1      32.960  22.146  23.800  1.00  0.00     0.035 C 
ATOM     14  C   UNL A   1      34.678  23.027  25.537  1.00  0.00     0.035 C 
BRANCH   8  15
ATOM     15  C   UNL A   1      32.081  26.676  25.423  1.00  0.00     0.082 A 
ATOM     16  C   UNL A   1      31.929  29.347  26.312  1.00  0.00     0.122 A 
ATOM     17  C   UNL A   1      31.870  28.302  27.230  1.00  0.00     0.047 A 
ATOM     18  C   UNL A   1      32.125  29.063  24.961  1.00  0.00     0.093 A 
ATOM     19  C   UNL A   1      31.934  26.978  26.790  1.00  0.00     0.021 A 
ATOM     20  C   UNL A   1      32.202  27.735  24.505  1.00  0.00     0.135 A 
BRANCH  16  21
ATOM     21  O   UNL A   1      31.778  30.604  26.831  1.00  0.00    -0.497 OA
ATOM     22  C   UNL A   1      32.980  31.246  27.251  1.00  0.00     0.278 C 
ENDBRANCH  16  21
BRANCH  20  23
ATOM     23  O   UNL A   1      32.264  27.467  23.162  1.00  0.00    -0.496 OA
ATOM     24  C   UNL A   1      33.557  27.594  22.570  1.00  0.00     0.278 C 
ENDBRANCH  20  23
ENDBRANCH   8  15
ENDBRANCH   4   7
ENDBRANCH   2   3
ENDBRANCH   1   2
BRANCH   1  25
ATOM     25  C   UNL A   1      39.259  19.923  25.870  1.00  0.00     0.118 C 
BRANCH  25  26
ATOM     26  N   UNL A   1      40.366  18.985  25.981  1.00  0.00    -0.352 N 
ATOM     27  C   UNL A   1      41.711  19.206  26.125  1.00  0.00     0.251 C 
ATOM     28  H   UNL A   1      40.106  18.035  25.948  1.00  0.00     0.163 HD
ATOM     29  O   UNL A   1      42.493  18.260  26.014  1.00  0.00    -0.269 OA
BRANCH  27  30
ATOM     30  C   UNL A   1      42.239  20.560  26.393  1.00  0.00     0.039 A 
ATOM     31  C   UNL A   1      42.596  21.365  25.307  1.00  0.00     0.014 A 
ATOM     32  C   UNL A   1      42.421  21.032  27.696  1.00  0.00     0.014 A 
ATOM     33  C   UNL A   1      43.075  22.658  25.527  1.00  0.00     0.010 A 
ATOM     34  C   UNL A   1      42.816  22.349  27.912  1.00  0.00     0.010 A 
ATOM     35  C   UNL A   1      43.155  23.174  26.831  1.00  0.00    -0.014 A 
BRANCH  35  36
ATOM     36  C   UNL A   1      43.591  24.572  27.072  1.00  0.00     0.031 A 
ATOM     37  C   UNL A   1      42.616  25.598  27.580  1.00  0.00     0.074 A 
ATOM     38  C   UNL A   1      44.856  24.930  26.779  1.00  0.00     0.049 A 
ATOM     39  N   UNL A   1      42.807  26.870  27.824  1.00  0.00    -0.248 NA
ATOM     40  C   UNL A   1      41.238  25.143  27.820  1.00  0.00     0.031 C 
ATOM     41  C   UNL A   1      45.876  24.043  26.216  1.00  0.00     0.029 A 
ATOM     42  N   UNL A   1      45.498  26.136  26.909  1.00  0.00    -0.354 N 
ATOM     43  C   UNL A   1      41.575  27.367  28.227  1.00  0.00     0.074 A 
ATOM     44  C   UNL A   1      40.631  26.274  28.147  1.00  0.00     0.031 C 
ATOM     45  C   UNL A   1      47.022  24.727  26.075  1.00  0.00     0.029 A 
ATOM     46  C   UNL A   1      46.812  26.104  26.510  1.00  0.00     0.049 A 
ATOM     47  H   UNL A   1      45.058  26.946  27.254  1.00  0.00     0.167 HD
ATOM     48  C   UNL A   1      41.264  28.617  28.646  1.00  0.00     0.037 A 
ATOM     49  C   UNL A   1      47.741  27.077  26.499  1.00  0.00     0.037 A 
ATOM     50  C   UNL A   1      42.211  29.694  28.760  1.00  0.00     0.049 A 
ATOM     51  C   UNL A   1      47.379  28.445  27.004  1.00  0.00     0.074 A 
ATOM     52  C   UNL A   1      42.012  30.971  29.254  1.00  0.00     0.029 A 
ATOM     53  N   UNL A   1      43.542  29.616  28.375  1.00  0.00    -0.354 N 
ATOM     54  N   UNL A   1      46.231  28.882  27.461  1.00  0.00    -0.248 NA
ATOM     55  C   UNL A   1      48.447  29.455  27.001  1.00  0.00     0.031 C 
ATOM     56  C   UNL A   1      43.213  31.679  29.131  1.00  0.00     0.029 A 
ATOM     57  C   UNL A   1      44.171  30.830  28.601  1.00  0.00     0.049 A 
ATOM     58  H   UNL A   1      43.975  28.817  27.997  1.00  0.00     0.167 HD
ATOM     59  C   UNL A   1      46.440  30.207  27.815  1.00  0.00     0.074 A 
ATOM     60  C   UNL A   1      47.831  30.498  27.541  1.00  0.00     0.031 C 
ATOM     61  C   UNL A   1      45.556  31.103  28.319  1.00  0.00     0.037 A 
BRANCH  48  62
ATOM     62  C   UNL A   1      39.837  28.887  29.025  1.00  0.00     0.064 A 
ATOM     63  C   UNL A   1      39.385  28.730  30.344  1.00  0.00     0.173 A 
ATOM     64  C   UNL A   1      38.920  29.345  28.069  1.00  0.00     0.173 A 
ATOM     65  F   UNL A   1      40.220  28.283  31.295  1.00  0.00    -0.203 F 
ATOM     66  C   UNL A   1      38.062  28.996  30.686  1.00  0.00     0.198 A 
ATOM     67  C   UNL A   1      37.604  29.637  28.419  1.00  0.00     0.198 A 
ATOM     68  F   UNL A   1      39.301  29.517  26.794  1.00  0.00    -0.203 F 
ATOM     69  F   UNL A   1      37.642  28.796  31.943  1.00  0.00    -0.200 F 
ATOM     70  C   UNL A   1      37.174  29.456  29.725  1.00  0.00     0.200 A 
ATOM     71  F   UNL A   1      36.750  30.093  27.492  1.00  0.00    -0.200 F 
ATOM     72  F   UNL A   1      35.903  29.720  30.057  1.00  0.00    -0.200 F 
ENDBRANCH  48  62
BRANCH  49  73
ATOM     73  C   UNL A   1      49.117  26.778  26.027  1.00  0.00     0.064 A 
ATOM     74  C   UNL A   1      49.481  26.993  24.691  1.00  0.00     0.173 A 
ATOM     75  C   UNL A   1      50.095  26.279  26.899  1.00  0.00     0.173 A 
ATOM     76  F   UNL A   1      48.572  27.450  23.815  1.00  0.00    -0.203 F 
ATOM     77  C   UNL A   1      50.766  26.703  24.239  1.00  0.00     0.198 A 
ATOM     78  C   UNL A   1      51.388  26.012  26.452  1.00  0.00     0.198 A 
ATOM     79  F   UNL A   1      49.797  26.061  28.188  1.00  0.00    -0.203 F 
ATOM     80  F   UNL A   1      51.075  26.878  22.947  1.00  0.00    -0.200 F 
ATOM     81  C   UNL A   1      51.720  26.218  25.121  1.00  0.00     0.200 A 
ATOM     82  F   UNL A   1      52.311  25.555  27.309  1.00  0.00    -0.200 F 
ATOM     83  F   UNL A   1      52.957  25.942  24.687  1.00  0.00    -0.200 F 
ENDBRANCH  49  73
BRANCH  61  84
ATOM     84  C   UNL A   1      46.076  32.477  28.619  1.00  0.00     0.064 A 
ATOM     85  C   UNL A   1      46.643  32.789  29.864  1.00  0.00     0.173 A 
ATOM     86  C   UNL A   1      46.031  33.485  27.643  1.00  0.00     0.173 A 
ATOM     87  F   UNL A   1      46.693  31.864  30.833  1.00  0.00    -0.203 F 
ATOM     88  C   UNL A   1      47.122  34.069  30.129  1.00  0.00     0.198 A 
ATOM     89  C   UNL A   1      46.536  34.755  27.904  1.00  0.00     0.198 A 
ATOM     90  F   UNL A   1      45.505  33.234  26.435  1.00  0.00    -0.203 F 
ATOM     91  F   UNL A   1      47.614  34.359  31.341  1.00  0.00    -0.200 F 
ATOM     92  C   UNL A   1      47.074  35.049  29.149  1.00  0.00     0.200 A 
ATOM     93  F   UNL A   1      46.499  35.698  26.952  1.00  0.00    -0.200 F 
ATOM     94  F   UNL A   1      47.537  36.279  29.407  1.00  0.00    -0.200 F 
ENDBRANCH  61  84
ENDBRANCH  35  36
ENDBRANCH  27  30
ENDBRANCH  25  26
ENDBRANCH   1  25
TORSDOF 13
ENDMDL
