MODEL 1
REMARK VINA RESULT:     -13.0      0.000      0.000
REMARK SMILES Cc1nn(C)cc1C[NH+]1CCN(C(=O)Cn2ccc(C(=O)NCCCNC(=O)c3ccc(-c4c5nc(c(-c6c(F)c(F)c(F)c(F)c6F)c6ccc([nH]6)c(-c6c(F)c(F)c(F)c(F)c6F)c6nc(c(-c7c(F)c(F)c(F)c(F)c7F)c7ccc4[nH]7)C=C6)C=C5)cc3)n2)CC1
REMARK SMILES IDX 23 1 22 2 20 3 21 4 19 6 16 7 17 8 92 9 18 10 15 11 13 12
REMARK SMILES IDX 9 13 10 14 94 15 11 17 93 18 12 19 14 20 8 21 7 22 1 23 2 24
REMARK SMILES IDX 3 25 4 26 6 27 5 28 24 29 25 30 26 31 27 32 28 34 29 35
REMARK SMILES IDX 30 36 91 37 31 38 90 39 32 40 33 41 34 42 84 43 35 44 89 45
REMARK SMILES IDX 83 46 85 47 36 48 88 49 82 50 81 51 37 53 69 54 49 55 68 56
REMARK SMILES IDX 50 57 53 58 67 59 86 60 51 61 52 62 66 64 87 65 54 66 38 67
REMARK SMILES IDX 39 68 47 69 40 70 41 71 45 72 48 73 42 74 43 75 46 76 44 77
REMARK SMILES IDX 70 78 71 79 79 80 72 81 73 82 77 83 80 84 74 85 75 86 78 87
REMARK SMILES IDX 76 88 55 89 56 90 64 91 57 92 58 93 62 94 65 95 59 96 60 97
REMARK SMILES IDX 63 98 61 99
REMARK H PARENT 22 5 9 16 26 33 85 52 53 63
REMARK Flexibility Score: inf
ROOT
ATOM      1  C   UNL A   1      33.441  30.493  26.998  1.00  0.00     0.118 C 
ENDROOT
BRANCH   1   2
ATOM      2  N   UNL A   1      32.574  29.509  27.622  1.00  0.00    -0.351 N 
ATOM      3  C   UNL A   1      31.776  28.529  27.070  1.00  0.00     0.271 C 
ATOM      4  O   UNL A   1      31.225  27.763  27.865  1.00  0.00    -0.267 OA
ATOM      5  H   UNL A   1      32.553  29.548  28.607  1.00  0.00     0.163 HD
BRANCH   3   6
ATOM      6  C   UNL A   1      31.614  28.411  25.606  1.00  0.00     0.150 A 
ATOM      7  N   UNL A   1      31.773  27.519  23.661  1.00  0.00    -0.263 N 
ATOM      8  C   UNL A   1      31.207  28.736  23.434  1.00  0.00     0.110 A 
ATOM      9  N   UNL A   1      31.981  27.279  24.970  1.00  0.00    -0.167 NA
ATOM     10  C   UNL A   1      31.069  29.326  24.666  1.00  0.00     0.056 A 
BRANCH   7  11
ATOM     11  C   UNL A   1      32.058  26.447  22.713  1.00  0.00     0.244 C 
BRANCH  11  12
ATOM     12  C   UNL A   1      31.493  25.105  23.144  1.00  0.00     0.244 C 
ATOM     13  N   UNL A   1      34.085  21.782  24.268  1.00  0.00    -0.328 N 
ATOM     14  C   UNL A   1      32.627  21.660  24.193  1.00  0.00     0.284 C 
ATOM     15  C   UNL A   1      34.578  22.819  23.362  1.00  0.00     0.284 C 
ATOM     16  H   UNL A   1      34.455  20.902  23.910  1.00  0.00     0.348 HD
ATOM     17  C   UNL A   1      31.836  22.975  24.279  1.00  0.00     0.181 C 
ATOM     18  C   UNL A   1      33.828  24.165  23.355  1.00  0.00     0.181 C 
ATOM     19  N   UNL A   1      32.371  24.071  23.463  1.00  0.00    -0.330 N 
ATOM     20  O   UNL A   1      30.271  24.961  23.251  1.00  0.00    -0.273 OA
BRANCH  13  21
ATOM     21  C   UNL A   1      34.691  21.725  25.602  1.00  0.00     0.302 C 
BRANCH  21  22
ATOM     22  C   UNL A   1      36.090  22.232  25.659  1.00  0.00     0.047 A 
ATOM     23  C   UNL A   1      37.497  20.155  24.862  1.00  0.00     0.069 C 
ATOM     24  C   UNL A   1      37.303  21.536  25.372  1.00  0.00     0.068 A 
ATOM     25  N   UNL A   1      38.379  22.275  25.672  1.00  0.00    -0.178 NA
ATOM     26  N   UNL A   1      37.865  23.428  26.123  1.00  0.00    -0.275 N 
ATOM     27  C   UNL A   1      36.515  23.508  25.977  1.00  0.00     0.118 A 
ATOM     28  C   UNL A   1      38.713  24.372  26.811  1.00  0.00     0.173 C 
ENDBRANCH  21  22
ENDBRANCH  13  21
ENDBRANCH  11  12
ENDBRANCH   7  11
ENDBRANCH   3   6
ENDBRANCH   1   2
BRANCH   1  29
ATOM     29  C   UNL A   1      34.859  30.466  27.581  1.00  0.00     0.042 C 
BRANCH  29  30
ATOM     30  C   UNL A   1      35.384  31.864  27.863  1.00  0.00     0.118 C 
BRANCH  30  31
ATOM     31  N   UNL A   1      35.014  32.343  29.203  1.00  0.00    -0.352 N 
ATOM     32  C   UNL A   1      35.443  31.913  30.452  1.00  0.00     0.251 C 
ATOM     33  H   UNL A   1      34.363  33.080  29.217  1.00  0.00     0.163 HD
ATOM     34  O   UNL A   1      34.816  32.187  31.457  1.00  0.00    -0.269 OA
BRANCH  32  35
ATOM     35  C   UNL A   1      36.683  31.123  30.537  1.00  0.00     0.039 A 
ATOM     36  C   UNL A   1      36.693  29.724  30.579  1.00  0.00     0.014 A 
ATOM     37  C   UNL A   1      37.871  31.835  30.548  1.00  0.00     0.014 A 
ATOM     38  C   UNL A   1      37.922  29.066  30.581  1.00  0.00     0.010 A 
ATOM     39  C   UNL A   1      39.032  31.200  30.247  1.00  0.00     0.010 A 
ATOM     40  C   UNL A   1      39.085  29.826  30.415  1.00  0.00    -0.014 A 
BRANCH  40  41
ATOM     41  C   UNL A   1      40.421  29.261  30.346  1.00  0.00     0.031 A 
ATOM     42  C   UNL A   1      41.060  29.080  31.672  1.00  0.00     0.074 A 
ATOM     43  C   UNL A   1      40.837  28.636  29.220  1.00  0.00     0.049 A 
ATOM     44  N   UNL A   1      42.121  29.658  32.128  1.00  0.00    -0.248 NA
ATOM     45  C   UNL A   1      40.338  28.280  32.678  1.00  0.00     0.031 C 
ATOM     46  C   UNL A   1      40.092  28.435  27.966  1.00  0.00     0.029 A 
ATOM     47  N   UNL A   1      41.969  27.917  29.001  1.00  0.00    -0.354 N 
ATOM     48  C   UNL A   1      42.319  29.117  33.396  1.00  0.00     0.074 A 
ATOM     49  C   UNL A   1      41.079  28.496  33.766  1.00  0.00     0.031 C 
ATOM     50  C   UNL A   1      40.685  27.470  27.229  1.00  0.00     0.029 A 
ATOM     51  C   UNL A   1      41.928  27.098  27.873  1.00  0.00     0.049 A 
ATOM     52  H   UNL A   1      42.754  27.969  29.591  1.00  0.00     0.167 HD
ATOM     53  C   UNL A   1      43.578  28.950  33.891  1.00  0.00     0.037 A 
ATOM     54  C   UNL A   1      42.840  26.148  27.543  1.00  0.00     0.037 A 
ATOM     55  C   UNL A   1      44.528  29.734  33.138  1.00  0.00     0.049 A 
ATOM     56  C   UNL A   1      44.064  26.430  28.338  1.00  0.00     0.074 A 
ATOM     57  C   UNL A   1      44.656  31.078  32.843  1.00  0.00     0.029 A 
ATOM     58  N   UNL A   1      45.309  29.079  32.214  1.00  0.00    -0.354 N 
ATOM     59  N   UNL A   1      44.805  27.492  28.173  1.00  0.00    -0.248 NA
ATOM     60  C   UNL A   1      44.172  25.790  29.641  1.00  0.00     0.031 C 
ATOM     61  C   UNL A   1      45.086  31.118  31.483  1.00  0.00     0.029 A 
ATOM     62  C   UNL A   1      45.281  29.805  31.053  1.00  0.00     0.049 A 
ATOM     63  H   UNL A   1      45.799  28.239  32.362  1.00  0.00     0.167 HD
ATOM     64  C   UNL A   1      45.133  27.899  29.459  1.00  0.00     0.074 A 
ATOM     65  C   UNL A   1      44.770  26.773  30.319  1.00  0.00     0.031 C 
ATOM     66  C   UNL A   1      45.375  29.214  29.738  1.00  0.00     0.037 A 
BRANCH  53  67
ATOM     67  C   UNL A   1      44.010  27.788  34.762  1.00  0.00     0.064 A 
ATOM     68  C   UNL A   1      43.801  26.478  34.282  1.00  0.00     0.173 A 
ATOM     69  C   UNL A   1      44.334  27.877  36.134  1.00  0.00     0.173 A 
ATOM     70  F   UNL A   1      43.488  26.263  32.995  1.00  0.00    -0.203 F 
ATOM     71  C   UNL A   1      43.809  25.367  35.130  1.00  0.00     0.198 A 
ATOM     72  C   UNL A   1      44.396  26.761  36.966  1.00  0.00     0.198 A 
ATOM     73  F   UNL A   1      44.498  29.043  36.767  1.00  0.00    -0.203 F 
ATOM     74  F   UNL A   1      43.464  24.164  34.651  1.00  0.00    -0.200 F 
ATOM     75  C   UNL A   1      44.096  25.510  36.474  1.00  0.00     0.200 A 
ATOM     76  F   UNL A   1      44.666  26.926  38.268  1.00  0.00    -0.200 F 
ATOM     77  F   UNL A   1      44.037  24.461  37.302  1.00  0.00    -0.200 F 
ENDBRANCH  53  67
BRANCH  54  78
ATOM     78  C   UNL A   1      42.618  24.850  26.857  1.00  0.00     0.064 A 
ATOM     79  C   UNL A   1      43.199  24.576  25.607  1.00  0.00     0.173 A 
ATOM     80  C   UNL A   1      42.062  23.749  27.539  1.00  0.00     0.173 A 
ATOM     81  F   UNL A   1      43.795  25.557  24.913  1.00  0.00    -0.203 F 
ATOM     82  C   UNL A   1      43.238  23.278  25.081  1.00  0.00     0.198 A 
ATOM     83  C   UNL A   1      42.097  22.455  27.011  1.00  0.00     0.198 A 
ATOM     84  F   UNL A   1      41.560  23.889  28.774  1.00  0.00    -0.203 F 
ATOM     85  F   UNL A   1      43.854  23.048  23.913  1.00  0.00    -0.200 F 
ATOM     86  C   UNL A   1      42.697  22.218  25.789  1.00  0.00     0.200 A 
ATOM     87  F   UNL A   1      41.606  21.434  27.726  1.00  0.00    -0.200 F 
ATOM     88  F   UNL A   1      42.790  20.967  25.316  1.00  0.00    -0.200 F 
ENDBRANCH  54  78
BRANCH  66  89
ATOM     89  C   UNL A   1      45.527  30.166  28.583  1.00  0.00     0.064 A 
ATOM     90  C   UNL A   1      44.467  30.897  28.016  1.00  0.00     0.173 A 
ATOM     91  C   UNL A   1      46.822  30.472  28.147  1.00  0.00     0.173 A 
ATOM     92  F   UNL A   1      43.211  30.737  28.446  1.00  0.00    -0.203 F 
ATOM     93  C   UNL A   1      44.694  31.863  27.036  1.00  0.00     0.198 A 
ATOM     94  C   UNL A   1      47.049  31.461  27.195  1.00  0.00     0.198 A 
ATOM     95  F   UNL A   1      47.877  29.846  28.692  1.00  0.00    -0.203 F 
ATOM     96  F   UNL A   1      43.664  32.543  26.510  1.00  0.00    -0.200 F 
ATOM     97  C   UNL A   1      45.987  32.150  26.634  1.00  0.00     0.200 A 
ATOM     98  F   UNL A   1      48.306  31.770  26.846  1.00  0.00    -0.200 F 
ATOM     99  F   UNL A   1      46.211  33.111  25.726  1.00  0.00    -0.200 F 
ENDBRANCH  66  89
ENDBRANCH  40  41
ENDBRANCH  32  35
ENDBRANCH  30  31
ENDBRANCH  29  30
ENDBRANCH   1  29
TORSDOF 14
ENDMDL
MODEL 2
REMARK VINA RESULT:     -12.7      1.288      2.042
REMARK SMILES Cc1nn(C)cc1C[NH+]1CCN(C(=O)Cn2ccc(C(=O)NCCCNC(=O)c3ccc(-c4c5nc(c(-c6c(F)c(F)c(F)c(F)c6F)c6ccc([nH]6)c(-c6c(F)c(F)c(F)c(F)c6F)c6nc(c(-c7c(F)c(F)c(F)c(F)c7F)c7ccc4[nH]7)C=C6)C=C5)cc3)n2)CC1
REMARK SMILES IDX 23 1 22 2 20 3 21 4 19 6 16 7 17 8 92 9 18 10 15 11 13 12
REMARK SMILES IDX 9 13 10 14 94 15 11 17 93 18 12 19 14 20 8 21 7 22 1 23 2 24
REMARK SMILES IDX 3 25 4 26 6 27 5 28 24 29 25 30 26 31 27 32 28 34 29 35
REMARK SMILES IDX 30 36 91 37 31 38 90 39 32 40 33 41 34 42 84 43 35 44 89 45
REMARK SMILES IDX 83 46 85 47 36 48 88 49 82 50 81 51 37 53 69 54 49 55 68 56
REMARK SMILES IDX 50 57 53 58 67 59 86 60 51 61 52 62 66 64 87 65 54 66 38 67
REMARK SMILES IDX 39 68 47 69 40 70 41 71 45 72 48 73 42 74 43 75 46 76 44 77
REMARK SMILES IDX 70 78 71 79 79 80 72 81 73 82 77 83 80 84 74 85 75 86 78 87
REMARK SMILES IDX 76 88 55 89 56 90 64 91 57 92 58 93 62 94 65 95 59 96 60 97
REMARK SMILES IDX 63 98 61 99
REMARK H PARENT 22 5 9 16 26 33 85 52 53 63
REMARK Flexibility Score: inf
ROOT
ATOM      1  C   UNL A   1      33.142  30.774  27.057  1.00  0.00     0.118 C 
ENDROOT
BRANCH   1   2
ATOM      2  N   UNL A   1      32.319  29.722  27.628  1.00  0.00    -0.351 N 
ATOM      3  C   UNL A   1      31.795  28.579  27.062  1.00  0.00     0.271 C 
ATOM      4  O   UNL A   1      31.214  27.808  27.831  1.00  0.00    -0.267 OA
ATOM      5  H   UNL A   1      32.099  29.846  28.580  1.00  0.00     0.163 HD
BRANCH   3   6
ATOM      6  C   UNL A   1      31.944  28.304  25.618  1.00  0.00     0.150 A 
ATOM      7  N   UNL A   1      31.816  27.185  23.791  1.00  0.00    -0.263 N 
ATOM      8  C   UNL A   1      32.440  28.343  23.440  1.00  0.00     0.110 A 
ATOM      9  N   UNL A   1      31.460  27.160  25.090  1.00  0.00    -0.167 NA
ATOM     10  C   UNL A   1      32.517  29.095  24.587  1.00  0.00     0.056 A 
BRANCH   7  11
ATOM     11  C   UNL A   1      31.399  26.073  22.944  1.00  0.00     0.244 C 
BRANCH  11  12
ATOM     12  C   UNL A   1      32.529  25.111  22.623  1.00  0.00     0.244 C 
ATOM     13  N   UNL A   1      33.007  21.341  24.764  1.00  0.00    -0.328 N 
ATOM     14  C   UNL A   1      33.963  21.808  23.757  1.00  0.00     0.284 C 
ATOM     15  C   UNL A   1      32.321  22.463  25.404  1.00  0.00     0.284 C 
ATOM     16  H   UNL A   1      33.568  20.904  25.495  1.00  0.00     0.348 HD
ATOM     17  C   UNL A   1      33.435  22.852  22.759  1.00  0.00     0.181 C 
ATOM     18  C   UNL A   1      31.783  23.578  24.486  1.00  0.00     0.181 C 
ATOM     19  N   UNL A   1      32.648  23.935  23.360  1.00  0.00    -0.330 N 
ATOM     20  O   UNL A   1      33.295  25.357  21.686  1.00  0.00    -0.273 OA
BRANCH  13  21
ATOM     21  C   UNL A   1      32.188  20.176  24.416  1.00  0.00     0.302 C 
BRANCH  21  22
ATOM     22  C   UNL A   1      32.972  18.944  24.125  1.00  0.00     0.047 A 
ATOM     23  C   UNL A   1      32.188  18.314  21.692  1.00  0.00     0.069 C 
ATOM     24  C   UNL A   1      32.941  18.122  22.957  1.00  0.00     0.068 A 
ATOM     25  N   UNL A   1      33.681  17.016  23.113  1.00  0.00    -0.178 NA
ATOM     26  N   UNL A   1      34.192  17.138  24.346  1.00  0.00    -0.275 N 
ATOM     27  C   UNL A   1      33.931  18.344  24.919  1.00  0.00     0.118 A 
ATOM     28  C   UNL A   1      34.814  16.002  24.981  1.00  0.00     0.173 C 
ENDBRANCH  21  22
ENDBRANCH  13  21
ENDBRANCH  11  12
ENDBRANCH   7  11
ENDBRANCH   3   6
ENDBRANCH   1   2
BRANCH   1  29
ATOM     29  C   UNL A   1      34.615  30.639  27.462  1.00  0.00     0.042 C 
BRANCH  29  30
ATOM     30  C   UNL A   1      35.241  31.986  27.782  1.00  0.00     0.118 C 
BRANCH  30  31
ATOM     31  N   UNL A   1      34.875  32.472  29.121  1.00  0.00    -0.352 N 
ATOM     32  C   UNL A   1      35.302  32.043  30.371  1.00  0.00     0.251 C 
ATOM     33  H   UNL A   1      34.229  33.213  29.133  1.00  0.00     0.163 HD
ATOM     34  O   UNL A   1      34.677  32.324  31.376  1.00  0.00    -0.269 OA
BRANCH  32  35
ATOM     35  C   UNL A   1      36.537  31.246  30.458  1.00  0.00     0.039 A 
ATOM     36  C   UNL A   1      36.539  29.847  30.497  1.00  0.00     0.014 A 
ATOM     37  C   UNL A   1      37.729  31.951  30.474  1.00  0.00     0.014 A 
ATOM     38  C   UNL A   1      37.764  29.181  30.501  1.00  0.00     0.010 A 
ATOM     39  C   UNL A   1      38.888  31.309  30.175  1.00  0.00     0.010 A 
ATOM     40  C   UNL A   1      38.932  29.935  30.340  1.00  0.00    -0.014 A 
BRANCH  40  41
ATOM     41  C   UNL A   1      40.265  29.362  30.274  1.00  0.00     0.031 A 
ATOM     42  C   UNL A   1      40.901  29.178  31.600  1.00  0.00     0.074 A 
ATOM     43  C   UNL A   1      40.679  28.735  29.148  1.00  0.00     0.049 A 
ATOM     44  N   UNL A   1      41.964  29.750  32.059  1.00  0.00    -0.248 NA
ATOM     45  C   UNL A   1      40.172  28.382  32.606  1.00  0.00     0.031 C 
ATOM     46  C   UNL A   1      39.935  28.537  27.893  1.00  0.00     0.029 A 
ATOM     47  N   UNL A   1      41.808  28.009  28.932  1.00  0.00    -0.354 N 
ATOM     48  C   UNL A   1      42.157  29.209  33.327  1.00  0.00     0.074 A 
ATOM     49  C   UNL A   1      40.912  28.595  33.695  1.00  0.00     0.031 C 
ATOM     50  C   UNL A   1      40.524  27.569  27.158  1.00  0.00     0.029 A 
ATOM     51  C   UNL A   1      41.764  27.190  27.804  1.00  0.00     0.049 A 
ATOM     52  H   UNL A   1      42.592  28.057  29.524  1.00  0.00     0.167 HD
ATOM     53  C   UNL A   1      43.414  29.035  33.824  1.00  0.00     0.037 A 
ATOM     54  C   UNL A   1      42.671  26.235  27.476  1.00  0.00     0.037 A 
ATOM     55  C   UNL A   1      44.369  29.813  33.072  1.00  0.00     0.049 A 
ATOM     56  C   UNL A   1      43.895  26.510  28.274  1.00  0.00     0.074 A 
ATOM     57  C   UNL A   1      44.506  31.156  32.777  1.00  0.00     0.029 A 
ATOM     58  N   UNL A   1      45.148  29.153  32.150  1.00  0.00    -0.354 N 
ATOM     59  N   UNL A   1      44.643  27.568  28.109  1.00  0.00    -0.248 NA
ATOM     60  C   UNL A   1      43.997  25.870  29.577  1.00  0.00     0.031 C 
ATOM     61  C   UNL A   1      44.938  31.194  31.418  1.00  0.00     0.029 A 
ATOM     62  C   UNL A   1      45.127  29.879  30.989  1.00  0.00     0.049 A 
ATOM     63  H   UNL A   1      45.633  28.310  32.300  1.00  0.00     0.167 HD
ATOM     64  C   UNL A   1      44.970  27.973  29.396  1.00  0.00     0.074 A 
ATOM     65  C   UNL A   1      44.600  26.850  30.255  1.00  0.00     0.031 C 
ATOM     66  C   UNL A   1      45.220  29.286  29.675  1.00  0.00     0.037 A 
BRANCH  53  67
ATOM     67  C   UNL A   1      43.838  27.870  34.697  1.00  0.00     0.064 A 
ATOM     68  C   UNL A   1      43.663  26.563  34.198  1.00  0.00     0.173 A 
ATOM     69  C   UNL A   1      44.120  27.951  36.079  1.00  0.00     0.173 A 
ATOM     70  F   UNL A   1      43.390  26.356  32.901  1.00  0.00    -0.203 F 
ATOM     71  C   UNL A   1      43.662  25.443  35.035  1.00  0.00     0.198 A 
ATOM     72  C   UNL A   1      44.174  26.827  36.901  1.00  0.00     0.198 A 
ATOM     73  F   UNL A   1      44.248  29.113  36.726  1.00  0.00    -0.203 F 
ATOM     74  F   UNL A   1      43.350  24.240  34.535  1.00  0.00    -0.200 F 
ATOM     75  C   UNL A   1      43.908  25.578  36.388  1.00  0.00     0.200 A 
ATOM     76  F   UNL A   1      44.404  26.984  38.212  1.00  0.00    -0.200 F 
ATOM     77  F   UNL A   1      43.841  24.519  37.204  1.00  0.00    -0.200 F 
ENDBRANCH  53  67
BRANCH  54  78
ATOM     78  C   UNL A   1      42.443  24.937  26.790  1.00  0.00     0.064 A 
ATOM     79  C   UNL A   1      43.091  24.627  25.582  1.00  0.00     0.173 A 
ATOM     80  C   UNL A   1      41.803  23.867  27.446  1.00  0.00     0.173 A 
ATOM     81  F   UNL A   1      43.767  25.576  24.918  1.00  0.00    -0.203 F 
ATOM     82  C   UNL A   1      43.113  23.322  25.073  1.00  0.00     0.198 A 
ATOM     83  C   UNL A   1      41.821  22.566  26.934  1.00  0.00     0.198 A 
ATOM     84  F   UNL A   1      41.229  24.040  28.645  1.00  0.00    -0.203 F 
ATOM     85  F   UNL A   1      43.792  23.054  23.949  1.00  0.00    -0.200 F 
ATOM     86  C   UNL A   1      42.487  22.292  25.756  1.00  0.00     0.200 A 
ATOM     87  F   UNL A   1      41.247  21.573  27.626  1.00  0.00    -0.200 F 
ATOM     88  F   UNL A   1      42.562  21.032  25.302  1.00  0.00    -0.200 F 
ENDBRANCH  54  78
BRANCH  66  89
ATOM     89  C   UNL A   1      45.379  30.237  28.520  1.00  0.00     0.064 A 
ATOM     90  C   UNL A   1      44.323  30.968  27.944  1.00  0.00     0.173 A 
ATOM     91  C   UNL A   1      46.677  30.544  28.091  1.00  0.00     0.173 A 
ATOM     92  F   UNL A   1      43.064  30.808  28.366  1.00  0.00    -0.203 F 
ATOM     93  C   UNL A   1      44.556  31.933  26.964  1.00  0.00     0.198 A 
ATOM     94  C   UNL A   1      46.910  31.532  27.140  1.00  0.00     0.198 A 
ATOM     95  F   UNL A   1      47.728  29.918  28.644  1.00  0.00    -0.203 F 
ATOM     96  F   UNL A   1      43.530  32.612  26.431  1.00  0.00    -0.200 F 
ATOM     97  C   UNL A   1      45.852  32.220  26.571  1.00  0.00     0.200 A 
ATOM     98  F   UNL A   1      48.169  31.841  26.799  1.00  0.00    -0.200 F 
ATOM     99  F   UNL A   1      46.082  33.179  25.663  1.00  0.00    -0.200 F 
ENDBRANCH  66  89
ENDBRANCH  40  41
ENDBRANCH  32  35
ENDBRANCH  30  31
ENDBRANCH  29  30
ENDBRANCH   1  29
TORSDOF 14
ENDMDL
MODEL 3
REMARK VINA RESULT:     -12.6      2.793      7.214
REMARK SMILES Cc1nn(C)cc1C[NH+]1CCN(C(=O)Cn2ccc(C(=O)NCCCNC(=O)c3ccc(-c4c5nc(c(-c6c(F)c(F)c(F)c(F)c6F)c6ccc([nH]6)c(-c6c(F)c(F)c(F)c(F)c6F)c6nc(c(-c7c(F)c(F)c(F)c(F)c7F)c7ccc4[nH]7)C=C6)C=C5)cc3)n2)CC1
REMARK SMILES IDX 23 1 22 2 20 3 21 4 19 6 16 7 17 8 92 9 18 10 15 11 13 12
REMARK SMILES IDX 9 13 10 14 94 15 11 17 93 18 12 19 14 20 8 21 7 22 1 23 2 24
REMARK SMILES IDX 3 25 4 26 6 27 5 28 24 29 25 30 26 31 27 32 28 34 29 35
REMARK SMILES IDX 30 36 91 37 31 38 90 39 32 40 33 41 34 42 84 43 35 44 89 45
REMARK SMILES IDX 83 46 85 47 36 48 88 49 82 50 81 51 37 53 69 54 49 55 68 56
REMARK SMILES IDX 50 57 53 58 67 59 86 60 51 61 52 62 66 64 87 65 54 66 38 67
REMARK SMILES IDX 39 68 47 69 40 70 41 71 45 72 48 73 42 74 43 75 46 76 44 77
REMARK SMILES IDX 70 78 71 79 79 80 72 81 73 82 77 83 80 84 74 85 75 86 78 87
REMARK SMILES IDX 76 88 55 89 56 90 64 91 57 92 58 93 62 94 65 95 59 96 60 97
REMARK SMILES IDX 63 98 61 99
REMARK H PARENT 22 5 9 16 26 33 85 52 53 63
REMARK Flexibility Score: inf
ROOT
ATOM      1  C   UNL A   1      31.442  30.617  25.816  1.00  0.00     0.118 C 
ENDROOT
BRANCH   1   2
ATOM      2  N   UNL A   1      32.625  30.008  26.399  1.00  0.00    -0.351 N 
ATOM      3  C   UNL A   1      33.528  29.107  25.875  1.00  0.00     0.271 C 
ATOM      4  O   UNL A   1      34.507  28.845  26.579  1.00  0.00    -0.267 OA
ATOM      5  H   UNL A   1      32.814  30.286  27.325  1.00  0.00     0.163 HD
BRANCH   3   6
ATOM      6  C   UNL A   1      33.324  28.511  24.539  1.00  0.00     0.150 A 
ATOM      7  N   UNL A   1      32.455  27.227  23.054  1.00  0.00    -0.263 N 
ATOM      8  C   UNL A   1      33.452  27.884  22.398  1.00  0.00     0.110 A 
ATOM      9  N   UNL A   1      32.325  27.627  24.334  1.00  0.00    -0.167 NA
ATOM     10  C   UNL A   1      34.015  28.734  23.318  1.00  0.00     0.056 A 
BRANCH   7  11
ATOM     11  C   UNL A   1      31.481  26.277  22.529  1.00  0.00     0.244 C 
BRANCH  11  12
ATOM     12  C   UNL A   1      30.721  25.540  23.617  1.00  0.00     0.244 C 
ATOM     13  N   UNL A   1      32.207  21.812  25.325  1.00  0.00    -0.328 N 
ATOM     14  C   UNL A   1      30.912  22.390  25.691  1.00  0.00     0.284 C 
ATOM     15  C   UNL A   1      32.600  22.203  23.972  1.00  0.00     0.284 C 
ATOM     16  H   UNL A   1      32.059  20.803  25.291  1.00  0.00     0.348 HD
ATOM     17  C   UNL A   1      30.743  23.893  25.415  1.00  0.00     0.181 C 
ATOM     18  C   UNL A   1      32.438  23.688  23.591  1.00  0.00     0.181 C 
ATOM     19  N   UNL A   1      31.230  24.337  24.104  1.00  0.00    -0.330 N 
ATOM     20  O   UNL A   1      29.692  26.034  24.089  1.00  0.00    -0.273 OA
BRANCH  13  21
ATOM     21  C   UNL A   1      33.256  21.825  26.350  1.00  0.00     0.302 C 
BRANCH  21  22
ATOM     22  C   UNL A   1      34.631  21.609  25.819  1.00  0.00     0.047 A 
ATOM     23  C   UNL A   1      34.472  19.212  24.743  1.00  0.00     0.069 C 
ATOM     24  C   UNL A   1      35.161  20.461  25.156  1.00  0.00     0.068 A 
ATOM     25  N   UNL A   1      36.479  20.574  24.951  1.00  0.00    -0.178 NA
ATOM     26  N   UNL A   1      36.783  21.780  25.453  1.00  0.00    -0.275 N 
ATOM     27  C   UNL A   1      35.690  22.496  25.829  1.00  0.00     0.118 A 
ATOM     28  C   UNL A   1      38.163  22.139  25.673  1.00  0.00     0.173 C 
ENDBRANCH  21  22
ENDBRANCH  13  21
ENDBRANCH  11  12
ENDBRANCH   7  11
ENDBRANCH   3   6
ENDBRANCH   1   2
BRANCH   1  29
ATOM     29  C   UNL A   1      31.254  32.068  26.275  1.00  0.00     0.042 C 
BRANCH  29  30
ATOM     30  C   UNL A   1      32.350  32.507  27.232  1.00  0.00     0.118 C 
BRANCH  30  31
ATOM     31  N   UNL A   1      32.266  33.938  27.563  1.00  0.00    -0.352 N 
ATOM     32  C   UNL A   1      32.997  34.685  28.476  1.00  0.00     0.251 C 
ATOM     33  H   UNL A   1      31.586  34.442  27.061  1.00  0.00     0.163 HD
ATOM     34  O   UNL A   1      32.600  35.769  28.859  1.00  0.00    -0.269 OA
BRANCH  32  35
ATOM     35  C   UNL A   1      34.275  34.142  28.967  1.00  0.00     0.039 A 
ATOM     36  C   UNL A   1      34.448  33.662  30.271  1.00  0.00     0.014 A 
ATOM     37  C   UNL A   1      35.320  34.099  28.058  1.00  0.00     0.014 A 
ATOM     38  C   UNL A   1      35.674  33.096  30.616  1.00  0.00     0.010 A 
ATOM     39  C   UNL A   1      36.382  33.289  28.301  1.00  0.00     0.010 A 
ATOM     40  C   UNL A   1      36.632  32.919  29.612  1.00  0.00    -0.014 A 
BRANCH  40  41
ATOM     41  C   UNL A   1      37.927  32.296  29.826  1.00  0.00     0.031 A 
ATOM     42  C   UNL A   1      37.994  30.888  29.366  1.00  0.00     0.074 A 
ATOM     43  C   UNL A   1      39.017  33.061  30.066  1.00  0.00     0.049 A 
ATOM     44  N   UNL A   1      38.183  29.827  30.077  1.00  0.00    -0.248 NA
ATOM     45  C   UNL A   1      37.642  30.608  27.961  1.00  0.00     0.031 C 
ATOM     46  C   UNL A   1      39.094  34.528  30.155  1.00  0.00     0.029 A 
ATOM     47  N   UNL A   1      40.325  32.698  30.140  1.00  0.00    -0.354 N 
ATOM     48  C   UNL A   1      38.199  28.772  29.169  1.00  0.00     0.074 A 
ATOM     49  C   UNL A   1      37.612  29.275  27.959  1.00  0.00     0.031 C 
ATOM     50  C   UNL A   1      40.380  34.928  30.036  1.00  0.00     0.029 A 
ATOM     51  C   UNL A   1      41.228  33.754  30.024  1.00  0.00     0.049 A 
ATOM     52  H   UNL A   1      40.611  31.765  30.265  1.00  0.00     0.167 HD
ATOM     53  C   UNL A   1      38.982  27.678  29.388  1.00  0.00     0.037 A 
ATOM     54  C   UNL A   1      42.572  33.642  29.874  1.00  0.00     0.037 A 
ATOM     55  C   UNL A   1      39.406  27.626  30.767  1.00  0.00     0.049 A 
ATOM     56  C   UNL A   1      42.937  32.258  30.278  1.00  0.00     0.074 A 
ATOM     57  C   UNL A   1      38.748  27.590  31.982  1.00  0.00     0.029 A 
ATOM     58  N   UNL A   1      40.691  28.023  31.056  1.00  0.00    -0.354 N 
ATOM     59  N   UNL A   1      42.829  31.809  31.500  1.00  0.00    -0.248 NA
ATOM     60  C   UNL A   1      42.941  31.241  29.237  1.00  0.00     0.031 C 
ATOM     61  C   UNL A   1      39.512  28.436  32.841  1.00  0.00     0.029 A 
ATOM     62  C   UNL A   1      40.635  28.867  32.134  1.00  0.00     0.049 A 
ATOM     63  H   UNL A   1      41.504  27.749  30.575  1.00  0.00     0.167 HD
ATOM     64  C   UNL A   1      42.325  30.523  31.360  1.00  0.00     0.074 A 
ATOM     65  C   UNL A   1      42.479  30.205  29.942  1.00  0.00     0.031 C 
ATOM     66  C   UNL A   1      41.554  29.963  32.339  1.00  0.00     0.037 A 
BRANCH  53  67
ATOM     67  C   UNL A   1      39.696  26.902  28.300  1.00  0.00     0.064 A 
ATOM     68  C   UNL A   1      39.622  25.494  28.324  1.00  0.00     0.173 A 
ATOM     69  C   UNL A   1      40.673  27.436  27.431  1.00  0.00     0.173 A 
ATOM     70  F   UNL A   1      38.733  24.869  29.110  1.00  0.00    -0.203 F 
ATOM     71  C   UNL A   1      40.524  24.691  27.619  1.00  0.00     0.198 A 
ATOM     72  C   UNL A   1      41.535  26.632  26.686  1.00  0.00     0.198 A 
ATOM     73  F   UNL A   1      40.923  28.745  27.336  1.00  0.00    -0.203 F 
ATOM     74  F   UNL A   1      40.502  23.363  27.786  1.00  0.00    -0.200 F 
ATOM     75  C   UNL A   1      41.487  25.262  26.809  1.00  0.00     0.200 A 
ATOM     76  F   UNL A   1      42.467  27.208  25.915  1.00  0.00    -0.200 F 
ATOM     77  F   UNL A   1      42.395  24.501  26.187  1.00  0.00    -0.200 F 
ENDBRANCH  53  67
BRANCH  54  78
ATOM     78  C   UNL A   1      43.495  34.516  29.106  1.00  0.00     0.064 A 
ATOM     79  C   UNL A   1      43.779  34.267  27.753  1.00  0.00     0.173 A 
ATOM     80  C   UNL A   1      43.900  35.770  29.606  1.00  0.00     0.173 A 
ATOM     81  F   UNL A   1      43.385  33.119  27.183  1.00  0.00    -0.203 F 
ATOM     82  C   UNL A   1      44.410  35.222  26.945  1.00  0.00     0.198 A 
ATOM     83  C   UNL A   1      44.534  36.720  28.801  1.00  0.00     0.198 A 
ATOM     84  F   UNL A   1      43.601  36.138  30.860  1.00  0.00    -0.203 F 
ATOM     85  F   UNL A   1      44.609  34.971  25.643  1.00  0.00    -0.200 F 
ATOM     86  C   UNL A   1      44.776  36.451  27.467  1.00  0.00     0.200 A 
ATOM     87  F   UNL A   1      44.846  37.919  29.309  1.00  0.00    -0.200 F 
ATOM     88  F   UNL A   1      45.323  37.389  26.680  1.00  0.00    -0.200 F 
ENDBRANCH  54  78
BRANCH  66  89
ATOM     89  C   UNL A   1      41.475  30.666  33.666  1.00  0.00     0.064 A 
ATOM     90  C   UNL A   1      40.514  31.642  33.989  1.00  0.00     0.173 A 
ATOM     91  C   UNL A   1      42.299  30.211  34.704  1.00  0.00     0.173 A 
ATOM     92  F   UNL A   1      39.624  32.060  33.083  1.00  0.00    -0.203 F 
ATOM     93  C   UNL A   1      40.410  32.160  35.280  1.00  0.00     0.198 A 
ATOM     94  C   UNL A   1      42.169  30.702  35.999  1.00  0.00     0.198 A 
ATOM     95  F   UNL A   1      43.196  29.241  34.469  1.00  0.00    -0.203 F 
ATOM     96  F   UNL A   1      39.487  33.093  35.558  1.00  0.00    -0.200 F 
ATOM     97  C   UNL A   1      41.232  31.681  36.286  1.00  0.00     0.200 A 
ATOM     98  F   UNL A   1      42.932  30.200  36.979  1.00  0.00    -0.200 F 
ATOM     99  F   UNL A   1      41.102  32.144  37.538  1.00  0.00    -0.200 F 
ENDBRANCH  66  89
ENDBRANCH  40  41
ENDBRANCH  32  35
ENDBRANCH  30  31
ENDBRANCH  29  30
ENDBRANCH   1  29
TORSDOF 14
ENDMDL
