MODEL 1
REMARK VINA RESULT:     -12.2      0.000      0.000
REMARK SMILES C[C@H](O)C[NH2+][C@H](CC(=O)Nc1cccc2ccccc12)C(=O)NCCCNC(=O)c1ccc(-c2c3nc(c(-c4c(F)c(F)c(F)c(F)c4F)c4ccc([nH]4)c(-c4c(F)c(F)c(F)c(F)c4F)c4nc(c(-c5c(F)c(F)c(F)c(F)c5F)c5ccc2[nH]5)C=C4)C=C3)cc1
REMARK SMILES IDX 24 1 23 2 21 3 22 4 6 6 5 7 4 10 2 11 1 12 3 13 7 15 8 16
REMARK SMILES IDX 9 17 10 18 11 20 12 21 20 22 13 23 15 24 19 25 14 26 16 27
REMARK SMILES IDX 18 28 17 29 25 30 26 31 27 32 28 33 29 35 30 36 31 37 92 38
REMARK SMILES IDX 32 39 91 40 33 41 34 42 35 43 85 44 36 45 90 46 84 47 86 48
REMARK SMILES IDX 37 49 89 50 83 51 82 52 38 54 70 55 50 56 69 57 51 58 54 59
REMARK SMILES IDX 68 60 87 61 52 62 53 63 67 65 88 66 55 67 39 68 40 69 48 70
REMARK SMILES IDX 41 71 42 72 46 73 49 74 43 75 44 76 47 77 45 78 71 79 72 80
REMARK SMILES IDX 80 81 73 82 74 83 78 84 81 85 75 86 76 87 79 88 77 89 56 90
REMARK SMILES IDX 57 91 65 92 58 93 59 94 63 95 66 96 60 97 61 98 64 99 62 100
REMARK H PARENT 23 5 5 8 5 9 3 14 10 19 27 34 86 53 54 64
REMARK Flexibility Score: inf
ROOT
ATOM      1  C   UNL A   1      34.621  24.282  24.986  1.00  0.00     0.118 C 
ENDROOT
BRANCH   1   2
ATOM      2  N   UNL A   1      34.151  23.378  23.952  1.00  0.00    -0.351 N 
ATOM      3  C   UNL A   1      33.065  22.560  23.930  1.00  0.00     0.278 C 
ATOM      4  O   UNL A   1      32.821  21.948  22.887  1.00  0.00    -0.268 OA
ATOM      5  H   UNL A   1      34.705  23.352  23.139  1.00  0.00     0.163 HD
BRANCH   3   6
ATOM      6  C   UNL A   1      32.168  22.392  25.169  1.00  0.00     0.282 C 
BRANCH   6   7
ATOM      7  N   UNL A   1      32.048  20.944  25.483  1.00  0.00    -0.333 N 
ATOM      8  H   UNL A   1      31.450  20.839  26.303  1.00  0.00     0.347 HD
ATOM      9  H   UNL A   1      31.657  20.489  24.658  1.00  0.00     0.347 HD
BRANCH   7  10
ATOM     10  C   UNL A   1      33.337  20.296  25.762  1.00  0.00     0.292 C 
BRANCH  10  11
ATOM     11  C   UNL A   1      33.228  18.794  25.436  1.00  0.00     0.166 C 
ATOM     12  C   UNL A   1      32.471  18.560  24.139  1.00  0.00     0.044 C 
BRANCH  11  13
ATOM     13  O   UNL A   1      32.527  18.120  26.484  1.00  0.00    -0.388 OA
ATOM     14  H   UNL A   1      32.878  17.222  26.582  1.00  0.00     0.211 HD
ENDBRANCH  11  13
ENDBRANCH  10  11
ENDBRANCH   7  10
ENDBRANCH   6   7
BRANCH   6  15
ATOM     15  C   UNL A   1      30.873  23.204  25.072  1.00  0.00     0.175 C 
BRANCH  15  16
ATOM     16  C   UNL A   1      30.428  23.925  26.340  1.00  0.00     0.230 C 
ATOM     17  O   UNL A   1      30.234  23.283  27.379  1.00  0.00    -0.274 OA
ATOM     18  N   UNL A   1      30.357  25.279  26.448  1.00  0.00    -0.325 N 
ATOM     19  H   UNL A   1      30.199  25.596  27.367  1.00  0.00     0.169 HD
BRANCH  18  20
ATOM     20  C   UNL A   1      30.465  26.315  25.504  1.00  0.00     0.049 A 
ATOM     21  C   UNL A   1      29.456  26.533  24.567  1.00  0.00     0.027 A 
ATOM     22  C   UNL A   1      31.560  27.220  25.570  1.00  0.00     0.005 A 
ATOM     23  C   UNL A   1      29.565  27.521  23.596  1.00  0.00     0.003 A 
ATOM     24  C   UNL A   1      31.656  28.236  24.583  1.00  0.00    -0.016 A 
ATOM     25  C   UNL A   1      32.580  27.167  26.553  1.00  0.00     0.011 A 
ATOM     26  C   UNL A   1      30.675  28.351  23.589  1.00  0.00     0.009 A 
ATOM     27  C   UNL A   1      32.727  29.141  24.604  1.00  0.00     0.009 A 
ATOM     28  C   UNL A   1      33.627  28.090  26.573  1.00  0.00     0.001 A 
ATOM     29  C   UNL A   1      33.702  29.074  25.597  1.00  0.00     0.001 A 
ENDBRANCH  18  20
ENDBRANCH  15  16
ENDBRANCH   6  15
ENDBRANCH   3   6
ENDBRANCH   1   2
BRANCH   1  30
ATOM     30  C   UNL A   1      35.801  23.739  25.782  1.00  0.00     0.042 C 
BRANCH  30  31
ATOM     31  C   UNL A   1      37.106  23.690  25.008  1.00  0.00     0.118 C 
BRANCH  31  32
ATOM     32  N   UNL A   1      38.011  22.678  25.540  1.00  0.00    -0.352 N 
ATOM     33  C   UNL A   1      39.175  22.842  26.241  1.00  0.00     0.251 C 
ATOM     34  H   UNL A   1      37.747  21.744  25.371  1.00  0.00     0.163 HD
ATOM     35  O   UNL A   1      39.952  21.897  26.384  1.00  0.00    -0.269 OA
BRANCH  33  36
ATOM     36  C   UNL A   1      39.506  24.161  26.816  1.00  0.00     0.039 A 
ATOM     37  C   UNL A   1      39.147  24.439  28.136  1.00  0.00     0.014 A 
ATOM     38  C   UNL A   1      40.165  25.123  26.047  1.00  0.00     0.014 A 
ATOM     39  C   UNL A   1      39.499  25.665  28.702  1.00  0.00     0.010 A 
ATOM     40  C   UNL A   1      40.597  26.304  26.638  1.00  0.00     0.010 A 
ATOM     41  C   UNL A   1      40.252  26.596  27.966  1.00  0.00    -0.014 A 
BRANCH  41  42
ATOM     42  C   UNL A   1      40.668  27.892  28.557  1.00  0.00     0.031 A 
ATOM     43  C   UNL A   1      42.104  28.114  28.945  1.00  0.00     0.074 A 
ATOM     44  C   UNL A   1      39.746  28.844  28.797  1.00  0.00     0.049 A 
ATOM     45  N   UNL A   1      42.656  29.151  29.521  1.00  0.00    -0.248 NA
ATOM     46  C   UNL A   1      43.037  27.008  28.678  1.00  0.00     0.031 C 
ATOM     47  C   UNL A   1      38.316  28.727  28.511  1.00  0.00     0.029 A 
ATOM     48  N   UNL A   1      39.876  30.095  29.343  1.00  0.00    -0.354 N 
ATOM     49  C   UNL A   1      43.993  28.816  29.697  1.00  0.00     0.074 A 
ATOM     50  C   UNL A   1      44.153  27.457  29.230  1.00  0.00     0.031 C 
ATOM     51  C   UNL A   1      37.706  29.873  28.851  1.00  0.00     0.029 A 
ATOM     52  C   UNL A   1      38.694  30.788  29.415  1.00  0.00     0.049 A 
ATOM     53  H   UNL A   1      40.735  30.462  29.653  1.00  0.00     0.167 HD
ATOM     54  C   UNL A   1      45.001  29.581  30.179  1.00  0.00     0.037 A 
ATOM     55  C   UNL A   1      38.436  32.024  29.885  1.00  0.00     0.037 A 
ATOM     56  C   UNL A   1      44.838  30.940  30.624  1.00  0.00     0.049 A 
ATOM     57  C   UNL A   1      39.569  32.851  30.428  1.00  0.00     0.074 A 
ATOM     58  C   UNL A   1      45.802  31.822  31.077  1.00  0.00     0.029 A 
ATOM     59  N   UNL A   1      43.624  31.611  30.677  1.00  0.00    -0.354 N 
ATOM     60  N   UNL A   1      40.842  32.552  30.526  1.00  0.00    -0.248 NA
ATOM     61  C   UNL A   1      39.229  34.193  30.921  1.00  0.00     0.031 C 
ATOM     62  C   UNL A   1      45.165  33.010  31.452  1.00  0.00     0.029 A 
ATOM     63  C   UNL A   1      43.812  32.889  31.179  1.00  0.00     0.049 A 
ATOM     64  H   UNL A   1      42.758  31.234  30.400  1.00  0.00     0.167 HD
ATOM     65  C   UNL A   1      41.459  33.674  31.060  1.00  0.00     0.074 A 
ATOM     66  C   UNL A   1      40.421  34.666  31.255  1.00  0.00     0.031 C 
ATOM     67  C   UNL A   1      42.767  33.866  31.361  1.00  0.00     0.037 A 
BRANCH  54  68
ATOM     68  C   UNL A   1      46.366  28.958  30.247  1.00  0.00     0.064 A 
ATOM     69  C   UNL A   1      47.279  29.060  29.184  1.00  0.00     0.173 A 
ATOM     70  C   UNL A   1      46.772  28.252  31.390  1.00  0.00     0.173 A 
ATOM     71  F   UNL A   1      46.939  29.714  28.063  1.00  0.00    -0.203 F 
ATOM     72  C   UNL A   1      48.526  28.443  29.245  1.00  0.00     0.198 A 
ATOM     73  C   UNL A   1      48.035  27.667  31.461  1.00  0.00     0.198 A 
ATOM     74  F   UNL A   1      45.945  28.128  32.438  1.00  0.00    -0.203 F 
ATOM     75  F   UNL A   1      49.351  28.499  28.191  1.00  0.00    -0.200 F 
ATOM     76  C   UNL A   1      48.905  27.752  30.385  1.00  0.00     0.200 A 
ATOM     77  F   UNL A   1      48.405  27.011  32.570  1.00  0.00    -0.200 F 
ATOM     78  F   UNL A   1      50.104  27.159  30.443  1.00  0.00    -0.200 F 
ENDBRANCH  54  68
BRANCH  55  79
ATOM     79  C   UNL A   1      37.054  32.566  29.821  1.00  0.00     0.064 A 
ATOM     80  C   UNL A   1      36.171  32.403  30.898  1.00  0.00     0.173 A 
ATOM     81  C   UNL A   1      36.591  33.267  28.699  1.00  0.00     0.173 A 
ATOM     82  F   UNL A   1      36.562  31.721  31.986  1.00  0.00    -0.203 F 
ATOM     83  C   UNL A   1      34.873  32.905  30.848  1.00  0.00     0.198 A 
ATOM     84  C   UNL A   1      35.302  33.795  28.661  1.00  0.00     0.198 A 
ATOM     85  F   UNL A   1      37.399  33.456  27.645  1.00  0.00    -0.203 F 
ATOM     86  F   UNL A   1      34.038  32.700  31.875  1.00  0.00    -0.200 F 
ATOM     87  C   UNL A   1      34.442  33.607  29.732  1.00  0.00     0.200 A 
ATOM     88  F   UNL A   1      34.894  34.485  27.587  1.00  0.00    -0.200 F 
ATOM     89  F   UNL A   1      33.197  34.099  29.689  1.00  0.00    -0.200 F 
ENDBRANCH  55  79
BRANCH  67  90
ATOM     90  C   UNL A   1      43.158  35.213  31.898  1.00  0.00     0.064 A 
ATOM     91  C   UNL A   1      43.630  36.234  31.060  1.00  0.00     0.173 A 
ATOM     92  C   UNL A   1      43.023  35.496  33.266  1.00  0.00     0.173 A 
ATOM     93  F   UNL A   1      43.792  36.010  29.747  1.00  0.00    -0.203 F 
ATOM     94  C   UNL A   1      43.977  37.480  31.576  1.00  0.00     0.198 A 
ATOM     95  C   UNL A   1      43.340  36.753  33.773  1.00  0.00     0.198 A 
ATOM     96  F   UNL A   1      42.570  34.557  34.110  1.00  0.00    -0.203 F 
ATOM     97  F   UNL A   1      44.473  38.425  30.765  1.00  0.00    -0.200 F 
ATOM     98  C   UNL A   1      43.824  37.741  32.930  1.00  0.00     0.200 A 
ATOM     99  F   UNL A   1      43.177  37.008  35.078  1.00  0.00    -0.200 F 
ATOM    100  F   UNL A   1      44.152  38.944  33.422  1.00  0.00    -0.200 F 
ENDBRANCH  67  90
ENDBRANCH  41  42
ENDBRANCH  33  36
ENDBRANCH  31  32
ENDBRANCH  30  31
ENDBRANCH   1  30
TORSDOF 17
ENDMDL
MODEL 2
REMARK VINA RESULT:     -12.1      4.194      8.061
REMARK SMILES C[C@H](O)C[NH2+][C@H](CC(=O)Nc1cccc2ccccc12)C(=O)NCCCNC(=O)c1ccc(-c2c3nc(c(-c4c(F)c(F)c(F)c(F)c4F)c4ccc([nH]4)c(-c4c(F)c(F)c(F)c(F)c4F)c4nc(c(-c5c(F)c(F)c(F)c(F)c5F)c5ccc2[nH]5)C=C4)C=C3)cc1
REMARK SMILES IDX 24 1 23 2 21 3 22 4 6 6 5 7 4 10 2 11 1 12 3 13 7 15 8 16
REMARK SMILES IDX 9 17 10 18 11 20 12 21 20 22 13 23 15 24 19 25 14 26 16 27
REMARK SMILES IDX 18 28 17 29 25 30 26 31 27 32 28 33 29 35 30 36 31 37 92 38
REMARK SMILES IDX 32 39 91 40 33 41 34 42 35 43 85 44 36 45 90 46 84 47 86 48
REMARK SMILES IDX 37 49 89 50 83 51 82 52 38 54 70 55 50 56 69 57 51 58 54 59
REMARK SMILES IDX 68 60 87 61 52 62 53 63 67 65 88 66 55 67 39 68 40 69 48 70
REMARK SMILES IDX 41 71 42 72 46 73 49 74 43 75 44 76 47 77 45 78 71 79 72 80
REMARK SMILES IDX 80 81 73 82 74 83 78 84 81 85 75 86 76 87 79 88 77 89 56 90
REMARK SMILES IDX 57 91 65 92 58 93 59 94 63 95 66 96 60 97 61 98 64 99 62 100
REMARK H PARENT 23 5 5 8 5 9 3 14 10 19 27 34 86 53 54 64
REMARK Flexibility Score: inf
ROOT
ATOM      1  C   UNL A   1      31.550  30.823  26.037  1.00  0.00     0.118 C 
ENDROOT
BRANCH   1   2
ATOM      2  N   UNL A   1      30.788  30.507  24.842  1.00  0.00    -0.351 N 
ATOM      3  C   UNL A   1      30.779  29.382  24.079  1.00  0.00     0.278 C 
ATOM      4  O   UNL A   1      29.966  29.315  23.154  1.00  0.00    -0.268 OA
ATOM      5  H   UNL A   1      30.181  31.220  24.535  1.00  0.00     0.163 HD
BRANCH   3   6
ATOM      6  C   UNL A   1      31.758  28.226  24.352  1.00  0.00     0.282 C 
BRANCH   6   7
ATOM      7  N   UNL A   1      32.601  28.016  23.146  1.00  0.00    -0.333 N 
ATOM      8  H   UNL A   1      32.015  28.127  22.318  1.00  0.00     0.347 HD
ATOM      9  H   UNL A   1      33.354  28.703  23.182  1.00  0.00     0.347 HD
BRANCH   7  10
ATOM     10  C   UNL A   1      33.231  26.689  23.096  1.00  0.00     0.292 C 
BRANCH  10  11
ATOM     11  C   UNL A   1      32.656  25.902  21.903  1.00  0.00     0.166 C 
ATOM     12  C   UNL A   1      32.892  24.409  22.056  1.00  0.00     0.044 C 
BRANCH  11  13
ATOM     13  O   UNL A   1      33.287  26.327  20.692  1.00  0.00    -0.388 OA
ATOM     14  H   UNL A   1      32.633  26.757  20.121  1.00  0.00     0.211 HD
ENDBRANCH  11  13
ENDBRANCH  10  11
ENDBRANCH   7  10
ENDBRANCH   6   7
BRANCH   6  15
ATOM     15  C   UNL A   1      31.066  27.000  24.954  1.00  0.00     0.175 C 
BRANCH  15  16
ATOM     16  C   UNL A   1      31.359  26.708  26.422  1.00  0.00     0.230 C 
ATOM     17  O   UNL A   1      31.272  27.612  27.260  1.00  0.00    -0.274 OA
ATOM     18  N   UNL A   1      31.584  25.457  26.907  1.00  0.00    -0.325 N 
ATOM     19  H   UNL A   1      31.609  25.412  27.891  1.00  0.00     0.169 HD
BRANCH  18  20
ATOM     20  C   UNL A   1      31.788  24.216  26.279  1.00  0.00     0.049 A 
ATOM     21  C   UNL A   1      30.717  23.357  26.035  1.00  0.00     0.027 A 
ATOM     22  C   UNL A   1      33.079  23.876  25.787  1.00  0.00     0.005 A 
ATOM     23  C   UNL A   1      30.903  22.108  25.457  1.00  0.00     0.003 A 
ATOM     24  C   UNL A   1      33.257  22.603  25.185  1.00  0.00    -0.016 A 
ATOM     25  C   UNL A   1      34.212  24.722  25.873  1.00  0.00     0.011 A 
ATOM     26  C   UNL A   1      32.174  21.723  25.059  1.00  0.00     0.009 A 
ATOM     27  C   UNL A   1      34.516  22.223  24.700  1.00  0.00     0.009 A 
ATOM     28  C   UNL A   1      35.454  24.337  25.364  1.00  0.00     0.001 A 
ATOM     29  C   UNL A   1      35.606  23.087  24.780  1.00  0.00     0.001 A 
ENDBRANCH  18  20
ENDBRANCH  15  16
ENDBRANCH   6  15
ENDBRANCH   3   6
ENDBRANCH   1   2
BRANCH   1  30
ATOM     30  C   UNL A   1      31.397  32.268  26.495  1.00  0.00     0.042 C 
BRANCH  30  31
ATOM     31  C   UNL A   1      32.601  32.817  27.240  1.00  0.00     0.118 C 
BRANCH  31  32
ATOM     32  N   UNL A   1      32.422  34.220  27.593  1.00  0.00    -0.352 N 
ATOM     33  C   UNL A   1      32.988  34.932  28.617  1.00  0.00     0.251 C 
ATOM     34  H   UNL A   1      31.808  34.728  27.014  1.00  0.00     0.163 HD
ATOM     35  O   UNL A   1      32.530  36.030  28.936  1.00  0.00    -0.269 OA
BRANCH  33  36
ATOM     36  C   UNL A   1      34.142  34.374  29.348  1.00  0.00     0.039 A 
ATOM     37  C   UNL A   1      33.929  33.715  30.560  1.00  0.00     0.014 A 
ATOM     38  C   UNL A   1      35.436  34.508  28.836  1.00  0.00     0.014 A 
ATOM     39  C   UNL A   1      35.010  33.144  31.232  1.00  0.00     0.010 A 
ATOM     40  C   UNL A   1      36.495  33.859  29.457  1.00  0.00     0.010 A 
ATOM     41  C   UNL A   1      36.297  33.185  30.671  1.00  0.00    -0.014 A 
BRANCH  41  42
ATOM     42  C   UNL A   1      37.456  32.555  31.349  1.00  0.00     0.031 A 
ATOM     43  C   UNL A   1      38.196  31.429  30.682  1.00  0.00     0.074 A 
ATOM     44  C   UNL A   1      37.805  32.955  32.587  1.00  0.00     0.049 A 
ATOM     45  N   UNL A   1      39.197  30.714  31.129  1.00  0.00    -0.248 NA
ATOM     46  C   UNL A   1      37.726  31.034  29.345  1.00  0.00     0.031 C 
ATOM     47  C   UNL A   1      37.134  34.002  33.358  1.00  0.00     0.029 A 
ATOM     48  N   UNL A   1      38.809  32.522  33.416  1.00  0.00    -0.354 N 
ATOM     49  C   UNL A   1      39.463  29.779  30.137  1.00  0.00     0.074 A 
ATOM     50  C   UNL A   1      38.477  29.973  29.097  1.00  0.00     0.031 C 
ATOM     51  C   UNL A   1      37.766  34.155  34.533  1.00  0.00     0.029 A 
ATOM     52  C   UNL A   1      38.859  33.191  34.614  1.00  0.00     0.049 A 
ATOM     53  H   UNL A   1      39.434  31.801  33.175  1.00  0.00     0.167 HD
ATOM     54  C   UNL A   1      40.456  28.859  30.085  1.00  0.00     0.037 A 
ATOM     55  C   UNL A   1      39.694  33.041  35.660  1.00  0.00     0.037 A 
ATOM     56  C   UNL A   1      41.445  28.685  31.115  1.00  0.00     0.049 A 
ATOM     57  C   UNL A   1      40.781  32.004  35.586  1.00  0.00     0.074 A 
ATOM     58  C   UNL A   1      42.528  27.822  31.137  1.00  0.00     0.029 A 
ATOM     59  N   UNL A   1      41.468  29.385  32.313  1.00  0.00    -0.354 N 
ATOM     60  N   UNL A   1      41.070  31.173  34.614  1.00  0.00    -0.248 NA
ATOM     61  C   UNL A   1      41.665  31.891  36.754  1.00  0.00     0.031 C 
ATOM     62  C   UNL A   1      43.174  27.965  32.369  1.00  0.00     0.029 A 
ATOM     63  C   UNL A   1      42.531  28.957  33.092  1.00  0.00     0.049 A 
ATOM     64  H   UNL A   1      40.823  30.083  32.571  1.00  0.00     0.167 HD
ATOM     65  C   UNL A   1      42.183  30.460  35.038  1.00  0.00     0.074 A 
ATOM     66  C   UNL A   1      42.525  30.966  36.351  1.00  0.00     0.031 C 
ATOM     67  C   UNL A   1      42.860  29.476  34.396  1.00  0.00     0.037 A 
BRANCH  54  68
ATOM     68  C   UNL A   1      40.514  27.976  28.871  1.00  0.00     0.064 A 
ATOM     69  C   UNL A   1      39.812  26.761  28.807  1.00  0.00     0.173 A 
ATOM     70  C   UNL A   1      41.278  28.348  27.754  1.00  0.00     0.173 A 
ATOM     71  F   UNL A   1      39.076  26.352  29.851  1.00  0.00    -0.203 F 
ATOM     72  C   UNL A   1      39.908  25.933  27.691  1.00  0.00     0.198 A 
ATOM     73  C   UNL A   1      41.342  27.534  26.625  1.00  0.00     0.198 A 
ATOM     74  F   UNL A   1      41.964  29.500  27.756  1.00  0.00    -0.203 F 
ATOM     75  F   UNL A   1      39.282  24.748  27.684  1.00  0.00    -0.200 F 
ATOM     76  C   UNL A   1      40.667  26.322  26.600  1.00  0.00     0.200 A 
ATOM     77  F   UNL A   1      42.066  27.918  25.565  1.00  0.00    -0.200 F 
ATOM     78  F   UNL A   1      40.759  25.525  25.527  1.00  0.00    -0.200 F 
ENDBRANCH  54  68
BRANCH  55  79
ATOM     79  C   UNL A   1      39.557  33.925  36.846  1.00  0.00     0.064 A 
ATOM     80  C   UNL A   1      38.807  33.518  37.959  1.00  0.00     0.173 A 
ATOM     81  C   UNL A   1      40.181  35.179  36.903  1.00  0.00     0.173 A 
ATOM     82  F   UNL A   1      38.175  32.335  37.943  1.00  0.00    -0.203 F 
ATOM     83  C   UNL A   1      38.672  34.340  39.075  1.00  0.00     0.198 A 
ATOM     84  C   UNL A   1      40.069  35.988  38.032  1.00  0.00     0.198 A 
ATOM     85  F   UNL A   1      40.915  35.612  35.868  1.00  0.00    -0.203 F 
ATOM     86  F   UNL A   1      37.916  33.943  40.108  1.00  0.00    -0.200 F 
ATOM     87  C   UNL A   1      39.309  35.571  39.115  1.00  0.00     0.200 A 
ATOM     88  F   UNL A   1      40.697  37.171  38.072  1.00  0.00    -0.200 F 
ATOM     89  F   UNL A   1      39.187  36.357  40.193  1.00  0.00    -0.200 F 
ENDBRANCH  55  79
BRANCH  67  90
ATOM     90  C   UNL A   1      44.065  28.908  35.089  1.00  0.00     0.064 A 
ATOM     91  C   UNL A   1      43.975  27.788  35.929  1.00  0.00     0.173 A 
ATOM     92  C   UNL A   1      45.334  29.471  34.879  1.00  0.00     0.173 A 
ATOM     93  F   UNL A   1      42.784  27.222  36.175  1.00  0.00    -0.203 F 
ATOM     94  C   UNL A   1      45.107  27.270  36.554  1.00  0.00     0.198 A 
ATOM     95  C   UNL A   1      46.467  28.930  35.479  1.00  0.00     0.198 A 
ATOM     96  F   UNL A   1      45.477  30.538  34.079  1.00  0.00    -0.203 F 
ATOM     97  F   UNL A   1      44.990  26.230  37.392  1.00  0.00    -0.200 F 
ATOM     98  C   UNL A   1      46.352  27.835  36.322  1.00  0.00     0.200 A 
ATOM     99  F   UNL A   1      47.671  29.468  35.242  1.00  0.00    -0.200 F 
ATOM    100  F   UNL A   1      47.440  27.329  36.919  1.00  0.00    -0.200 F 
ENDBRANCH  67  90
ENDBRANCH  41  42
ENDBRANCH  33  36
ENDBRANCH  31  32
ENDBRANCH  30  31
ENDBRANCH   1  30
TORSDOF 17
ENDMDL
MODEL 3
REMARK VINA RESULT:     -12.0      4.363      8.068
REMARK SMILES C[C@H](O)C[NH2+][C@H](CC(=O)Nc1cccc2ccccc12)C(=O)NCCCNC(=O)c1ccc(-c2c3nc(c(-c4c(F)c(F)c(F)c(F)c4F)c4ccc([nH]4)c(-c4c(F)c(F)c(F)c(F)c4F)c4nc(c(-c5c(F)c(F)c(F)c(F)c5F)c5ccc2[nH]5)C=C4)C=C3)cc1
REMARK SMILES IDX 24 1 23 2 21 3 22 4 6 6 5 7 4 10 2 11 1 12 3 13 7 15 8 16
REMARK SMILES IDX 9 17 10 18 11 20 12 21 20 22 13 23 15 24 19 25 14 26 16 27
REMARK SMILES IDX 18 28 17 29 25 30 26 31 27 32 28 33 29 35 30 36 31 37 92 38
REMARK SMILES IDX 32 39 91 40 33 41 34 42 35 43 85 44 36 45 90 46 84 47 86 48
REMARK SMILES IDX 37 49 89 50 83 51 82 52 38 54 70 55 50 56 69 57 51 58 54 59
REMARK SMILES IDX 68 60 87 61 52 62 53 63 67 65 88 66 55 67 39 68 40 69 48 70
REMARK SMILES IDX 41 71 42 72 46 73 49 74 43 75 44 76 47 77 45 78 71 79 72 80
REMARK SMILES IDX 80 81 73 82 74 83 78 84 81 85 75 86 76 87 79 88 77 89 56 90
REMARK SMILES IDX 57 91 65 92 58 93 59 94 63 95 66 96 60 97 61 98 64 99 62 100
REMARK H PARENT 23 5 5 8 5 9 3 14 10 19 27 34 86 53 54 64
REMARK Flexibility Score: inf
ROOT
ATOM      1  C   UNL A   1      31.609  30.788  26.619  1.00  0.00     0.118 C 
ENDROOT
BRANCH   1   2
ATOM      2  N   UNL A   1      32.892  30.252  27.037  1.00  0.00    -0.351 N 
ATOM      3  C   UNL A   1      33.652  29.268  26.487  1.00  0.00     0.278 C 
ATOM      4  O   UNL A   1      34.763  29.051  26.977  1.00  0.00    -0.268 OA
ATOM      5  H   UNL A   1      33.272  30.666  27.845  1.00  0.00     0.163 HD
BRANCH   3   6
ATOM      6  C   UNL A   1      33.142  28.438  25.295  1.00  0.00     0.282 C 
BRANCH   6   7
ATOM      7  N   UNL A   1      33.797  27.104  25.323  1.00  0.00    -0.333 N 
ATOM      8  H   UNL A   1      33.866  26.757  24.366  1.00  0.00     0.347 HD
ATOM      9  H   UNL A   1      34.712  27.227  25.757  1.00  0.00     0.347 HD
BRANCH   7  10
ATOM     10  C   UNL A   1      33.069  26.111  26.126  1.00  0.00     0.292 C 
BRANCH  10  11
ATOM     11  C   UNL A   1      33.387  24.700  25.593  1.00  0.00     0.166 C 
ATOM     12  C   UNL A   1      34.043  24.757  24.224  1.00  0.00     0.044 C 
BRANCH  11  13
ATOM     13  O   UNL A   1      32.179  23.944  25.474  1.00  0.00    -0.388 OA
ATOM     14  H   UNL A   1      32.389  22.998  25.464  1.00  0.00     0.211 HD
ENDBRANCH  11  13
ENDBRANCH  10  11
ENDBRANCH   7  10
ENDBRANCH   6   7
BRANCH   6  15
ATOM     15  C   UNL A   1      33.182  29.217  23.978  1.00  0.00     0.175 C 
BRANCH  15  16
ATOM     16  C   UNL A   1      33.162  28.388  22.698  1.00  0.00     0.230 C 
ATOM     17  O   UNL A   1      34.179  28.307  21.999  1.00  0.00    -0.274 OA
ATOM     18  N   UNL A   1      32.116  27.599  22.331  1.00  0.00    -0.325 N 
ATOM     19  H   UNL A   1      32.310  27.014  21.563  1.00  0.00     0.169 HD
BRANCH  18  20
ATOM     20  C   UNL A   1      30.811  27.456  22.835  1.00  0.00     0.049 A 
ATOM     21  C   UNL A   1      30.468  26.360  23.624  1.00  0.00     0.027 A 
ATOM     22  C   UNL A   1      29.857  28.492  22.631  1.00  0.00     0.005 A 
ATOM     23  C   UNL A   1      29.174  26.177  24.093  1.00  0.00     0.003 A 
ATOM     24  C   UNL A   1      28.541  28.303  23.126  1.00  0.00    -0.016 A 
ATOM     25  C   UNL A   1      30.130  29.703  21.948  1.00  0.00     0.011 A 
ATOM     26  C   UNL A   1      28.208  27.133  23.821  1.00  0.00     0.009 A 
ATOM     27  C   UNL A   1      27.566  29.294  22.935  1.00  0.00     0.009 A 
ATOM     28  C   UNL A   1      29.155  30.690  21.786  1.00  0.00     0.001 A 
ATOM     29  C   UNL A   1      27.873  30.483  22.277  1.00  0.00     0.001 A 
ENDBRANCH  18  20
ENDBRANCH  15  16
ENDBRANCH   6  15
ENDBRANCH   3   6
ENDBRANCH   1   2
BRANCH   1  30
ATOM     30  C   UNL A   1      31.469  32.287  26.850  1.00  0.00     0.042 C 
BRANCH  30  31
ATOM     31  C   UNL A   1      32.764  32.982  27.233  1.00  0.00     0.118 C 
BRANCH  31  32
ATOM     32  N   UNL A   1      32.531  34.355  27.665  1.00  0.00    -0.352 N 
ATOM     33  C   UNL A   1      33.030  35.013  28.757  1.00  0.00     0.251 C 
ATOM     34  H   UNL A   1      31.931  34.884  27.091  1.00  0.00     0.163 HD
ATOM     35  O   UNL A   1      32.529  36.077  29.123  1.00  0.00    -0.269 OA
BRANCH  33  36
ATOM     36  C   UNL A   1      34.165  34.438  29.505  1.00  0.00     0.039 A 
ATOM     37  C   UNL A   1      33.921  33.765  30.704  1.00  0.00     0.014 A 
ATOM     38  C   UNL A   1      35.470  34.569  29.023  1.00  0.00     0.014 A 
ATOM     39  C   UNL A   1      34.983  33.177  31.392  1.00  0.00     0.010 A 
ATOM     40  C   UNL A   1      36.511  33.904  29.658  1.00  0.00     0.010 A 
ATOM     41  C   UNL A   1      36.282  33.216  30.859  1.00  0.00    -0.014 A 
BRANCH  41  42
ATOM     42  C   UNL A   1      37.422  32.569  31.554  1.00  0.00     0.031 A 
ATOM     43  C   UNL A   1      38.142  31.420  30.905  1.00  0.00     0.074 A 
ATOM     44  C   UNL A   1      37.770  32.976  32.790  1.00  0.00     0.049 A 
ATOM     45  N   UNL A   1      39.124  30.688  31.368  1.00  0.00    -0.248 NA
ATOM     46  C   UNL A   1      37.675  31.019  29.569  1.00  0.00     0.031 C 
ATOM     47  C   UNL A   1      37.116  34.046  33.543  1.00  0.00     0.029 A 
ATOM     48  N   UNL A   1      38.758  32.531  33.631  1.00  0.00    -0.354 N 
ATOM     49  C   UNL A   1      39.378  29.736  30.389  1.00  0.00     0.074 A 
ATOM     50  C   UNL A   1      38.404  29.940  29.339  1.00  0.00     0.031 C 
ATOM     51  C   UNL A   1      37.742  34.198  34.721  1.00  0.00     0.029 A 
ATOM     52  C   UNL A   1      38.813  33.211  34.822  1.00  0.00     0.049 A 
ATOM     53  H   UNL A   1      39.369  31.793  33.404  1.00  0.00     0.167 HD
ATOM     54  C   UNL A   1      40.351  28.795  30.355  1.00  0.00     0.037 A 
ATOM     55  C   UNL A   1      39.637  33.056  35.876  1.00  0.00     0.037 A 
ATOM     56  C   UNL A   1      41.328  28.611  31.395  1.00  0.00     0.049 A 
ATOM     57  C   UNL A   1      40.701  31.995  35.823  1.00  0.00     0.074 A 
ATOM     58  C   UNL A   1      42.391  27.726  31.436  1.00  0.00     0.029 A 
ATOM     59  N   UNL A   1      41.356  29.324  32.585  1.00  0.00    -0.354 N 
ATOM     60  N   UNL A   1      40.979  31.146  34.863  1.00  0.00    -0.248 NA
ATOM     61  C   UNL A   1      41.574  31.877  36.999  1.00  0.00     0.031 C 
ATOM     62  C   UNL A   1      43.031  27.868  32.671  1.00  0.00     0.029 A 
ATOM     63  C   UNL A   1      42.404  28.882  33.378  1.00  0.00     0.049 A 
ATOM     64  H   UNL A   1      40.725  30.039  32.830  1.00  0.00     0.167 HD
ATOM     65  C   UNL A   1      42.073  30.415  35.303  1.00  0.00     0.074 A 
ATOM     66  C   UNL A   1      42.416  30.929  36.613  1.00  0.00     0.031 C 
ATOM     67  C   UNL A   1      42.734  29.409  34.678  1.00  0.00     0.037 A 
BRANCH  54  68
ATOM     68  C   UNL A   1      40.399  27.897  29.152  1.00  0.00     0.064 A 
ATOM     69  C   UNL A   1      39.663  26.702  29.092  1.00  0.00     0.173 A 
ATOM     70  C   UNL A   1      41.187  28.234  28.041  1.00  0.00     0.173 A 
ATOM     71  F   UNL A   1      38.903  26.325  30.131  1.00  0.00    -0.203 F 
ATOM     72  C   UNL A   1      39.750  25.858  27.987  1.00  0.00     0.198 A 
ATOM     73  C   UNL A   1      41.242  27.406  26.922  1.00  0.00     0.198 A 
ATOM     74  F   UNL A   1      41.906  29.366  28.039  1.00  0.00    -0.203 F 
ATOM     75  F   UNL A   1      39.091  24.692  27.984  1.00  0.00    -0.200 F 
ATOM     76  C   UNL A   1      40.534  26.214  26.901  1.00  0.00     0.200 A 
ATOM     77  F   UNL A   1      41.990  27.757  25.867  1.00  0.00    -0.200 F 
ATOM     78  F   UNL A   1      40.616  25.402  25.838  1.00  0.00    -0.200 F 
ENDBRANCH  54  68
BRANCH  55  79
ATOM     79  C   UNL A   1      39.510  33.956  37.051  1.00  0.00     0.064 A 
ATOM     80  C   UNL A   1      38.754  33.573  38.168  1.00  0.00     0.173 A 
ATOM     81  C   UNL A   1      40.148  35.203  37.093  1.00  0.00     0.173 A 
ATOM     82  F   UNL A   1      38.108  32.397  38.167  1.00  0.00    -0.203 F 
ATOM     83  C   UNL A   1      38.628  34.410  39.274  1.00  0.00     0.198 A 
ATOM     84  C   UNL A   1      40.046  36.028  38.212  1.00  0.00     0.198 A 
ATOM     85  F   UNL A   1      40.889  35.615  36.053  1.00  0.00    -0.203 F 
ATOM     86  F   UNL A   1      37.867  34.035  40.311  1.00  0.00    -0.200 F 
ATOM     87  C   UNL A   1      39.280  35.633  39.299  1.00  0.00     0.200 A 
ATOM     88  F   UNL A   1      40.689  37.203  38.238  1.00  0.00    -0.200 F 
ATOM     89  F   UNL A   1      39.167  36.434  40.367  1.00  0.00    -0.200 F 
ENDBRANCH  55  79
BRANCH  67  90
ATOM     90  C   UNL A   1      43.921  28.823  35.387  1.00  0.00     0.064 A 
ATOM     91  C   UNL A   1      45.219  29.318  35.191  1.00  0.00     0.173 A 
ATOM     92  C   UNL A   1      43.750  27.773  36.305  1.00  0.00     0.173 A 
ATOM     93  F   UNL A   1      45.438  30.309  34.315  1.00  0.00    -0.203 F 
ATOM     94  C   UNL A   1      46.305  28.766  35.867  1.00  0.00     0.198 A 
ATOM     95  C   UNL A   1      44.834  27.247  37.002  1.00  0.00     0.198 A 
ATOM     96  F   UNL A   1      42.529  27.268  36.535  1.00  0.00    -0.203 F 
ATOM     97  F   UNL A   1      47.542  29.222  35.626  1.00  0.00    -0.200 F 
ATOM     98  C   UNL A   1      46.110  27.738  36.777  1.00  0.00     0.200 A 
ATOM     99  F   UNL A   1      44.642  26.264  37.892  1.00  0.00    -0.200 F 
ATOM    100  F   UNL A   1      47.156  27.214  37.431  1.00  0.00    -0.200 F 
ENDBRANCH  67  90
ENDBRANCH  41  42
ENDBRANCH  33  36
ENDBRANCH  31  32
ENDBRANCH  30  31
ENDBRANCH   1  30
TORSDOF 17
ENDMDL
