MODEL 1
REMARK VINA RESULT:     -12.9      0.000      0.000
REMARK SMILES O=C(NCc1ccc(C(=O)NCCCNC(=O)c2ccc(-c3c4nc(c(-c5c(F)c(F)c(F)c(F)c5F)c5ccc([nH]5)c(-c5c(F)c(F)c(F)c(F)c5F)c5nc(c(-c6c(F)c(F)c(F)c(F)c6F)c6ccc3[nH]6)C=C5)C=C4)cc2)cc1)Nc1ccccc1Br
REMARK SMILES IDX 12 1 11 2 9 3 10 4 8 6 5 7 6 8 82 9 7 10 81 11 4 12 3 13
REMARK SMILES IDX 1 14 2 15 83 16 84 19 85 20 89 21 86 22 88 23 90 24 87 25
REMARK SMILES IDX 13 26 14 27 15 28 16 29 17 31 18 32 19 33 80 34 20 35 79 36
REMARK SMILES IDX 21 37 22 38 23 39 73 40 24 41 78 42 72 43 74 44 25 45 77 46
REMARK SMILES IDX 71 47 70 48 26 50 58 51 38 52 57 53 39 54 42 55 56 56 75 57
REMARK SMILES IDX 40 58 41 59 55 61 76 62 43 63 27 64 28 65 36 66 29 67 30 68
REMARK SMILES IDX 34 69 37 70 31 71 32 72 35 73 33 74 59 75 60 76 68 77 61 78
REMARK SMILES IDX 62 79 66 80 69 81 63 82 64 83 67 84 65 85 44 86 45 87 53 88
REMARK SMILES IDX 46 89 47 90 51 91 54 92 48 93 49 94 52 95 50 96
REMARK H PARENT 11 5 3 17 83 18 15 30 74 49 42 60
REMARK Flexibility Score: inf
ROOT
ATOM      1  C   UNL A   1      31.506  30.892  26.206  1.00  0.00     0.118 C 
ENDROOT
BRANCH   1   2
ATOM      2  N   UNL A   1      32.562  30.227  26.952  1.00  0.00    -0.352 N 
ATOM      3  C   UNL A   1      33.075  28.958  26.849  1.00  0.00     0.251 C 
ATOM      4  O   UNL A   1      34.064  28.666  27.517  1.00  0.00    -0.269 OA
ATOM      5  H   UNL A   1      32.980  30.781  27.650  1.00  0.00     0.163 HD
BRANCH   3   6
ATOM      6  C   UNL A   1      32.501  27.947  25.927  1.00  0.00     0.039 A 
ATOM      7  C   UNL A   1      31.315  26.000  24.271  1.00  0.00    -0.029 A 
ATOM      8  C   UNL A   1      30.878  26.172  25.592  1.00  0.00     0.006 A 
ATOM      9  C   UNL A   1      32.326  26.837  23.779  1.00  0.00     0.006 A 
ATOM     10  C   UNL A   1      31.462  27.143  26.410  1.00  0.00     0.014 A 
ATOM     11  C   UNL A   1      32.903  27.813  24.597  1.00  0.00     0.014 A 
BRANCH   7  12
ATOM     12  C   UNL A   1      30.709  24.935  23.394  1.00  0.00     0.153 C 
BRANCH  12  13
ATOM     13  N   UNL A   1      31.685  24.411  22.463  1.00  0.00    -0.334 N 
ATOM     14  O   UNL A   1      33.425  23.273  21.691  1.00  0.00    -0.248 OA
ATOM     15  C   UNL A   1      32.664  23.483  22.630  1.00  0.00     0.319 C 
ATOM     16  N   UNL A   1      32.666  22.814  23.820  1.00  0.00    -0.307 N 
ATOM     17  H   UNL A   1      31.632  24.792  21.557  1.00  0.00     0.165 HD
ATOM     18  H   UNL A   1      31.883  22.933  24.405  1.00  0.00     0.171 HD
BRANCH  16  19
ATOM     19  C   UNL A   1      33.697  21.964  24.281  1.00  0.00     0.057 A 
ATOM     20  C   UNL A   1      33.398  20.591  24.278  1.00  0.00     0.027 A 
ATOM     21  C   UNL A   1      34.955  22.376  24.756  1.00  0.00     0.041 A 
ATOM     22  C   UNL A   1      34.353  19.644  24.656  1.00  0.00     0.002 A 
ATOM     23  C   UNL A   1      35.911  21.419  25.128  1.00  0.00     0.018 A 
ATOM     24  Br  UNL A   1      35.402  24.183  25.158  1.00  0.00    -0.049 Br
ATOM     25  C   UNL A   1      35.616  20.058  25.065  1.00  0.00     0.001 A 
ENDBRANCH  16  19
ENDBRANCH  12  13
ENDBRANCH   7  12
ENDBRANCH   3   6
ENDBRANCH   1   2
BRANCH   1  26
ATOM     26  C   UNL A   1      31.385  32.366  26.591  1.00  0.00     0.042 C 
BRANCH  26  27
ATOM     27  C   UNL A   1      32.617  32.928  27.296  1.00  0.00     0.118 C 
BRANCH  27  28
ATOM     28  N   UNL A   1      32.455  34.327  27.654  1.00  0.00    -0.352 N 
ATOM     29  C   UNL A   1      33.034  35.057  28.659  1.00  0.00     0.251 C 
ATOM     30  H   UNL A   1      31.831  34.830  27.082  1.00  0.00     0.163 HD
ATOM     31  O   UNL A   1      32.611  36.186  28.893  1.00  0.00    -0.269 OA
BRANCH  29  32
ATOM     32  C   UNL A   1      34.153  34.519  29.472  1.00  0.00     0.039 A 
ATOM     33  C   UNL A   1      35.445  34.584  28.936  1.00  0.00     0.014 A 
ATOM     34  C   UNL A   1      33.944  33.866  30.690  1.00  0.00     0.014 A 
ATOM     35  C   UNL A   1      36.520  34.006  29.617  1.00  0.00     0.010 A 
ATOM     36  C   UNL A   1      35.027  33.339  31.398  1.00  0.00     0.010 A 
ATOM     37  C   UNL A   1      36.320  33.378  30.855  1.00  0.00    -0.014 A 
BRANCH  37  38
ATOM     38  C   UNL A   1      37.444  32.697  31.549  1.00  0.00     0.031 A 
ATOM     39  C   UNL A   1      38.164  31.559  30.875  1.00  0.00     0.074 A 
ATOM     40  C   UNL A   1      37.803  33.080  32.789  1.00  0.00     0.049 A 
ATOM     41  N   UNL A   1      39.143  30.814  31.325  1.00  0.00    -0.248 NA
ATOM     42  C   UNL A   1      37.707  31.194  29.525  1.00  0.00     0.031 C 
ATOM     43  C   UNL A   1      37.160  34.138  33.568  1.00  0.00     0.029 A 
ATOM     44  N   UNL A   1      38.796  32.615  33.616  1.00  0.00    -0.354 N 
ATOM     45  C   UNL A   1      39.396  29.879  30.329  1.00  0.00     0.074 A 
ATOM     46  C   UNL A   1      38.452  30.129  29.263  1.00  0.00     0.031 C 
ATOM     47  C   UNL A   1      37.781  34.249  34.754  1.00  0.00     0.029 A 
ATOM     48  C   UNL A   1      38.853  33.260  34.826  1.00  0.00     0.049 A 
ATOM     49  H   UNL A   1      39.409  31.886  33.364  1.00  0.00     0.167 HD
ATOM     50  C   UNL A   1      40.344  28.912  30.299  1.00  0.00     0.037 A 
ATOM     51  C   UNL A   1      39.681  33.076  35.872  1.00  0.00     0.037 A 
ATOM     52  C   UNL A   1      41.320  28.696  31.333  1.00  0.00     0.049 A 
ATOM     53  C   UNL A   1      40.770  32.043  35.780  1.00  0.00     0.074 A 
ATOM     54  C   UNL A   1      42.354  27.776  31.368  1.00  0.00     0.029 A 
ATOM     55  N   UNL A   1      41.390  29.422  32.512  1.00  0.00    -0.354 N 
ATOM     56  N   UNL A   1      41.035  31.205  34.808  1.00  0.00    -0.248 NA
ATOM     57  C   UNL A   1      41.688  31.943  36.924  1.00  0.00     0.031 C 
ATOM     58  C   UNL A   1      43.039  27.931  32.578  1.00  0.00     0.029 A 
ATOM     59  C   UNL A   1      42.451  28.972  33.280  1.00  0.00     0.049 A 
ATOM     60  H   UNL A   1      40.778  30.150  32.764  1.00  0.00     0.167 HD
ATOM     61  C   UNL A   1      42.166  30.504  35.205  1.00  0.00     0.074 A 
ATOM     62  C   UNL A   1      42.544  31.022  36.503  1.00  0.00     0.031 C 
ATOM     63  C   UNL A   1      42.830  29.519  34.555  1.00  0.00     0.037 A 
BRANCH  50  64
ATOM     64  C   UNL A   1      40.380  28.011  29.100  1.00  0.00     0.064 A 
ATOM     65  C   UNL A   1      39.634  26.825  29.052  1.00  0.00     0.173 A 
ATOM     66  C   UNL A   1      41.128  28.365  27.966  1.00  0.00     0.173 A 
ATOM     67  F   UNL A   1      38.913  26.437  30.115  1.00  0.00    -0.203 F 
ATOM     68  C   UNL A   1      39.649  26.015  27.918  1.00  0.00     0.198 A 
ATOM     69  C   UNL A   1      41.120  27.566  26.827  1.00  0.00     0.198 A 
ATOM     70  F   UNL A   1      41.853  29.493  27.961  1.00  0.00    -0.203 F 
ATOM     71  F   UNL A   1      38.956  24.869  27.907  1.00  0.00    -0.200 F 
ATOM     72  C   UNL A   1      40.385  26.390  26.805  1.00  0.00     0.200 A 
ATOM     73  F   UNL A   1      41.824  27.935  25.747  1.00  0.00    -0.200 F 
ATOM     74  F   UNL A   1      40.390  25.616  25.711  1.00  0.00    -0.200 F 
ENDBRANCH  50  64
BRANCH  51  75
ATOM     75  C   UNL A   1      39.540  33.917  37.088  1.00  0.00     0.064 A 
ATOM     76  C   UNL A   1      38.816  33.460  38.199  1.00  0.00     0.173 A 
ATOM     77  C   UNL A   1      40.103  35.198  37.156  1.00  0.00     0.173 A 
ATOM     78  F   UNL A   1      38.241  32.248  38.170  1.00  0.00    -0.203 F 
ATOM     79  C   UNL A   1      38.638  34.264  39.322  1.00  0.00     0.198 A 
ATOM     80  C   UNL A   1      39.945  35.992  38.291  1.00  0.00     0.198 A 
ATOM     81  F   UNL A   1      40.808  35.678  36.122  1.00  0.00    -0.203 F 
ATOM     82  F   UNL A   1      37.899  33.822  40.349  1.00  0.00    -0.200 F 
ATOM     83  C   UNL A   1      39.206  35.528  39.369  1.00  0.00     0.200 A 
ATOM     84  F   UNL A   1      40.503  37.209  38.337  1.00  0.00    -0.200 F 
ATOM     85  F   UNL A   1      39.031  36.303  40.447  1.00  0.00    -0.200 F 
ENDBRANCH  51  75
BRANCH  63  86
ATOM     86  C   UNL A   1      44.063  28.975  35.211  1.00  0.00     0.064 A 
ATOM     87  C   UNL A   1      44.004  27.909  36.120  1.00  0.00     0.173 A 
ATOM     88  C   UNL A   1      45.322  29.511  34.902  1.00  0.00     0.173 A 
ATOM     89  F   UNL A   1      42.821  27.374  36.456  1.00  0.00    -0.203 F 
ATOM     90  C   UNL A   1      45.161  27.415  36.717  1.00  0.00     0.198 A 
ATOM     91  C   UNL A   1      46.479  29.000  35.483  1.00  0.00     0.198 A 
ATOM     92  F   UNL A   1      45.431  30.528  34.033  1.00  0.00    -0.203 F 
ATOM     93  F   UNL A   1      45.078  26.426  37.617  1.00  0.00    -0.200 F 
ATOM     94  C   UNL A   1      46.396  27.957  36.395  1.00  0.00     0.200 A 
ATOM     95  F   UNL A   1      47.673  29.518  35.165  1.00  0.00    -0.200 F 
ATOM     96  F   UNL A   1      47.508  27.481  36.971  1.00  0.00    -0.200 F 
ENDBRANCH  63  86
ENDBRANCH  37  38
ENDBRANCH  29  32
ENDBRANCH  27  28
ENDBRANCH  26  27
ENDBRANCH   1  26
TORSDOF 13
ENDMDL
MODEL 2
REMARK VINA RESULT:     -12.8      4.555     10.567
REMARK SMILES O=C(NCc1ccc(C(=O)NCCCNC(=O)c2ccc(-c3c4nc(c(-c5c(F)c(F)c(F)c(F)c5F)c5ccc([nH]5)c(-c5c(F)c(F)c(F)c(F)c5F)c5nc(c(-c6c(F)c(F)c(F)c(F)c6F)c6ccc3[nH]6)C=C5)C=C4)cc2)cc1)Nc1ccccc1Br
REMARK SMILES IDX 12 1 11 2 9 3 10 4 8 6 5 7 6 8 82 9 7 10 81 11 4 12 3 13
REMARK SMILES IDX 1 14 2 15 83 16 84 19 85 20 89 21 86 22 88 23 90 24 87 25
REMARK SMILES IDX 13 26 14 27 15 28 16 29 17 31 18 32 19 33 80 34 20 35 79 36
REMARK SMILES IDX 21 37 22 38 23 39 73 40 24 41 78 42 72 43 74 44 25 45 77 46
REMARK SMILES IDX 71 47 70 48 26 50 58 51 38 52 57 53 39 54 42 55 56 56 75 57
REMARK SMILES IDX 40 58 41 59 55 61 76 62 43 63 27 64 28 65 36 66 29 67 30 68
REMARK SMILES IDX 34 69 37 70 31 71 32 72 35 73 33 74 59 75 60 76 68 77 61 78
REMARK SMILES IDX 62 79 66 80 69 81 63 82 64 83 67 84 65 85 44 86 45 87 53 88
REMARK SMILES IDX 46 89 47 90 51 91 54 92 48 93 49 94 52 95 50 96
REMARK H PARENT 11 5 3 17 83 18 15 30 74 49 42 60
REMARK Flexibility Score: inf
ROOT
ATOM      1  C   UNL A   1      35.969  33.766  30.205  1.00  0.00     0.118 C 
ENDROOT
BRANCH   1   2
ATOM      2  N   UNL A   1      35.692  34.640  31.333  1.00  0.00    -0.352 N 
ATOM      3  C   UNL A   1      36.187  34.640  32.614  1.00  0.00     0.251 C 
ATOM      4  O   UNL A   1      35.890  35.570  33.360  1.00  0.00    -0.269 OA
ATOM      5  H   UNL A   1      35.039  35.353  31.147  1.00  0.00     0.163 HD
BRANCH   3   6
ATOM      6  C   UNL A   1      37.100  33.579  33.107  1.00  0.00     0.039 A 
ATOM      7  C   UNL A   1      38.734  31.474  34.019  1.00  0.00    -0.029 A 
ATOM      8  C   UNL A   1      37.393  31.240  33.687  1.00  0.00     0.006 A 
ATOM      9  C   UNL A   1      39.256  32.764  33.855  1.00  0.00     0.006 A 
ATOM     10  C   UNL A   1      36.585  32.284  33.228  1.00  0.00     0.014 A 
ATOM     11  C   UNL A   1      38.449  33.805  33.389  1.00  0.00     0.014 A 
BRANCH   7  12
ATOM     12  C   UNL A   1      39.602  30.358  34.542  1.00  0.00     0.153 C 
BRANCH  12  13
ATOM     13  N   UNL A   1      40.163  29.583  33.457  1.00  0.00    -0.334 N 
ATOM     14  O   UNL A   1      41.340  28.030  32.398  1.00  0.00    -0.248 OA
ATOM     15  C   UNL A   1      40.911  28.448  33.469  1.00  0.00     0.319 C 
ATOM     16  N   UNL A   1      41.060  27.836  34.680  1.00  0.00    -0.307 N 
ATOM     17  H   UNL A   1      39.971  29.938  32.558  1.00  0.00     0.165 HD
ATOM     18  H   UNL A   1      40.501  28.161  35.422  1.00  0.00     0.171 HD
BRANCH  16  19
ATOM     19  C   UNL A   1      41.950  26.773  34.957  1.00  0.00     0.057 A 
ATOM     20  C   UNL A   1      41.352  25.579  35.394  1.00  0.00     0.027 A 
ATOM     21  C   UNL A   1      43.353  26.825  34.858  1.00  0.00     0.041 A 
ATOM     22  C   UNL A   1      42.118  24.439  35.645  1.00  0.00     0.002 A 
ATOM     23  C   UNL A   1      44.115  25.673  35.106  1.00  0.00     0.018 A 
ATOM     24  Br  UNL A   1      44.345  28.433  34.626  1.00  0.00    -0.049 Br
ATOM     25  C   UNL A   1      43.499  24.481  35.484  1.00  0.00     0.001 A 
ENDBRANCH  16  19
ENDBRANCH  12  13
ENDBRANCH   7  12
ENDBRANCH   3   6
ENDBRANCH   1   2
BRANCH   1  26
ATOM     26  C   UNL A   1      34.772  32.876  29.874  1.00  0.00     0.042 C 
BRANCH  26  27
ATOM     27  C   UNL A   1      34.468  32.770  28.382  1.00  0.00     0.118 C 
BRANCH  27  28
ATOM     28  N   UNL A   1      33.715  31.570  28.059  1.00  0.00    -0.352 N 
ATOM     29  C   UNL A   1      34.147  30.295  27.800  1.00  0.00     0.251 C 
ATOM     30  H   UNL A   1      32.739  31.692  28.020  1.00  0.00     0.163 HD
ATOM     31  O   UNL A   1      33.345  29.472  27.367  1.00  0.00    -0.269 OA
BRANCH  29  32
ATOM     32  C   UNL A   1      35.555  29.885  28.026  1.00  0.00     0.039 A 
ATOM     33  C   UNL A   1      35.918  29.460  29.309  1.00  0.00     0.014 A 
ATOM     34  C   UNL A   1      36.538  30.011  27.038  1.00  0.00     0.014 A 
ATOM     35  C   UNL A   1      37.251  29.155  29.600  1.00  0.00     0.010 A 
ATOM     36  C   UNL A   1      37.859  29.652  27.313  1.00  0.00     0.010 A 
ATOM     37  C   UNL A   1      38.234  29.248  28.604  1.00  0.00    -0.014 A 
BRANCH  37  38
ATOM     38  C   UNL A   1      39.663  28.998  28.924  1.00  0.00     0.031 A 
ATOM     39  C   UNL A   1      40.449  30.021  29.700  1.00  0.00     0.074 A 
ATOM     40  C   UNL A   1      40.263  27.869  28.499  1.00  0.00     0.049 A 
ATOM     41  N   UNL A   1      41.712  30.007  30.049  1.00  0.00    -0.248 NA
ATOM     42  C   UNL A   1      39.726  31.231  30.120  1.00  0.00     0.031 C 
ATOM     43  C   UNL A   1      39.626  26.820  27.704  1.00  0.00     0.029 A 
ATOM     44  N   UNL A   1      41.548  27.421  28.673  1.00  0.00    -0.354 N 
ATOM     45  C   UNL A   1      41.938  31.213  30.700  1.00  0.00     0.074 A 
ATOM     46  C   UNL A   1      40.694  31.949  30.674  1.00  0.00     0.031 C 
ATOM     47  C   UNL A   1      40.519  25.845  27.468  1.00  0.00     0.029 A 
ATOM     48  C   UNL A   1      41.794  26.207  28.079  1.00  0.00     0.049 A 
ATOM     49  H   UNL A   1      42.231  27.922  29.176  1.00  0.00     0.167 HD
ATOM     50  C   UNL A   1      43.077  31.659  31.283  1.00  0.00     0.037 A 
ATOM     51  C   UNL A   1      42.920  25.470  28.039  1.00  0.00     0.037 A 
ATOM     52  C   UNL A   1      44.301  30.907  31.358  1.00  0.00     0.049 A 
ATOM     53  C   UNL A   1      44.149  25.958  28.758  1.00  0.00     0.074 A 
ATOM     54  C   UNL A   1      45.492  31.251  31.975  1.00  0.00     0.029 A 
ATOM     55  N   UNL A   1      44.486  29.648  30.808  1.00  0.00    -0.354 N 
ATOM     56  N   UNL A   1      44.332  27.074  29.420  1.00  0.00    -0.248 NA
ATOM     57  C   UNL A   1      45.322  25.073  28.741  1.00  0.00     0.031 C 
ATOM     58  C   UNL A   1      46.404  30.209  31.781  1.00  0.00     0.029 A 
ATOM     59  C   UNL A   1      45.770  29.201  31.073  1.00  0.00     0.049 A 
ATOM     60  H   UNL A   1      43.805  29.146  30.305  1.00  0.00     0.167 HD
ATOM     61  C   UNL A   1      45.623  27.011  29.924  1.00  0.00     0.074 A 
ATOM     62  C   UNL A   1      46.177  25.742  29.502  1.00  0.00     0.031 C 
ATOM     63  C   UNL A   1      46.292  27.924  30.670  1.00  0.00     0.037 A 
BRANCH  50  64
ATOM     64  C   UNL A   1      43.054  33.027  31.898  1.00  0.00     0.064 A 
ATOM     65  C   UNL A   1      43.319  34.176  31.139  1.00  0.00     0.173 A 
ATOM     66  C   UNL A   1      42.712  33.193  33.249  1.00  0.00     0.173 A 
ATOM     67  F   UNL A   1      43.663  34.067  29.848  1.00  0.00    -0.203 F 
ATOM     68  C   UNL A   1      43.260  35.443  31.715  1.00  0.00     0.198 A 
ATOM     69  C   UNL A   1      42.629  34.462  33.814  1.00  0.00     0.198 A 
ATOM     70  F   UNL A   1      42.444  32.125  34.015  1.00  0.00    -0.203 F 
ATOM     71  F   UNL A   1      43.551  36.524  30.981  1.00  0.00    -0.200 F 
ATOM     72  C   UNL A   1      42.908  35.586  33.049  1.00  0.00     0.200 A 
ATOM     73  F   UNL A   1      42.278  34.601  35.100  1.00  0.00    -0.200 F 
ATOM     74  F   UNL A   1      42.840  36.806  33.598  1.00  0.00    -0.200 F 
ENDBRANCH  50  64
BRANCH  51  75
ATOM     75  C   UNL A   1      42.933  24.170  27.322  1.00  0.00     0.064 A 
ATOM     76  C   UNL A   1      42.560  22.986  27.974  1.00  0.00     0.173 A 
ATOM     77  C   UNL A   1      43.339  24.081  25.985  1.00  0.00     0.173 A 
ATOM     78  F   UNL A   1      42.185  23.019  29.262  1.00  0.00    -0.203 F 
ATOM     79  C   UNL A   1      42.618  21.756  27.321  1.00  0.00     0.198 A 
ATOM     80  C   UNL A   1      43.373  22.853  25.325  1.00  0.00     0.198 A 
ATOM     81  F   UNL A   1      43.701  25.186  25.317  1.00  0.00    -0.203 F 
ATOM     82  F   UNL A   1      42.305  20.634  27.982  1.00  0.00    -0.200 F 
ATOM     83  C   UNL A   1      43.022  21.691  25.996  1.00  0.00     0.200 A 
ATOM     84  F   UNL A   1      43.754  22.796  24.041  1.00  0.00    -0.200 F 
ATOM     85  F   UNL A   1      43.082  20.509  25.369  1.00  0.00    -0.200 F 
ENDBRANCH  51  75
BRANCH  63  86
ATOM     86  C   UNL A   1      47.675  27.560  31.120  1.00  0.00     0.064 A 
ATOM     87  C   UNL A   1      48.806  27.882  30.358  1.00  0.00     0.173 A 
ATOM     88  C   UNL A   1      47.869  26.906  32.346  1.00  0.00     0.173 A 
ATOM     89  F   UNL A   1      48.669  28.496  29.172  1.00  0.00    -0.203 F 
ATOM     90  C   UNL A   1      50.083  27.539  30.794  1.00  0.00     0.198 A 
ATOM     91  C   UNL A   1      49.148  26.584  32.790  1.00  0.00     0.198 A 
ATOM     92  F   UNL A   1      46.817  26.582  33.114  1.00  0.00    -0.203 F 
ATOM     93  F   UNL A   1      51.147  27.816  30.029  1.00  0.00    -0.200 F 
ATOM     94  C   UNL A   1      50.252  26.895  32.011  1.00  0.00     0.200 A 
ATOM     95  F   UNL A   1      49.312  25.970  33.970  1.00  0.00    -0.200 F 
ATOM     96  F   UNL A   1      51.482  26.565  32.429  1.00  0.00    -0.200 F 
ENDBRANCH  63  86
ENDBRANCH  37  38
ENDBRANCH  29  32
ENDBRANCH  27  28
ENDBRANCH  26  27
ENDBRANCH   1  26
TORSDOF 13
ENDMDL
MODEL 3
REMARK VINA RESULT:     -12.8      4.644     10.619
REMARK SMILES O=C(NCc1ccc(C(=O)NCCCNC(=O)c2ccc(-c3c4nc(c(-c5c(F)c(F)c(F)c(F)c5F)c5ccc([nH]5)c(-c5c(F)c(F)c(F)c(F)c5F)c5nc(c(-c6c(F)c(F)c(F)c(F)c6F)c6ccc3[nH]6)C=C5)C=C4)cc2)cc1)Nc1ccccc1Br
REMARK SMILES IDX 12 1 11 2 9 3 10 4 8 6 5 7 6 8 82 9 7 10 81 11 4 12 3 13
REMARK SMILES IDX 1 14 2 15 83 16 84 19 85 20 89 21 86 22 88 23 90 24 87 25
REMARK SMILES IDX 13 26 14 27 15 28 16 29 17 31 18 32 19 33 80 34 20 35 79 36
REMARK SMILES IDX 21 37 22 38 23 39 73 40 24 41 78 42 72 43 74 44 25 45 77 46
REMARK SMILES IDX 71 47 70 48 26 50 58 51 38 52 57 53 39 54 42 55 56 56 75 57
REMARK SMILES IDX 40 58 41 59 55 61 76 62 43 63 27 64 28 65 36 66 29 67 30 68
REMARK SMILES IDX 34 69 37 70 31 71 32 72 35 73 33 74 59 75 60 76 68 77 61 78
REMARK SMILES IDX 62 79 66 80 69 81 63 82 64 83 67 84 65 85 44 86 45 87 53 88
REMARK SMILES IDX 46 89 47 90 51 91 54 92 48 93 49 94 52 95 50 96
REMARK H PARENT 11 5 3 17 83 18 15 30 74 49 42 60
REMARK Flexibility Score: inf
ROOT
ATOM      1  C   UNL A   1      36.994  33.761  29.962  1.00  0.00     0.118 C 
ENDROOT
BRANCH   1   2
ATOM      2  N   UNL A   1      36.463  34.512  31.088  1.00  0.00    -0.352 N 
ATOM      3  C   UNL A   1      36.650  34.360  32.439  1.00  0.00     0.251 C 
ATOM      4  O   UNL A   1      36.187  35.209  33.197  1.00  0.00    -0.269 OA
ATOM      5  H   UNL A   1      35.867  35.255  30.839  1.00  0.00     0.163 HD
BRANCH   3   6
ATOM      6  C   UNL A   1      37.430  33.232  33.007  1.00  0.00     0.039 A 
ATOM      7  C   UNL A   1      38.993  31.183  34.143  1.00  0.00    -0.029 A 
ATOM      8  C   UNL A   1      39.398  32.521  34.238  1.00  0.00     0.006 A 
ATOM      9  C   UNL A   1      37.781  30.887  33.505  1.00  0.00     0.006 A 
ATOM     10  C   UNL A   1      38.618  33.538  33.680  1.00  0.00     0.014 A 
ATOM     11  C   UNL A   1      36.998  31.905  32.955  1.00  0.00     0.014 A 
BRANCH   7  12
ATOM     12  C   UNL A   1      39.845  30.080  34.717  1.00  0.00     0.153 C 
BRANCH  12  13
ATOM     13  N   UNL A   1      40.522  29.348  33.669  1.00  0.00    -0.334 N 
ATOM     14  O   UNL A   1      41.804  27.831  32.682  1.00  0.00    -0.248 OA
ATOM     15  C   UNL A   1      41.259  28.206  33.714  1.00  0.00     0.319 C 
ATOM     16  N   UNL A   1      41.266  27.540  34.906  1.00  0.00    -0.307 N 
ATOM     17  H   UNL A   1      40.436  29.744  32.771  1.00  0.00     0.165 HD
ATOM     18  H   UNL A   1      40.627  27.838  35.594  1.00  0.00     0.171 HD
BRANCH  16  19
ATOM     19  C   UNL A   1      42.113  26.456  35.234  1.00  0.00     0.057 A 
ATOM     20  C   UNL A   1      41.466  25.239  35.501  1.00  0.00     0.027 A 
ATOM     21  C   UNL A   1      43.515  26.509  35.339  1.00  0.00     0.041 A 
ATOM     22  C   UNL A   1      42.195  24.081  35.781  1.00  0.00     0.002 A 
ATOM     23  C   UNL A   1      44.240  25.340  35.615  1.00  0.00     0.018 A 
ATOM     24  Br  UNL A   1      44.522  28.125  35.359  1.00  0.00    -0.049 Br
ATOM     25  C   UNL A   1      43.584  24.128  35.821  1.00  0.00     0.001 A 
ENDBRANCH  16  19
ENDBRANCH  12  13
ENDBRANCH   7  12
ENDBRANCH   3   6
ENDBRANCH   1   2
BRANCH   1  26
ATOM     26  C   UNL A   1      35.897  33.383  28.968  1.00  0.00     0.042 C 
BRANCH  26  27
ATOM     27  C   UNL A   1      34.679  32.721  29.607  1.00  0.00     0.118 C 
BRANCH  27  28
ATOM     28  N   UNL A   1      34.015  31.800  28.700  1.00  0.00    -0.352 N 
ATOM     29  C   UNL A   1      34.511  30.728  28.005  1.00  0.00     0.251 C 
ATOM     30  H   UNL A   1      33.055  31.973  28.564  1.00  0.00     0.163 HD
ATOM     31  O   UNL A   1      33.809  30.197  27.149  1.00  0.00    -0.269 OA
BRANCH  29  32
ATOM     32  C   UNL A   1      35.873  30.195  28.257  1.00  0.00     0.039 A 
ATOM     33  C   UNL A   1      36.161  29.704  29.536  1.00  0.00     0.014 A 
ATOM     34  C   UNL A   1      36.892  30.267  27.301  1.00  0.00     0.014 A 
ATOM     35  C   UNL A   1      37.455  29.280  29.854  1.00  0.00     0.010 A 
ATOM     36  C   UNL A   1      38.170  29.790  27.601  1.00  0.00     0.010 A 
ATOM     37  C   UNL A   1      38.471  29.320  28.888  1.00  0.00    -0.014 A 
BRANCH  37  38
ATOM     38  C   UNL A   1      39.865  28.941  29.239  1.00  0.00     0.031 A 
ATOM     39  C   UNL A   1      40.707  29.868  30.074  1.00  0.00     0.074 A 
ATOM     40  C   UNL A   1      40.383  27.782  28.791  1.00  0.00     0.049 A 
ATOM     41  N   UNL A   1      41.953  29.738  30.458  1.00  0.00    -0.248 NA
ATOM     42  C   UNL A   1      40.073  31.120  30.517  1.00  0.00     0.031 C 
ATOM     43  C   UNL A   1      39.688  26.817  27.940  1.00  0.00     0.029 A 
ATOM     44  N   UNL A   1      41.622  27.222  28.986  1.00  0.00    -0.354 N 
ATOM     45  C   UNL A   1      42.257  30.899  31.159  1.00  0.00     0.074 A 
ATOM     46  C   UNL A   1      41.078  31.736  31.124  1.00  0.00     0.031 C 
ATOM     47  C   UNL A   1      40.505  25.779  27.694  1.00  0.00     0.029 A 
ATOM     48  C   UNL A   1      41.786  26.013  28.355  1.00  0.00     0.049 A 
ATOM     49  H   UNL A   1      42.327  27.648  29.525  1.00  0.00     0.167 HD
ATOM     50  C   UNL A   1      43.409  31.228  31.790  1.00  0.00     0.037 A 
ATOM     51  C   UNL A   1      42.849  25.188  28.320  1.00  0.00     0.037 A 
ATOM     52  C   UNL A   1      44.564  30.376  31.873  1.00  0.00     0.049 A 
ATOM     53  C   UNL A   1      44.090  25.547  29.091  1.00  0.00     0.074 A 
ATOM     54  C   UNL A   1      45.759  30.600  32.535  1.00  0.00     0.029 A 
ATOM     55  N   UNL A   1      44.663  29.125  31.282  1.00  0.00    -0.354 N 
ATOM     56  N   UNL A   1      44.342  26.622  29.798  1.00  0.00    -0.248 NA
ATOM     57  C   UNL A   1      45.187  24.569  29.075  1.00  0.00     0.031 C 
ATOM     58  C   UNL A   1      46.589  29.493  32.329  1.00  0.00     0.029 A 
ATOM     59  C   UNL A   1      45.897  28.565  31.567  1.00  0.00     0.049 A 
ATOM     60  H   UNL A   1      43.959  28.699  30.742  1.00  0.00     0.167 HD
ATOM     61  C   UNL A   1      45.608  26.435  30.336  1.00  0.00     0.074 A 
ATOM     62  C   UNL A   1      46.069  25.140  29.884  1.00  0.00     0.031 C 
ATOM     63  C   UNL A   1      46.326  27.263  31.133  1.00  0.00     0.037 A 
BRANCH  50  64
ATOM     64  C   UNL A   1      43.479  32.572  32.453  1.00  0.00     0.064 A 
ATOM     65  C   UNL A   1      43.862  33.720  31.745  1.00  0.00     0.173 A 
ATOM     66  C   UNL A   1      43.108  32.721  33.798  1.00  0.00     0.173 A 
ATOM     67  F   UNL A   1      44.237  33.627  30.461  1.00  0.00    -0.203 F 
ATOM     68  C   UNL A   1      43.888  34.968  32.364  1.00  0.00     0.198 A 
ATOM     69  C   UNL A   1      43.112  33.973  34.406  1.00  0.00     0.198 A 
ATOM     70  F   UNL A   1      42.728  31.654  34.516  1.00  0.00    -0.203 F 
ATOM     71  F   UNL A   1      44.291  36.045  31.678  1.00  0.00    -0.200 F 
ATOM     72  C   UNL A   1      43.507  35.094  33.691  1.00  0.00     0.200 A 
ATOM     73  F   UNL A   1      42.732  34.097  35.686  1.00  0.00    -0.200 F 
ATOM     74  F   UNL A   1      43.522  36.297  34.282  1.00  0.00    -0.200 F 
ENDBRANCH  50  64
BRANCH  51  75
ATOM     75  C   UNL A   1      42.777  23.915  27.557  1.00  0.00     0.064 A 
ATOM     76  C   UNL A   1      43.172  23.859  26.213  1.00  0.00     0.173 A 
ATOM     77  C   UNL A   1      42.292  22.741  28.146  1.00  0.00     0.173 A 
ATOM     78  F   UNL A   1      43.623  24.965  25.601  1.00  0.00    -0.203 F 
ATOM     79  C   UNL A   1      43.059  22.681  25.479  1.00  0.00     0.198 A 
ATOM     80  C   UNL A   1      42.202  21.556  27.418  1.00  0.00     0.198 A 
ATOM     81  F   UNL A   1      41.905  22.743  29.431  1.00  0.00    -0.203 F 
ATOM     82  F   UNL A   1      43.396  22.668  24.182  1.00  0.00    -0.200 F 
ATOM     83  C   UNL A   1      42.578  21.529  26.083  1.00  0.00     0.200 A 
ATOM     84  F   UNL A   1      41.746  20.442  28.007  1.00  0.00    -0.200 F 
ATOM     85  F   UNL A   1      42.465  20.397  25.376  1.00  0.00    -0.200 F 
ENDBRANCH  51  75
BRANCH  63  86
ATOM     86  C   UNL A   1      47.659  26.771  31.609  1.00  0.00     0.064 A 
ATOM     87  C   UNL A   1      47.785  25.989  32.765  1.00  0.00     0.173 A 
ATOM     88  C   UNL A   1      48.821  27.064  30.880  1.00  0.00     0.173 A 
ATOM     89  F   UNL A   1      46.703  25.695  33.502  1.00  0.00    -0.203 F 
ATOM     90  C   UNL A   1      49.032  25.539  33.191  1.00  0.00     0.198 A 
ATOM     91  C   UNL A   1      50.064  26.593  31.295  1.00  0.00     0.198 A 
ATOM     92  F   UNL A   1      48.751  27.804  29.763  1.00  0.00    -0.203 F 
ATOM     93  F   UNL A   1      49.136  24.830  34.323  1.00  0.00    -0.200 F 
ATOM     94  C   UNL A   1      50.168  25.837  32.453  1.00  0.00     0.200 A 
ATOM     95  F   UNL A   1      51.160  26.874  30.577  1.00  0.00    -0.200 F 
ATOM     96  F   UNL A   1      51.367  25.402  32.864  1.00  0.00    -0.200 F 
ENDBRANCH  63  86
ENDBRANCH  37  38
ENDBRANCH  29  32
ENDBRANCH  27  28
ENDBRANCH  26  27
ENDBRANCH   1  26
TORSDOF 13
ENDMDL
