MODEL 1
REMARK VINA RESULT:     -12.8      0.000      0.000
REMARK SMILES COc1ccc(C[N@@H+]2C[C@@H](C(=O)NCCCNC(=O)c3ccc(-c4c5nc(c(-c6c(F)c(F)c(F)c(F)c6F)c6ccc([nH]6)c(-c6c(F)c(F)c(F)c(F)c6F)c6nc(c(-c7c(F)c(F)c(F)c(F)c7F)c7ccc4[nH]7)C=C6)C=C5)cc3)[C@H](c3ccccc3OC)C2)c(OC)c1
REMARK SMILES IDX 14 1 13 2 11 3 12 4 10 6 8 7 9 8 92 9 83 11 7 12 6 13 3 14
REMARK SMILES IDX 4 15 96 16 5 17 93 18 2 19 1 20 94 21 95 22 84 23 85 24
REMARK SMILES IDX 89 25 86 26 88 27 87 28 90 29 91 30 15 31 16 32 17 33 18 34
REMARK SMILES IDX 19 36 20 37 21 38 82 39 22 40 81 41 23 42 24 43 25 44 75 45
REMARK SMILES IDX 26 46 80 47 74 48 76 49 27 50 79 51 73 52 72 53 28 55 60 56
REMARK SMILES IDX 40 57 59 58 41 59 44 60 58 61 77 62 42 63 43 64 57 66 78 67
REMARK SMILES IDX 45 68 29 69 30 70 38 71 31 72 32 73 36 74 39 75 33 76 34 77
REMARK SMILES IDX 37 78 35 79 61 80 62 81 70 82 63 83 64 84 68 85 71 86 65 87
REMARK SMILES IDX 66 88 69 89 67 90 46 91 47 92 55 93 48 94 49 95 53 96 56 97
REMARK SMILES IDX 50 98 51 99 54 100 52 101
REMARK H PARENT 13 5 8 10 17 35 76 54 44 65
REMARK Flexibility Score: inf
ROOT
ATOM      1  C   UNL A   1      32.026  29.974  26.190  1.00  0.00     0.117 C 
ENDROOT
BRANCH   1   2
ATOM      2  N   UNL A   1      32.885  29.979  25.017  1.00  0.00    -0.356 N 
ATOM      3  C   UNL A   1      33.009  29.045  24.021  1.00  0.00     0.229 C 
ATOM      4  O   UNL A   1      33.718  29.333  23.057  1.00  0.00    -0.275 OA
ATOM      5  H   UNL A   1      33.463  30.770  24.923  1.00  0.00     0.163 HD
BRANCH   3   6
ATOM      6  C   UNL A   1      32.382  27.674  24.198  1.00  0.00     0.146 C 
ATOM      7  N   UNL A   1      33.032  25.396  24.000  1.00  0.00    -0.330 N 
ATOM      8  C   UNL A   1      33.560  26.708  24.333  1.00  0.00     0.276 C 
ATOM      9  C   UNL A   1      32.048  25.635  22.934  1.00  0.00     0.272 C 
ATOM     10  H   UNL A   1      33.771  24.781  23.658  1.00  0.00     0.348 HD
ATOM     11  C   UNL A   1      31.561  27.111  23.015  1.00  0.00     0.096 C 
BRANCH   7  12
ATOM     12  C   UNL A   1      32.627  24.539  25.129  1.00  0.00     0.303 C 
BRANCH  12  13
ATOM     13  C   UNL A   1      33.008  23.068  25.115  1.00  0.00     0.048 A 
ATOM     14  C   UNL A   1      33.598  20.338  24.744  1.00  0.00     0.122 A 
ATOM     15  C   UNL A   1      32.313  20.734  25.086  1.00  0.00     0.047 A 
ATOM     16  C   UNL A   1      34.618  21.284  24.703  1.00  0.00     0.093 A 
ATOM     17  C   UNL A   1      32.019  22.083  25.281  1.00  0.00     0.017 A 
ATOM     18  C   UNL A   1      34.335  22.640  24.942  1.00  0.00     0.131 A 
BRANCH  14  19
ATOM     19  O   UNL A   1      33.729  19.034  24.360  1.00  0.00    -0.497 OA
ATOM     20  C   UNL A   1      32.530  18.270  24.403  1.00  0.00     0.278 C 
ENDBRANCH  14  19
BRANCH  18  21
ATOM     21  O   UNL A   1      35.297  23.618  24.959  1.00  0.00    -0.496 OA
ATOM     22  C   UNL A   1      36.637  23.170  25.125  1.00  0.00     0.278 C 
ENDBRANCH  18  21
ENDBRANCH  12  13
ENDBRANCH   7  12
BRANCH  11  23
ATOM     23  C   UNL A   1      30.049  27.343  23.169  1.00  0.00     0.004 A 
ATOM     24  C   UNL A   1      29.190  26.397  23.746  1.00  0.00     0.008 A 
ATOM     25  C   UNL A   1      29.455  28.542  22.736  1.00  0.00     0.122 A 
ATOM     26  C   UNL A   1      27.834  26.658  23.977  1.00  0.00     0.001 A 
ATOM     27  C   UNL A   1      28.096  28.815  22.964  1.00  0.00     0.047 A 
ATOM     28  C   UNL A   1      27.291  27.880  23.611  1.00  0.00     0.004 A 
BRANCH  25  29
ATOM     29  O   UNL A   1      30.200  29.372  21.941  1.00  0.00    -0.496 OA
ATOM     30  C   UNL A   1      29.465  30.480  21.440  1.00  0.00     0.278 C 
ENDBRANCH  25  29
ENDBRANCH  11  23
ENDBRANCH   3   6
ENDBRANCH   1   2
BRANCH   1  31
ATOM     31  C   UNL A   1      31.619  31.383  26.608  1.00  0.00     0.042 C 
BRANCH  31  32
ATOM     32  C   UNL A   1      32.779  32.175  27.191  1.00  0.00     0.118 C 
BRANCH  32  33
ATOM     33  N   UNL A   1      32.430  33.575  27.428  1.00  0.00    -0.352 N 
ATOM     34  C   UNL A   1      32.987  34.462  28.320  1.00  0.00     0.251 C 
ATOM     35  H   UNL A   1      31.698  33.931  26.874  1.00  0.00     0.163 HD
ATOM     36  O   UNL A   1      32.487  35.569  28.495  1.00  0.00    -0.269 OA
BRANCH  34  37
ATOM     37  C   UNL A   1      34.175  34.055  29.095  1.00  0.00     0.039 A 
ATOM     38  C   UNL A   1      34.018  33.215  30.201  1.00  0.00     0.014 A 
ATOM     39  C   UNL A   1      35.448  34.473  28.699  1.00  0.00     0.014 A 
ATOM     40  C   UNL A   1      35.147  32.732  30.866  1.00  0.00     0.010 A 
ATOM     41  C   UNL A   1      36.569  33.928  29.308  1.00  0.00     0.010 A 
ATOM     42  C   UNL A   1      36.430  33.054  30.399  1.00  0.00    -0.014 A 
BRANCH  42  43
ATOM     43  C   UNL A   1      37.662  32.530  31.038  1.00  0.00     0.031 A 
ATOM     44  C   UNL A   1      38.414  31.416  30.366  1.00  0.00     0.074 A 
ATOM     45  C   UNL A   1      38.035  32.967  32.257  1.00  0.00     0.049 A 
ATOM     46  N   UNL A   1      39.371  30.658  30.834  1.00  0.00    -0.248 NA
ATOM     47  C   UNL A   1      38.002  31.085  28.992  1.00  0.00     0.031 C 
ATOM     48  C   UNL A   1      37.367  34.021  33.022  1.00  0.00     0.029 A 
ATOM     49  N   UNL A   1      39.052  32.552  33.081  1.00  0.00    -0.354 N 
ATOM     50  C   UNL A   1      39.651  29.743  29.828  1.00  0.00     0.074 A 
ATOM     51  C   UNL A   1      38.734  30.009  28.742  1.00  0.00     0.031 C 
ATOM     52  C   UNL A   1      37.992  34.171  34.202  1.00  0.00     0.029 A 
ATOM     53  C   UNL A   1      39.071  33.193  34.296  1.00  0.00     0.049 A 
ATOM     54  H   UNL A   1      39.705  31.862  32.824  1.00  0.00     0.167 HD
ATOM     55  C   UNL A   1      40.604  28.781  29.805  1.00  0.00     0.037 A 
ATOM     56  C   UNL A   1      39.858  32.994  35.371  1.00  0.00     0.037 A 
ATOM     57  C   UNL A   1      41.538  28.551  30.872  1.00  0.00     0.049 A 
ATOM     58  C   UNL A   1      40.918  31.924  35.315  1.00  0.00     0.074 A 
ATOM     59  C   UNL A   1      42.561  27.622  30.939  1.00  0.00     0.029 A 
ATOM     60  N   UNL A   1      41.570  29.269  32.057  1.00  0.00    -0.354 N 
ATOM     61  N   UNL A   1      41.193  31.083  34.348  1.00  0.00    -0.248 NA
ATOM     62  C   UNL A   1      41.782  31.780  36.496  1.00  0.00     0.031 C 
ATOM     63  C   UNL A   1      43.198  27.763  32.175  1.00  0.00     0.029 A 
ATOM     64  C   UNL A   1      42.598  28.807  32.859  1.00  0.00     0.049 A 
ATOM     65  H   UNL A   1      40.952  29.999  32.294  1.00  0.00     0.167 HD
ATOM     66  C   UNL A   1      42.282  30.341  34.785  1.00  0.00     0.074 A 
ATOM     67  C   UNL A   1      42.620  30.831  36.104  1.00  0.00     0.031 C 
ATOM     68  C   UNL A   1      42.942  29.343  34.151  1.00  0.00     0.037 A 
BRANCH  55  69
ATOM     69  C   UNL A   1      40.691  27.920  28.580  1.00  0.00     0.064 A 
ATOM     70  C   UNL A   1      39.993  26.706  28.488  1.00  0.00     0.173 A 
ATOM     71  C   UNL A   1      41.447  28.328  27.472  1.00  0.00     0.173 A 
ATOM     72  F   UNL A   1      39.268  26.264  29.526  1.00  0.00    -0.203 F 
ATOM     73  C   UNL A   1      40.068  25.922  27.340  1.00  0.00     0.198 A 
ATOM     74  C   UNL A   1      41.495  27.556  26.314  1.00  0.00     0.198 A 
ATOM     75  F   UNL A   1      42.131  29.482  27.506  1.00  0.00    -0.203 F 
ATOM     76  F   UNL A   1      39.430  24.744  27.293  1.00  0.00    -0.200 F 
ATOM     77  C   UNL A   1      40.812  26.351  26.251  1.00  0.00     0.200 A 
ATOM     78  F   UNL A   1      42.204  27.978  25.257  1.00  0.00    -0.200 F 
ATOM     79  F   UNL A   1      40.874  25.600  25.144  1.00  0.00    -0.200 F 
ENDBRANCH  55  69
BRANCH  56  80
ATOM     80  C   UNL A   1      39.683  33.825  36.592  1.00  0.00     0.064 A 
ATOM     81  C   UNL A   1      38.873  33.389  37.649  1.00  0.00     0.173 A 
ATOM     82  C   UNL A   1      40.301  35.078  36.719  1.00  0.00     0.173 A 
ATOM     83  F   UNL A   1      38.245  32.206  37.566  1.00  0.00    -0.203 F 
ATOM     84  C   UNL A   1      38.663  34.184  38.773  1.00  0.00     0.198 A 
ATOM     85  C   UNL A   1      40.115  35.860  37.858  1.00  0.00     0.198 A 
ATOM     86  F   UNL A   1      41.092  35.540  35.740  1.00  0.00    -0.203 F 
ATOM     87  F   UNL A   1      37.840  33.765  39.744  1.00  0.00    -0.200 F 
ATOM     88  C   UNL A   1      39.287  35.418  38.878  1.00  0.00     0.200 A 
ATOM     89  F   UNL A   1      40.731  37.045  37.961  1.00  0.00    -0.200 F 
ATOM     90  F   UNL A   1      39.084  36.184  39.958  1.00  0.00    -0.200 F 
ENDBRANCH  56  80
BRANCH  68  91
ATOM     91  C   UNL A   1      44.143  28.761  34.833  1.00  0.00     0.064 A 
ATOM     92  C   UNL A   1      44.047  27.647  35.677  1.00  0.00     0.173 A 
ATOM     93  C   UNL A   1      45.419  29.284  34.572  1.00  0.00     0.173 A 
ATOM     94  F   UNL A   1      42.847  27.121  35.966  1.00  0.00    -0.203 F 
ATOM     95  C   UNL A   1      45.186  27.082  36.245  1.00  0.00     0.198 A 
ATOM     96  C   UNL A   1      46.558  28.701  35.121  1.00  0.00     0.198 A 
ATOM     97  F   UNL A   1      45.563  30.347  33.766  1.00  0.00    -0.203 F 
ATOM     98  F   UNL A   1      45.069  26.034  37.072  1.00  0.00    -0.200 F 
ATOM     99  C   UNL A   1      46.439  27.603  35.958  1.00  0.00     0.200 A 
ATOM    100  F   UNL A   1      47.768  29.198  34.832  1.00  0.00    -0.200 F 
ATOM    101  F   UNL A   1      47.535  27.047  36.492  1.00  0.00    -0.200 F 
ENDBRANCH  68  91
ENDBRANCH  42  43
ENDBRANCH  34  37
ENDBRANCH  32  33
ENDBRANCH  31  32
ENDBRANCH   1  31
TORSDOF 16
ENDMDL
MODEL 2
REMARK VINA RESULT:     -12.7      5.057     10.932
REMARK SMILES COc1ccc(C[N@@H+]2C[C@@H](C(=O)NCCCNC(=O)c3ccc(-c4c5nc(c(-c6c(F)c(F)c(F)c(F)c6F)c6ccc([nH]6)c(-c6c(F)c(F)c(F)c(F)c6F)c6nc(c(-c7c(F)c(F)c(F)c(F)c7F)c7ccc4[nH]7)C=C6)C=C5)cc3)[C@H](c3ccccc3OC)C2)c(OC)c1
REMARK SMILES IDX 14 1 13 2 11 3 12 4 10 6 8 7 9 8 92 9 83 11 7 12 6 13 3 14
REMARK SMILES IDX 4 15 96 16 5 17 93 18 2 19 1 20 94 21 95 22 84 23 85 24
REMARK SMILES IDX 89 25 86 26 88 27 87 28 90 29 91 30 15 31 16 32 17 33 18 34
REMARK SMILES IDX 19 36 20 37 21 38 82 39 22 40 81 41 23 42 24 43 25 44 75 45
REMARK SMILES IDX 26 46 80 47 74 48 76 49 27 50 79 51 73 52 72 53 28 55 60 56
REMARK SMILES IDX 40 57 59 58 41 59 44 60 58 61 77 62 42 63 43 64 57 66 78 67
REMARK SMILES IDX 45 68 29 69 30 70 38 71 31 72 32 73 36 74 39 75 33 76 34 77
REMARK SMILES IDX 37 78 35 79 61 80 62 81 70 82 63 83 64 84 68 85 71 86 65 87
REMARK SMILES IDX 66 88 69 89 67 90 46 91 47 92 55 93 48 94 49 95 53 96 56 97
REMARK SMILES IDX 50 98 51 99 54 100 52 101
REMARK H PARENT 13 5 8 10 17 35 76 54 44 65
REMARK Flexibility Score: inf
ROOT
ATOM      1  C   UNL A   1      36.744  21.316  24.968  1.00  0.00     0.117 C 
ENDROOT
BRANCH   1   2
ATOM      2  N   UNL A   1      36.032  21.327  26.235  1.00  0.00    -0.356 N 
ATOM      3  C   UNL A   1      34.717  21.612  26.497  1.00  0.00     0.229 C 
ATOM      4  O   UNL A   1      34.314  21.431  27.645  1.00  0.00    -0.275 OA
ATOM      5  H   UNL A   1      36.575  21.095  27.023  1.00  0.00     0.163 HD
BRANCH   3   6
ATOM      6  C   UNL A   1      33.860  22.245  25.417  1.00  0.00     0.146 C 
ATOM      7  N   UNL A   1      32.477  24.162  25.155  1.00  0.00    -0.330 N 
ATOM      8  C   UNL A   1      33.659  23.695  25.860  1.00  0.00     0.276 C 
ATOM      9  C   UNL A   1      31.580  22.998  25.093  1.00  0.00     0.272 C 
ATOM     10  H   UNL A   1      32.024  24.921  25.664  1.00  0.00     0.348 HD
ATOM     11  C   UNL A   1      32.424  21.699  25.238  1.00  0.00     0.096 C 
BRANCH   7  12
ATOM     12  C   UNL A   1      32.703  24.921  23.912  1.00  0.00     0.303 C 
BRANCH  12  13
ATOM     13  C   UNL A   1      32.057  26.287  23.750  1.00  0.00     0.048 A 
ATOM     14  C   UNL A   1      30.549  28.659  23.563  1.00  0.00     0.122 A 
ATOM     15  C   UNL A   1      30.541  27.743  22.521  1.00  0.00     0.047 A 
ATOM     16  C   UNL A   1      31.398  28.455  24.648  1.00  0.00     0.093 A 
ATOM     17  C   UNL A   1      31.295  26.573  22.605  1.00  0.00     0.017 A 
ATOM     18  C   UNL A   1      32.193  27.298  24.716  1.00  0.00     0.131 A 
BRANCH  14  19
ATOM     19  O   UNL A   1      29.615  29.653  23.481  1.00  0.00    -0.497 OA
ATOM     20  C   UNL A   1      28.438  29.314  22.758  1.00  0.00     0.278 C 
ENDBRANCH  14  19
BRANCH  18  21
ATOM     21  O   UNL A   1      33.080  27.054  25.733  1.00  0.00    -0.496 OA
ATOM     22  C   UNL A   1      33.483  28.187  26.494  1.00  0.00     0.278 C 
ENDBRANCH  18  21
ENDBRANCH  12  13
ENDBRANCH   7  12
BRANCH  11  23
ATOM     23  C   UNL A   1      32.312  20.660  24.111  1.00  0.00     0.004 A 
ATOM     24  C   UNL A   1      32.011  21.006  22.786  1.00  0.00     0.008 A 
ATOM     25  C   UNL A   1      32.522  19.293  24.366  1.00  0.00     0.122 A 
ATOM     26  C   UNL A   1      32.014  20.068  21.747  1.00  0.00     0.001 A 
ATOM     27  C   UNL A   1      32.529  18.343  23.331  1.00  0.00     0.047 A 
ATOM     28  C   UNL A   1      32.301  18.738  22.014  1.00  0.00     0.004 A 
BRANCH  25  29
ATOM     29  O   UNL A   1      32.559  18.886  25.673  1.00  0.00    -0.496 OA
ATOM     30  C   UNL A   1      32.728  17.484  25.821  1.00  0.00     0.278 C 
ENDBRANCH  25  29
ENDBRANCH  11  23
ENDBRANCH   3   6
ENDBRANCH   1   2
BRANCH   1  31
ATOM     31  C   UNL A   1      37.783  20.202  24.903  1.00  0.00     0.042 C 
BRANCH  31  32
ATOM     32  C   UNL A   1      39.019  20.510  25.735  1.00  0.00     0.118 C 
BRANCH  32  33
ATOM     33  N   UNL A   1      39.925  19.367  25.825  1.00  0.00    -0.352 N 
ATOM     34  C   UNL A   1      41.278  19.357  26.067  1.00  0.00     0.251 C 
ATOM     35  H   UNL A   1      39.510  18.483  25.695  1.00  0.00     0.163 HD
ATOM     36  O   UNL A   1      41.923  18.317  25.975  1.00  0.00    -0.269 OA
BRANCH  34  37
ATOM     37  C   UNL A   1      41.959  20.622  26.405  1.00  0.00     0.039 A 
ATOM     38  C   UNL A   1      42.346  21.488  25.379  1.00  0.00     0.014 A 
ATOM     39  C   UNL A   1      42.175  20.968  27.741  1.00  0.00     0.014 A 
ATOM     40  C   UNL A   1      42.882  22.739  25.696  1.00  0.00     0.010 A 
ATOM     41  C   UNL A   1      42.631  22.240  28.056  1.00  0.00     0.010 A 
ATOM     42  C   UNL A   1      42.991  23.138  27.036  1.00  0.00    -0.014 A 
BRANCH  42  43
ATOM     43  C   UNL A   1      43.509  24.471  27.428  1.00  0.00     0.031 A 
ATOM     44  C   UNL A   1      42.548  25.499  27.956  1.00  0.00     0.074 A 
ATOM     45  C   UNL A   1      44.797  24.793  27.207  1.00  0.00     0.049 A 
ATOM     46  N   UNL A   1      42.723  26.781  28.147  1.00  0.00    -0.248 NA
ATOM     47  C   UNL A   1      41.190  25.025  28.271  1.00  0.00     0.031 C 
ATOM     48  C   UNL A   1      45.818  23.891  26.670  1.00  0.00     0.029 A 
ATOM     49  N   UNL A   1      45.463  25.982  27.375  1.00  0.00    -0.354 N 
ATOM     50  C   UNL A   1      41.495  27.268  28.572  1.00  0.00     0.074 A 
ATOM     51  C   UNL A   1      40.569  26.157  28.567  1.00  0.00     0.031 C 
ATOM     52  C   UNL A   1      46.978  24.558  26.556  1.00  0.00     0.029 A 
ATOM     53  C   UNL A   1      46.772  25.944  26.963  1.00  0.00     0.049 A 
ATOM     54  H   UNL A   1      45.040  26.786  27.756  1.00  0.00     0.167 HD
ATOM     55  C   UNL A   1      41.174  28.527  28.954  1.00  0.00     0.037 A 
ATOM     56  C   UNL A   1      47.693  26.925  26.899  1.00  0.00     0.037 A 
ATOM     57  C   UNL A   1      42.110  29.617  28.995  1.00  0.00     0.049 A 
ATOM     58  C   UNL A   1      47.313  28.315  27.340  1.00  0.00     0.074 A 
ATOM     59  C   UNL A   1      41.897  30.925  29.392  1.00  0.00     0.029 A 
ATOM     60  N   UNL A   1      43.446  29.519  28.636  1.00  0.00    -0.354 N 
ATOM     61  N   UNL A   1      46.157  28.759  27.767  1.00  0.00    -0.248 NA
ATOM     62  C   UNL A   1      48.368  29.338  27.297  1.00  0.00     0.031 C 
ATOM     63  C   UNL A   1      43.099  31.625  29.252  1.00  0.00     0.029 A 
ATOM     64  C   UNL A   1      44.070  30.742  28.808  1.00  0.00     0.049 A 
ATOM     65  H   UNL A   1      43.886  28.701  28.307  1.00  0.00     0.167 HD
ATOM     66  C   UNL A   1      46.353  30.098  28.081  1.00  0.00     0.074 A 
ATOM     67  C   UNL A   1      47.741  30.394  27.797  1.00  0.00     0.031 C 
ATOM     68  C   UNL A   1      45.464  31.000  28.561  1.00  0.00     0.037 A 
BRANCH  55  69
ATOM     69  C   UNL A   1      39.757  28.787  29.371  1.00  0.00     0.064 A 
ATOM     70  C   UNL A   1      38.792  29.227  28.453  1.00  0.00     0.173 A 
ATOM     71  C   UNL A   1      39.349  28.556  30.693  1.00  0.00     0.173 A 
ATOM     72  F   UNL A   1      39.136  29.477  27.180  1.00  0.00    -0.203 F 
ATOM     73  C   UNL A   1      37.476  29.449  28.847  1.00  0.00     0.198 A 
ATOM     74  C   UNL A   1      38.024  28.750  31.077  1.00  0.00     0.198 A 
ATOM     75  F   UNL A   1      40.231  28.131  31.611  1.00  0.00    -0.203 F 
ATOM     76  F   UNL A   1      36.583  29.914  27.962  1.00  0.00    -0.200 F 
ATOM     77  C   UNL A   1      37.091  29.203  30.157  1.00  0.00     0.200 A 
ATOM     78  F   UNL A   1      37.650  28.499  32.340  1.00  0.00    -0.200 F 
ATOM     79  F   UNL A   1      35.822  29.407  30.532  1.00  0.00    -0.200 F 
ENDBRANCH  55  69
BRANCH  56  80
ATOM     80  C   UNL A   1      49.065  26.634  26.406  1.00  0.00     0.064 A 
ATOM     81  C   UNL A   1      49.421  26.891  25.076  1.00  0.00     0.173 A 
ATOM     82  C   UNL A   1      50.041  26.074  27.245  1.00  0.00     0.173 A 
ATOM     83  F   UNL A   1      48.517  27.409  24.230  1.00  0.00    -0.203 F 
ATOM     84  C   UNL A   1      50.689  26.574  24.593  1.00  0.00     0.198 A 
ATOM     85  C   UNL A   1      51.319  25.785  26.769  1.00  0.00     0.198 A 
ATOM     86  F   UNL A   1      49.755  25.815  28.529  1.00  0.00    -0.203 F 
ATOM     87  F   UNL A   1      50.984  26.781  23.302  1.00  0.00    -0.200 F 
ATOM     88  C   UNL A   1      51.638  26.024  25.441  1.00  0.00     0.200 A 
ATOM     89  F   UNL A   1      52.237  25.267  27.595  1.00  0.00    -0.200 F 
ATOM     90  F   UNL A   1      52.857  25.717  24.977  1.00  0.00    -0.200 F 
ENDBRANCH  56  80
BRANCH  68  91
ATOM     91  C   UNL A   1      45.973  32.372  28.885  1.00  0.00     0.064 A 
ATOM     92  C   UNL A   1      45.971  33.404  27.937  1.00  0.00     0.173 A 
ATOM     93  C   UNL A   1      46.395  32.673  30.189  1.00  0.00     0.173 A 
ATOM     94  F   UNL A   1      45.589  33.160  26.674  1.00  0.00    -0.203 F 
ATOM     95  C   UNL A   1      46.384  34.688  28.280  1.00  0.00     0.198 A 
ATOM     96  C   UNL A   1      46.783  33.964  30.535  1.00  0.00     0.198 A 
ATOM     97  F   UNL A   1      46.408  31.719  31.132  1.00  0.00    -0.203 F 
ATOM     98  F   UNL A   1      46.402  35.654  27.352  1.00  0.00    -0.200 F 
ATOM     99  C   UNL A   1      46.779  34.969  29.581  1.00  0.00     0.200 A 
ATOM    100  F   UNL A   1      47.150  34.236  31.795  1.00  0.00    -0.200 F 
ATOM    101  F   UNL A   1      47.160  36.210  29.913  1.00  0.00    -0.200 F 
ENDBRANCH  68  91
ENDBRANCH  42  43
ENDBRANCH  34  37
ENDBRANCH  32  33
ENDBRANCH  31  32
ENDBRANCH   1  31
TORSDOF 16
ENDMDL
MODEL 3
REMARK VINA RESULT:     -12.4      4.693     10.188
REMARK SMILES COc1ccc(C[N@@H+]2C[C@@H](C(=O)NCCCNC(=O)c3ccc(-c4c5nc(c(-c6c(F)c(F)c(F)c(F)c6F)c6ccc([nH]6)c(-c6c(F)c(F)c(F)c(F)c6F)c6nc(c(-c7c(F)c(F)c(F)c(F)c7F)c7ccc4[nH]7)C=C6)C=C5)cc3)[C@H](c3ccccc3OC)C2)c(OC)c1
REMARK SMILES IDX 14 1 13 2 11 3 12 4 10 6 8 7 9 8 92 9 83 11 7 12 6 13 3 14
REMARK SMILES IDX 4 15 96 16 5 17 93 18 2 19 1 20 94 21 95 22 84 23 85 24
REMARK SMILES IDX 89 25 86 26 88 27 87 28 90 29 91 30 15 31 16 32 17 33 18 34
REMARK SMILES IDX 19 36 20 37 21 38 82 39 22 40 81 41 23 42 24 43 25 44 75 45
REMARK SMILES IDX 26 46 80 47 74 48 76 49 27 50 79 51 73 52 72 53 28 55 60 56
REMARK SMILES IDX 40 57 59 58 41 59 44 60 58 61 77 62 42 63 43 64 57 66 78 67
REMARK SMILES IDX 45 68 29 69 30 70 38 71 31 72 32 73 36 74 39 75 33 76 34 77
REMARK SMILES IDX 37 78 35 79 61 80 62 81 70 82 63 83 64 84 68 85 71 86 65 87
REMARK SMILES IDX 66 88 69 89 67 90 46 91 47 92 55 93 48 94 49 95 53 96 56 97
REMARK SMILES IDX 50 98 51 99 54 100 52 101
REMARK H PARENT 13 5 8 10 17 35 76 54 44 65
REMARK Flexibility Score: inf
ROOT
ATOM      1  C   UNL A   1      36.054  20.621  25.007  1.00  0.00     0.117 C 
ENDROOT
BRANCH   1   2
ATOM      2  N   UNL A   1      35.639  21.133  26.303  1.00  0.00    -0.356 N 
ATOM      3  C   UNL A   1      34.574  21.933  26.627  1.00  0.00     0.229 C 
ATOM      4  O   UNL A   1      34.354  22.132  27.821  1.00  0.00    -0.275 OA
ATOM      5  H   UNL A   1      36.206  20.865  27.061  1.00  0.00     0.163 HD
BRANCH   3   6
ATOM      6  C   UNL A   1      33.798  22.629  25.523  1.00  0.00     0.146 C 
ATOM      7  N   UNL A   1      32.528  24.619  25.241  1.00  0.00    -0.330 N 
ATOM      8  C   UNL A   1      33.652  24.079  25.988  1.00  0.00     0.276 C 
ATOM      9  C   UNL A   1      31.577  23.505  25.116  1.00  0.00     0.272 C 
ATOM     10  H   UNL A   1      32.091  25.392  25.745  1.00  0.00     0.348 HD
ATOM     11  C   UNL A   1      32.346  22.161  25.271  1.00  0.00     0.096 C 
BRANCH   7  12
ATOM     12  C   UNL A   1      32.848  25.388  24.025  1.00  0.00     0.303 C 
BRANCH  12  13
ATOM     13  C   UNL A   1      32.109  26.689  23.756  1.00  0.00     0.048 A 
ATOM     14  C   UNL A   1      30.451  28.940  23.414  1.00  0.00     0.122 A 
ATOM     15  C   UNL A   1      30.414  27.901  22.496  1.00  0.00     0.047 A 
ATOM     16  C   UNL A   1      31.395  28.918  24.437  1.00  0.00     0.093 A 
ATOM     17  C   UNL A   1      31.241  26.789  22.655  1.00  0.00     0.017 A 
ATOM     18  C   UNL A   1      32.261  27.819  24.576  1.00  0.00     0.131 A 
BRANCH  14  19
ATOM     19  O   UNL A   1      29.455  29.867  23.293  1.00  0.00    -0.497 OA
ATOM     20  C   UNL A   1      29.226  30.337  21.971  1.00  0.00     0.278 C 
ENDBRANCH  14  19
BRANCH  18  21
ATOM     21  O   UNL A   1      33.240  27.750  25.534  1.00  0.00    -0.496 OA
ATOM     22  C   UNL A   1      32.804  27.879  26.882  1.00  0.00     0.278 C 
ENDBRANCH  18  21
ENDBRANCH  12  13
ENDBRANCH   7  12
BRANCH  11  23
ATOM     23  C   UNL A   1      32.233  21.150  24.119  1.00  0.00     0.004 A 
ATOM     24  C   UNL A   1      31.972  21.533  22.795  1.00  0.00     0.008 A 
ATOM     25  C   UNL A   1      32.398  19.772  24.348  1.00  0.00     0.122 A 
ATOM     26  C   UNL A   1      31.974  20.618  21.736  1.00  0.00     0.001 A 
ATOM     27  C   UNL A   1      32.403  18.846  23.293  1.00  0.00     0.047 A 
ATOM     28  C   UNL A   1      32.217  19.275  21.981  1.00  0.00     0.004 A 
BRANCH  25  29
ATOM     29  O   UNL A   1      32.393  19.336  25.646  1.00  0.00    -0.496 OA
ATOM     30  C   UNL A   1      32.738  17.966  25.781  1.00  0.00     0.278 C 
ENDBRANCH  25  29
ENDBRANCH  11  23
ENDBRANCH   3   6
ENDBRANCH   1   2
BRANCH   1  31
ATOM     31  C   UNL A   1      37.419  21.155  24.591  1.00  0.00     0.042 C 
BRANCH  31  32
ATOM     32  C   UNL A   1      38.415  21.170  25.741  1.00  0.00     0.118 C 
BRANCH  32  33
ATOM     33  N   UNL A   1      39.296  20.004  25.726  1.00  0.00    -0.352 N 
ATOM     34  C   UNL A   1      40.640  19.937  26.010  1.00  0.00     0.251 C 
ATOM     35  H   UNL A   1      38.869  19.151  25.481  1.00  0.00     0.163 HD
ATOM     36  O   UNL A   1      41.269  18.900  25.818  1.00  0.00    -0.269 OA
BRANCH  34  37
ATOM     37  C   UNL A   1      41.331  21.139  26.516  1.00  0.00     0.039 A 
ATOM     38  C   UNL A   1      41.873  22.051  25.606  1.00  0.00     0.014 A 
ATOM     39  C   UNL A   1      41.403  21.381  27.889  1.00  0.00     0.014 A 
ATOM     40  C   UNL A   1      42.423  23.248  26.074  1.00  0.00     0.010 A 
ATOM     41  C   UNL A   1      41.875  22.604  28.346  1.00  0.00     0.010 A 
ATOM     42  C   UNL A   1      42.391  23.548  27.443  1.00  0.00    -0.014 A 
BRANCH  42  43
ATOM     43  C   UNL A   1      42.917  24.823  27.988  1.00  0.00     0.031 A 
ATOM     44  C   UNL A   1      41.950  25.914  28.353  1.00  0.00     0.074 A 
ATOM     45  C   UNL A   1      44.245  25.042  28.047  1.00  0.00     0.049 A 
ATOM     46  N   UNL A   1      42.180  27.172  28.630  1.00  0.00    -0.248 NA
ATOM     47  C   UNL A   1      40.524  25.547  28.365  1.00  0.00     0.031 C 
ATOM     48  C   UNL A   1      45.282  24.072  27.692  1.00  0.00     0.029 A 
ATOM     49  N   UNL A   1      44.950  26.167  28.398  1.00  0.00    -0.354 N 
ATOM     50  C   UNL A   1      40.931  27.748  28.817  1.00  0.00     0.074 A 
ATOM     51  C   UNL A   1      39.944  26.719  28.576  1.00  0.00     0.031 C 
ATOM     52  C   UNL A   1      46.489  24.642  27.844  1.00  0.00     0.029 A 
ATOM     53  C   UNL A   1      46.310  26.030  28.259  1.00  0.00     0.049 A 
ATOM     54  H   UNL A   1      44.521  26.992  28.719  1.00  0.00     0.167 HD
ATOM     55  C   UNL A   1      40.636  29.020  29.178  1.00  0.00     0.037 A 
ATOM     56  C   UNL A   1      47.296  26.932  28.426  1.00  0.00     0.037 A 
ATOM     57  C   UNL A   1      41.624  30.026  29.455  1.00  0.00     0.049 A 
ATOM     58  C   UNL A   1      46.941  28.337  28.839  1.00  0.00     0.074 A 
ATOM     59  C   UNL A   1      41.434  31.336  29.856  1.00  0.00     0.029 A 
ATOM     60  N   UNL A   1      42.993  29.826  29.372  1.00  0.00    -0.354 N 
ATOM     61  N   UNL A   1      45.759  28.865  29.040  1.00  0.00    -0.248 NA
ATOM     62  C   UNL A   1      48.058  29.269  29.055  1.00  0.00     0.031 C 
ATOM     63  C   UNL A   1      42.689  31.936  29.993  1.00  0.00     0.029 A 
ATOM     64  C   UNL A   1      43.660  30.988  29.719  1.00  0.00     0.049 A 
ATOM     65  H   UNL A   1      43.428  28.983  29.105  1.00  0.00     0.167 HD
ATOM     66  C   UNL A   1      45.988  30.174  29.444  1.00  0.00     0.074 A 
ATOM     67  C   UNL A   1      47.423  30.361  29.462  1.00  0.00     0.031 C 
ATOM     68  C   UNL A   1      45.091  31.134  29.771  1.00  0.00     0.037 A 
BRANCH  55  69
ATOM     69  C   UNL A   1      39.187  29.386  29.310  1.00  0.00     0.064 A 
ATOM     70  C   UNL A   1      38.557  29.441  30.562  1.00  0.00     0.173 A 
ATOM     71  C   UNL A   1      38.431  29.726  28.179  1.00  0.00     0.173 A 
ATOM     72  F   UNL A   1      39.233  29.110  31.673  1.00  0.00    -0.203 F 
ATOM     73  C   UNL A   1      37.217  29.797  30.675  1.00  0.00     0.198 A 
ATOM     74  C   UNL A   1      37.098  30.113  28.298  1.00  0.00     0.198 A 
ATOM     75  F   UNL A   1      38.986  29.694  26.958  1.00  0.00    -0.203 F 
ATOM     76  F   UNL A   1      36.624  29.797  31.877  1.00  0.00    -0.200 F 
ATOM     77  C   UNL A   1      36.490  30.141  29.544  1.00  0.00     0.200 A 
ATOM     78  F   UNL A   1      36.401  30.457  27.206  1.00  0.00    -0.200 F 
ATOM     79  F   UNL A   1      35.204  30.495  29.655  1.00  0.00    -0.200 F 
ENDBRANCH  55  69
BRANCH  56  80
ATOM     80  C   UNL A   1      48.714  26.540  28.211  1.00  0.00     0.064 A 
ATOM     81  C   UNL A   1      49.536  26.190  29.290  1.00  0.00     0.173 A 
ATOM     82  C   UNL A   1      49.284  26.529  26.928  1.00  0.00     0.173 A 
ATOM     83  F   UNL A   1      49.042  26.204  30.538  1.00  0.00    -0.203 F 
ATOM     84  C   UNL A   1      50.879  25.871  29.102  1.00  0.00     0.198 A 
ATOM     85  C   UNL A   1      50.620  26.181  26.737  1.00  0.00     0.198 A 
ATOM     86  F   UNL A   1      48.540  26.849  25.859  1.00  0.00    -0.203 F 
ATOM     87  F   UNL A   1      51.654  25.593  30.159  1.00  0.00    -0.200 F 
ATOM     88  C   UNL A   1      51.419  25.864  27.825  1.00  0.00     0.200 A 
ATOM     89  F   UNL A   1      51.134  26.161  25.501  1.00  0.00    -0.200 F 
ATOM     90  F   UNL A   1      52.711  25.559  27.644  1.00  0.00    -0.200 F 
ENDBRANCH  56  80
BRANCH  68  91
ATOM     91  C   UNL A   1      45.626  32.450  30.250  1.00  0.00     0.064 A 
ATOM     92  C   UNL A   1      45.923  32.681  31.600  1.00  0.00     0.173 A 
ATOM     93  C   UNL A   1      45.917  33.466  29.326  1.00  0.00     0.173 A 
ATOM     94  F   UNL A   1      45.649  31.744  32.521  1.00  0.00    -0.203 F 
ATOM     95  C   UNL A   1      46.484  33.887  32.010  1.00  0.00     0.198 A 
ATOM     96  C   UNL A   1      46.501  34.660  29.737  1.00  0.00     0.198 A 
ATOM     97  F   UNL A   1      45.656  33.289  28.022  1.00  0.00    -0.203 F 
ATOM     98  F   UNL A   1      46.733  34.099  33.310  1.00  0.00    -0.200 F 
ATOM     99  C   UNL A   1      46.781  34.871  31.078  1.00  0.00     0.200 A 
ATOM    100  F   UNL A   1      46.801  35.603  28.832  1.00  0.00    -0.200 F 
ATOM    101  F   UNL A   1      47.337  36.024  31.473  1.00  0.00    -0.200 F 
ENDBRANCH  68  91
ENDBRANCH  42  43
ENDBRANCH  34  37
ENDBRANCH  32  33
ENDBRANCH  31  32
ENDBRANCH   1  31
TORSDOF 16
ENDMDL
