MODEL 1
REMARK VINA RESULT:     -12.0      0.000      0.000
REMARK SMILES O=C(Cc1ccccc1Nc1c(F)cccc1C(F)(F)F)NCCCNC(=O)c1ccc(-c2c3nc(c(-c4c(F)c(F)c(F)c(F)c4F)c4ccc([nH]4)c(-c4c(F)c(F)c(F)c(F)c4F)c4nc(c(-c5c(F)c(F)c(F)c(F)c5F)c5ccc2[nH]5)C=C4)C=C3)cc1
REMARK SMILES IDX 23 1 22 2 1 3 2 4 3 6 4 7 5 8 9 9 6 10 8 11 7 12 10 13 11 15
REMARK SMILES IDX 12 16 17 17 13 18 14 19 16 20 15 21 18 22 19 23 20 24 21 25
REMARK SMILES IDX 24 26 25 27 26 28 27 29 28 31 29 32 30 33 91 34 31 35 90 36
REMARK SMILES IDX 32 37 33 38 34 39 84 40 35 41 89 42 83 43 85 44 36 45 88 46
REMARK SMILES IDX 82 47 81 48 37 50 69 51 49 52 68 53 50 54 53 55 67 56 86 57
REMARK SMILES IDX 51 58 52 59 66 61 87 62 54 63 38 64 39 65 47 66 40 67 41 68
REMARK SMILES IDX 45 69 48 70 42 71 43 72 46 73 44 74 70 75 71 76 79 77 72 78
REMARK SMILES IDX 73 79 77 80 80 81 74 82 75 83 78 84 76 85 55 86 56 87 64 88
REMARK SMILES IDX 57 89 58 90 62 91 65 92 59 93 60 94 63 95 61 96
REMARK H PARENT 22 5 10 14 26 30 85 49 53 60
REMARK Flexibility Score: inf
ROOT
ATOM      1  C   UNL A   1      34.539  24.094  24.170  1.00  0.00     0.117 C 
ENDROOT
BRANCH   1   2
ATOM      2  N   UNL A   1      34.346  25.482  23.806  1.00  0.00    -0.356 N 
ATOM      3  O   UNL A   1      33.444  26.119  25.819  1.00  0.00    -0.275 OA
ATOM      4  C   UNL A   1      33.819  26.404  24.684  1.00  0.00     0.224 C 
ATOM      5  H   UNL A   1      34.599  25.777  22.901  1.00  0.00     0.163 HD
BRANCH   4   6
ATOM      6  C   UNL A   1      33.642  27.799  24.117  1.00  0.00     0.137 C 
BRANCH   6   7
ATOM      7  C   UNL A   1      33.235  28.845  25.136  1.00  0.00    -0.015 A 
ATOM      8  C   UNL A   1      34.029  28.975  26.293  1.00  0.00     0.006 A 
ATOM      9  C   UNL A   1      32.102  29.673  24.976  1.00  0.00     0.042 A 
ATOM     10  C   UNL A   1      33.711  29.901  27.284  1.00  0.00     0.000 A 
ATOM     11  C   UNL A   1      31.790  30.581  26.002  1.00  0.00     0.026 A 
ATOM     12  C   UNL A   1      32.585  30.698  27.142  1.00  0.00     0.002 A 
BRANCH   9  13
ATOM     13  N   UNL A   1      31.324  29.614  23.798  1.00  0.00    -0.352 N 
ATOM     14  H   UNL A   1      31.831  29.715  22.960  1.00  0.00     0.167 HD
BRANCH  13  15
ATOM     15  C   UNL A   1      29.931  29.430  23.634  1.00  0.00     0.087 A 
ATOM     16  C   UNL A   1      29.140  30.593  23.525  1.00  0.00     0.147 A 
ATOM     17  C   UNL A   1      29.298  28.183  23.498  1.00  0.00     0.082 A 
ATOM     18  F   UNL A   1      29.720  31.793  23.693  1.00  0.00    -0.205 F 
ATOM     19  C   UNL A   1      27.781  30.549  23.234  1.00  0.00     0.041 A 
ATOM     20  C   UNL A   1      27.921  28.149  23.172  1.00  0.00     0.015 A 
ATOM     21  C   UNL A   1      27.170  29.319  23.037  1.00  0.00     0.004 A 
BRANCH  17  22
ATOM     22  C   UNL A   1      29.993  26.859  23.716  1.00  0.00     0.418 C 
ATOM     23  F   UNL A   1      29.120  25.811  23.612  1.00  0.00    -0.166 F 
ATOM     24  F   UNL A   1      30.957  26.610  22.787  1.00  0.00    -0.166 F 
ATOM     25  F   UNL A   1      30.574  26.699  24.941  1.00  0.00    -0.166 F 
ENDBRANCH  17  22
ENDBRANCH  13  15
ENDBRANCH   9  13
ENDBRANCH   6   7
ENDBRANCH   4   6
ENDBRANCH   1   2
BRANCH   1  26
ATOM     26  C   UNL A   1      36.014  23.728  24.289  1.00  0.00     0.042 C 
BRANCH  26  27
ATOM     27  C   UNL A   1      36.541  23.718  25.720  1.00  0.00     0.118 C 
BRANCH  27  28
ATOM     28  N   UNL A   1      37.523  22.669  25.961  1.00  0.00    -0.352 N 
ATOM     29  C   UNL A   1      38.804  22.745  26.444  1.00  0.00     0.251 C 
ATOM     30  H   UNL A   1      37.218  21.759  25.742  1.00  0.00     0.163 HD
ATOM     31  O   UNL A   1      39.525  21.747  26.424  1.00  0.00    -0.269 OA
BRANCH  29  32
ATOM     32  C   UNL A   1      39.342  24.018  26.969  1.00  0.00     0.039 A 
ATOM     33  C   UNL A   1      40.000  24.887  26.092  1.00  0.00     0.014 A 
ATOM     34  C   UNL A   1      39.229  24.351  28.322  1.00  0.00     0.014 A 
ATOM     35  C   UNL A   1      40.478  26.116  26.554  1.00  0.00     0.010 A 
ATOM     36  C   UNL A   1      39.636  25.607  28.764  1.00  0.00     0.010 A 
ATOM     37  C   UNL A   1      40.266  26.503  27.886  1.00  0.00    -0.014 A 
BRANCH  37  38
ATOM     38  C   UNL A   1      40.695  27.835  28.389  1.00  0.00     0.031 A 
ATOM     39  C   UNL A   1      42.134  28.074  28.758  1.00  0.00     0.074 A 
ATOM     40  C   UNL A   1      39.780  28.804  28.588  1.00  0.00     0.049 A 
ATOM     41  N   UNL A   1      42.683  29.119  29.326  1.00  0.00    -0.248 NA
ATOM     42  C   UNL A   1      43.076  26.980  28.477  1.00  0.00     0.031 C 
ATOM     43  C   UNL A   1      38.350  28.689  28.301  1.00  0.00     0.029 A 
ATOM     44  N   UNL A   1      39.916  30.072  29.099  1.00  0.00    -0.354 N 
ATOM     45  C   UNL A   1      44.025  28.800  29.487  1.00  0.00     0.074 A 
ATOM     46  C   UNL A   1      44.198  27.446  29.004  1.00  0.00     0.031 C 
ATOM     47  C   UNL A   1      37.743  29.841  28.627  1.00  0.00     0.029 A 
ATOM     48  C   UNL A   1      38.729  30.759  29.187  1.00  0.00     0.049 A 
ATOM     49  H   UNL A   1      40.781  30.452  29.375  1.00  0.00     0.167 HD
ATOM     50  C   UNL A   1      45.025  29.572  29.974  1.00  0.00     0.037 A 
ATOM     51  C   UNL A   1      38.464  31.983  29.682  1.00  0.00     0.037 A 
ATOM     52  C   UNL A   1      44.855  30.926  30.431  1.00  0.00     0.049 A 
ATOM     53  C   UNL A   1      39.590  32.814  30.238  1.00  0.00     0.074 A 
ATOM     54  C   UNL A   1      45.816  31.809  30.892  1.00  0.00     0.029 A 
ATOM     55  N   UNL A   1      43.640  31.594  30.489  1.00  0.00    -0.354 N 
ATOM     56  N   UNL A   1      40.866  32.523  30.334  1.00  0.00    -0.248 NA
ATOM     57  C   UNL A   1      39.240  34.145  30.753  1.00  0.00     0.031 C 
ATOM     58  C   UNL A   1      45.176  32.992  31.278  1.00  0.00     0.029 A 
ATOM     59  C   UNL A   1      43.825  32.869  31.001  1.00  0.00     0.049 A 
ATOM     60  H   UNL A   1      42.774  31.218  30.208  1.00  0.00     0.167 HD
ATOM     61  C   UNL A   1      41.472  33.644  30.884  1.00  0.00     0.074 A 
ATOM     62  C   UNL A   1      40.429  34.625  31.091  1.00  0.00     0.031 C 
ATOM     63  C   UNL A   1      42.779  33.842  31.188  1.00  0.00     0.037 A 
BRANCH  50  64
ATOM     64  C   UNL A   1      46.400  28.969  30.041  1.00  0.00     0.064 A 
ATOM     65  C   UNL A   1      46.855  28.293  31.183  1.00  0.00     0.173 A 
ATOM     66  C   UNL A   1      47.261  29.037  28.934  1.00  0.00     0.173 A 
ATOM     67  F   UNL A   1      46.077  28.209  32.273  1.00  0.00    -0.203 F 
ATOM     68  C   UNL A   1      48.132  27.738  31.228  1.00  0.00     0.198 A 
ATOM     69  C   UNL A   1      48.523  28.449  28.970  1.00  0.00     0.198 A 
ATOM     70  F   UNL A   1      46.876  29.664  27.812  1.00  0.00    -0.203 F 
ATOM     71  F   UNL A   1      48.564  27.146  32.350  1.00  0.00    -0.200 F 
ATOM     72  C   UNL A   1      48.961  27.810  30.120  1.00  0.00     0.200 A 
ATOM     73  F   UNL A   1      49.318  28.507  27.893  1.00  0.00    -0.200 F 
ATOM     74  F   UNL A   1      50.187  27.268  30.161  1.00  0.00    -0.200 F 
ENDBRANCH  50  64
BRANCH  51  75
ATOM     75  C   UNL A   1      37.073  32.508  29.663  1.00  0.00     0.064 A 
ATOM     76  C   UNL A   1      36.207  32.291  30.745  1.00  0.00     0.173 A 
ATOM     77  C   UNL A   1      36.574  33.223  28.565  1.00  0.00     0.173 A 
ATOM     78  F   UNL A   1      36.630  31.593  31.810  1.00  0.00    -0.203 F 
ATOM     79  C   UNL A   1      34.891  32.747  30.718  1.00  0.00     0.198 A 
ATOM     80  C   UNL A   1      35.267  33.706  28.552  1.00  0.00     0.198 A 
ATOM     81  F   UNL A   1      37.362  33.462  27.505  1.00  0.00    -0.203 F 
ATOM     82  F   UNL A   1      34.070  32.478  31.743  1.00  0.00    -0.200 F 
ATOM     83  C   UNL A   1      34.424  33.458  29.624  1.00  0.00     0.200 A 
ATOM     84  F   UNL A   1      34.824  34.406  27.499  1.00  0.00    -0.200 F 
ATOM     85  F   UNL A   1      33.158  33.898  29.599  1.00  0.00    -0.200 F 
ENDBRANCH  51  75
BRANCH  63  86
ATOM     86  C   UNL A   1      43.166  35.189  31.731  1.00  0.00     0.064 A 
ATOM     87  C   UNL A   1      43.634  36.217  30.900  1.00  0.00     0.173 A 
ATOM     88  C   UNL A   1      43.024  35.465  33.101  1.00  0.00     0.173 A 
ATOM     89  F   UNL A   1      43.801  36.000  29.586  1.00  0.00    -0.203 F 
ATOM     90  C   UNL A   1      43.969  37.464  31.423  1.00  0.00     0.198 A 
ATOM     91  C   UNL A   1      43.329  36.723  33.614  1.00  0.00     0.198 A 
ATOM     92  F   UNL A   1      42.574  34.519  33.939  1.00  0.00    -0.203 F 
ATOM     93  F   UNL A   1      44.461  38.415  30.618  1.00  0.00    -0.200 F 
ATOM     94  C   UNL A   1      43.809  37.718  32.777  1.00  0.00     0.200 A 
ATOM     95  F   UNL A   1      43.157  36.970  34.920  1.00  0.00    -0.200 F 
ATOM     96  F   UNL A   1      44.124  38.920  33.276  1.00  0.00    -0.200 F 
ENDBRANCH  63  86
ENDBRANCH  37  38
ENDBRANCH  29  32
ENDBRANCH  27  28
ENDBRANCH  26  27
ENDBRANCH   1  26
TORSDOF 14
ENDMDL
MODEL 2
REMARK VINA RESULT:     -12.0      0.841      1.935
REMARK SMILES O=C(Cc1ccccc1Nc1c(F)cccc1C(F)(F)F)NCCCNC(=O)c1ccc(-c2c3nc(c(-c4c(F)c(F)c(F)c(F)c4F)c4ccc([nH]4)c(-c4c(F)c(F)c(F)c(F)c4F)c4nc(c(-c5c(F)c(F)c(F)c(F)c5F)c5ccc2[nH]5)C=C4)C=C3)cc1
REMARK SMILES IDX 23 1 22 2 1 3 2 4 3 6 4 7 5 8 9 9 6 10 8 11 7 12 10 13 11 15
REMARK SMILES IDX 12 16 17 17 13 18 14 19 16 20 15 21 18 22 19 23 20 24 21 25
REMARK SMILES IDX 24 26 25 27 26 28 27 29 28 31 29 32 30 33 91 34 31 35 90 36
REMARK SMILES IDX 32 37 33 38 34 39 84 40 35 41 89 42 83 43 85 44 36 45 88 46
REMARK SMILES IDX 82 47 81 48 37 50 69 51 49 52 68 53 50 54 53 55 67 56 86 57
REMARK SMILES IDX 51 58 52 59 66 61 87 62 54 63 38 64 39 65 47 66 40 67 41 68
REMARK SMILES IDX 45 69 48 70 42 71 43 72 46 73 44 74 70 75 71 76 79 77 72 78
REMARK SMILES IDX 73 79 77 80 80 81 74 82 75 83 78 84 76 85 55 86 56 87 64 88
REMARK SMILES IDX 57 89 58 90 62 91 65 92 59 93 60 94 63 95 61 96
REMARK H PARENT 22 5 10 14 26 30 85 49 53 60
REMARK Flexibility Score: inf
ROOT
ATOM      1  C   UNL A   1      34.534  23.847  25.250  1.00  0.00     0.117 C 
ENDROOT
BRANCH   1   2
ATOM      2  N   UNL A   1      34.421  25.184  24.706  1.00  0.00    -0.356 N 
ATOM      3  O   UNL A   1      32.768  25.873  26.142  1.00  0.00    -0.275 OA
ATOM      4  C   UNL A   1      33.542  26.113  25.218  1.00  0.00     0.224 C 
ATOM      5  H   UNL A   1      34.993  25.439  23.945  1.00  0.00     0.163 HD
BRANCH   4   6
ATOM      6  C   UNL A   1      33.524  27.445  24.494  1.00  0.00     0.137 C 
BRANCH   6   7
ATOM      7  C   UNL A   1      33.179  28.633  25.370  1.00  0.00    -0.015 A 
ATOM      8  C   UNL A   1      33.943  28.828  26.538  1.00  0.00     0.006 A 
ATOM      9  C   UNL A   1      32.129  29.530  25.070  1.00  0.00     0.042 A 
ATOM     10  C   UNL A   1      33.677  29.886  27.404  1.00  0.00     0.000 A 
ATOM     11  C   UNL A   1      31.866  30.574  25.973  1.00  0.00     0.026 A 
ATOM     12  C   UNL A   1      32.631  30.755  27.125  1.00  0.00     0.002 A 
BRANCH   9  13
ATOM     13  N   UNL A   1      31.388  29.401  23.874  1.00  0.00    -0.352 N 
ATOM     14  H   UNL A   1      31.929  29.351  23.054  1.00  0.00     0.167 HD
BRANCH  13  15
ATOM     15  C   UNL A   1      29.990  29.329  23.672  1.00  0.00     0.087 A 
ATOM     16  C   UNL A   1      29.297  30.551  23.544  1.00  0.00     0.147 A 
ATOM     17  C   UNL A   1      29.263  28.136  23.517  1.00  0.00     0.082 A 
ATOM     18  F   UNL A   1      29.968  31.701  23.729  1.00  0.00    -0.205 F 
ATOM     19  C   UNL A   1      27.948  30.616  23.215  1.00  0.00     0.041 A 
ATOM     20  C   UNL A   1      27.897  28.213  23.153  1.00  0.00     0.015 A 
ATOM     21  C   UNL A   1      27.246  29.439  23.000  1.00  0.00     0.004 A 
BRANCH  17  22
ATOM     22  C   UNL A   1      29.844  26.761  23.751  1.00  0.00     0.418 C 
ATOM     23  F   UNL A   1      30.304  26.623  25.033  1.00  0.00    -0.166 F 
ATOM     24  F   UNL A   1      28.925  25.767  23.597  1.00  0.00    -0.166 F 
ATOM     25  F   UNL A   1      30.914  26.437  22.969  1.00  0.00    -0.166 F 
ENDBRANCH  17  22
ENDBRANCH  13  15
ENDBRANCH   9  13
ENDBRANCH   6   7
ENDBRANCH   4   6
ENDBRANCH   1   2
BRANCH   1  26
ATOM     26  C   UNL A   1      35.854  23.629  25.979  1.00  0.00     0.042 C 
BRANCH  26  27
ATOM     27  C   UNL A   1      37.084  23.718  25.081  1.00  0.00     0.118 C 
BRANCH  27  28
ATOM     28  N   UNL A   1      38.135  22.781  25.458  1.00  0.00    -0.352 N 
ATOM     29  C   UNL A   1      39.301  22.985  26.150  1.00  0.00     0.251 C 
ATOM     30  H   UNL A   1      37.983  21.852  25.171  1.00  0.00     0.163 HD
ATOM     31  O   UNL A   1      40.133  22.081  26.227  1.00  0.00    -0.269 OA
BRANCH  29  32
ATOM     32  C   UNL A   1      39.586  24.290  26.786  1.00  0.00     0.039 A 
ATOM     33  C   UNL A   1      39.131  24.520  28.089  1.00  0.00     0.014 A 
ATOM     34  C   UNL A   1      40.271  25.297  26.101  1.00  0.00     0.014 A 
ATOM     35  C   UNL A   1      39.425  25.727  28.728  1.00  0.00     0.010 A 
ATOM     36  C   UNL A   1      40.630  26.467  26.765  1.00  0.00     0.010 A 
ATOM     37  C   UNL A   1      40.211  26.696  28.085  1.00  0.00    -0.014 A 
BRANCH  37  38
ATOM     38  C   UNL A   1      40.605  27.958  28.766  1.00  0.00     0.031 A 
ATOM     39  C   UNL A   1      41.997  28.114  29.317  1.00  0.00     0.074 A 
ATOM     40  C   UNL A   1      39.693  28.929  28.960  1.00  0.00     0.049 A 
ATOM     41  N   UNL A   1      42.497  29.079  30.047  1.00  0.00    -0.248 NA
ATOM     42  C   UNL A   1      42.943  27.024  29.034  1.00  0.00     0.031 C 
ATOM     43  C   UNL A   1      38.303  28.889  28.503  1.00  0.00     0.029 A 
ATOM     44  N   UNL A   1      39.794  30.136  29.609  1.00  0.00    -0.354 N 
ATOM     45  C   UNL A   1      43.805  28.704  30.325  1.00  0.00     0.074 A 
ATOM     46  C   UNL A   1      44.006  27.400  29.729  1.00  0.00     0.031 C 
ATOM     47  C   UNL A   1      37.685  30.022  28.874  1.00  0.00     0.029 A 
ATOM     48  C   UNL A   1      38.619  30.848  29.634  1.00  0.00     0.049 A 
ATOM     49  H   UNL A   1      40.629  30.459  30.018  1.00  0.00     0.167 HD
ATOM     50  C   UNL A   1      44.758  29.392  30.998  1.00  0.00     0.037 A 
ATOM     51  C   UNL A   1      38.322  32.025  30.218  1.00  0.00     0.037 A 
ATOM     52  C   UNL A   1      44.563  30.699  31.569  1.00  0.00     0.049 A 
ATOM     53  C   UNL A   1      39.394  32.760  30.979  1.00  0.00     0.074 A 
ATOM     54  C   UNL A   1      45.482  31.501  32.223  1.00  0.00     0.029 A 
ATOM     55  N   UNL A   1      43.363  31.396  31.558  1.00  0.00    -0.354 N 
ATOM     56  N   UNL A   1      40.643  32.421  31.187  1.00  0.00    -0.248 NA
ATOM     57  C   UNL A   1      39.013  34.044  31.585  1.00  0.00     0.031 C 
ATOM     58  C   UNL A   1      44.825  32.659  32.654  1.00  0.00     0.029 A 
ATOM     59  C   UNL A   1      43.513  32.607  32.215  1.00  0.00     0.049 A 
ATOM     60  H   UNL A   1      42.528  31.077  31.144  1.00  0.00     0.167 HD
ATOM     61  C   UNL A   1      41.205  33.462  31.913  1.00  0.00     0.074 A 
ATOM     62  C   UNL A   1      40.164  34.451  32.102  1.00  0.00     0.031 C 
ATOM     63  C   UNL A   1      42.471  33.589  32.382  1.00  0.00     0.037 A 
BRANCH  50  64
ATOM     64  C   UNL A   1      46.104  28.743  31.157  1.00  0.00     0.064 A 
ATOM     65  C   UNL A   1      46.403  27.925  32.257  1.00  0.00     0.173 A 
ATOM     66  C   UNL A   1      47.095  28.912  30.177  1.00  0.00     0.173 A 
ATOM     67  F   UNL A   1      45.496  27.739  33.227  1.00  0.00    -0.203 F 
ATOM     68  C   UNL A   1      47.655  27.329  32.388  1.00  0.00     0.198 A 
ATOM     69  C   UNL A   1      48.334  28.285  30.295  1.00  0.00     0.198 A 
ATOM     70  F   UNL A   1      46.862  29.677  29.101  1.00  0.00    -0.203 F 
ATOM     71  F   UNL A   1      47.936  26.597  33.475  1.00  0.00    -0.200 F 
ATOM     72  C   UNL A   1      48.616  27.503  31.404  1.00  0.00     0.200 A 
ATOM     73  F   UNL A   1      49.256  28.443  29.336  1.00  0.00    -0.200 F 
ATOM     74  F   UNL A   1      49.818  26.922  31.528  1.00  0.00    -0.200 F 
ENDBRANCH  50  64
BRANCH  51  75
ATOM     75  C   UNL A   1      36.953  32.592  30.097  1.00  0.00     0.064 A 
ATOM     76  C   UNL A   1      36.567  33.300  28.949  1.00  0.00     0.173 A 
ATOM     77  C   UNL A   1      36.009  32.454  31.124  1.00  0.00     0.173 A 
ATOM     78  F   UNL A   1      37.441  33.479  27.948  1.00  0.00    -0.203 F 
ATOM     79  C   UNL A   1      35.298  33.867  28.845  1.00  0.00     0.198 A 
ATOM     80  C   UNL A   1      34.730  32.994  31.006  1.00  0.00     0.198 A 
ATOM     81  F   UNL A   1      36.327  31.783  32.242  1.00  0.00    -0.203 F 
ATOM     82  F   UNL A   1      34.975  34.583  27.759  1.00  0.00    -0.200 F 
ATOM     83  C   UNL A   1      34.380  33.709  29.871  1.00  0.00     0.200 A 
ATOM     84  F   UNL A   1      33.841  32.827  31.994  1.00  0.00    -0.200 F 
ATOM     85  F   UNL A   1      33.160  34.253  29.770  1.00  0.00    -0.200 F 
ENDBRANCH  51  75
BRANCH  63  86
ATOM     86  C   UNL A   1      42.820  34.862  33.100  1.00  0.00     0.064 A 
ATOM     87  C   UNL A   1      42.725  34.977  34.494  1.00  0.00     0.173 A 
ATOM     88  C   UNL A   1      43.299  35.970  32.381  1.00  0.00     0.173 A 
ATOM     89  F   UNL A   1      42.260  33.953  35.226  1.00  0.00    -0.203 F 
ATOM     90  C   UNL A   1      43.072  36.161  35.140  1.00  0.00     0.198 A 
ATOM     91  C   UNL A   1      43.676  37.140  33.033  1.00  0.00     0.198 A 
ATOM     92  F   UNL A   1      43.416  35.910  31.046  1.00  0.00    -0.203 F 
ATOM     93  F   UNL A   1      42.926  36.265  36.468  1.00  0.00    -0.200 F 
ATOM     94  C   UNL A   1      43.554  37.238  34.411  1.00  0.00     0.200 A 
ATOM     95  F   UNL A   1      44.157  38.173  32.328  1.00  0.00    -0.200 F 
ATOM     96  F   UNL A   1      43.896  38.373  35.035  1.00  0.00    -0.200 F 
ENDBRANCH  63  86
ENDBRANCH  37  38
ENDBRANCH  29  32
ENDBRANCH  27  28
ENDBRANCH  26  27
ENDBRANCH   1  26
TORSDOF 14
ENDMDL
MODEL 3
REMARK VINA RESULT:     -12.0      4.007      7.837
REMARK SMILES O=C(Cc1ccccc1Nc1c(F)cccc1C(F)(F)F)NCCCNC(=O)c1ccc(-c2c3nc(c(-c4c(F)c(F)c(F)c(F)c4F)c4ccc([nH]4)c(-c4c(F)c(F)c(F)c(F)c4F)c4nc(c(-c5c(F)c(F)c(F)c(F)c5F)c5ccc2[nH]5)C=C4)C=C3)cc1
REMARK SMILES IDX 23 1 22 2 1 3 2 4 3 6 4 7 5 8 9 9 6 10 8 11 7 12 10 13 11 15
REMARK SMILES IDX 12 16 17 17 13 18 14 19 16 20 15 21 18 22 19 23 20 24 21 25
REMARK SMILES IDX 24 26 25 27 26 28 27 29 28 31 29 32 30 33 91 34 31 35 90 36
REMARK SMILES IDX 32 37 33 38 34 39 84 40 35 41 89 42 83 43 85 44 36 45 88 46
REMARK SMILES IDX 82 47 81 48 37 50 69 51 49 52 68 53 50 54 53 55 67 56 86 57
REMARK SMILES IDX 51 58 52 59 66 61 87 62 54 63 38 64 39 65 47 66 40 67 41 68
REMARK SMILES IDX 45 69 48 70 42 71 43 72 46 73 44 74 70 75 71 76 79 77 72 78
REMARK SMILES IDX 73 79 77 80 80 81 74 82 75 83 78 84 76 85 55 86 56 87 64 88
REMARK SMILES IDX 57 89 58 90 62 91 65 92 59 93 60 94 63 95 61 96
REMARK H PARENT 22 5 10 14 26 30 85 49 53 60
REMARK Flexibility Score: inf
ROOT
ATOM      1  C   UNL A   1      31.348  30.733  26.582  1.00  0.00     0.117 C 
ENDROOT
BRANCH   1   2
ATOM      2  N   UNL A   1      31.669  30.101  25.319  1.00  0.00    -0.356 N 
ATOM      3  O   UNL A   1      33.769  29.414  25.938  1.00  0.00    -0.275 OA
ATOM      4  C   UNL A   1      32.871  29.465  25.102  1.00  0.00     0.224 C 
ATOM      5  H   UNL A   1      31.005  30.126  24.592  1.00  0.00     0.163 HD
BRANCH   4   6
ATOM      6  C   UNL A   1      33.055  28.902  23.705  1.00  0.00     0.137 C 
BRANCH   6   7
ATOM      7  C   UNL A   1      32.944  27.393  23.616  1.00  0.00    -0.015 A 
ATOM      8  C   UNL A   1      33.835  26.625  24.392  1.00  0.00     0.006 A 
ATOM      9  C   UNL A   1      32.005  26.739  22.788  1.00  0.00     0.042 A 
ATOM     10  C   UNL A   1      33.808  25.233  24.352  1.00  0.00     0.000 A 
ATOM     11  C   UNL A   1      32.015  25.335  22.747  1.00  0.00     0.026 A 
ATOM     12  C   UNL A   1      32.903  24.587  23.521  1.00  0.00     0.002 A 
BRANCH   9  13
ATOM     13  N   UNL A   1      31.055  27.479  22.049  1.00  0.00    -0.352 N 
ATOM     14  H   UNL A   1      31.128  27.390  21.071  1.00  0.00     0.167 HD
BRANCH  13  15
ATOM     15  C   UNL A   1      30.014  28.327  22.494  1.00  0.00     0.087 A 
ATOM     16  C   UNL A   1      30.050  29.669  22.063  1.00  0.00     0.147 A 
ATOM     17  C   UNL A   1      28.915  27.909  23.265  1.00  0.00     0.082 A 
ATOM     18  F   UNL A   1      31.112  30.097  21.359  1.00  0.00    -0.205 F 
ATOM     19  C   UNL A   1      29.022  30.568  22.323  1.00  0.00     0.041 A 
ATOM     20  C   UNL A   1      27.860  28.823  23.500  1.00  0.00     0.015 A 
ATOM     21  C   UNL A   1      27.909  30.137  23.031  1.00  0.00     0.004 A 
BRANCH  17  22
ATOM     22  C   UNL A   1      28.805  26.542  23.900  1.00  0.00     0.418 C 
ATOM     23  F   UNL A   1      29.729  26.375  24.895  1.00  0.00    -0.166 F 
ATOM     24  F   UNL A   1      27.600  26.334  24.499  1.00  0.00    -0.166 F 
ATOM     25  F   UNL A   1      29.016  25.488  23.058  1.00  0.00    -0.166 F 
ENDBRANCH  17  22
ENDBRANCH  13  15
ENDBRANCH   9  13
ENDBRANCH   6   7
ENDBRANCH   4   6
ENDBRANCH   1   2
BRANCH   1  26
ATOM     26  C   UNL A   1      31.409  32.253  26.499  1.00  0.00     0.042 C 
BRANCH  26  27
ATOM     27  C   UNL A   1      32.611  32.869  27.208  1.00  0.00     0.118 C 
BRANCH  27  28
ATOM     28  N   UNL A   1      32.387  34.250  27.617  1.00  0.00    -0.352 N 
ATOM     29  C   UNL A   1      33.001  34.999  28.588  1.00  0.00     0.251 C 
ATOM     30  H   UNL A   1      31.684  34.721  27.115  1.00  0.00     0.163 HD
ATOM     31  O   UNL A   1      32.552  36.108  28.880  1.00  0.00    -0.269 OA
BRANCH  29  32
ATOM     32  C   UNL A   1      34.183  34.482  29.309  1.00  0.00     0.039 A 
ATOM     33  C   UNL A   1      34.000  33.860  30.550  1.00  0.00     0.014 A 
ATOM     34  C   UNL A   1      35.472  34.630  28.790  1.00  0.00     0.014 A 
ATOM     35  C   UNL A   1      35.097  33.325  31.231  1.00  0.00     0.010 A 
ATOM     36  C   UNL A   1      36.553  34.029  29.431  1.00  0.00     0.010 A 
ATOM     37  C   UNL A   1      36.378  33.370  30.659  1.00  0.00    -0.014 A 
BRANCH  37  38
ATOM     38  C   UNL A   1      37.551  32.743  31.322  1.00  0.00     0.031 A 
ATOM     39  C   UNL A   1      38.270  31.600  30.659  1.00  0.00     0.074 A 
ATOM     40  C   UNL A   1      37.921  33.145  32.553  1.00  0.00     0.049 A 
ATOM     41  N   UNL A   1      39.231  30.841  31.124  1.00  0.00    -0.248 NA
ATOM     42  C   UNL A   1      37.829  31.244  29.301  1.00  0.00     0.031 C 
ATOM     43  C   UNL A   1      37.287  34.220  33.318  1.00  0.00     0.029 A 
ATOM     44  N   UNL A   1      38.910  32.683  33.387  1.00  0.00    -0.354 N 
ATOM     45  C   UNL A   1      39.494  29.911  30.127  1.00  0.00     0.074 A 
ATOM     46  C   UNL A   1      38.557  30.166  29.053  1.00  0.00     0.031 C 
ATOM     47  C   UNL A   1      37.910  34.344  34.501  1.00  0.00     0.029 A 
ATOM     48  C   UNL A   1      38.955  33.330  34.598  1.00  0.00     0.049 A 
ATOM     49  H   UNL A   1      39.528  31.958  33.139  1.00  0.00     0.167 HD
ATOM     50  C   UNL A   1      40.443  28.944  30.101  1.00  0.00     0.037 A 
ATOM     51  C   UNL A   1      39.738  33.116  35.674  1.00  0.00     0.037 A 
ATOM     52  C   UNL A   1      41.388  28.708  31.160  1.00  0.00     0.049 A 
ATOM     53  C   UNL A   1      40.771  32.021  35.628  1.00  0.00     0.074 A 
ATOM     54  C   UNL A   1      42.422  27.788  31.205  1.00  0.00     0.029 A 
ATOM     55  N   UNL A   1      41.414  29.395  32.366  1.00  0.00    -0.354 N 
ATOM     56  N   UNL A   1      41.047  31.183  34.658  1.00  0.00    -0.248 NA
ATOM     57  C   UNL A   1      41.602  31.844  36.827  1.00  0.00     0.031 C 
ATOM     58  C   UNL A   1      43.039  27.883  32.458  1.00  0.00     0.029 A 
ATOM     59  C   UNL A   1      42.430  28.903  33.170  1.00  0.00     0.049 A 
ATOM     60  H   UNL A   1      40.801  30.125  32.613  1.00  0.00     0.167 HD
ATOM     61  C   UNL A   1      42.104  30.407  35.114  1.00  0.00     0.074 A 
ATOM     62  C   UNL A   1      42.427  30.880  36.444  1.00  0.00     0.031 C 
ATOM     63  C   UNL A   1      42.750  29.394  34.486  1.00  0.00     0.037 A 
BRANCH  50  64
ATOM     64  C   UNL A   1      40.505  28.063  28.885  1.00  0.00     0.064 A 
ATOM     65  C   UNL A   1      39.781  26.864  28.804  1.00  0.00     0.173 A 
ATOM     66  C   UNL A   1      41.272  28.441  27.772  1.00  0.00     0.173 A 
ATOM     67  F   UNL A   1      39.041  26.451  29.844  1.00  0.00    -0.203 F 
ATOM     68  C   UNL A   1      39.849  26.060  27.669  1.00  0.00     0.198 A 
ATOM     69  C   UNL A   1      41.309  27.652  26.625  1.00  0.00     0.198 A 
ATOM     70  F   UNL A   1      41.979  29.581  27.791  1.00  0.00    -0.203 F 
ATOM     71  F   UNL A   1      39.192  24.893  27.638  1.00  0.00    -0.200 F 
ATOM     72  C   UNL A   1      40.605  26.458  26.578  1.00  0.00     0.200 A 
ATOM     73  F   UNL A   1      42.030  28.045  25.566  1.00  0.00    -0.200 F 
ATOM     74  F   UNL A   1      40.664  25.687  25.483  1.00  0.00    -0.200 F 
ENDBRANCH  50  64
BRANCH  51  75
ATOM     75  C   UNL A   1      39.588  33.966  36.884  1.00  0.00     0.064 A 
ATOM     76  C   UNL A   1      40.235  35.207  36.978  1.00  0.00     0.173 A 
ATOM     77  C   UNL A   1      38.810  33.555  37.976  1.00  0.00     0.173 A 
ATOM     78  F   UNL A   1      41.008  35.635  35.968  1.00  0.00    -0.203 F 
ATOM     79  C   UNL A   1      40.129  35.991  38.124  1.00  0.00     0.198 A 
ATOM     80  C   UNL A   1      38.679  34.354  39.111  1.00  0.00     0.198 A 
ATOM     81  F   UNL A   1      38.167  32.378  37.937  1.00  0.00    -0.203 F 
ATOM     82  F   UNL A   1      40.801  37.148  38.206  1.00  0.00    -0.200 F 
ATOM     83  C   UNL A   1      39.347  35.566  39.187  1.00  0.00     0.200 A 
ATOM     84  F   UNL A   1      37.911  33.946  40.130  1.00  0.00    -0.200 F 
ATOM     85  F   UNL A   1      39.245  36.321  40.289  1.00  0.00    -0.200 F 
ENDBRANCH  51  75
BRANCH  63  86
ATOM     86  C   UNL A   1      43.906  28.758  35.207  1.00  0.00     0.064 A 
ATOM     87  C   UNL A   1      43.736  27.648  36.047  1.00  0.00     0.173 A 
ATOM     88  C   UNL A   1      45.210  29.244  35.016  1.00  0.00     0.173 A 
ATOM     89  F   UNL A   1      42.509  27.155  36.274  1.00  0.00    -0.203 F 
ATOM     90  C   UNL A   1      44.825  27.064  36.689  1.00  0.00     0.198 A 
ATOM     91  C   UNL A   1      46.300  28.636  35.634  1.00  0.00     0.198 A 
ATOM     92  F   UNL A   1      45.429  30.299  34.216  1.00  0.00    -0.203 F 
ATOM     93  F   UNL A   1      44.633  26.035  37.526  1.00  0.00    -0.200 F 
ATOM     94  C   UNL A   1      46.106  27.552  36.476  1.00  0.00     0.200 A 
ATOM     95  F   UNL A   1      47.537  29.100  35.413  1.00  0.00    -0.200 F 
ATOM     96  F   UNL A   1      47.152  26.983  37.088  1.00  0.00    -0.200 F 
ENDBRANCH  63  86
ENDBRANCH  37  38
ENDBRANCH  29  32
ENDBRANCH  27  28
ENDBRANCH  26  27
ENDBRANCH   1  26
TORSDOF 14
ENDMDL
