MODEL 1
REMARK VINA RESULT:     -12.4      0.000      0.000
REMARK SMILES CCOC(=O)C1=NN(c2ccc(OC(F)(F)F)cc2)[C@@](C)(C(=O)NCCCNC(=O)c2ccc(-c3c4nc(c(-c5c(F)c(F)c(F)c(F)c5F)c5ccc([nH]5)c(-c5c(F)c(F)c(F)c(F)c5F)c5nc(c(-c6c(F)c(F)c(F)c(F)c6F)c6ccc3[nH]6)C=C5)C=C4)cc2)C1
REMARK SMILES IDX 25 1 24 2 22 3 23 4 20 6 6 7 7 8 94 9 8 10 21 11 4 12 5 13
REMARK SMILES IDX 3 14 2 15 1 16 9 17 10 18 19 19 11 20 18 21 12 22 13 23
REMARK SMILES IDX 14 24 15 25 16 26 17 27 26 28 27 29 28 30 29 31 30 33 31 34
REMARK SMILES IDX 32 35 93 36 33 37 92 38 34 39 35 40 36 41 86 42 37 43 91 44
REMARK SMILES IDX 85 45 87 46 38 47 90 48 84 49 83 50 39 52 71 53 51 54 70 55
REMARK SMILES IDX 52 56 55 57 69 58 88 59 53 60 54 61 68 63 89 64 56 65 40 66
REMARK SMILES IDX 41 67 49 68 42 69 43 70 47 71 50 72 44 73 45 74 48 75 46 76
REMARK SMILES IDX 72 77 73 78 81 79 74 80 75 81 79 82 82 83 76 84 77 85 80 86
REMARK SMILES IDX 78 87 57 88 58 89 66 90 59 91 60 92 64 93 67 94 61 95 62 96
REMARK SMILES IDX 65 97 63 98
REMARK H PARENT 24 5 28 32 87 51 55 62
REMARK Flexibility Score: inf
ROOT
ATOM      1  C   UNL A   1      36.874  20.594  24.975  1.00  0.00     0.117 C 
ENDROOT
BRANCH   1   2
ATOM      2  N   UNL A   1      36.975  21.715  24.063  1.00  0.00    -0.354 N 
ATOM      3  C   UNL A   1      36.202  22.808  23.826  1.00  0.00     0.248 C 
ATOM      4  O   UNL A   1      36.622  23.527  22.907  1.00  0.00    -0.272 OA
ATOM      5  H   UNL A   1      37.775  21.675  23.490  1.00  0.00     0.163 HD
BRANCH   3   6
ATOM      6  C   UNL A   1      34.913  23.194  24.623  1.00  0.00     0.144 C 
ATOM      7  C   UNL A   1      33.512  24.281  23.131  1.00  0.00     0.149 C 
ATOM      8  N   UNL A   1      33.066  23.064  23.140  1.00  0.00    -0.169 NA
ATOM      9  C   UNL A   1      34.498  24.629  24.183  1.00  0.00     0.106 C 
ATOM     10  N   UNL A   1      33.737  22.412  24.151  1.00  0.00    -0.249 N 
ATOM     11  C   UNL A   1      35.141  23.264  26.129  1.00  0.00     0.048 C 
BRANCH   7  12
ATOM     12  C   UNL A   1      33.014  25.345  22.197  1.00  0.00     0.354 C 
ATOM     13  O   UNL A   1      31.895  25.319  21.721  1.00  0.00    -0.245 OA
BRANCH  12  14
ATOM     14  O   UNL A   1      34.016  26.209  21.936  1.00  0.00    -0.461 OA
BRANCH  14  15
ATOM     15  C   UNL A   1      33.672  27.596  22.024  1.00  0.00     0.230 C 
ATOM     16  C   UNL A   1      33.686  28.046  23.473  1.00  0.00     0.049 C 
ENDBRANCH  14  15
ENDBRANCH  12  14
ENDBRANCH   7  12
BRANCH  10  17
ATOM     17  C   UNL A   1      33.315  21.127  24.459  1.00  0.00     0.061 A 
ATOM     18  C   UNL A   1      32.807  20.292  23.447  1.00  0.00     0.032 A 
ATOM     19  C   UNL A   1      33.304  20.598  25.753  1.00  0.00     0.032 A 
ATOM     20  C   UNL A   1      32.381  18.983  23.702  1.00  0.00     0.049 A 
ATOM     21  C   UNL A   1      32.877  19.285  26.021  1.00  0.00     0.049 A 
ATOM     22  C   UNL A   1      32.428  18.463  24.992  1.00  0.00     0.129 A 
BRANCH  22  23
ATOM     23  O   UNL A   1      32.002  17.173  25.102  1.00  0.00    -0.406 OA
BRANCH  23  24
ATOM     24  C   UNL A   1      32.956  16.146  24.898  1.00  0.00     0.573 C 
ATOM     25  F   UNL A   1      32.446  14.937  25.219  1.00  0.00    -0.132 F 
ATOM     26  F   UNL A   1      33.387  16.128  23.619  1.00  0.00    -0.132 F 
ATOM     27  F   UNL A   1      34.019  16.376  25.699  1.00  0.00    -0.132 F 
ENDBRANCH  23  24
ENDBRANCH  22  23
ENDBRANCH  10  17
ENDBRANCH   3   6
ENDBRANCH   1   2
BRANCH   1  28
ATOM     28  C   UNL A   1      38.098  19.683  24.942  1.00  0.00     0.042 C 
BRANCH  28  29
ATOM     29  C   UNL A   1      39.229  20.064  25.894  1.00  0.00     0.118 C 
BRANCH  29  30
ATOM     30  N   UNL A   1      40.304  19.087  25.915  1.00  0.00    -0.352 N 
ATOM     31  C   UNL A   1      41.661  19.255  26.007  1.00  0.00     0.251 C 
ATOM     32  H   UNL A   1      40.009  18.150  25.853  1.00  0.00     0.163 HD
ATOM     33  O   UNL A   1      42.394  18.280  25.854  1.00  0.00    -0.269 OA
BRANCH  31  34
ATOM     34  C   UNL A   1      42.270  20.579  26.278  1.00  0.00     0.039 A 
ATOM     35  C   UNL A   1      42.409  20.978  27.613  1.00  0.00     0.014 A 
ATOM     36  C   UNL A   1      42.607  21.470  25.253  1.00  0.00     0.014 A 
ATOM     37  C   UNL A   1      42.907  22.245  27.923  1.00  0.00     0.010 A 
ATOM     38  C   UNL A   1      43.137  22.727  25.563  1.00  0.00     0.010 A 
ATOM     39  C   UNL A   1      43.279  23.127  26.899  1.00  0.00    -0.014 A 
BRANCH  39  40
ATOM     40  C   UNL A   1      43.760  24.493  27.219  1.00  0.00     0.031 A 
ATOM     41  C   UNL A   1      42.836  25.480  27.873  1.00  0.00     0.074 A 
ATOM     42  C   UNL A   1      45.018  24.859  26.913  1.00  0.00     0.049 A 
ATOM     43  N   UNL A   1      43.024  26.753  28.113  1.00  0.00    -0.248 NA
ATOM     44  C   UNL A   1      41.522  24.974  28.298  1.00  0.00     0.031 C 
ATOM     45  C   UNL A   1      46.015  24.009  26.264  1.00  0.00     0.029 A 
ATOM     46  N   UNL A   1      45.670  26.049  27.115  1.00  0.00    -0.354 N 
ATOM     47  C   UNL A   1      41.833  27.214  28.653  1.00  0.00     0.074 A 
ATOM     48  C   UNL A   1      40.941  26.078  28.749  1.00  0.00     0.031 C 
ATOM     49  C   UNL A   1      47.161  24.700  26.138  1.00  0.00     0.029 A 
ATOM     50  C   UNL A   1      46.972  26.041  26.686  1.00  0.00     0.049 A 
ATOM     51  H   UNL A   1      45.244  26.835  27.528  1.00  0.00     0.167 HD
ATOM     52  C   UNL A   1      41.507  28.479  29.011  1.00  0.00     0.037 A 
ATOM     53  C   UNL A   1      47.910  27.005  26.738  1.00  0.00     0.037 A 
ATOM     54  C   UNL A   1      42.401  29.603  28.955  1.00  0.00     0.049 A 
ATOM     55  C   UNL A   1      47.579  28.339  27.337  1.00  0.00     0.074 A 
ATOM     56  C   UNL A   1      42.134  30.942  29.185  1.00  0.00     0.029 A 
ATOM     57  N   UNL A   1      43.756  29.503  28.688  1.00  0.00    -0.354 N 
ATOM     58  N   UNL A   1      46.422  28.791  27.749  1.00  0.00    -0.248 NA
ATOM     59  C   UNL A   1      48.687  29.296  27.489  1.00  0.00     0.031 C 
ATOM     60  C   UNL A   1      43.340  31.651  29.089  1.00  0.00     0.029 A 
ATOM     61  C   UNL A   1      44.351  30.749  28.802  1.00  0.00     0.049 A 
ATOM     62  H   UNL A   1      44.226  28.672  28.451  1.00  0.00     0.167 HD
ATOM     63  C   UNL A   1      46.654  30.084  28.191  1.00  0.00     0.074 A 
ATOM     64  C   UNL A   1      48.069  30.341  28.025  1.00  0.00     0.031 C 
ATOM     65  C   UNL A   1      45.762  30.984  28.668  1.00  0.00     0.037 A 
BRANCH  52  66
ATOM     66  C   UNL A   1      40.102  28.715  29.460  1.00  0.00     0.064 A 
ATOM     67  C   UNL A   1      39.722  28.527  30.794  1.00  0.00     0.173 A 
ATOM     68  C   UNL A   1      39.132  29.148  28.545  1.00  0.00     0.173 A 
ATOM     69  F   UNL A   1      40.616  28.096  31.697  1.00  0.00    -0.203 F 
ATOM     70  C   UNL A   1      38.411  28.762  31.199  1.00  0.00     0.198 A 
ATOM     71  C   UNL A   1      37.824  29.388  28.954  1.00  0.00     0.198 A 
ATOM     72  F   UNL A   1      39.454  29.333  27.256  1.00  0.00    -0.203 F 
ATOM     73  F   UNL A   1      38.058  28.560  32.476  1.00  0.00    -0.200 F 
ATOM     74  C   UNL A   1      37.465  29.195  30.279  1.00  0.00     0.200 A 
ATOM     75  F   UNL A   1      36.910  29.802  28.065  1.00  0.00    -0.200 F 
ATOM     76  F   UNL A   1      36.201  29.416  30.670  1.00  0.00    -0.200 F 
ENDBRANCH  52  66
BRANCH  53  77
ATOM     77  C   UNL A   1      49.269  26.727  26.226  1.00  0.00     0.064 A 
ATOM     78  C   UNL A   1      50.235  26.135  27.050  1.00  0.00     0.173 A 
ATOM     79  C   UNL A   1      49.622  27.037  24.907  1.00  0.00     0.173 A 
ATOM     80  F   UNL A   1      49.939  25.840  28.324  1.00  0.00    -0.203 F 
ATOM     81  C   UNL A   1      51.513  25.863  26.569  1.00  0.00     0.198 A 
ATOM     82  C   UNL A   1      50.898  26.759  24.427  1.00  0.00     0.198 A 
ATOM     83  F   UNL A   1      48.726  27.610  24.091  1.00  0.00    -0.203 F 
ATOM     84  F   UNL A   1      52.427  25.308  27.377  1.00  0.00    -0.200 F 
ATOM     85  C   UNL A   1      51.843  26.173  25.258  1.00  0.00     0.200 A 
ATOM     86  F   UNL A   1      51.217  27.062  23.161  1.00  0.00    -0.200 F 
ATOM     87  F   UNL A   1      53.075  25.914  24.797  1.00  0.00    -0.200 F 
ENDBRANCH  53  77
BRANCH  65  88
ATOM     88  C   UNL A   1      46.288  32.326  29.056  1.00  0.00     0.064 A 
ATOM     89  C   UNL A   1      46.398  33.355  28.111  1.00  0.00     0.173 A 
ATOM     90  C   UNL A   1      46.657  32.596  30.380  1.00  0.00     0.173 A 
ATOM     91  F   UNL A   1      46.065  33.135  26.831  1.00  0.00    -0.203 F 
ATOM     92  C   UNL A   1      46.862  34.614  28.482  1.00  0.00     0.198 A 
ATOM     93  C   UNL A   1      47.120  33.855  30.747  1.00  0.00     0.198 A 
ATOM     94  F   UNL A   1      46.578  31.632  31.311  1.00  0.00    -0.203 F 
ATOM     95  F   UNL A   1      46.968  35.585  27.564  1.00  0.00    -0.200 F 
ATOM     96  C   UNL A   1      47.221  34.863  29.798  1.00  0.00     0.200 A 
ATOM     97  F   UNL A   1      47.478  34.093  32.016  1.00  0.00    -0.200 F 
ATOM     98  F   UNL A   1      47.673  36.074  30.152  1.00  0.00    -0.200 F 
ENDBRANCH  65  88
ENDBRANCH  39  40
ENDBRANCH  31  34
ENDBRANCH  29  30
ENDBRANCH  28  29
ENDBRANCH   1  28
TORSDOF 16
ENDMDL
MODEL 2
REMARK VINA RESULT:     -12.3      0.717      7.059
REMARK SMILES CCOC(=O)C1=NN(c2ccc(OC(F)(F)F)cc2)[C@@](C)(C(=O)NCCCNC(=O)c2ccc(-c3c4nc(c(-c5c(F)c(F)c(F)c(F)c5F)c5ccc([nH]5)c(-c5c(F)c(F)c(F)c(F)c5F)c5nc(c(-c6c(F)c(F)c(F)c(F)c6F)c6ccc3[nH]6)C=C5)C=C4)cc2)C1
REMARK SMILES IDX 25 1 24 2 22 3 23 4 20 6 6 7 7 8 94 9 8 10 21 11 4 12 5 13
REMARK SMILES IDX 3 14 2 15 1 16 9 17 10 18 19 19 11 20 18 21 12 22 13 23
REMARK SMILES IDX 14 24 15 25 16 26 17 27 26 28 27 29 28 30 29 31 30 33 31 34
REMARK SMILES IDX 32 35 93 36 33 37 92 38 34 39 35 40 36 41 86 42 37 43 91 44
REMARK SMILES IDX 85 45 87 46 38 47 90 48 84 49 83 50 39 52 71 53 51 54 70 55
REMARK SMILES IDX 52 56 55 57 69 58 88 59 53 60 54 61 68 63 89 64 56 65 40 66
REMARK SMILES IDX 41 67 49 68 42 69 43 70 47 71 50 72 44 73 45 74 48 75 46 76
REMARK SMILES IDX 72 77 73 78 81 79 74 80 75 81 79 82 82 83 76 84 77 85 80 86
REMARK SMILES IDX 78 87 57 88 58 89 66 90 59 91 60 92 64 93 67 94 61 95 62 96
REMARK SMILES IDX 65 97 63 98
REMARK H PARENT 24 5 28 32 87 51 55 62
REMARK Flexibility Score: inf
ROOT
ATOM      1  C   UNL A   1      36.933  20.494  24.947  1.00  0.00     0.117 C 
ENDROOT
BRANCH   1   2
ATOM      2  N   UNL A   1      36.988  21.628  24.046  1.00  0.00    -0.354 N 
ATOM      3  C   UNL A   1      36.180  22.699  23.833  1.00  0.00     0.248 C 
ATOM      4  O   UNL A   1      36.565  23.441  22.916  1.00  0.00    -0.272 OA
ATOM      5  H   UNL A   1      37.782  21.619  23.464  1.00  0.00     0.163 HD
BRANCH   3   6
ATOM      6  C   UNL A   1      34.889  23.036  24.650  1.00  0.00     0.144 C 
ATOM      7  C   UNL A   1      33.524  24.279  23.249  1.00  0.00     0.149 C 
ATOM      8  N   UNL A   1      33.056  23.076  23.145  1.00  0.00    -0.169 NA
ATOM      9  C   UNL A   1      34.505  24.512  24.337  1.00  0.00     0.106 C 
ATOM     10  N   UNL A   1      33.704  22.322  24.099  1.00  0.00    -0.249 N 
ATOM     11  C   UNL A   1      35.103  22.966  26.157  1.00  0.00     0.048 C 
BRANCH   7  12
ATOM     12  C   UNL A   1      33.055  25.432  22.411  1.00  0.00     0.354 C 
ATOM     13  O   UNL A   1      33.713  25.875  21.490  1.00  0.00    -0.245 OA
BRANCH  12  14
ATOM     14  O   UNL A   1      31.896  25.903  22.916  1.00  0.00    -0.461 OA
BRANCH  14  15
ATOM     15  C   UNL A   1      31.291  26.971  22.177  1.00  0.00     0.230 C 
ATOM     16  C   UNL A   1      31.493  28.287  22.903  1.00  0.00     0.049 C 
ENDBRANCH  14  15
ENDBRANCH  12  14
ENDBRANCH   7  12
BRANCH  10  17
ATOM     17  C   UNL A   1      33.256  21.023  24.286  1.00  0.00     0.061 A 
ATOM     18  C   UNL A   1      33.389  20.407  25.544  1.00  0.00     0.032 A 
ATOM     19  C   UNL A   1      32.714  20.231  23.270  1.00  0.00     0.032 A 
ATOM     20  C   UNL A   1      32.940  19.104  25.789  1.00  0.00     0.049 A 
ATOM     21  C   UNL A   1      32.260  18.920  23.504  1.00  0.00     0.049 A 
ATOM     22  C   UNL A   1      32.356  18.355  24.771  1.00  0.00     0.129 A 
BRANCH  22  23
ATOM     23  O   UNL A   1      31.946  17.109  25.144  1.00  0.00    -0.406 OA
BRANCH  23  24
ATOM     24  C   UNL A   1      32.885  16.053  25.053  1.00  0.00     0.573 C 
ATOM     25  F   UNL A   1      33.858  16.183  25.980  1.00  0.00    -0.132 F 
ATOM     26  F   UNL A   1      32.284  14.852  25.197  1.00  0.00    -0.132 F 
ATOM     27  F   UNL A   1      33.463  16.091  23.832  1.00  0.00    -0.132 F 
ENDBRANCH  23  24
ENDBRANCH  22  23
ENDBRANCH  10  17
ENDBRANCH   3   6
ENDBRANCH   1   2
BRANCH   1  28
ATOM     28  C   UNL A   1      38.208  19.655  24.931  1.00  0.00     0.042 C 
BRANCH  28  29
ATOM     29  C   UNL A   1      39.230  19.988  26.015  1.00  0.00     0.118 C 
BRANCH  29  30
ATOM     30  N   UNL A   1      40.402  19.129  25.970  1.00  0.00    -0.352 N 
ATOM     31  C   UNL A   1      41.736  19.439  26.018  1.00  0.00     0.251 C 
ATOM     32  H   UNL A   1      40.205  18.168  25.892  1.00  0.00     0.163 HD
ATOM     33  O   UNL A   1      42.561  18.550  25.813  1.00  0.00    -0.269 OA
BRANCH  31  34
ATOM     34  C   UNL A   1      42.213  20.812  26.305  1.00  0.00     0.039 A 
ATOM     35  C   UNL A   1      42.448  21.161  27.641  1.00  0.00     0.014 A 
ATOM     36  C   UNL A   1      42.330  21.785  25.308  1.00  0.00     0.014 A 
ATOM     37  C   UNL A   1      42.826  22.463  27.975  1.00  0.00     0.010 A 
ATOM     38  C   UNL A   1      42.740  23.082  25.637  1.00  0.00     0.010 A 
ATOM     39  C   UNL A   1      42.979  23.432  26.973  1.00  0.00    -0.014 A 
BRANCH  39  40
ATOM     40  C   UNL A   1      43.329  24.830  27.324  1.00  0.00     0.031 A 
ATOM     41  C   UNL A   1      44.711  25.349  27.048  1.00  0.00     0.074 A 
ATOM     42  C   UNL A   1      42.417  25.633  27.903  1.00  0.00     0.049 A 
ATOM     43  N   UNL A   1      45.248  26.491  27.398  1.00  0.00    -0.248 NA
ATOM     44  C   UNL A   1      45.613  24.463  26.298  1.00  0.00     0.031 C 
ATOM     45  C   UNL A   1      41.046  25.254  28.240  1.00  0.00     0.029 A 
ATOM     46  N   UNL A   1      42.515  26.941  28.305  1.00  0.00    -0.354 N 
ATOM     47  C   UNL A   1      46.565  26.435  26.969  1.00  0.00     0.074 A 
ATOM     48  C   UNL A   1      46.739  25.165  26.295  1.00  0.00     0.031 C 
ATOM     49  C   UNL A   1      40.422  26.315  28.783  1.00  0.00     0.029 A 
ATOM     50  C   UNL A   1      41.355  27.439  28.839  1.00  0.00     0.049 A 
ATOM     51  H   UNL A   1      43.340  27.472  28.219  1.00  0.00     0.167 HD
ATOM     52  C   UNL A   1      47.547  27.350  27.147  1.00  0.00     0.037 A 
ATOM     53  C   UNL A   1      41.073  28.666  29.314  1.00  0.00     0.037 A 
ATOM     54  C   UNL A   1      47.372  28.627  27.781  1.00  0.00     0.049 A 
ATOM     55  C   UNL A   1      42.128  29.732  29.305  1.00  0.00     0.074 A 
ATOM     56  C   UNL A   1      48.324  29.575  28.113  1.00  0.00     0.029 A 
ATOM     57  N   UNL A   1      46.141  29.153  28.138  1.00  0.00    -0.354 N 
ATOM     58  N   UNL A   1      43.396  29.632  28.992  1.00  0.00    -0.248 NA
ATOM     59  C   UNL A   1      41.713  31.085  29.706  1.00  0.00     0.031 C 
ATOM     60  C   UNL A   1      47.664  30.693  28.642  1.00  0.00     0.029 A 
ATOM     61  C   UNL A   1      46.303  30.435  28.636  1.00  0.00     0.049 A 
ATOM     62  H   UNL A   1      45.280  28.686  28.052  1.00  0.00     0.167 HD
ATOM     63  C   UNL A   1      43.933  30.896  29.172  1.00  0.00     0.074 A 
ATOM     64  C   UNL A   1      42.851  31.759  29.597  1.00  0.00     0.031 C 
ATOM     65  C   UNL A   1      45.218  31.294  29.023  1.00  0.00     0.037 A 
BRANCH  52  66
ATOM     66  C   UNL A   1      48.915  26.975  26.680  1.00  0.00     0.064 A 
ATOM     67  C   UNL A   1      49.849  26.398  27.549  1.00  0.00     0.173 A 
ATOM     68  C   UNL A   1      49.288  27.182  25.344  1.00  0.00     0.173 A 
ATOM     69  F   UNL A   1      49.538  26.199  28.839  1.00  0.00    -0.203 F 
ATOM     70  C   UNL A   1      51.117  26.044  27.097  1.00  0.00     0.198 A 
ATOM     71  C   UNL A   1      50.553  26.822  24.893  1.00  0.00     0.198 A 
ATOM     72  F   UNL A   1      48.425  27.739  24.481  1.00  0.00    -0.203 F 
ATOM     73  F   UNL A   1      52.006  25.510  27.945  1.00  0.00    -0.200 F 
ATOM     74  C   UNL A   1      51.466  26.254  25.769  1.00  0.00     0.200 A 
ATOM     75  F   UNL A   1      50.891  27.028  23.612  1.00  0.00    -0.200 F 
ATOM     76  F   UNL A   1      52.689  25.916  25.336  1.00  0.00    -0.200 F 
ENDBRANCH  52  66
BRANCH  53  77
ATOM     77  C   UNL A   1      39.713  28.960  29.815  1.00  0.00     0.064 A 
ATOM     78  C   UNL A   1      39.383  28.733  31.157  1.00  0.00     0.173 A 
ATOM     79  C   UNL A   1      38.729  29.481  28.968  1.00  0.00     0.173 A 
ATOM     80  F   UNL A   1      40.296  28.218  31.994  1.00  0.00    -0.203 F 
ATOM     81  C   UNL A   1      38.107  29.017  31.636  1.00  0.00     0.198 A 
ATOM     82  C   UNL A   1      37.455  29.770  29.450  1.00  0.00     0.198 A 
ATOM     83  F   UNL A   1      39.006  29.706  27.676  1.00  0.00    -0.203 F 
ATOM     84  F   UNL A   1      37.807  28.780  32.920  1.00  0.00    -0.200 F 
ATOM     85  C   UNL A   1      37.144  29.537  30.782  1.00  0.00     0.200 A 
ATOM     86  F   UNL A   1      36.525  30.269  28.624  1.00  0.00    -0.200 F 
ATOM     87  F   UNL A   1      35.915  29.807  31.243  1.00  0.00    -0.200 F 
ENDBRANCH  53  77
BRANCH  65  88
ATOM     88  C   UNL A   1      45.526  32.727  29.307  1.00  0.00     0.064 A 
ATOM     89  C   UNL A   1      45.475  33.689  28.289  1.00  0.00     0.173 A 
ATOM     90  C   UNL A   1      45.846  33.147  30.605  1.00  0.00     0.173 A 
ATOM     91  F   UNL A   1      45.183  33.326  27.032  1.00  0.00    -0.203 F 
ATOM     92  C   UNL A   1      45.734  35.028  28.563  1.00  0.00     0.198 A 
ATOM     93  C   UNL A   1      46.105  34.487  30.875  1.00  0.00     0.198 A 
ATOM     94  F   UNL A   1      45.918  32.254  31.604  1.00  0.00    -0.203 F 
ATOM     95  F   UNL A   1      45.688  35.934  27.576  1.00  0.00    -0.200 F 
ATOM     96  C   UNL A   1      46.048  35.426  29.854  1.00  0.00     0.200 A 
ATOM     97  F   UNL A   1      46.418  34.871  32.120  1.00  0.00    -0.200 F 
ATOM     98  F   UNL A   1      46.303  36.716  30.115  1.00  0.00    -0.200 F 
ENDBRANCH  65  88
ENDBRANCH  39  40
ENDBRANCH  31  34
ENDBRANCH  29  30
ENDBRANCH  28  29
ENDBRANCH   1  28
TORSDOF 16
ENDMDL
MODEL 3
REMARK VINA RESULT:     -12.3      5.069      8.904
REMARK SMILES CCOC(=O)C1=NN(c2ccc(OC(F)(F)F)cc2)[C@@](C)(C(=O)NCCCNC(=O)c2ccc(-c3c4nc(c(-c5c(F)c(F)c(F)c(F)c5F)c5ccc([nH]5)c(-c5c(F)c(F)c(F)c(F)c5F)c5nc(c(-c6c(F)c(F)c(F)c(F)c6F)c6ccc3[nH]6)C=C5)C=C4)cc2)C1
REMARK SMILES IDX 25 1 24 2 22 3 23 4 20 6 6 7 7 8 94 9 8 10 21 11 4 12 5 13
REMARK SMILES IDX 3 14 2 15 1 16 9 17 10 18 19 19 11 20 18 21 12 22 13 23
REMARK SMILES IDX 14 24 15 25 16 26 17 27 26 28 27 29 28 30 29 31 30 33 31 34
REMARK SMILES IDX 32 35 93 36 33 37 92 38 34 39 35 40 36 41 86 42 37 43 91 44
REMARK SMILES IDX 85 45 87 46 38 47 90 48 84 49 83 50 39 52 71 53 51 54 70 55
REMARK SMILES IDX 52 56 55 57 69 58 88 59 53 60 54 61 68 63 89 64 56 65 40 66
REMARK SMILES IDX 41 67 49 68 42 69 43 70 47 71 50 72 44 73 45 74 48 75 46 76
REMARK SMILES IDX 72 77 73 78 81 79 74 80 75 81 79 82 82 83 76 84 77 85 80 86
REMARK SMILES IDX 78 87 57 88 58 89 66 90 59 91 60 92 64 93 67 94 61 95 62 96
REMARK SMILES IDX 65 97 63 98
REMARK H PARENT 24 5 28 32 87 51 55 62
REMARK Flexibility Score: inf
ROOT
ATOM      1  C   UNL A   1      31.009  27.498  26.565  1.00  0.00     0.117 C 
ENDROOT
BRANCH   1   2
ATOM      2  N   UNL A   1      31.416  26.146  26.890  1.00  0.00    -0.354 N 
ATOM      3  C   UNL A   1      32.113  25.188  26.224  1.00  0.00     0.248 C 
ATOM      4  O   UNL A   1      32.213  24.120  26.847  1.00  0.00    -0.272 OA
ATOM      5  H   UNL A   1      31.124  25.861  27.786  1.00  0.00     0.163 HD
BRANCH   3   6
ATOM      6  C   UNL A   1      32.775  25.364  24.819  1.00  0.00     0.144 C 
ATOM      7  C   UNL A   1      32.207  23.490  23.580  1.00  0.00     0.149 C 
ATOM      8  N   UNL A   1      31.344  24.379  23.203  1.00  0.00    -0.169 NA
ATOM      9  C   UNL A   1      33.348  23.980  24.391  1.00  0.00     0.106 C 
ATOM     10  N   UNL A   1      31.746  25.573  23.763  1.00  0.00    -0.249 N 
ATOM     11  C   UNL A   1      33.960  26.323  24.833  1.00  0.00     0.048 C 
BRANCH   7  12
ATOM     12  C   UNL A   1      32.159  22.050  23.157  1.00  0.00     0.354 C 
ATOM     13  O   UNL A   1      32.106  21.718  21.989  1.00  0.00    -0.245 OA
BRANCH  12  14
ATOM     14  O   UNL A   1      32.089  21.270  24.255  1.00  0.00    -0.461 OA
BRANCH  14  15
ATOM     15  C   UNL A   1      33.112  20.274  24.369  1.00  0.00     0.230 C 
ATOM     16  C   UNL A   1      32.527  18.895  24.127  1.00  0.00     0.049 C 
ENDBRANCH  14  15
ENDBRANCH  12  14
ENDBRANCH   7  12
BRANCH  10  17
ATOM     17  C   UNL A   1      31.060  26.713  23.373  1.00  0.00     0.061 A 
ATOM     18  C   UNL A   1      29.664  26.783  23.533  1.00  0.00     0.032 A 
ATOM     19  C   UNL A   1      31.664  27.815  22.761  1.00  0.00     0.032 A 
ATOM     20  C   UNL A   1      28.927  27.916  23.169  1.00  0.00     0.049 A 
ATOM     21  C   UNL A   1      30.933  28.959  22.390  1.00  0.00     0.049 A 
ATOM     22  C   UNL A   1      29.560  29.022  22.608  1.00  0.00     0.129 A 
BRANCH  22  23
ATOM     23  O   UNL A   1      28.733  30.064  22.316  1.00  0.00    -0.406 OA
BRANCH  23  24
ATOM     24  C   UNL A   1      28.509  31.031  23.327  1.00  0.00     0.573 C 
ATOM     25  F   UNL A   1      29.487  30.997  24.258  1.00  0.00    -0.132 F 
ATOM     26  F   UNL A   1      28.428  32.274  22.805  1.00  0.00    -0.132 F 
ATOM     27  F   UNL A   1      27.338  30.754  23.940  1.00  0.00    -0.132 F 
ENDBRANCH  23  24
ENDBRANCH  22  23
ENDBRANCH  10  17
ENDBRANCH   3   6
ENDBRANCH   1   2
BRANCH   1  28
ATOM     28  C   UNL A   1      31.912  28.561  27.184  1.00  0.00     0.042 C 
BRANCH  28  29
ATOM     29  C   UNL A   1      32.675  29.436  26.192  1.00  0.00     0.118 C 
BRANCH  29  30
ATOM     30  N   UNL A   1      32.517  30.857  26.454  1.00  0.00    -0.352 N 
ATOM     31  C   UNL A   1      33.273  31.714  27.211  1.00  0.00     0.251 C 
ATOM     32  H   UNL A   1      31.739  31.272  26.016  1.00  0.00     0.163 HD
ATOM     33  O   UNL A   1      32.860  32.854  27.409  1.00  0.00    -0.269 OA
BRANCH  31  34
ATOM     34  C   UNL A   1      34.569  31.303  27.800  1.00  0.00     0.039 A 
ATOM     35  C   UNL A   1      34.704  29.979  28.235  1.00  0.00     0.014 A 
ATOM     36  C   UNL A   1      35.607  32.213  28.028  1.00  0.00     0.014 A 
ATOM     37  C   UNL A   1      35.877  29.559  28.865  1.00  0.00     0.010 A 
ATOM     38  C   UNL A   1      36.795  31.786  28.630  1.00  0.00     0.010 A 
ATOM     39  C   UNL A   1      36.933  30.459  29.063  1.00  0.00    -0.014 A 
BRANCH  39  40
ATOM     40  C   UNL A   1      38.161  30.034  29.779  1.00  0.00     0.031 A 
ATOM     41  C   UNL A   1      38.400  30.484  31.191  1.00  0.00     0.074 A 
ATOM     42  C   UNL A   1      39.071  29.257  29.163  1.00  0.00     0.049 A 
ATOM     43  N   UNL A   1      39.465  30.330  31.937  1.00  0.00    -0.248 NA
ATOM     44  C   UNL A   1      37.307  31.220  31.845  1.00  0.00     0.031 C 
ATOM     45  C   UNL A   1      38.974  28.761  27.791  1.00  0.00     0.029 A 
ATOM     46  N   UNL A   1      40.259  28.748  29.622  1.00  0.00    -0.354 N 
ATOM     47  C   UNL A   1      39.197  31.003  33.119  1.00  0.00     0.074 A 
ATOM     48  C   UNL A   1      37.853  31.531  33.013  1.00  0.00     0.031 C 
ATOM     49  C   UNL A   1      40.051  28.001  27.525  1.00  0.00     0.029 A 
ATOM     50  C   UNL A   1      40.914  27.969  28.703  1.00  0.00     0.049 A 
ATOM     51  H   UNL A   1      40.609  28.926  30.525  1.00  0.00     0.167 HD
ATOM     52  C   UNL A   1      40.011  31.185  34.186  1.00  0.00     0.037 A 
ATOM     53  C   UNL A   1      42.076  27.299  28.804  1.00  0.00     0.037 A 
ATOM     54  C   UNL A   1      41.331  30.631  34.314  1.00  0.00     0.049 A 
ATOM     55  C   UNL A   1      42.861  27.348  30.081  1.00  0.00     0.074 A 
ATOM     56  C   UNL A   1      42.278  30.851  35.300  1.00  0.00     0.029 A 
ATOM     57  N   UNL A   1      41.870  29.704  33.438  1.00  0.00    -0.354 N 
ATOM     58  N   UNL A   1      42.644  28.070  31.152  1.00  0.00    -0.248 NA
ATOM     59  C   UNL A   1      44.046  26.481  30.171  1.00  0.00     0.031 C 
ATOM     60  C   UNL A   1      43.381  30.027  35.037  1.00  0.00     0.029 A 
ATOM     61  C   UNL A   1      43.115  29.298  33.890  1.00  0.00     0.049 A 
ATOM     62  H   UNL A   1      41.435  29.381  32.617  1.00  0.00     0.167 HD
ATOM     63  C   UNL A   1      43.669  27.762  32.032  1.00  0.00     0.074 A 
ATOM     64  C   UNL A   1      44.497  26.765  31.386  1.00  0.00     0.031 C 
ATOM     65  C   UNL A   1      43.912  28.283  33.258  1.00  0.00     0.037 A 
BRANCH  52  66
ATOM     66  C   UNL A   1      39.502  32.059  35.285  1.00  0.00     0.064 A 
ATOM     67  C   UNL A   1      39.804  33.426  35.328  1.00  0.00     0.173 A 
ATOM     68  C   UNL A   1      38.691  31.523  36.296  1.00  0.00     0.173 A 
ATOM     69  F   UNL A   1      40.590  33.973  34.389  1.00  0.00    -0.203 F 
ATOM     70  C   UNL A   1      39.313  34.230  36.353  1.00  0.00     0.198 A 
ATOM     71  C   UNL A   1      38.197  32.330  37.315  1.00  0.00     0.198 A 
ATOM     72  F   UNL A   1      38.385  30.217  36.295  1.00  0.00    -0.203 F 
ATOM     73  F   UNL A   1      39.626  35.532  36.391  1.00  0.00    -0.200 F 
ATOM     74  C   UNL A   1      38.509  33.682  37.343  1.00  0.00     0.200 A 
ATOM     75  F   UNL A   1      37.424  31.800  38.273  1.00  0.00    -0.200 F 
ATOM     76  F   UNL A   1      38.041  34.457  38.333  1.00  0.00    -0.200 F 
ENDBRANCH  52  66
BRANCH  53  77
ATOM     77  C   UNL A   1      42.556  26.494  27.659  1.00  0.00     0.064 A 
ATOM     78  C   UNL A   1      43.481  27.025  26.752  1.00  0.00     0.173 A 
ATOM     79  C   UNL A   1      42.108  25.183  27.460  1.00  0.00     0.173 A 
ATOM     80  F   UNL A   1      43.920  28.284  26.901  1.00  0.00    -0.203 F 
ATOM     81  C   UNL A   1      43.943  26.268  25.678  1.00  0.00     0.198 A 
ATOM     82  C   UNL A   1      42.575  24.426  26.389  1.00  0.00     0.198 A 
ATOM     83  F   UNL A   1      41.218  24.643  28.304  1.00  0.00    -0.203 F 
ATOM     84  F   UNL A   1      44.818  26.800  24.814  1.00  0.00    -0.200 F 
ATOM     85  C   UNL A   1      43.491  24.969  25.499  1.00  0.00     0.200 A 
ATOM     86  F   UNL A   1      42.135  23.173  26.215  1.00  0.00    -0.200 F 
ATOM     87  F   UNL A   1      43.933  24.243  24.463  1.00  0.00    -0.200 F 
ENDBRANCH  53  77
BRANCH  65  88
ATOM     88  C   UNL A   1      45.112  27.779  33.988  1.00  0.00     0.064 A 
ATOM     89  C   UNL A   1      45.010  26.705  34.882  1.00  0.00     0.173 A 
ATOM     90  C   UNL A   1      46.373  28.350  33.775  1.00  0.00     0.173 A 
ATOM     91  F   UNL A   1      43.819  26.137  35.122  1.00  0.00    -0.203 F 
ATOM     92  C   UNL A   1      46.136  26.218  35.540  1.00  0.00     0.198 A 
ATOM     93  C   UNL A   1      47.496  27.861  34.434  1.00  0.00     0.198 A 
ATOM     94  F   UNL A   1      46.509  29.389  32.936  1.00  0.00    -0.203 F 
ATOM     95  F   UNL A   1      46.019  25.195  36.397  1.00  0.00    -0.200 F 
ATOM     96  C   UNL A   1      47.377  26.795  35.315  1.00  0.00     0.200 A 
ATOM     97  F   UNL A   1      48.694  28.425  34.226  1.00  0.00    -0.200 F 
ATOM     98  F   UNL A   1      48.459  26.329  35.954  1.00  0.00    -0.200 F 
ENDBRANCH  65  88
ENDBRANCH  39  40
ENDBRANCH  31  34
ENDBRANCH  29  30
ENDBRANCH  28  29
ENDBRANCH   1  28
TORSDOF 16
ENDMDL
