MODEL 1
REMARK VINA RESULT:     -11.5      0.000      0.000
REMARK SMILES CNC(=O)[C@H](C)Oc1cc([N+](=O)[O-])c(C(=O)NCCCNC(=O)c2ccc(-c3c4nc(c(-c5c(F)c(F)c(F)c(F)c5F)c5ccc([nH]5)c(-c5c(F)c(F)c(F)c(F)c5F)c5nc(c(-c6c(F)c(F)c(F)c(F)c6F)c6ccc3[nH]6)C=C5)C=C4)cc2)cc1OC
REMARK SMILES IDX 18 1 17 2 15 3 16 4 14 6 8 7 9 8 88 9 10 10 87 11 7 12 5 13
REMARK SMILES IDX 6 14 3 15 1 16 2 17 4 19 89 20 90 21 11 22 12 23 13 24 19 25
REMARK SMILES IDX 20 26 21 27 22 28 23 30 24 31 25 32 86 33 26 34 85 35 27 36
REMARK SMILES IDX 28 37 29 38 79 39 30 40 84 41 78 42 80 43 31 44 83 45 77 46
REMARK SMILES IDX 76 47 32 49 64 50 44 51 63 52 45 53 48 54 62 55 81 56 46 57
REMARK SMILES IDX 47 58 61 60 82 61 49 62 33 63 34 64 42 65 35 66 36 67 40 68
REMARK SMILES IDX 43 69 37 70 38 71 41 72 39 73 65 74 66 75 74 76 67 77 68 78
REMARK SMILES IDX 72 79 75 80 69 81 70 82 73 83 71 84 50 85 51 86 59 87 52 88
REMARK SMILES IDX 53 89 57 90 60 91 54 92 55 93 58 94 56 95
REMARK H PARENT 17 5 2 18 21 29 80 48 48 59
REMARK Flexibility Score: inf
ROOT
ATOM      1  C   UNL A   1      35.609  21.081  25.339  1.00  0.00     0.118 C 
ENDROOT
BRANCH   1   2
ATOM      2  N   UNL A   1      34.445  20.532  24.650  1.00  0.00    -0.352 N 
ATOM      3  C   UNL A   1      33.240  21.079  24.254  1.00  0.00     0.258 C 
ATOM      4  O   UNL A   1      32.548  20.417  23.492  1.00  0.00    -0.269 OA
ATOM      5  H   UNL A   1      34.537  19.578  24.420  1.00  0.00     0.163 HD
BRANCH   3   6
ATOM      6  C   UNL A   1      32.827  22.458  24.640  1.00  0.00     0.121 A 
ATOM      7  C   UNL A   1      32.528  24.965  25.899  1.00  0.00     0.169 A 
ATOM      8  C   UNL A   1      33.299  24.870  24.744  1.00  0.00     0.137 A 
ATOM      9  C   UNL A   1      31.734  23.875  26.273  1.00  0.00     0.162 A 
ATOM     10  C   UNL A   1      33.425  23.610  24.115  1.00  0.00     0.286 A 
ATOM     11  C   UNL A   1      31.865  22.656  25.619  1.00  0.00     0.071 A 
BRANCH   7  12
ATOM     12  O   UNL A   1      32.389  26.081  26.633  1.00  0.00    -0.477 OA
BRANCH  12  13
ATOM     13  C   UNL A   1      31.504  27.131  26.324  1.00  0.00     0.259 C 
ATOM     14  C   UNL A   1      32.070  28.249  27.240  1.00  0.00     0.064 C 
BRANCH  13  15
ATOM     15  C   UNL A   1      31.077  27.929  25.035  1.00  0.00     0.260 C 
ATOM     16  C   UNL A   1      29.728  26.235  23.659  1.00  0.00     0.142 C 
ATOM     17  N   UNL A   1      30.376  27.474  23.977  1.00  0.00    -0.356 N 
ATOM     18  H   UNL A   1      30.289  28.143  23.260  1.00  0.00     0.163 HD
ATOM     19  O   UNL A   1      31.419  29.118  24.932  1.00  0.00    -0.271 OA
ENDBRANCH  13  15
ENDBRANCH  12  13
ENDBRANCH   7  12
BRANCH   9  20
ATOM     20  O   UNL A   1      30.774  23.867  27.248  1.00  0.00    -0.493 OA
ATOM     21  C   UNL A   1      29.798  22.837  27.146  1.00  0.00     0.278 C 
ENDBRANCH   9  20
BRANCH  10  22
ATOM     22  N   UNL A   1      34.116  23.572  22.842  1.00  0.00     0.063 N 
ATOM     23  O   UNL A   1      33.414  23.424  21.833  1.00  0.00    -0.258 OA
ATOM     24  O   UNL A   1      35.353  23.552  22.882  1.00  0.00    -0.258 OA
ENDBRANCH  10  22
ENDBRANCH   3   6
ENDBRANCH   1   2
BRANCH   1  25
ATOM     25  C   UNL A   1      36.902  20.338  24.995  1.00  0.00     0.042 C 
BRANCH  25  26
ATOM     26  C   UNL A   1      38.170  21.065  25.420  1.00  0.00     0.118 C 
BRANCH  26  27
ATOM     27  N   UNL A   1      39.094  20.198  26.128  1.00  0.00    -0.352 N 
ATOM     28  C   UNL A   1      40.281  20.490  26.756  1.00  0.00     0.251 C 
ATOM     29  H   UNL A   1      38.829  19.250  26.165  1.00  0.00     0.163 HD
ATOM     30  O   UNL A   1      41.007  19.569  27.120  1.00  0.00    -0.269 OA
BRANCH  28  31
ATOM     31  C   UNL A   1      40.706  21.892  26.982  1.00  0.00     0.039 A 
ATOM     32  C   UNL A   1      41.530  22.171  28.077  1.00  0.00     0.014 A 
ATOM     33  C   UNL A   1      40.265  22.936  26.166  1.00  0.00     0.014 A 
ATOM     34  C   UNL A   1      41.951  23.481  28.320  1.00  0.00     0.010 A 
ATOM     35  C   UNL A   1      40.752  24.228  26.358  1.00  0.00     0.010 A 
ATOM     36  C   UNL A   1      41.590  24.517  27.444  1.00  0.00    -0.014 A 
BRANCH  36  37
ATOM     37  C   UNL A   1      42.074  25.907  27.655  1.00  0.00     0.031 A 
ATOM     38  C   UNL A   1      43.427  26.325  27.149  1.00  0.00     0.074 A 
ATOM     39  C   UNL A   1      41.317  26.776  28.353  1.00  0.00     0.049 A 
ATOM     40  N   UNL A   1      44.047  27.470  27.288  1.00  0.00    -0.248 NA
ATOM     41  C   UNL A   1      44.199  25.314  26.410  1.00  0.00     0.031 C 
ATOM     42  C   UNL A   1      40.007  26.478  28.934  1.00  0.00     0.029 A 
ATOM     43  N   UNL A   1      41.544  28.085  28.698  1.00  0.00    -0.354 N 
ATOM     44  C   UNL A   1      45.281  27.311  26.670  1.00  0.00     0.074 A 
ATOM     45  C   UNL A   1      45.346  25.944  26.203  1.00  0.00     0.031 C 
ATOM     46  C   UNL A   1      39.538  27.577  29.547  1.00  0.00     0.029 A 
ATOM     47  C   UNL A   1      40.528  28.644  29.435  1.00  0.00     0.049 A 
ATOM     48  H   UNL A   1      42.358  28.577  28.443  1.00  0.00     0.167 HD
ATOM     49  C   UNL A   1      46.261  28.229  26.489  1.00  0.00     0.037 A 
ATOM     50  C   UNL A   1      40.412  29.875  29.970  1.00  0.00     0.037 A 
ATOM     51  C   UNL A   1      46.182  29.596  26.935  1.00  0.00     0.049 A 
ATOM     52  C   UNL A   1      41.518  30.873  29.759  1.00  0.00     0.074 A 
ATOM     53  C   UNL A   1      47.095  30.619  26.747  1.00  0.00     0.029 A 
ATOM     54  N   UNL A   1      45.129  30.129  27.663  1.00  0.00    -0.354 N 
ATOM     55  N   UNL A   1      42.649  30.731  29.112  1.00  0.00    -0.248 NA
ATOM     56  C   UNL A   1      41.326  32.207  30.345  1.00  0.00     0.031 C 
ATOM     57  C   UNL A   1      46.619  31.757  27.406  1.00  0.00     0.029 A 
ATOM     58  C   UNL A   1      45.382  31.461  27.954  1.00  0.00     0.049 A 
ATOM     59  H   UNL A   1      44.321  29.635  27.934  1.00  0.00     0.167 HD
ATOM     60  C   UNL A   1      43.289  31.962  29.187  1.00  0.00     0.074 A 
ATOM     61  C   UNL A   1      42.412  32.843  29.929  1.00  0.00     0.031 C 
ATOM     62  C   UNL A   1      44.495  32.327  28.687  1.00  0.00     0.037 A 
BRANCH  49  63
ATOM     63  C   UNL A   1      47.507  27.786  25.775  1.00  0.00     0.064 A 
ATOM     64  C   UNL A   1      47.594  27.786  24.375  1.00  0.00     0.173 A 
ATOM     65  C   UNL A   1      48.642  27.393  26.501  1.00  0.00     0.173 A 
ATOM     66  F   UNL A   1      46.536  28.143  23.632  1.00  0.00    -0.203 F 
ATOM     67  C   UNL A   1      48.759  27.381  23.728  1.00  0.00     0.198 A 
ATOM     68  C   UNL A   1      49.816  27.021  25.851  1.00  0.00     0.198 A 
ATOM     69  F   UNL A   1      48.617  27.381  27.842  1.00  0.00    -0.203 F 
ATOM     70  F   UNL A   1      48.801  27.342  22.388  1.00  0.00    -0.200 F 
ATOM     71  C   UNL A   1      49.872  27.007  24.466  1.00  0.00     0.200 A 
ATOM     72  F   UNL A   1      50.896  26.673  26.567  1.00  0.00    -0.200 F 
ATOM     73  F   UNL A   1      50.995  26.626  23.843  1.00  0.00    -0.200 F 
ENDBRANCH  49  63
BRANCH  50  74
ATOM     74  C   UNL A   1      39.193  30.238  30.739  1.00  0.00     0.064 A 
ATOM     75  C   UNL A   1      38.065  30.764  30.094  1.00  0.00     0.173 A 
ATOM     76  C   UNL A   1      39.130  30.073  32.130  1.00  0.00     0.173 A 
ATOM     77  F   UNL A   1      38.083  30.959  28.767  1.00  0.00    -0.203 F 
ATOM     78  C   UNL A   1      36.929  31.132  30.813  1.00  0.00     0.198 A 
ATOM     79  C   UNL A   1      37.983  30.411  32.844  1.00  0.00     0.198 A 
ATOM     80  F   UNL A   1      40.179  29.567  32.795  1.00  0.00    -0.203 F 
ATOM     81  F   UNL A   1      35.884  31.677  30.176  1.00  0.00    -0.200 F 
ATOM     82  C   UNL A   1      36.886  30.949  32.187  1.00  0.00     0.200 A 
ATOM     83  F   UNL A   1      37.940  30.218  34.170  1.00  0.00    -0.200 F 
ATOM     84  F   UNL A   1      35.792  31.298  32.878  1.00  0.00    -0.200 F 
ENDBRANCH  50  74
BRANCH  62  85
ATOM     85  C   UNL A   1      44.920  33.754  28.892  1.00  0.00     0.064 A 
ATOM     86  C   UNL A   1      45.695  34.144  29.994  1.00  0.00     0.173 A 
ATOM     87  C   UNL A   1      44.576  34.737  27.951  1.00  0.00     0.173 A 
ATOM     88  F   UNL A   1      46.038  33.245  30.929  1.00  0.00    -0.203 F 
ATOM     89  C   UNL A   1      46.085  35.469  30.162  1.00  0.00     0.198 A 
ATOM     90  C   UNL A   1      44.996  36.056  28.105  1.00  0.00     0.198 A 
ATOM     91  F   UNL A   1      43.842  34.417  26.874  1.00  0.00    -0.203 F 
ATOM     92  F   UNL A   1      46.780  35.829  31.250  1.00  0.00    -0.200 F 
ATOM     93  C   UNL A   1      45.742  36.423  29.214  1.00  0.00     0.200 A 
ATOM     94  F   UNL A   1      44.676  36.971  27.180  1.00  0.00    -0.200 F 
ATOM     95  F   UNL A   1      46.124  37.697  29.374  1.00  0.00    -0.200 F 
ENDBRANCH  62  85
ENDBRANCH  36  37
ENDBRANCH  28  31
ENDBRANCH  26  27
ENDBRANCH  25  26
ENDBRANCH   1  25
TORSDOF 15
ENDMDL
MODEL 2
REMARK VINA RESULT:     -11.5      4.627      9.347
REMARK SMILES CNC(=O)[C@H](C)Oc1cc([N+](=O)[O-])c(C(=O)NCCCNC(=O)c2ccc(-c3c4nc(c(-c5c(F)c(F)c(F)c(F)c5F)c5ccc([nH]5)c(-c5c(F)c(F)c(F)c(F)c5F)c5nc(c(-c6c(F)c(F)c(F)c(F)c6F)c6ccc3[nH]6)C=C5)C=C4)cc2)cc1OC
REMARK SMILES IDX 18 1 17 2 15 3 16 4 14 6 8 7 9 8 88 9 10 10 87 11 7 12 5 13
REMARK SMILES IDX 6 14 3 15 1 16 2 17 4 19 89 20 90 21 11 22 12 23 13 24 19 25
REMARK SMILES IDX 20 26 21 27 22 28 23 30 24 31 25 32 86 33 26 34 85 35 27 36
REMARK SMILES IDX 28 37 29 38 79 39 30 40 84 41 78 42 80 43 31 44 83 45 77 46
REMARK SMILES IDX 76 47 32 49 64 50 44 51 63 52 45 53 48 54 62 55 81 56 46 57
REMARK SMILES IDX 47 58 61 60 82 61 49 62 33 63 34 64 42 65 35 66 36 67 40 68
REMARK SMILES IDX 43 69 37 70 38 71 41 72 39 73 65 74 66 75 74 76 67 77 68 78
REMARK SMILES IDX 72 79 75 80 69 81 70 82 73 83 71 84 50 85 51 86 59 87 52 88
REMARK SMILES IDX 53 89 57 90 60 91 54 92 55 93 58 94 56 95
REMARK H PARENT 17 5 2 18 21 29 80 48 48 59
REMARK Flexibility Score: inf
ROOT
ATOM      1  C   UNL A   1      31.577  28.017  26.844  1.00  0.00     0.118 C 
ENDROOT
BRANCH   1   2
ATOM      2  N   UNL A   1      31.048  26.670  26.650  1.00  0.00    -0.352 N 
ATOM      3  C   UNL A   1      30.491  26.025  25.564  1.00  0.00     0.258 C 
ATOM      4  O   UNL A   1      30.344  24.812  25.648  1.00  0.00    -0.269 OA
ATOM      5  H   UNL A   1      31.099  26.108  27.457  1.00  0.00     0.163 HD
BRANCH   3   6
ATOM      6  C   UNL A   1      30.173  26.735  24.293  1.00  0.00     0.121 A 
ATOM      7  C   UNL A   1      29.679  28.666  22.297  1.00  0.00     0.169 A 
ATOM      8  C   UNL A   1      30.912  28.022  22.332  1.00  0.00     0.137 A 
ATOM      9  C   UNL A   1      28.639  28.178  23.095  1.00  0.00     0.162 A 
ATOM     10  C   UNL A   1      31.138  27.045  23.328  1.00  0.00     0.286 A 
ATOM     11  C   UNL A   1      28.888  27.199  24.049  1.00  0.00     0.071 A 
BRANCH   7  12
ATOM     12  O   UNL A   1      29.363  29.663  21.453  1.00  0.00    -0.477 OA
BRANCH  12  13
ATOM     13  C   UNL A   1      29.244  31.014  21.827  1.00  0.00     0.259 C 
ATOM     14  C   UNL A   1      28.110  31.468  20.870  1.00  0.00     0.064 C 
BRANCH  13  15
ATOM     15  C   UNL A   1      28.921  31.815  23.144  1.00  0.00     0.260 C 
ATOM     16  C   UNL A   1      30.649  30.968  24.841  1.00  0.00     0.142 C 
ATOM     17  N   UNL A   1      29.528  31.710  24.344  1.00  0.00    -0.356 N 
ATOM     18  H   UNL A   1      29.105  32.269  25.035  1.00  0.00     0.163 HD
ATOM     19  O   UNL A   1      27.994  32.641  23.124  1.00  0.00    -0.271 OA
ENDBRANCH  13  15
ENDBRANCH  12  13
ENDBRANCH   7  12
BRANCH   9  20
ATOM     20  O   UNL A   1      27.324  28.554  23.036  1.00  0.00    -0.493 OA
ATOM     21  C   UNL A   1      26.435  27.828  23.876  1.00  0.00     0.278 C 
ENDBRANCH   9  20
BRANCH  10  22
ATOM     22  N   UNL A   1      32.376  26.296  23.252  1.00  0.00     0.063 N 
ATOM     23  O   UNL A   1      32.292  25.117  22.884  1.00  0.00    -0.258 OA
ATOM     24  O   UNL A   1      33.391  26.854  23.691  1.00  0.00    -0.258 OA
ENDBRANCH  10  22
ENDBRANCH   3   6
ENDBRANCH   1   2
BRANCH   1  25
ATOM     25  C   UNL A   1      33.065  28.022  27.197  1.00  0.00     0.042 C 
BRANCH  25  26
ATOM     26  C   UNL A   1      33.912  28.930  26.317  1.00  0.00     0.118 C 
BRANCH  26  27
ATOM     27  N   UNL A   1      33.843  30.321  26.727  1.00  0.00    -0.352 N 
ATOM     28  C   UNL A   1      34.610  31.021  27.626  1.00  0.00     0.251 C 
ATOM     29  H   UNL A   1      33.132  30.847  26.292  1.00  0.00     0.163 HD
ATOM     30  O   UNL A   1      34.251  32.141  27.974  1.00  0.00    -0.269 OA
BRANCH  28  31
ATOM     31  C   UNL A   1      35.850  30.438  28.194  1.00  0.00     0.039 A 
ATOM     32  C   UNL A   1      37.049  30.610  27.496  1.00  0.00     0.014 A 
ATOM     33  C   UNL A   1      35.838  29.687  29.371  1.00  0.00     0.014 A 
ATOM     34  C   UNL A   1      38.237  30.077  28.002  1.00  0.00     0.010 A 
ATOM     35  C   UNL A   1      37.035  29.227  29.920  1.00  0.00     0.010 A 
ATOM     36  C   UNL A   1      38.246  29.406  29.235  1.00  0.00    -0.014 A 
BRANCH  36  37
ATOM     37  C   UNL A   1      39.508  28.879  29.816  1.00  0.00     0.031 A 
ATOM     38  C   UNL A   1      40.142  29.561  30.998  1.00  0.00     0.074 A 
ATOM     39  C   UNL A   1      40.114  27.821  29.244  1.00  0.00     0.049 A 
ATOM     40  N   UNL A   1      41.270  29.289  31.606  1.00  0.00    -0.248 NA
ATOM     41  C   UNL A   1      39.427  30.720  31.556  1.00  0.00     0.031 C 
ATOM     42  C   UNL A   1      39.624  27.102  28.067  1.00  0.00     0.029 A 
ATOM     43  N   UNL A   1      41.278  27.171  29.569  1.00  0.00    -0.354 N 
ATOM     44  C   UNL A   1      41.404  30.247  32.602  1.00  0.00     0.074 A 
ATOM     45  C   UNL A   1      40.273  31.140  32.485  1.00  0.00     0.031 C 
ATOM     46  C   UNL A   1      40.468  26.099  27.781  1.00  0.00     0.029 A 
ATOM     47  C   UNL A   1      41.579  26.126  28.728  1.00  0.00     0.049 A 
ATOM     48  H   UNL A   1      41.844  27.428  30.333  1.00  0.00     0.167 HD
ATOM     49  C   UNL A   1      42.372  30.358  33.544  1.00  0.00     0.037 A 
ATOM     50  C   UNL A   1      42.636  25.292  28.717  1.00  0.00     0.037 A 
ATOM     51  C   UNL A   1      43.484  29.452  33.672  1.00  0.00     0.049 A 
ATOM     52  C   UNL A   1      43.700  25.440  29.771  1.00  0.00     0.074 A 
ATOM     53  C   UNL A   1      44.484  29.443  34.629  1.00  0.00     0.029 A 
ATOM     54  N   UNL A   1      43.745  28.396  32.812  1.00  0.00    -0.354 N 
ATOM     55  N   UNL A   1      43.779  26.307  30.750  1.00  0.00    -0.248 NA
ATOM     56  C   UNL A   1      44.818  24.487  29.722  1.00  0.00     0.031 C 
ATOM     57  C   UNL A   1      45.378  28.414  34.318  1.00  0.00     0.029 A 
ATOM     58  C   UNL A   1      44.905  27.743  33.202  1.00  0.00     0.049 A 
ATOM     59  H   UNL A   1      43.189  28.146  32.038  1.00  0.00     0.167 HD
ATOM     60  C   UNL A   1      44.935  25.987  31.451  1.00  0.00     0.074 A 
ATOM     61  C   UNL A   1      45.516  24.836  30.793  1.00  0.00     0.031 C 
ATOM     62  C   UNL A   1      45.467  26.594  32.541  1.00  0.00     0.037 A 
BRANCH  49  63
ATOM     63  C   UNL A   1      42.272  31.501  34.515  1.00  0.00     0.064 A 
ATOM     64  C   UNL A   1      41.554  31.387  35.715  1.00  0.00     0.173 A 
ATOM     65  C   UNL A   1      42.934  32.711  34.260  1.00  0.00     0.173 A 
ATOM     66  F   UNL A   1      40.894  30.256  36.004  1.00  0.00    -0.203 F 
ATOM     67  C   UNL A   1      41.478  32.453  36.609  1.00  0.00     0.198 A 
ATOM     68  C   UNL A   1      42.883  33.763  35.172  1.00  0.00     0.198 A 
ATOM     69  F   UNL A   1      43.641  32.872  33.131  1.00  0.00    -0.203 F 
ATOM     70  F   UNL A   1      40.745  32.338  37.725  1.00  0.00    -0.200 F 
ATOM     71  C   UNL A   1      42.149  33.636  36.341  1.00  0.00     0.200 A 
ATOM     72  F   UNL A   1      43.545  34.901  34.918  1.00  0.00    -0.200 F 
ATOM     73  F   UNL A   1      42.082  34.657  37.206  1.00  0.00    -0.200 F 
ENDBRANCH  49  63
BRANCH  50  74
ATOM     74  C   UNL A   1      42.730  24.227  27.684  1.00  0.00     0.064 A 
ATOM     75  C   UNL A   1      42.263  22.931  27.941  1.00  0.00     0.173 A 
ATOM     76  C   UNL A   1      43.289  24.480  26.422  1.00  0.00     0.173 A 
ATOM     77  F   UNL A   1      41.737  22.635  29.139  1.00  0.00    -0.203 F 
ATOM     78  C   UNL A   1      42.373  21.922  26.985  1.00  0.00     0.198 A 
ATOM     79  C   UNL A   1      43.370  23.479  25.457  1.00  0.00     0.198 A 
ATOM     80  F   UNL A   1      43.745  25.705  26.123  1.00  0.00    -0.203 F 
ATOM     81  F   UNL A   1      41.962  20.680  27.277  1.00  0.00    -0.200 F 
ATOM     82  C   UNL A   1      42.920  22.198  25.742  1.00  0.00     0.200 A 
ATOM     83  F   UNL A   1      43.885  23.754  24.251  1.00  0.00    -0.200 F 
ATOM     84  F   UNL A   1      43.022  21.230  24.821  1.00  0.00    -0.200 F 
ENDBRANCH  50  74
BRANCH  62  85
ATOM     85  C   UNL A   1      46.721  25.999  33.115  1.00  0.00     0.064 A 
ATOM     86  C   UNL A   1      47.994  26.456  32.743  1.00  0.00     0.173 A 
ATOM     87  C   UNL A   1      46.646  24.981  34.079  1.00  0.00     0.173 A 
ATOM     88  F   UNL A   1      48.121  27.417  31.816  1.00  0.00    -0.203 F 
ATOM     89  C   UNL A   1      49.144  25.897  33.292  1.00  0.00     0.198 A 
ATOM     90  C   UNL A   1      47.797  24.447  34.650  1.00  0.00     0.198 A 
ATOM     91  F   UNL A   1      45.453  24.512  34.475  1.00  0.00    -0.203 F 
ATOM     92  F   UNL A   1      50.350  26.312  32.882  1.00  0.00    -0.200 F 
ATOM     93  C   UNL A   1      49.045  24.898  34.250  1.00  0.00     0.200 A 
ATOM     94  F   UNL A   1      47.698  23.493  35.586  1.00  0.00    -0.200 F 
ATOM     95  F   UNL A   1      50.154  24.366  34.782  1.00  0.00    -0.200 F 
ENDBRANCH  62  85
ENDBRANCH  36  37
ENDBRANCH  28  31
ENDBRANCH  26  27
ENDBRANCH  25  26
ENDBRANCH   1  25
TORSDOF 15
ENDMDL
MODEL 3
REMARK VINA RESULT:     -11.5      4.669      8.721
REMARK SMILES CNC(=O)[C@H](C)Oc1cc([N+](=O)[O-])c(C(=O)NCCCNC(=O)c2ccc(-c3c4nc(c(-c5c(F)c(F)c(F)c(F)c5F)c5ccc([nH]5)c(-c5c(F)c(F)c(F)c(F)c5F)c5nc(c(-c6c(F)c(F)c(F)c(F)c6F)c6ccc3[nH]6)C=C5)C=C4)cc2)cc1OC
REMARK SMILES IDX 18 1 17 2 15 3 16 4 14 6 8 7 9 8 88 9 10 10 87 11 7 12 5 13
REMARK SMILES IDX 6 14 3 15 1 16 2 17 4 19 89 20 90 21 11 22 12 23 13 24 19 25
REMARK SMILES IDX 20 26 21 27 22 28 23 30 24 31 25 32 86 33 26 34 85 35 27 36
REMARK SMILES IDX 28 37 29 38 79 39 30 40 84 41 78 42 80 43 31 44 83 45 77 46
REMARK SMILES IDX 76 47 32 49 64 50 44 51 63 52 45 53 48 54 62 55 81 56 46 57
REMARK SMILES IDX 47 58 61 60 82 61 49 62 33 63 34 64 42 65 35 66 36 67 40 68
REMARK SMILES IDX 43 69 37 70 38 71 41 72 39 73 65 74 66 75 74 76 67 77 68 78
REMARK SMILES IDX 72 79 75 80 69 81 70 82 73 83 71 84 50 85 51 86 59 87 52 88
REMARK SMILES IDX 53 89 57 90 60 91 54 92 55 93 58 94 56 95
REMARK H PARENT 17 5 2 18 21 29 80 48 48 59
REMARK Flexibility Score: inf
ROOT
ATOM      1  C   UNL A   1      31.642  30.374  26.129  1.00  0.00     0.118 C 
ENDROOT
BRANCH   1   2
ATOM      2  N   UNL A   1      31.174  30.086  24.777  1.00  0.00    -0.352 N 
ATOM      3  C   UNL A   1      31.163  28.938  24.009  1.00  0.00     0.258 C 
ATOM      4  O   UNL A   1      30.495  28.957  22.983  1.00  0.00    -0.269 OA
ATOM      5  H   UNL A   1      30.788  30.868  24.320  1.00  0.00     0.163 HD
BRANCH   3   6
ATOM      6  C   UNL A   1      31.840  27.683  24.442  1.00  0.00     0.121 A 
ATOM      7  C   UNL A   1      32.611  25.001  24.854  1.00  0.00     0.169 A 
ATOM      8  C   UNL A   1      33.320  25.782  23.946  1.00  0.00     0.137 A 
ATOM      9  C   UNL A   1      31.693  25.622  25.707  1.00  0.00     0.162 A 
ATOM     10  C   UNL A   1      32.931  27.130  23.763  1.00  0.00     0.286 A 
ATOM     11  C   UNL A   1      31.350  26.955  25.517  1.00  0.00     0.071 A 
BRANCH   7  12
ATOM     12  O   UNL A   1      32.828  23.692  25.065  1.00  0.00    -0.477 OA
BRANCH  12  13
ATOM     13  C   UNL A   1      34.095  23.081  25.037  1.00  0.00     0.259 C 
ATOM     14  C   UNL A   1      34.570  23.365  26.487  1.00  0.00     0.064 C 
BRANCH  13  15
ATOM     15  C   UNL A   1      34.666  21.638  24.767  1.00  0.00     0.260 C 
ATOM     16  C   UNL A   1      32.608  20.109  24.886  1.00  0.00     0.142 C 
ATOM     17  N   UNL A   1      33.990  20.471  24.755  1.00  0.00    -0.356 N 
ATOM     18  H   UNL A   1      34.577  19.691  24.627  1.00  0.00     0.163 HD
ATOM     19  O   UNL A   1      35.882  21.512  24.549  1.00  0.00    -0.271 OA
ENDBRANCH  13  15
ENDBRANCH  12  13
ENDBRANCH   7  12
BRANCH   9  20
ATOM     20  O   UNL A   1      31.069  25.050  26.783  1.00  0.00    -0.493 OA
ATOM     21  C   UNL A   1      29.819  24.427  26.512  1.00  0.00     0.278 C 
ENDBRANCH   9  20
BRANCH  10  22
ATOM     22  N   UNL A   1      33.773  27.953  22.919  1.00  0.00     0.063 N 
ATOM     23  O   UNL A   1      33.847  27.631  21.726  1.00  0.00    -0.258 OA
ATOM     24  O   UNL A   1      34.452  28.820  23.485  1.00  0.00    -0.258 OA
ENDBRANCH  10  22
ENDBRANCH   3   6
ENDBRANCH   1   2
BRANCH   1  25
ATOM     25  C   UNL A   1      31.469  31.844  26.513  1.00  0.00     0.042 C 
BRANCH  25  26
ATOM     26  C   UNL A   1      32.746  32.519  26.992  1.00  0.00     0.118 C 
BRANCH  26  27
ATOM     27  N   UNL A   1      32.513  33.870  27.470  1.00  0.00    -0.352 N 
ATOM     28  C   UNL A   1      33.084  34.552  28.518  1.00  0.00     0.251 C 
ATOM     29  H   UNL A   1      31.838  34.379  26.964  1.00  0.00     0.163 HD
ATOM     30  O   UNL A   1      32.594  35.619  28.874  1.00  0.00    -0.269 OA
BRANCH  28  31
ATOM     31  C   UNL A   1      34.265  34.011  29.233  1.00  0.00     0.039 A 
ATOM     32  C   UNL A   1      34.054  33.134  30.301  1.00  0.00     0.014 A 
ATOM     33  C   UNL A   1      35.566  34.394  28.901  1.00  0.00     0.014 A 
ATOM     34  C   UNL A   1      35.143  32.604  30.998  1.00  0.00     0.010 A 
ATOM     35  C   UNL A   1      36.654  33.801  29.539  1.00  0.00     0.010 A 
ATOM     36  C   UNL A   1      36.454  32.909  30.602  1.00  0.00    -0.014 A 
BRANCH  36  37
ATOM     37  C   UNL A   1      37.626  32.311  31.296  1.00  0.00     0.031 A 
ATOM     38  C   UNL A   1      38.384  31.176  30.664  1.00  0.00     0.074 A 
ATOM     39  C   UNL A   1      37.972  32.754  32.519  1.00  0.00     0.049 A 
ATOM     40  N   UNL A   1      39.391  30.485  31.138  1.00  0.00    -0.248 NA
ATOM     41  C   UNL A   1      37.934  30.739  29.333  1.00  0.00     0.031 C 
ATOM     42  C   UNL A   1      37.289  33.818  33.257  1.00  0.00     0.029 A 
ATOM     43  N   UNL A   1      38.980  32.359  33.363  1.00  0.00    -0.354 N 
ATOM     44  C   UNL A   1      39.682  29.529  30.174  1.00  0.00     0.074 A 
ATOM     45  C   UNL A   1      38.713  29.690  29.112  1.00  0.00     0.031 C 
ATOM     46  C   UNL A   1      37.909  34.005  34.433  1.00  0.00     0.029 A 
ATOM     47  C   UNL A   1      39.007  33.051  34.550  1.00  0.00     0.049 A 
ATOM     48  H   UNL A   1      39.624  31.648  33.139  1.00  0.00     0.167 HD
ATOM     49  C   UNL A   1      40.682  28.614  30.164  1.00  0.00     0.037 A 
ATOM     50  C   UNL A   1      39.819  32.922  35.617  1.00  0.00     0.037 A 
ATOM     51  C   UNL A   1      41.658  28.472  31.213  1.00  0.00     0.049 A 
ATOM     52  C   UNL A   1      40.918  31.894  35.584  1.00  0.00     0.074 A 
ATOM     53  C   UNL A   1      42.746  27.618  31.270  1.00  0.00     0.029 A 
ATOM     54  N   UNL A   1      41.663  29.203  32.392  1.00  0.00    -0.354 N 
ATOM     55  N   UNL A   1      41.226  31.043  34.636  1.00  0.00    -0.248 NA
ATOM     56  C   UNL A   1      41.787  31.815  36.766  1.00  0.00     0.031 C 
ATOM     57  C   UNL A   1      43.377  27.794  32.505  1.00  0.00     0.029 A 
ATOM     58  C   UNL A   1      42.720  28.800  33.194  1.00  0.00     0.049 A 
ATOM     59  H   UNL A   1      41.012  29.904  32.625  1.00  0.00     0.167 HD
ATOM     60  C   UNL A   1      42.340  30.350  35.093  1.00  0.00     0.074 A 
ATOM     61  C   UNL A   1      42.662  30.892  36.396  1.00  0.00     0.031 C 
ATOM     62  C   UNL A   1      43.032  29.354  34.486  1.00  0.00     0.037 A 
BRANCH  49  63
ATOM     63  C   UNL A   1      40.771  27.692  28.981  1.00  0.00     0.064 A 
ATOM     64  C   UNL A   1      41.663  27.933  27.925  1.00  0.00     0.173 A 
ATOM     65  C   UNL A   1      39.984  26.532  28.921  1.00  0.00     0.173 A 
ATOM     66  F   UNL A   1      42.432  29.032  27.927  1.00  0.00    -0.203 F 
ATOM     67  C   UNL A   1      41.741  27.064  26.839  1.00  0.00     0.198 A 
ATOM     68  C   UNL A   1      40.089  25.649  27.849  1.00  0.00     0.198 A 
ATOM     69  F   UNL A   1      39.119  26.249  29.907  1.00  0.00    -0.203 F 
ATOM     70  F   UNL A   1      42.564  27.343  25.818  1.00  0.00    -0.200 F 
ATOM     71  C   UNL A   1      40.961  25.919  26.806  1.00  0.00     0.200 A 
ATOM     72  F   UNL A   1      39.343  24.534  27.826  1.00  0.00    -0.200 F 
ATOM     73  F   UNL A   1      41.043  25.080  25.765  1.00  0.00    -0.200 F 
ENDBRANCH  49  63
BRANCH  50  74
ATOM     74  C   UNL A   1      39.637  33.805  36.799  1.00  0.00     0.064 A 
ATOM     75  C   UNL A   1      38.846  33.402  37.884  1.00  0.00     0.173 A 
ATOM     76  C   UNL A   1      40.244  35.068  36.869  1.00  0.00     0.173 A 
ATOM     77  F   UNL A   1      38.230  32.211  37.857  1.00  0.00    -0.203 F 
ATOM     78  C   UNL A   1      38.651  34.236  38.984  1.00  0.00     0.198 A 
ATOM     79  C   UNL A   1      40.073  35.888  37.982  1.00  0.00     0.198 A 
ATOM     80  F   UNL A   1      41.015  35.499  35.861  1.00  0.00    -0.203 F 
ATOM     81  F   UNL A   1      37.851  33.844  39.984  1.00  0.00    -0.200 F 
ATOM     82  C   UNL A   1      39.269  35.476  39.034  1.00  0.00     0.200 A 
ATOM     83  F   UNL A   1      40.685  37.079  38.034  1.00  0.00    -0.200 F 
ATOM     84  F   UNL A   1      39.085  36.276  40.093  1.00  0.00    -0.200 F 
ENDBRANCH  50  74
BRANCH  62  85
ATOM     85  C   UNL A   1      44.232  28.812  35.209  1.00  0.00     0.064 A 
ATOM     86  C   UNL A   1      44.129  27.750  36.120  1.00  0.00     0.173 A 
ATOM     87  C   UNL A   1      45.508  29.341  34.960  1.00  0.00     0.173 A 
ATOM     88  F   UNL A   1      42.930  27.219  36.404  1.00  0.00    -0.203 F 
ATOM     89  C   UNL A   1      45.254  27.257  36.775  1.00  0.00     0.198 A 
ATOM     90  C   UNL A   1      46.636  28.823  35.592  1.00  0.00     0.198 A 
ATOM     91  F   UNL A   1      45.664  30.353  34.093  1.00  0.00    -0.203 F 
ATOM     92  F   UNL A   1      45.125  26.277  37.680  1.00  0.00    -0.200 F 
ATOM     93  C   UNL A   1      46.507  27.788  36.505  1.00  0.00     0.200 A 
ATOM     94  F   UNL A   1      47.846  29.328  35.318  1.00  0.00    -0.200 F 
ATOM     95  F   UNL A   1      47.589  27.307  37.131  1.00  0.00    -0.200 F 
ENDBRANCH  62  85
ENDBRANCH  36  37
ENDBRANCH  28  31
ENDBRANCH  26  27
ENDBRANCH  25  26
ENDBRANCH   1  25
TORSDOF 15
ENDMDL
