MODEL 1
REMARK VINA RESULT:     -13.1      0.000      0.000
REMARK SMILES O=C(NCCCNC(=O)c1ccc(-c2cccc(O)c2)cc1Cl)c1ccc(-c2c3nc(c(-c4c(F)c(F)c(F)c(F)c4F)c4ccc([nH]4)c(-c4c(F)c(F)c(F)c(F)c4F)c4nc(c(-c5c(F)c(F)c(F)c(F)c5F)c5ccc2[nH]5)C=C4)C=C3)cc1
REMARK SMILES IDX 5 1 4 2 3 3 1 4 2 5 24 7 25 8 86 9 26 10 85 11 27 12 28 13
REMARK SMILES IDX 29 14 79 15 30 16 84 17 78 18 80 19 31 20 83 21 77 22 76 23
REMARK SMILES IDX 32 25 64 26 44 27 63 28 45 29 48 30 62 31 81 32 46 33 47 34
REMARK SMILES IDX 61 36 82 37 49 38 33 39 34 40 42 41 35 42 36 43 40 44 43 45
REMARK SMILES IDX 37 46 38 47 41 48 39 49 65 50 66 51 74 52 67 53 68 54 72 55
REMARK SMILES IDX 75 56 69 57 70 58 73 59 71 60 50 61 51 62 59 63 52 64 53 65
REMARK SMILES IDX 57 66 60 67 54 68 55 69 58 70 56 71 6 72 7 73 8 74 9 76
REMARK SMILES IDX 10 77 11 78 22 79 12 80 21 81 23 82 13 83 14 84 15 85 20 86
REMARK SMILES IDX 16 87 18 88 17 89 19 90
REMARK H PARENT 3 6 80 24 48 35 7 75 19 91
REMARK Flexibility Score: inf
ROOT
ATOM      1  C   UNL A   1      32.523  27.828  25.929  1.00  0.00     0.042 C 
ENDROOT
BRANCH   1   2
ATOM      2  C   UNL A   1      33.302  29.038  25.439  1.00  0.00     0.118 C 
BRANCH   2   3
ATOM      3  N   UNL A   1      32.765  30.302  25.935  1.00  0.00    -0.352 N 
ATOM      4  O   UNL A   1      32.494  32.068  27.305  1.00  0.00    -0.269 OA
ATOM      5  C   UNL A   1      33.198  31.129  26.942  1.00  0.00     0.251 C 
ATOM      6  H   UNL A   1      31.956  30.613  25.468  1.00  0.00     0.163 HD
BRANCH   5   7
ATOM      7  C   UNL A   1      34.497  30.890  27.609  1.00  0.00     0.039 A 
ATOM      8  C   UNL A   1      34.813  29.634  28.121  1.00  0.00     0.014 A 
ATOM      9  C   UNL A   1      35.425  31.932  27.707  1.00  0.00     0.014 A 
ATOM     10  C   UNL A   1      35.953  29.471  28.896  1.00  0.00     0.010 A 
ATOM     11  C   UNL A   1      36.636  31.731  28.381  1.00  0.00     0.010 A 
ATOM     12  C   UNL A   1      36.892  30.508  29.017  1.00  0.00    -0.014 A 
BRANCH  12  13
ATOM     13  C   UNL A   1      38.150  30.235  29.760  1.00  0.00     0.031 A 
ATOM     14  C   UNL A   1      38.350  30.709  31.172  1.00  0.00     0.074 A 
ATOM     15  C   UNL A   1      39.086  29.470  29.165  1.00  0.00     0.049 A 
ATOM     16  N   UNL A   1      39.347  30.466  31.987  1.00  0.00    -0.248 NA
ATOM     17  C   UNL A   1      37.307  31.572  31.747  1.00  0.00     0.031 C 
ATOM     18  C   UNL A   1      39.012  28.977  27.786  1.00  0.00     0.029 A 
ATOM     19  N   UNL A   1      40.252  28.934  29.644  1.00  0.00    -0.354 N 
ATOM     20  C   UNL A   1      39.061  31.154  33.159  1.00  0.00     0.074 A 
ATOM     21  C   UNL A   1      37.811  31.849  32.943  1.00  0.00     0.031 C 
ATOM     22  C   UNL A   1      40.043  28.153  27.556  1.00  0.00     0.029 A 
ATOM     23  C   UNL A   1      40.885  28.110  28.745  1.00  0.00     0.049 A 
ATOM     24  H   UNL A   1      40.603  29.122  30.545  1.00  0.00     0.167 HD
ATOM     25  C   UNL A   1      39.773  31.189  34.311  1.00  0.00     0.037 A 
ATOM     26  C   UNL A   1      42.023  27.400  28.859  1.00  0.00     0.037 A 
ATOM     27  C   UNL A   1      41.012  30.483  34.525  1.00  0.00     0.049 A 
ATOM     28  C   UNL A   1      42.778  27.446  30.154  1.00  0.00     0.074 A 
ATOM     29  C   UNL A   1      41.808  30.455  35.658  1.00  0.00     0.029 A 
ATOM     30  N   UNL A   1      41.634  29.676  33.583  1.00  0.00    -0.354 N 
ATOM     31  N   UNL A   1      42.485  28.089  31.259  1.00  0.00    -0.248 NA
ATOM     32  C   UNL A   1      44.022  26.669  30.220  1.00  0.00     0.031 C 
ATOM     33  C   UNL A   1      42.926  29.657  35.391  1.00  0.00     0.029 A 
ATOM     34  C   UNL A   1      42.807  29.153  34.106  1.00  0.00     0.049 A 
ATOM     35  H   UNL A   1      41.293  29.501  32.676  1.00  0.00     0.167 HD
ATOM     36  C   UNL A   1      43.507  27.799  32.148  1.00  0.00     0.074 A 
ATOM     37  C   UNL A   1      44.406  26.888  31.469  1.00  0.00     0.031 C 
ATOM     38  C   UNL A   1      43.693  28.257  33.410  1.00  0.00     0.037 A 
BRANCH  25  39
ATOM     39  C   UNL A   1      39.235  32.023  35.439  1.00  0.00     0.064 A 
ATOM     40  C   UNL A   1      38.429  31.466  36.442  1.00  0.00     0.173 A 
ATOM     41  C   UNL A   1      39.581  33.377  35.552  1.00  0.00     0.173 A 
ATOM     42  F   UNL A   1      38.060  30.178  36.375  1.00  0.00    -0.203 F 
ATOM     43  C   UNL A   1      37.975  32.240  37.508  1.00  0.00     0.198 A 
ATOM     44  C   UNL A   1      39.146  34.142  36.632  1.00  0.00     0.198 A 
ATOM     45  F   UNL A   1      40.355  33.958  34.622  1.00  0.00    -0.203 F 
ATOM     46  F   UNL A   1      37.177  31.694  38.438  1.00  0.00    -0.200 F 
ATOM     47  C   UNL A   1      38.340  33.574  37.606  1.00  0.00     0.200 A 
ATOM     48  F   UNL A   1      39.510  35.428  36.731  1.00  0.00    -0.200 F 
ATOM     49  F   UNL A   1      37.912  34.313  38.640  1.00  0.00    -0.200 F 
ENDBRANCH  25  39
BRANCH  26  50
ATOM     50  C   UNL A   1      42.508  26.598  27.708  1.00  0.00     0.064 A 
ATOM     51  C   UNL A   1      43.451  27.112  26.809  1.00  0.00     0.173 A 
ATOM     52  C   UNL A   1      42.047  25.290  27.494  1.00  0.00     0.173 A 
ATOM     53  F   UNL A   1      43.909  28.364  26.963  1.00  0.00    -0.203 F 
ATOM     54  C   UNL A   1      43.903  26.356  25.730  1.00  0.00     0.198 A 
ATOM     55  C   UNL A   1      42.524  24.522  26.434  1.00  0.00     0.198 A 
ATOM     56  F   UNL A   1      41.149  24.748  28.330  1.00  0.00    -0.203 F 
ATOM     57  F   UNL A   1      44.773  26.886  24.861  1.00  0.00    -0.200 F 
ATOM     58  C   UNL A   1      43.445  25.058  25.548  1.00  0.00     0.200 A 
ATOM     59  F   UNL A   1      42.092  23.264  26.274  1.00  0.00    -0.200 F 
ATOM     60  F   UNL A   1      43.888  24.328  24.516  1.00  0.00    -0.200 F 
ENDBRANCH  26  50
BRANCH  38  61
ATOM     61  C   UNL A   1      44.917  27.771  34.128  1.00  0.00     0.064 A 
ATOM     62  C   UNL A   1      46.129  28.476  34.062  1.00  0.00     0.173 A 
ATOM     63  C   UNL A   1      44.877  26.596  34.889  1.00  0.00     0.173 A 
ATOM     64  F   UNL A   1      46.219  29.597  33.331  1.00  0.00    -0.203 F 
ATOM     65  C   UNL A   1      47.266  28.000  34.706  1.00  0.00     0.198 A 
ATOM     66  C   UNL A   1      46.011  26.137  35.555  1.00  0.00     0.198 A 
ATOM     67  F   UNL A   1      43.741  25.890  34.988  1.00  0.00    -0.203 F 
ATOM     68  F   UNL A   1      48.428  28.657  34.581  1.00  0.00    -0.200 F 
ATOM     69  C   UNL A   1      47.206  26.834  35.454  1.00  0.00     0.200 A 
ATOM     70  F   UNL A   1      45.950  25.015  36.285  1.00  0.00    -0.200 F 
ATOM     71  F   UNL A   1      48.305  26.374  36.069  1.00  0.00    -0.200 F 
ENDBRANCH  38  61
ENDBRANCH  12  13
ENDBRANCH   5   7
ENDBRANCH   2   3
ENDBRANCH   1   2
BRANCH   1  72
ATOM     72  C   UNL A   1      31.917  27.001  24.807  1.00  0.00     0.118 C 
BRANCH  72  73
ATOM     73  N   UNL A   1      32.682  27.103  23.571  1.00  0.00    -0.352 N 
ATOM     74  C   UNL A   1      33.268  26.109  22.830  1.00  0.00     0.252 C 
ATOM     75  H   UNL A   1      32.795  28.015  23.218  1.00  0.00     0.163 HD
ATOM     76  O   UNL A   1      33.986  26.384  21.873  1.00  0.00    -0.269 OA
BRANCH  74  77
ATOM     77  C   UNL A   1      33.091  24.705  23.231  1.00  0.00     0.058 A 
ATOM     78  C   UNL A   1      32.066  23.986  22.611  1.00  0.00     0.016 A 
ATOM     79  C   UNL A   1      33.907  24.086  24.177  1.00  0.00     0.054 A 
ATOM     80  C   UNL A   1      31.910  22.625  22.884  1.00  0.00     0.009 A 
ATOM     81  C   UNL A   1      33.767  22.716  24.416  1.00  0.00     0.030 A 
ATOM     82  Cl  UNL A   1      35.106  24.940  25.085  1.00  0.00    -0.083 Cl
ATOM     83  C   UNL A   1      32.776  21.955  23.767  1.00  0.00    -0.017 A 
BRANCH  83  84
ATOM     84  C   UNL A   1      32.659  20.503  24.005  1.00  0.00    -0.015 A 
ATOM     85  C   UNL A   1      32.912  19.947  25.272  1.00  0.00     0.009 A 
ATOM     86  C   UNL A   1      32.309  19.621  22.967  1.00  0.00     0.054 A 
ATOM     87  C   UNL A   1      32.823  18.569  25.493  1.00  0.00     0.004 A 
ATOM     88  C   UNL A   1      32.212  18.251  23.196  1.00  0.00     0.116 A 
ATOM     89  C   UNL A   1      32.470  17.716  24.452  1.00  0.00     0.046 A 
BRANCH  88  90
ATOM     90  O   UNL A   1      31.858  17.458  22.145  1.00  0.00    -0.508 OA
ATOM     91  H   UNL A   1      31.069  16.954  22.183  1.00  0.00     0.293 HD
ENDBRANCH  88  90
ENDBRANCH  83  84
ENDBRANCH  74  77
ENDBRANCH  72  73
ENDBRANCH   1  72
TORSDOF 12
ENDMDL
MODEL 2
REMARK VINA RESULT:     -12.9      0.489      2.037
REMARK SMILES O=C(NCCCNC(=O)c1ccc(-c2cccc(O)c2)cc1Cl)c1ccc(-c2c3nc(c(-c4c(F)c(F)c(F)c(F)c4F)c4ccc([nH]4)c(-c4c(F)c(F)c(F)c(F)c4F)c4nc(c(-c5c(F)c(F)c(F)c(F)c5F)c5ccc2[nH]5)C=C4)C=C3)cc1
REMARK SMILES IDX 5 1 4 2 3 3 1 4 2 5 24 7 25 8 86 9 26 10 85 11 27 12 28 13
REMARK SMILES IDX 29 14 79 15 30 16 84 17 78 18 80 19 31 20 83 21 77 22 76 23
REMARK SMILES IDX 32 25 64 26 44 27 63 28 45 29 48 30 62 31 81 32 46 33 47 34
REMARK SMILES IDX 61 36 82 37 49 38 33 39 34 40 42 41 35 42 36 43 40 44 43 45
REMARK SMILES IDX 37 46 38 47 41 48 39 49 65 50 66 51 74 52 67 53 68 54 72 55
REMARK SMILES IDX 75 56 69 57 70 58 73 59 71 60 50 61 51 62 59 63 52 64 53 65
REMARK SMILES IDX 57 66 60 67 54 68 55 69 58 70 56 71 6 72 7 73 8 74 9 76
REMARK SMILES IDX 10 77 11 78 22 79 12 80 21 81 23 82 13 83 14 84 15 85 20 86
REMARK SMILES IDX 16 87 18 88 17 89 19 90
REMARK H PARENT 3 6 80 24 48 35 7 75 19 91
REMARK Flexibility Score: inf
ROOT
ATOM      1  C   UNL A   1      32.849  27.773  26.162  1.00  0.00     0.042 C 
ENDROOT
BRANCH   1   2
ATOM      2  C   UNL A   1      33.648  28.950  25.624  1.00  0.00     0.118 C 
BRANCH   2   3
ATOM      3  N   UNL A   1      33.162  30.239  26.109  1.00  0.00    -0.352 N 
ATOM      4  O   UNL A   1      32.960  32.024  27.466  1.00  0.00    -0.269 OA
ATOM      5  C   UNL A   1      33.626  31.054  27.111  1.00  0.00     0.251 C 
ATOM      6  H   UNL A   1      32.368  30.580  25.637  1.00  0.00     0.163 HD
BRANCH   5   7
ATOM      7  C   UNL A   1      34.911  30.766  27.786  1.00  0.00     0.039 A 
ATOM      8  C   UNL A   1      35.146  29.524  28.369  1.00  0.00     0.014 A 
ATOM      9  C   UNL A   1      35.910  31.747  27.816  1.00  0.00     0.014 A 
ATOM     10  C   UNL A   1      36.279  29.329  29.146  1.00  0.00     0.010 A 
ATOM     11  C   UNL A   1      37.110  31.503  28.495  1.00  0.00     0.010 A 
ATOM     12  C   UNL A   1      37.288  30.305  29.201  1.00  0.00    -0.014 A 
BRANCH  12  13
ATOM     13  C   UNL A   1      38.531  29.991  29.953  1.00  0.00     0.031 A 
ATOM     14  C   UNL A   1      38.749  30.483  31.356  1.00  0.00     0.074 A 
ATOM     15  C   UNL A   1      39.432  29.173  29.375  1.00  0.00     0.049 A 
ATOM     16  N   UNL A   1      39.733  30.212  32.177  1.00  0.00    -0.248 NA
ATOM     17  C   UNL A   1      37.745  31.403  31.911  1.00  0.00     0.031 C 
ATOM     18  C   UNL A   1      39.339  28.656  28.006  1.00  0.00     0.029 A 
ATOM     19  N   UNL A   1      40.573  28.595  29.868  1.00  0.00    -0.354 N 
ATOM     20  C   UNL A   1      39.477  30.935  33.335  1.00  0.00     0.074 A 
ATOM     21  C   UNL A   1      38.259  31.681  33.103  1.00  0.00     0.031 C 
ATOM     22  C   UNL A   1      40.332  27.782  27.795  1.00  0.00     0.029 A 
ATOM     23  C   UNL A   1      41.170  27.726  28.987  1.00  0.00     0.049 A 
ATOM     24  H   UNL A   1      40.930  28.784  30.766  1.00  0.00     0.167 HD
ATOM     25  C   UNL A   1      40.187  30.961  34.488  1.00  0.00     0.037 A 
ATOM     26  C   UNL A   1      42.274  26.968  29.118  1.00  0.00     0.037 A 
ATOM     27  C   UNL A   1      41.393  30.205  34.719  1.00  0.00     0.049 A 
ATOM     28  C   UNL A   1      43.028  27.005  30.414  1.00  0.00     0.074 A 
ATOM     29  C   UNL A   1      42.185  30.164  35.855  1.00  0.00     0.029 A 
ATOM     30  N   UNL A   1      41.980  29.352  33.795  1.00  0.00    -0.354 N 
ATOM     31  N   UNL A   1      42.763  27.683  31.505  1.00  0.00    -0.248 NA
ATOM     32  C   UNL A   1      44.236  26.175  30.499  1.00  0.00     0.031 C 
ATOM     33  C   UNL A   1      43.266  29.311  35.607  1.00  0.00     0.029 A 
ATOM     34  C   UNL A   1      43.127  28.788  34.331  1.00  0.00     0.049 A 
ATOM     35  H   UNL A   1      41.633  29.175  32.891  1.00  0.00     0.167 HD
ATOM     36  C   UNL A   1      43.769  27.365  32.403  1.00  0.00     0.074 A 
ATOM     37  C   UNL A   1      44.627  26.401  31.744  1.00  0.00     0.031 C 
ATOM     38  C   UNL A   1      43.974  27.840  33.655  1.00  0.00     0.037 A 
BRANCH  25  39
ATOM     39  C   UNL A   1      39.686  31.841  35.598  1.00  0.00     0.064 A 
ATOM     40  C   UNL A   1      40.172  33.144  35.776  1.00  0.00     0.173 A 
ATOM     41  C   UNL A   1      38.664  31.399  36.452  1.00  0.00     0.173 A 
ATOM     42  F   UNL A   1      41.156  33.611  34.994  1.00  0.00    -0.203 F 
ATOM     43  C   UNL A   1      39.666  33.967  36.781  1.00  0.00     0.198 A 
ATOM     44  C   UNL A   1      38.144  32.233  37.439  1.00  0.00     0.198 A 
ATOM     45  F   UNL A   1      38.160  30.163  36.321  1.00  0.00    -0.203 F 
ATOM     46  F   UNL A   1      40.169  35.197  36.954  1.00  0.00    -0.200 F 
ATOM     47  C   UNL A   1      38.647  33.513  37.605  1.00  0.00     0.200 A 
ATOM     48  F   UNL A   1      37.151  31.797  38.227  1.00  0.00    -0.200 F 
ATOM     49  F   UNL A   1      38.153  34.311  38.562  1.00  0.00    -0.200 F 
ENDBRANCH  25  39
BRANCH  26  50
ATOM     50  C   UNL A   1      42.725  26.122  27.984  1.00  0.00     0.064 A 
ATOM     51  C   UNL A   1      42.276  24.803  27.837  1.00  0.00     0.173 A 
ATOM     52  C   UNL A   1      43.605  26.624  27.014  1.00  0.00     0.173 A 
ATOM     53  F   UNL A   1      41.447  24.272  28.749  1.00  0.00    -0.203 F 
ATOM     54  C   UNL A   1      42.703  24.013  26.772  1.00  0.00     0.198 A 
ATOM     55  C   UNL A   1      44.005  25.846  25.931  1.00  0.00     0.198 A 
ATOM     56  F   UNL A   1      44.059  27.884  27.105  1.00  0.00    -0.203 F 
ATOM     57  F   UNL A   1      42.293  22.742  26.677  1.00  0.00    -0.200 F 
ATOM     58  C   UNL A   1      43.561  24.537  25.815  1.00  0.00     0.200 A 
ATOM     59  F   UNL A   1      44.818  26.363  25.001  1.00  0.00    -0.200 F 
ATOM     60  F   UNL A   1      43.963  23.781  24.786  1.00  0.00    -0.200 F 
ENDBRANCH  26  50
BRANCH  38  61
ATOM     61  C   UNL A   1      45.173  27.314  34.386  1.00  0.00     0.064 A 
ATOM     62  C   UNL A   1      45.093  26.160  35.182  1.00  0.00     0.173 A 
ATOM     63  C   UNL A   1      46.410  27.965  34.289  1.00  0.00     0.173 A 
ATOM     64  F   UNL A   1      43.926  25.513  35.319  1.00  0.00    -0.203 F 
ATOM     65  C   UNL A   1      46.204  25.698  35.881  1.00  0.00     0.198 A 
ATOM     66  C   UNL A   1      47.526  27.484  34.969  1.00  0.00     0.198 A 
ATOM     67  F   UNL A   1      46.537  29.068  33.538  1.00  0.00    -0.203 F 
ATOM     68  F   UNL A   1      46.092  24.629  36.682  1.00  0.00    -0.200 F 
ATOM     69  C   UNL A   1      47.419  26.358  35.772  1.00  0.00     0.200 A 
ATOM     70  F   UNL A   1      48.701  28.117  34.857  1.00  0.00    -0.200 F 
ATOM     71  F   UNL A   1      48.486  25.915  36.451  1.00  0.00    -0.200 F 
ENDBRANCH  38  61
ENDBRANCH  12  13
ENDBRANCH   5   7
ENDBRANCH   2   3
ENDBRANCH   1   2
BRANCH   1  72
ATOM     72  C   UNL A   1      32.198  26.934  25.075  1.00  0.00     0.118 C 
BRANCH  72  73
ATOM     73  N   UNL A   1      32.874  27.072  23.792  1.00  0.00    -0.352 N 
ATOM     74  C   UNL A   1      33.373  26.097  22.966  1.00  0.00     0.252 C 
ATOM     75  H   UNL A   1      32.990  27.996  23.472  1.00  0.00     0.163 HD
ATOM     76  O   UNL A   1      34.028  26.395  21.972  1.00  0.00    -0.269 OA
BRANCH  74  77
ATOM     77  C   UNL A   1      33.181  24.681  23.317  1.00  0.00     0.058 A 
ATOM     78  C   UNL A   1      32.156  23.993  22.662  1.00  0.00     0.016 A 
ATOM     79  C   UNL A   1      33.983  24.023  24.249  1.00  0.00     0.054 A 
ATOM     80  C   UNL A   1      31.987  22.624  22.887  1.00  0.00     0.009 A 
ATOM     81  C   UNL A   1      33.829  22.647  24.439  1.00  0.00     0.030 A 
ATOM     82  Cl  UNL A   1      35.179  24.836  25.197  1.00  0.00    -0.083 Cl
ATOM     83  C   UNL A   1      32.839  21.917  23.754  1.00  0.00    -0.017 A 
BRANCH  83  84
ATOM     84  C   UNL A   1      32.708  20.459  23.940  1.00  0.00    -0.015 A 
ATOM     85  C   UNL A   1      33.005  19.850  25.173  1.00  0.00     0.009 A 
ATOM     86  C   UNL A   1      32.300  19.624  22.886  1.00  0.00     0.054 A 
ATOM     87  C   UNL A   1      32.903  18.466  25.344  1.00  0.00     0.004 A 
ATOM     88  C   UNL A   1      32.190  18.247  23.065  1.00  0.00     0.116 A 
ATOM     89  C   UNL A   1      32.492  17.660  24.287  1.00  0.00     0.046 A 
BRANCH  88  90
ATOM     90  O   UNL A   1      31.778  17.502  22.001  1.00  0.00    -0.508 OA
ATOM     91  H   UNL A   1      32.235  17.559  21.184  1.00  0.00     0.293 HD
ENDBRANCH  88  90
ENDBRANCH  83  84
ENDBRANCH  74  77
ENDBRANCH  72  73
ENDBRANCH   1  72
TORSDOF 12
ENDMDL
MODEL 3
REMARK VINA RESULT:     -12.9      2.458      3.575
REMARK SMILES O=C(NCCCNC(=O)c1ccc(-c2cccc(O)c2)cc1Cl)c1ccc(-c2c3nc(c(-c4c(F)c(F)c(F)c(F)c4F)c4ccc([nH]4)c(-c4c(F)c(F)c(F)c(F)c4F)c4nc(c(-c5c(F)c(F)c(F)c(F)c5F)c5ccc2[nH]5)C=C4)C=C3)cc1
REMARK SMILES IDX 5 1 4 2 3 3 1 4 2 5 24 7 25 8 86 9 26 10 85 11 27 12 28 13
REMARK SMILES IDX 29 14 79 15 30 16 84 17 78 18 80 19 31 20 83 21 77 22 76 23
REMARK SMILES IDX 32 25 64 26 44 27 63 28 45 29 48 30 62 31 81 32 46 33 47 34
REMARK SMILES IDX 61 36 82 37 49 38 33 39 34 40 42 41 35 42 36 43 40 44 43 45
REMARK SMILES IDX 37 46 38 47 41 48 39 49 65 50 66 51 74 52 67 53 68 54 72 55
REMARK SMILES IDX 75 56 69 57 70 58 73 59 71 60 50 61 51 62 59 63 52 64 53 65
REMARK SMILES IDX 57 66 60 67 54 68 55 69 58 70 56 71 6 72 7 73 8 74 9 76
REMARK SMILES IDX 10 77 11 78 22 79 12 80 21 81 23 82 13 83 14 84 15 85 20 86
REMARK SMILES IDX 16 87 18 88 17 89 19 90
REMARK H PARENT 3 6 80 24 48 35 7 75 19 91
REMARK Flexibility Score: inf
ROOT
ATOM      1  C   UNL A   1      31.413  32.250  26.508  1.00  0.00     0.042 C 
ENDROOT
BRANCH   1   2
ATOM      2  C   UNL A   1      32.654  32.862  27.136  1.00  0.00     0.118 C 
BRANCH   2   3
ATOM      3  N   UNL A   1      32.423  34.201  27.670  1.00  0.00    -0.352 N 
ATOM      4  O   UNL A   1      32.554  35.938  29.097  1.00  0.00    -0.269 OA
ATOM      5  C   UNL A   1      33.023  34.871  28.708  1.00  0.00     0.251 C 
ATOM      6  H   UNL A   1      31.718  34.709  27.208  1.00  0.00     0.163 HD
BRANCH   5   7
ATOM      7  C   UNL A   1      34.217  34.311  29.378  1.00  0.00     0.039 A 
ATOM      8  C   UNL A   1      35.497  34.608  28.919  1.00  0.00     0.014 A 
ATOM      9  C   UNL A   1      34.057  33.490  30.501  1.00  0.00     0.014 A 
ATOM     10  C   UNL A   1      36.593  33.939  29.444  1.00  0.00     0.010 A 
ATOM     11  C   UNL A   1      35.177  32.914  31.113  1.00  0.00     0.010 A 
ATOM     12  C   UNL A   1      36.453  33.102  30.563  1.00  0.00    -0.014 A 
BRANCH  12  13
ATOM     13  C   UNL A   1      37.680  32.507  31.154  1.00  0.00     0.031 A 
ATOM     14  C   UNL A   1      38.142  32.866  32.538  1.00  0.00     0.074 A 
ATOM     15  C   UNL A   1      38.331  31.563  30.447  1.00  0.00     0.049 A 
ATOM     16  N   UNL A   1      39.134  32.360  33.230  1.00  0.00    -0.248 NA
ATOM     17  C   UNL A   1      37.410  33.932  33.238  1.00  0.00     0.031 C 
ATOM     18  C   UNL A   1      37.990  31.154  29.081  1.00  0.00     0.029 A 
ATOM     19  N   UNL A   1      39.378  30.745  30.784  1.00  0.00    -0.354 N 
ATOM     20  C   UNL A   1      39.153  33.052  34.434  1.00  0.00     0.074 A 
ATOM     21  C   UNL A   1      38.094  34.034  34.371  1.00  0.00     0.031 C 
ATOM     22  C   UNL A   1      38.758  30.115  28.727  1.00  0.00     0.029 A 
ATOM     23  C   UNL A   1      39.690  29.827  29.810  1.00  0.00     0.049 A 
ATOM     24  H   UNL A   1      39.860  30.809  31.641  1.00  0.00     0.167 HD
ATOM     25  C   UNL A   1      39.974  32.872  35.497  1.00  0.00     0.037 A 
ATOM     26  C   UNL A   1      40.626  28.861  29.785  1.00  0.00     0.037 A 
ATOM     27  C   UNL A   1      41.020  31.882  35.560  1.00  0.00     0.049 A 
ATOM     28  C   UNL A   1      41.507  28.676  30.985  1.00  0.00     0.074 A 
ATOM     29  C   UNL A   1      41.905  31.621  36.594  1.00  0.00     0.029 A 
ATOM     30  N   UNL A   1      41.321  30.985  34.545  1.00  0.00    -0.354 N 
ATOM     31  N   UNL A   1      41.502  29.328  32.122  1.00  0.00    -0.248 NA
ATOM     32  C   UNL A   1      42.524  27.621  30.900  1.00  0.00     0.031 C 
ATOM     33  C   UNL A   1      42.759  30.588  36.192  1.00  0.00     0.029 A 
ATOM     34  C   UNL A   1      42.381  30.176  34.924  1.00  0.00     0.049 A 
ATOM     35  H   UNL A   1      40.851  30.931  33.681  1.00  0.00     0.167 HD
ATOM     36  C   UNL A   1      42.513  28.768  32.885  1.00  0.00     0.074 A 
ATOM     37  C   UNL A   1      43.084  27.694  32.098  1.00  0.00     0.031 C 
ATOM     38  C   UNL A   1      42.942  29.121  34.121  1.00  0.00     0.037 A 
BRANCH  25  39
ATOM     39  C   UNL A   1      39.782  33.768  36.688  1.00  0.00     0.064 A 
ATOM     40  C   UNL A   1      40.391  35.029  36.762  1.00  0.00     0.173 A 
ATOM     41  C   UNL A   1      38.930  33.388  37.735  1.00  0.00     0.173 A 
ATOM     42  F   UNL A   1      41.224  35.434  35.791  1.00  0.00    -0.203 F 
ATOM     43  C   UNL A   1      40.168  35.870  37.850  1.00  0.00     0.198 A 
ATOM     44  C   UNL A   1      38.690  34.242  38.810  1.00  0.00     0.198 A 
ATOM     45  F   UNL A   1      38.317  32.195  37.712  1.00  0.00    -0.203 F 
ATOM     46  F   UNL A   1      40.788  37.057  37.915  1.00  0.00    -0.200 F 
ATOM     47  C   UNL A   1      39.312  35.479  38.868  1.00  0.00     0.200 A 
ATOM     48  F   UNL A   1      37.853  33.868  39.788  1.00  0.00    -0.200 F 
ATOM     49  F   UNL A   1      39.089  36.296  39.908  1.00  0.00    -0.200 F 
ENDBRANCH  25  39
BRANCH  26  50
ATOM     50  C   UNL A   1      40.773  28.009  28.577  1.00  0.00     0.064 A 
ATOM     51  C   UNL A   1      40.094  26.790  28.460  1.00  0.00     0.173 A 
ATOM     52  C   UNL A   1      41.588  28.409  27.507  1.00  0.00     0.173 A 
ATOM     53  F   UNL A   1      39.316  26.358  29.465  1.00  0.00    -0.203 F 
ATOM     54  C   UNL A   1      40.236  25.995  27.326  1.00  0.00     0.198 A 
ATOM     55  C   UNL A   1      41.704  27.629  26.360  1.00  0.00     0.198 A 
ATOM     56  F   UNL A   1      42.255  29.571  27.568  1.00  0.00    -0.203 F 
ATOM     57  F   UNL A   1      39.608  24.813  27.256  1.00  0.00    -0.200 F 
ATOM     58  C   UNL A   1      41.034  26.418  26.273  1.00  0.00     0.200 A 
ATOM     59  F   UNL A   1      42.461  28.052  25.339  1.00  0.00    -0.200 F 
ATOM     60  F   UNL A   1      41.163  25.657  25.178  1.00  0.00    -0.200 F 
ENDBRANCH  26  50
BRANCH  38  61
ATOM     61  C   UNL A   1      44.082  28.328  34.689  1.00  0.00     0.064 A 
ATOM     62  C   UNL A   1      45.414  28.732  34.504  1.00  0.00     0.173 A 
ATOM     63  C   UNL A   1      43.842  27.160  35.425  1.00  0.00     0.173 A 
ATOM     64  F   UNL A   1      45.693  29.833  33.791  1.00  0.00    -0.203 F 
ATOM     65  C   UNL A   1      46.465  27.973  35.007  1.00  0.00     0.198 A 
ATOM     66  C   UNL A   1      44.896  26.418  35.951  1.00  0.00     0.198 A 
ATOM     67  F   UNL A   1      42.587  26.737  35.633  1.00  0.00    -0.203 F 
ATOM     68  F   UNL A   1      47.731  28.344  34.769  1.00  0.00    -0.200 F 
ATOM     69  C   UNL A   1      46.206  26.820  35.733  1.00  0.00     0.200 A 
ATOM     70  F   UNL A   1      44.645  25.308  36.659  1.00  0.00    -0.200 F 
ATOM     71  F   UNL A   1      47.221  26.087  36.213  1.00  0.00    -0.200 F 
ENDBRANCH  38  61
ENDBRANCH  12  13
ENDBRANCH   5   7
ENDBRANCH   2   3
ENDBRANCH   1   2
BRANCH   1  72
ATOM     72  C   UNL A   1      31.584  30.790  26.122  1.00  0.00     0.118 C 
BRANCH  72  73
ATOM     73  N   UNL A   1      30.887  30.460  24.886  1.00  0.00    -0.352 N 
ATOM     74  C   UNL A   1      30.949  29.315  24.134  1.00  0.00     0.252 C 
ATOM     75  H   UNL A   1      30.286  31.159  24.540  1.00  0.00     0.163 HD
ATOM     76  O   UNL A   1      30.386  29.250  23.045  1.00  0.00    -0.269 OA
BRANCH  74  77
ATOM     77  C   UNL A   1      31.759  28.181  24.606  1.00  0.00     0.058 A 
ATOM     78  C   UNL A   1      31.198  27.357  25.586  1.00  0.00     0.016 A 
ATOM     79  C   UNL A   1      33.031  27.906  24.104  1.00  0.00     0.054 A 
ATOM     80  C   UNL A   1      31.882  26.214  26.005  1.00  0.00     0.009 A 
ATOM     81  C   UNL A   1      33.690  26.740  24.504  1.00  0.00     0.030 A 
ATOM     82  Cl  UNL A   1      33.847  28.950  22.994  1.00  0.00    -0.083 Cl
ATOM     83  C   UNL A   1      33.126  25.865  25.450  1.00  0.00    -0.017 A 
BRANCH  83  84
ATOM     84  C   UNL A   1      33.819  24.620  25.839  1.00  0.00    -0.015 A 
ATOM     85  C   UNL A   1      35.162  24.392  25.488  1.00  0.00     0.009 A 
ATOM     86  C   UNL A   1      33.155  23.612  26.559  1.00  0.00     0.054 A 
ATOM     87  C   UNL A   1      35.813  23.204  25.836  1.00  0.00     0.004 A 
ATOM     88  C   UNL A   1      33.812  22.435  26.912  1.00  0.00     0.116 A 
ATOM     89  C   UNL A   1      35.137  22.221  26.554  1.00  0.00     0.046 A 
BRANCH  88  90
ATOM     90  O   UNL A   1      33.108  21.506  27.618  1.00  0.00    -0.508 OA
ATOM     91  H   UNL A   1      33.005  21.601  28.545  1.00  0.00     0.293 HD
ENDBRANCH  88  90
ENDBRANCH  83  84
ENDBRANCH  74  77
ENDBRANCH  72  73
ENDBRANCH   1  72
TORSDOF 12
ENDMDL
