MODEL 1
REMARK VINA RESULT:     -13.4      0.000      0.000
REMARK SMILES O=C(NCCCNC(=O)c1cc(C2CC2)nc2c(-c3ccc(Cl)cc3)cnn12)c1ccc(-c2c3nc(c(-c4c(F)c(F)c(F)c(F)c4F)c4ccc([nH]4)c(-c4c(F)c(F)c(F)c(F)c4F)c4nc(c(-c5c(F)c(F)c(F)c(F)c5F)c5ccc2[nH]5)C=C4)C=C3)cc1
REMARK SMILES IDX 4 1 3 2 1 3 2 4 29 6 30 7 91 8 31 9 90 10 32 11 33 12 34 13
REMARK SMILES IDX 84 14 35 15 89 16 83 17 85 18 36 19 88 20 82 21 81 22 37 24
REMARK SMILES IDX 69 25 49 26 68 27 50 28 53 29 67 30 86 31 51 32 52 33 66 35
REMARK SMILES IDX 87 36 54 37 38 38 39 39 47 40 40 41 41 42 45 43 48 44 42 45
REMARK SMILES IDX 43 46 46 47 44 48 70 49 71 50 79 51 72 52 73 53 77 54 80 55
REMARK SMILES IDX 74 56 75 57 78 58 76 59 55 60 56 61 64 62 57 63 58 64 62 65
REMARK SMILES IDX 65 66 59 67 60 68 63 69 61 70 5 71 6 72 7 73 8 74 9 76 10 77
REMARK SMILES IDX 11 78 28 79 12 80 17 81 27 82 16 83 18 84 26 85 13 86 14 87
REMARK SMILES IDX 15 88 19 89 20 90 25 91 21 92 24 93 22 94 23 95
REMARK H PARENT 3 5 85 23 53 34 7 75
REMARK Flexibility Score: inf
ROOT
ATOM      1  C   UNL A   1      33.038  29.009  25.423  1.00  0.00     0.118 C 
ENDROOT
BRANCH   1   2
ATOM      2  N   UNL A   1      32.597  30.333  25.843  1.00  0.00    -0.352 N 
ATOM      3  O   UNL A   1      32.447  32.176  27.127  1.00  0.00    -0.269 OA
ATOM      4  C   UNL A   1      33.076  31.164  26.826  1.00  0.00     0.251 C 
ATOM      5  H   UNL A   1      31.831  30.691  25.340  1.00  0.00     0.163 HD
BRANCH   4   6
ATOM      6  C   UNL A   1      34.329  30.840  27.543  1.00  0.00     0.039 A 
ATOM      7  C   UNL A   1      34.563  29.555  28.032  1.00  0.00     0.014 A 
ATOM      8  C   UNL A   1      35.302  31.832  27.706  1.00  0.00     0.014 A 
ATOM      9  C   UNL A   1      35.671  29.308  28.833  1.00  0.00     0.010 A 
ATOM     10  C   UNL A   1      36.473  31.551  28.415  1.00  0.00     0.010 A 
ATOM     11  C   UNL A   1      36.652  30.295  29.013  1.00  0.00    -0.014 A 
BRANCH  11  12
ATOM     12  C   UNL A   1      37.886  29.956  29.769  1.00  0.00     0.031 A 
ATOM     13  C   UNL A   1      38.129  30.494  31.151  1.00  0.00     0.074 A 
ATOM     14  C   UNL A   1      38.780  29.126  29.198  1.00  0.00     0.049 A 
ATOM     15  N   UNL A   1      39.147  30.286  31.948  1.00  0.00    -0.248 NA
ATOM     16  C   UNL A   1      37.103  31.385  31.713  1.00  0.00     0.031 C 
ATOM     17  C   UNL A   1      38.655  28.549  27.857  1.00  0.00     0.029 A 
ATOM     18  N   UNL A   1      39.957  28.605  29.672  1.00  0.00    -0.354 N 
ATOM     19  C   UNL A   1      38.896  31.030  33.093  1.00  0.00     0.074 A 
ATOM     20  C   UNL A   1      37.640  31.718  32.879  1.00  0.00     0.031 C 
ATOM     21  C   UNL A   1      39.686  27.723  27.633  1.00  0.00     0.029 A 
ATOM     22  C   UNL A   1      40.581  27.765  28.782  1.00  0.00     0.049 A 
ATOM     23  H   UNL A   1      40.319  28.815  30.562  1.00  0.00     0.167 HD
ATOM     24  C   UNL A   1      39.642  31.120  34.221  1.00  0.00     0.037 A 
ATOM     25  C   UNL A   1      41.758  27.118  28.869  1.00  0.00     0.037 A 
ATOM     26  C   UNL A   1      40.885  30.419  34.430  1.00  0.00     0.049 A 
ATOM     27  C   UNL A   1      42.578  27.267  30.118  1.00  0.00     0.074 A 
ATOM     28  C   UNL A   1      41.696  30.418  35.552  1.00  0.00     0.029 A 
ATOM     29  N   UNL A   1      41.500  29.601  33.493  1.00  0.00    -0.354 N 
ATOM     30  N   UNL A   1      42.308  27.943  31.208  1.00  0.00    -0.248 NA
ATOM     31  C   UNL A   1      43.866  26.565  30.148  1.00  0.00     0.031 C 
ATOM     32  C   UNL A   1      42.827  29.645  35.275  1.00  0.00     0.029 A 
ATOM     33  C   UNL A   1      42.694  29.112  34.003  1.00  0.00     0.049 A 
ATOM     34  H   UNL A   1      41.142  29.396  32.599  1.00  0.00     0.167 HD
ATOM     35  C   UNL A   1      43.380  27.729  32.062  1.00  0.00     0.074 A 
ATOM     36  C   UNL A   1      44.294  26.844  31.370  1.00  0.00     0.031 C 
ATOM     37  C   UNL A   1      43.589  28.225  33.306  1.00  0.00     0.037 A 
BRANCH  24  38
ATOM     38  C   UNL A   1      39.152  32.021  35.319  1.00  0.00     0.064 A 
ATOM     39  C   UNL A   1      38.398  31.532  36.396  1.00  0.00     0.173 A 
ATOM     40  C   UNL A   1      39.500  33.381  35.329  1.00  0.00     0.173 A 
ATOM     41  F   UNL A   1      38.030  30.243  36.431  1.00  0.00    -0.203 F 
ATOM     42  C   UNL A   1      37.994  32.374  37.430  1.00  0.00     0.198 A 
ATOM     43  C   UNL A   1      39.120  34.213  36.378  1.00  0.00     0.198 A 
ATOM     44  F   UNL A   1      40.226  33.900  34.328  1.00  0.00    -0.203 F 
ATOM     45  F   UNL A   1      37.242  31.892  38.429  1.00  0.00    -0.200 F 
ATOM     46  C   UNL A   1      38.363  33.711  37.426  1.00  0.00     0.200 A 
ATOM     47  F   UNL A   1      39.490  35.501  36.379  1.00  0.00    -0.200 F 
ATOM     48  F   UNL A   1      37.986  34.516  38.429  1.00  0.00    -0.200 F 
ENDBRANCH  24  38
BRANCH  25  49
ATOM     49  C   UNL A   1      42.231  26.286  27.732  1.00  0.00     0.064 A 
ATOM     50  C   UNL A   1      43.190  26.769  26.831  1.00  0.00     0.173 A 
ATOM     51  C   UNL A   1      41.732  24.991  27.522  1.00  0.00     0.173 A 
ATOM     52  F   UNL A   1      43.685  28.007  26.980  1.00  0.00    -0.203 F 
ATOM     53  C   UNL A   1      43.615  25.998  25.752  1.00  0.00     0.198 A 
ATOM     54  C   UNL A   1      42.184  24.208  26.463  1.00  0.00     0.198 A 
ATOM     55  F   UNL A   1      40.817  24.479  28.359  1.00  0.00    -0.203 F 
ATOM     56  F   UNL A   1      44.495  26.503  24.877  1.00  0.00    -0.200 F 
ATOM     57  C   UNL A   1      43.116  24.717  25.572  1.00  0.00     0.200 A 
ATOM     58  F   UNL A   1      41.713  22.964  26.305  1.00  0.00    -0.200 F 
ATOM     59  F   UNL A   1      43.529  23.973  24.536  1.00  0.00    -0.200 F 
ENDBRANCH  25  49
BRANCH  37  60
ATOM     60  C   UNL A   1      44.839  27.788  34.015  1.00  0.00     0.064 A 
ATOM     61  C   UNL A   1      46.033  28.518  33.924  1.00  0.00     0.173 A 
ATOM     62  C   UNL A   1      44.832  26.635  34.815  1.00  0.00     0.173 A 
ATOM     63  F   UNL A   1      46.096  29.617  33.158  1.00  0.00    -0.203 F 
ATOM     64  C   UNL A   1      47.182  28.093  34.586  1.00  0.00     0.198 A 
ATOM     65  C   UNL A   1      45.974  26.233  35.501  1.00  0.00     0.198 A 
ATOM     66  F   UNL A   1      43.714  25.904  34.939  1.00  0.00    -0.203 F 
ATOM     67  F   UNL A   1      48.326  28.776  34.442  1.00  0.00    -0.200 F 
ATOM     68  C   UNL A   1      47.150  26.956  35.380  1.00  0.00     0.200 A 
ATOM     69  F   UNL A   1      45.936  25.142  36.280  1.00  0.00    -0.200 F 
ATOM     70  F   UNL A   1      48.255  26.553  36.021  1.00  0.00    -0.200 F 
ENDBRANCH  37  60
ENDBRANCH  11  12
ENDBRANCH   4   6
ENDBRANCH   1   2
BRANCH   1  71
ATOM     71  C   UNL A   1      32.067  27.906  25.812  1.00  0.00     0.042 C 
BRANCH  71  72
ATOM     72  C   UNL A   1      32.417  26.542  25.245  1.00  0.00     0.118 C 
BRANCH  72  73
ATOM     73  N   UNL A   1      32.916  26.604  23.878  1.00  0.00    -0.351 N 
ATOM     74  C   UNL A   1      33.663  25.717  23.152  1.00  0.00     0.270 C 
ATOM     75  H   UNL A   1      32.675  27.426  23.393  1.00  0.00     0.163 HD
ATOM     76  O   UNL A   1      33.977  26.005  22.001  1.00  0.00    -0.268 OA
BRANCH  74  77
ATOM     77  C   UNL A   1      34.026  24.419  23.753  1.00  0.00     0.134 A 
ATOM     78  C   UNL A   1      34.942  24.424  24.735  1.00  0.00     0.058 A 
ATOM     79  N   UNL A   1      33.386  23.231  23.400  1.00  0.00    -0.209 N 
ATOM     80  C   UNL A   1      35.366  23.087  25.215  1.00  0.00     0.048 A 
ATOM     81  C   UNL A   1      33.726  22.031  24.053  1.00  0.00     0.164 A 
ATOM     82  N   UNL A   1      32.427  23.022  22.458  1.00  0.00    -0.174 NA
ATOM     83  N   UNL A   1      34.780  21.963  24.930  1.00  0.00    -0.233 NA
ATOM     84  C   UNL A   1      32.833  21.081  23.592  1.00  0.00     0.047 A 
ATOM     85  C   UNL A   1      32.070  21.749  22.617  1.00  0.00     0.146 A 
BRANCH  80  86
ATOM     86  C   UNL A   1      36.604  22.997  26.038  1.00  0.00     0.038 C 
ATOM     87  C   UNL A   1      37.903  22.422  25.514  1.00  0.00     0.010 C 
ATOM     88  C   UNL A   1      37.792  23.893  25.799  1.00  0.00     0.010 C 
ENDBRANCH  80  86
BRANCH  84  89
ATOM     89  C   UNL A   1      32.758  19.701  24.030  1.00  0.00    -0.013 A 
ATOM     90  C   UNL A   1      32.805  18.651  23.104  1.00  0.00     0.010 A 
ATOM     91  C   UNL A   1      32.703  19.406  25.399  1.00  0.00     0.010 A 
ATOM     92  C   UNL A   1      32.808  17.323  23.541  1.00  0.00     0.021 A 
ATOM     93  C   UNL A   1      32.698  18.078  25.836  1.00  0.00     0.021 A 
ATOM     94  C   UNL A   1      32.756  17.043  24.905  1.00  0.00     0.041 A 
ATOM     95  Cl  UNL A   1      32.773  15.410  25.444  1.00  0.00    -0.084 Cl
ENDBRANCH  84  89
ENDBRANCH  74  77
ENDBRANCH  72  73
ENDBRANCH  71  72
ENDBRANCH   1  71
TORSDOF 12
ENDMDL
MODEL 2
REMARK VINA RESULT:     -13.4      4.359      9.059
REMARK SMILES O=C(NCCCNC(=O)c1cc(C2CC2)nc2c(-c3ccc(Cl)cc3)cnn12)c1ccc(-c2c3nc(c(-c4c(F)c(F)c(F)c(F)c4F)c4ccc([nH]4)c(-c4c(F)c(F)c(F)c(F)c4F)c4nc(c(-c5c(F)c(F)c(F)c(F)c5F)c5ccc2[nH]5)C=C4)C=C3)cc1
REMARK SMILES IDX 4 1 3 2 1 3 2 4 29 6 30 7 91 8 31 9 90 10 32 11 33 12 34 13
REMARK SMILES IDX 84 14 35 15 89 16 83 17 85 18 36 19 88 20 82 21 81 22 37 24
REMARK SMILES IDX 69 25 49 26 68 27 50 28 53 29 67 30 86 31 51 32 52 33 66 35
REMARK SMILES IDX 87 36 54 37 38 38 39 39 47 40 40 41 41 42 45 43 48 44 42 45
REMARK SMILES IDX 43 46 46 47 44 48 70 49 71 50 79 51 72 52 73 53 77 54 80 55
REMARK SMILES IDX 74 56 75 57 78 58 76 59 55 60 56 61 64 62 57 63 58 64 62 65
REMARK SMILES IDX 65 66 59 67 60 68 63 69 61 70 5 71 6 72 7 73 8 74 9 76 10 77
REMARK SMILES IDX 11 78 28 79 12 80 17 81 27 82 16 83 18 84 26 85 13 86 14 87
REMARK SMILES IDX 15 88 19 89 20 90 25 91 21 92 24 93 22 94 23 95
REMARK H PARENT 3 5 85 23 53 34 7 75
REMARK Flexibility Score: inf
ROOT
ATOM      1  C   UNL A   1      36.123  23.636  26.153  1.00  0.00     0.118 C 
ENDROOT
BRANCH   1   2
ATOM      2  N   UNL A   1      37.215  22.683  26.008  1.00  0.00    -0.352 N 
ATOM      3  O   UNL A   1      39.336  21.942  25.859  1.00  0.00    -0.269 OA
ATOM      4  C   UNL A   1      38.567  22.837  26.203  1.00  0.00     0.251 C 
ATOM      5  H   UNL A   1      36.941  21.782  25.722  1.00  0.00     0.163 HD
BRANCH   4   6
ATOM      6  C   UNL A   1      39.106  24.078  26.800  1.00  0.00     0.039 A 
ATOM      7  C   UNL A   1      38.961  24.339  28.163  1.00  0.00     0.014 A 
ATOM      8  C   UNL A   1      39.794  24.986  25.989  1.00  0.00     0.014 A 
ATOM      9  C   UNL A   1      39.337  25.574  28.677  1.00  0.00     0.010 A 
ATOM     10  C   UNL A   1      40.275  26.182  26.532  1.00  0.00     0.010 A 
ATOM     11  C   UNL A   1      40.020  26.500  27.874  1.00  0.00    -0.014 A 
BRANCH  11  12
ATOM     12  C   UNL A   1      40.520  27.757  28.489  1.00  0.00     0.031 A 
ATOM     13  C   UNL A   1      41.975  27.943  28.814  1.00  0.00     0.074 A 
ATOM     14  C   UNL A   1      39.640  28.749  28.725  1.00  0.00     0.049 A 
ATOM     15  N   UNL A   1      42.574  28.982  29.342  1.00  0.00    -0.248 NA
ATOM     16  C   UNL A   1      42.877  26.820  28.517  1.00  0.00     0.031 C 
ATOM     17  C   UNL A   1      38.201  28.679  28.460  1.00  0.00     0.029 A 
ATOM     18  N   UNL A   1      39.821  30.015  29.223  1.00  0.00    -0.354 N 
ATOM     19  C   UNL A   1      43.914  28.634  29.456  1.00  0.00     0.074 A 
ATOM     20  C   UNL A   1      44.038  27.277  28.968  1.00  0.00     0.031 C 
ATOM     21  C   UNL A   1      37.638  29.858  28.753  1.00  0.00     0.029 A 
ATOM     22  C   UNL A   1      38.660  30.746  29.295  1.00  0.00     0.049 A 
ATOM     23  H   UNL A   1      40.698  30.364  29.503  1.00  0.00     0.167 HD
ATOM     24  C   UNL A   1      44.944  29.384  29.917  1.00  0.00     0.037 A 
ATOM     25  C   UNL A   1      38.436  31.985  29.768  1.00  0.00     0.037 A 
ATOM     26  C   UNL A   1      44.812  30.740  30.389  1.00  0.00     0.049 A 
ATOM     27  C   UNL A   1      39.593  32.778  30.305  1.00  0.00     0.074 A 
ATOM     28  C   UNL A   1      45.802  31.596  30.844  1.00  0.00     0.029 A 
ATOM     29  N   UNL A   1      43.614  31.437  30.475  1.00  0.00    -0.354 N 
ATOM     30  N   UNL A   1      40.860  32.450  30.370  1.00  0.00    -0.248 NA
ATOM     31  C   UNL A   1      39.287  34.111  30.837  1.00  0.00     0.031 C 
ATOM     32  C   UNL A   1      45.197  32.788  31.255  1.00  0.00     0.029 A 
ATOM     33  C   UNL A   1      43.838  32.701  31.000  1.00  0.00     0.049 A 
ATOM     34  H   UNL A   1      42.736  31.086  30.202  1.00  0.00     0.167 HD
ATOM     35  C   UNL A   1      41.506  33.543  30.927  1.00  0.00     0.074 A 
ATOM     36  C   UNL A   1      40.493  34.552  31.162  1.00  0.00     0.031 C 
ATOM     37  C   UNL A   1      42.821  33.697  31.221  1.00  0.00     0.037 A 
BRANCH  24  38
ATOM     38  C   UNL A   1      46.309  28.759  29.957  1.00  0.00     0.064 A 
ATOM     39  C   UNL A   1      46.756  28.027  31.069  1.00  0.00     0.173 A 
ATOM     40  C   UNL A   1      47.157  28.834  28.842  1.00  0.00     0.173 A 
ATOM     41  F   UNL A   1      45.989  27.932  32.165  1.00  0.00    -0.203 F 
ATOM     42  C   UNL A   1      48.005  27.414  31.068  1.00  0.00     0.198 A 
ATOM     43  C   UNL A   1      48.394  28.195  28.833  1.00  0.00     0.198 A 
ATOM     44  F   UNL A   1      46.778  29.515  27.749  1.00  0.00    -0.203 F 
ATOM     45  F   UNL A   1      48.426  26.752  32.155  1.00  0.00    -0.200 F 
ATOM     46  C   UNL A   1      48.820  27.489  29.948  1.00  0.00     0.200 A 
ATOM     47  F   UNL A   1      49.172  28.257  27.744  1.00  0.00    -0.200 F 
ATOM     48  F   UNL A   1      50.016  26.885  29.944  1.00  0.00    -0.200 F 
ENDBRANCH  24  38
BRANCH  25  49
ATOM     49  C   UNL A   1      37.057  32.540  29.766  1.00  0.00     0.064 A 
ATOM     50  C   UNL A   1      36.570  33.265  28.670  1.00  0.00     0.173 A 
ATOM     51  C   UNL A   1      36.199  32.357  30.862  1.00  0.00     0.173 A 
ATOM     52  F   UNL A   1      37.358  33.480  27.606  1.00  0.00    -0.203 F 
ATOM     53  C   UNL A   1      35.286  33.806  28.680  1.00  0.00     0.198 A 
ATOM     54  C   UNL A   1      34.904  32.868  30.855  1.00  0.00     0.198 A 
ATOM     55  F   UNL A   1      36.615  31.665  31.933  1.00  0.00    -0.203 F 
ATOM     56  F   UNL A   1      34.864  34.537  27.640  1.00  0.00    -0.200 F 
ATOM     57  C   UNL A   1      34.453  33.601  29.769  1.00  0.00     0.200 A 
ATOM     58  F   UNL A   1      34.096  32.651  31.902  1.00  0.00    -0.200 F 
ATOM     59  F   UNL A   1      33.216  34.118  29.775  1.00  0.00    -0.200 F 
ENDBRANCH  25  49
BRANCH  37  60
ATOM     60  C   UNL A   1      43.244  35.019  31.792  1.00  0.00     0.064 A 
ATOM     61  C   UNL A   1      43.660  36.078  30.972  1.00  0.00     0.173 A 
ATOM     62  C   UNL A   1      43.207  35.236  33.178  1.00  0.00     0.173 A 
ATOM     63  F   UNL A   1      43.729  35.916  29.642  1.00  0.00    -0.203 F 
ATOM     64  C   UNL A   1      44.051  37.297  31.522  1.00  0.00     0.198 A 
ATOM     65  C   UNL A   1      43.568  36.465  33.721  1.00  0.00     0.198 A 
ATOM     66  F   UNL A   1      42.812  34.257  34.006  1.00  0.00    -0.203 F 
ATOM     67  F   UNL A   1      44.497  38.276  30.724  1.00  0.00    -0.200 F 
ATOM     68  C   UNL A   1      43.998  37.492  32.894  1.00  0.00     0.200 A 
ATOM     69  F   UNL A   1      43.501  36.656  35.046  1.00  0.00    -0.200 F 
ATOM     70  F   UNL A   1      44.369  38.667  33.420  1.00  0.00    -0.200 F 
ENDBRANCH  37  60
ENDBRANCH  11  12
ENDBRANCH   4   6
ENDBRANCH   1   2
BRANCH   1  71
ATOM     71  C   UNL A   1      35.631  24.187  24.824  1.00  0.00     0.042 C 
BRANCH  71  72
ATOM     72  C   UNL A   1      34.185  23.845  24.507  1.00  0.00     0.118 C 
BRANCH  72  73
ATOM     73  N   UNL A   1      33.437  23.397  25.674  1.00  0.00    -0.351 N 
ATOM     74  C   UNL A   1      32.536  24.050  26.469  1.00  0.00     0.270 C 
ATOM     75  H   UNL A   1      33.609  22.464  25.936  1.00  0.00     0.163 HD
ATOM     76  O   UNL A   1      32.039  23.454  27.419  1.00  0.00    -0.268 OA
BRANCH  74  77
ATOM     77  C   UNL A   1      32.147  25.433  26.132  1.00  0.00     0.134 A 
ATOM     78  C   UNL A   1      32.814  26.430  26.736  1.00  0.00     0.058 A 
ATOM     79  N   UNL A   1      31.193  25.721  25.156  1.00  0.00    -0.209 N 
ATOM     80  C   UNL A   1      32.301  27.794  26.463  1.00  0.00     0.048 A 
ATOM     81  C   UNL A   1      30.908  27.060  24.827  1.00  0.00     0.164 A 
ATOM     82  N   UNL A   1      30.434  24.864  24.422  1.00  0.00    -0.174 NA
ATOM     83  N   UNL A   1      31.436  28.104  25.546  1.00  0.00    -0.233 NA
ATOM     84  C   UNL A   1      30.047  27.012  23.747  1.00  0.00     0.047 A 
ATOM     85  C   UNL A   1      29.793  25.642  23.552  1.00  0.00     0.146 A 
BRANCH  80  86
ATOM     86  C   UNL A   1      32.753  28.903  27.349  1.00  0.00     0.038 C 
ATOM     87  C   UNL A   1      33.962  29.763  27.044  1.00  0.00     0.010 C 
ATOM     88  C   UNL A   1      32.581  30.352  26.971  1.00  0.00     0.010 C 
ENDBRANCH  80  86
BRANCH  84  89
ATOM     89  C   UNL A   1      29.527  28.155  23.023  1.00  0.00    -0.013 A 
ATOM     90  C   UNL A   1      28.164  28.476  23.076  1.00  0.00     0.010 A 
ATOM     91  C   UNL A   1      30.401  28.989  22.314  1.00  0.00     0.010 A 
ATOM     92  C   UNL A   1      27.684  29.624  22.437  1.00  0.00     0.021 A 
ATOM     93  C   UNL A   1      29.920  30.132  21.668  1.00  0.00     0.021 A 
ATOM     94  C   UNL A   1      28.564  30.446  21.737  1.00  0.00     0.041 A 
ATOM     95  Cl  UNL A   1      27.976  31.865  20.962  1.00  0.00    -0.084 Cl
ENDBRANCH  84  89
ENDBRANCH  74  77
ENDBRANCH  72  73
ENDBRANCH  71  72
ENDBRANCH   1  71
TORSDOF 12
ENDMDL
MODEL 3
REMARK VINA RESULT:     -13.4      4.434      9.228
REMARK SMILES O=C(NCCCNC(=O)c1cc(C2CC2)nc2c(-c3ccc(Cl)cc3)cnn12)c1ccc(-c2c3nc(c(-c4c(F)c(F)c(F)c(F)c4F)c4ccc([nH]4)c(-c4c(F)c(F)c(F)c(F)c4F)c4nc(c(-c5c(F)c(F)c(F)c(F)c5F)c5ccc2[nH]5)C=C4)C=C3)cc1
REMARK SMILES IDX 4 1 3 2 1 3 2 4 29 6 30 7 91 8 31 9 90 10 32 11 33 12 34 13
REMARK SMILES IDX 84 14 35 15 89 16 83 17 85 18 36 19 88 20 82 21 81 22 37 24
REMARK SMILES IDX 69 25 49 26 68 27 50 28 53 29 67 30 86 31 51 32 52 33 66 35
REMARK SMILES IDX 87 36 54 37 38 38 39 39 47 40 40 41 41 42 45 43 48 44 42 45
REMARK SMILES IDX 43 46 46 47 44 48 70 49 71 50 79 51 72 52 73 53 77 54 80 55
REMARK SMILES IDX 74 56 75 57 78 58 76 59 55 60 56 61 64 62 57 63 58 64 62 65
REMARK SMILES IDX 65 66 59 67 60 68 63 69 61 70 5 71 6 72 7 73 8 74 9 76 10 77
REMARK SMILES IDX 11 78 28 79 12 80 17 81 27 82 16 83 18 84 26 85 13 86 14 87
REMARK SMILES IDX 15 88 19 89 20 90 25 91 21 92 24 93 22 94 23 95
REMARK H PARENT 3 5 85 23 53 34 7 75
REMARK Flexibility Score: inf
ROOT
ATOM      1  C   UNL A   1      36.524  23.742  25.704  1.00  0.00     0.118 C 
ENDROOT
BRANCH   1   2
ATOM      2  N   UNL A   1      37.546  22.719  25.882  1.00  0.00    -0.352 N 
ATOM      3  O   UNL A   1      39.589  21.847  26.253  1.00  0.00    -0.269 OA
ATOM      4  C   UNL A   1      38.838  22.816  26.341  1.00  0.00     0.251 C 
ATOM      5  H   UNL A   1      37.266  21.809  25.633  1.00  0.00     0.163 HD
BRANCH   4   6
ATOM      6  C   UNL A   1      39.340  24.082  26.917  1.00  0.00     0.039 A 
ATOM      7  C   UNL A   1      39.199  24.357  28.277  1.00  0.00     0.014 A 
ATOM      8  C   UNL A   1      39.990  25.002  26.087  1.00  0.00     0.014 A 
ATOM      9  C   UNL A   1      39.537  25.611  28.771  1.00  0.00     0.010 A 
ATOM     10  C   UNL A   1      40.435  26.220  26.609  1.00  0.00     0.010 A 
ATOM     11  C   UNL A   1      40.182  26.548  27.949  1.00  0.00    -0.014 A 
BRANCH  11  12
ATOM     12  C   UNL A   1      40.645  27.830  28.543  1.00  0.00     0.031 A 
ATOM     13  C   UNL A   1      42.091  28.059  28.875  1.00  0.00     0.074 A 
ATOM     14  C   UNL A   1      39.738  28.804  28.752  1.00  0.00     0.049 A 
ATOM     15  N   UNL A   1      42.660  29.123  29.387  1.00  0.00    -0.248 NA
ATOM     16  C   UNL A   1      43.024  26.954  28.608  1.00  0.00     0.031 C 
ATOM     17  C   UNL A   1      38.303  28.691  28.477  1.00  0.00     0.029 A 
ATOM     18  N   UNL A   1      39.882  30.083  29.226  1.00  0.00    -0.354 N 
ATOM     19  C   UNL A   1      44.007  28.811  29.519  1.00  0.00     0.074 A 
ATOM     20  C   UNL A   1      44.170  27.449  29.059  1.00  0.00     0.031 C 
ATOM     21  C   UNL A   1      37.708  29.862  28.742  1.00  0.00     0.029 A 
ATOM     22  C   UNL A   1      38.703  30.786  29.273  1.00  0.00     0.049 A 
ATOM     23  H   UNL A   1      40.748  30.460  29.505  1.00  0.00     0.167 HD
ATOM     24  C   UNL A   1      45.013  29.597  29.973  1.00  0.00     0.037 A 
ATOM     25  C   UNL A   1      38.444  32.028  29.720  1.00  0.00     0.037 A 
ATOM     26  C   UNL A   1      44.843  30.959  30.417  1.00  0.00     0.049 A 
ATOM     27  C   UNL A   1      39.575  32.860  30.250  1.00  0.00     0.074 A 
ATOM     28  C   UNL A   1      45.807  31.848  30.862  1.00  0.00     0.029 A 
ATOM     29  N   UNL A   1      43.628  31.626  30.479  1.00  0.00    -0.354 N 
ATOM     30  N   UNL A   1      40.850  32.566  30.332  1.00  0.00    -0.248 NA
ATOM     31  C   UNL A   1      39.232  34.196  30.752  1.00  0.00     0.031 C 
ATOM     32  C   UNL A   1      45.169  33.032  31.244  1.00  0.00     0.029 A 
ATOM     33  C   UNL A   1      43.815  32.906  30.980  1.00  0.00     0.049 A 
ATOM     34  H   UNL A   1      42.761  31.247  30.207  1.00  0.00     0.167 HD
ATOM     35  C   UNL A   1      41.463  33.687  30.872  1.00  0.00     0.074 A 
ATOM     36  C   UNL A   1      40.423  34.673  31.078  1.00  0.00     0.031 C 
ATOM     37  C   UNL A   1      42.771  33.879  31.173  1.00  0.00     0.037 A 
BRANCH  24  38
ATOM     38  C   UNL A   1      46.394  29.007  30.037  1.00  0.00     0.064 A 
ATOM     39  C   UNL A   1      46.860  28.336  31.177  1.00  0.00     0.173 A 
ATOM     40  C   UNL A   1      47.238  29.055  28.917  1.00  0.00     0.173 A 
ATOM     41  F   UNL A   1      46.097  28.269  32.279  1.00  0.00    -0.203 F 
ATOM     42  C   UNL A   1      48.124  27.754  31.200  1.00  0.00     0.198 A 
ATOM     43  C   UNL A   1      48.490  28.446  28.932  1.00  0.00     0.198 A 
ATOM     44  F   UNL A   1      46.840  29.678  27.796  1.00  0.00    -0.203 F 
ATOM     45  F   UNL A   1      48.562  27.151  32.314  1.00  0.00    -0.200 F 
ATOM     46  C   UNL A   1      48.935  27.800  30.076  1.00  0.00     0.200 A 
ATOM     47  F   UNL A   1      49.265  28.480  27.839  1.00  0.00    -0.200 F 
ATOM     48  F   UNL A   1      50.146  27.226  30.095  1.00  0.00    -0.200 F 
ENDBRANCH  24  38
BRANCH  25  49
ATOM     49  C   UNL A   1      37.051  32.547  29.695  1.00  0.00     0.064 A 
ATOM     50  C   UNL A   1      36.185  32.349  30.779  1.00  0.00     0.173 A 
ATOM     51  C   UNL A   1      36.558  33.252  28.586  1.00  0.00     0.173 A 
ATOM     52  F   UNL A   1      36.605  31.666  31.855  1.00  0.00    -0.203 F 
ATOM     53  C   UNL A   1      34.873  32.814  30.745  1.00  0.00     0.198 A 
ATOM     54  C   UNL A   1      35.257  33.748  28.568  1.00  0.00     0.198 A 
ATOM     55  F   UNL A   1      37.349  33.476  27.526  1.00  0.00    -0.203 F 
ATOM     56  F   UNL A   1      34.051  32.566  31.773  1.00  0.00    -0.200 F 
ATOM     57  C   UNL A   1      34.412  33.519  29.642  1.00  0.00     0.200 A 
ATOM     58  F   UNL A   1      34.823  34.445  27.509  1.00  0.00    -0.200 F 
ATOM     59  F   UNL A   1      33.150  33.971  29.613  1.00  0.00    -0.200 F 
ENDBRANCH  25  49
BRANCH  37  60
ATOM     60  C   UNL A   1      43.156  35.223  31.721  1.00  0.00     0.064 A 
ATOM     61  C   UNL A   1      43.065  35.516  33.089  1.00  0.00     0.173 A 
ATOM     62  C   UNL A   1      43.645  36.222  30.866  1.00  0.00     0.173 A 
ATOM     63  F   UNL A   1      42.586  34.601  33.945  1.00  0.00    -0.203 F 
ATOM     64  C   UNL A   1      43.423  36.770  33.577  1.00  0.00     0.198 A 
ATOM     65  C   UNL A   1      44.033  37.463  31.362  1.00  0.00     0.198 A 
ATOM     66  F   UNL A   1      43.756  35.991  29.549  1.00  0.00    -0.203 F 
ATOM     67  F   UNL A   1      43.276  37.046  34.880  1.00  0.00    -0.200 F 
ATOM     68  C   UNL A   1      43.914  37.740  32.715  1.00  0.00     0.200 A 
ATOM     69  F   UNL A   1      44.521  38.393  30.529  1.00  0.00    -0.200 F 
ATOM     70  F   UNL A   1      44.264  38.944  33.187  1.00  0.00    -0.200 F 
ENDBRANCH  37  60
ENDBRANCH  11  12
ENDBRANCH   4   6
ENDBRANCH   1   2
BRANCH   1  71
ATOM     71  C   UNL A   1      35.633  23.491  24.499  1.00  0.00     0.042 C 
BRANCH  71  72
ATOM     72  C   UNL A   1      34.283  24.184  24.571  1.00  0.00     0.118 C 
BRANCH  72  73
ATOM     73  N   UNL A   1      33.447  23.693  25.658  1.00  0.00    -0.351 N 
ATOM     74  C   UNL A   1      32.478  24.313  26.397  1.00  0.00     0.270 C 
ATOM     75  H   UNL A   1      33.608  22.753  25.903  1.00  0.00     0.163 HD
ATOM     76  O   UNL A   1      31.912  23.683  27.285  1.00  0.00    -0.268 OA
BRANCH  74  77
ATOM     77  C   UNL A   1      32.103  25.703  26.074  1.00  0.00     0.134 A 
ATOM     78  C   UNL A   1      32.801  26.687  26.665  1.00  0.00     0.058 A 
ATOM     79  N   UNL A   1      31.132  26.010  25.121  1.00  0.00    -0.209 N 
ATOM     80  C   UNL A   1      32.304  28.060  26.408  1.00  0.00     0.048 A 
ATOM     81  C   UNL A   1      30.861  27.354  24.804  1.00  0.00     0.164 A 
ATOM     82  N   UNL A   1      30.341  25.167  24.403  1.00  0.00    -0.174 NA
ATOM     83  N   UNL A   1      31.422  28.387  25.513  1.00  0.00    -0.233 NA
ATOM     84  C   UNL A   1      29.973  27.324  23.744  1.00  0.00     0.047 A 
ATOM     85  C   UNL A   1      29.692  25.958  23.552  1.00  0.00     0.146 A 
BRANCH  80  86
ATOM     86  C   UNL A   1      32.794  29.159  27.286  1.00  0.00     0.038 C 
ATOM     87  C   UNL A   1      33.958  30.055  26.915  1.00  0.00     0.010 C 
ATOM     88  C   UNL A   1      32.562  30.612  26.958  1.00  0.00     0.010 C 
ENDBRANCH  80  86
BRANCH  84  89
ATOM     89  C   UNL A   1      29.454  28.477  23.036  1.00  0.00    -0.013 A 
ATOM     90  C   UNL A   1      30.306  29.303  22.291  1.00  0.00     0.010 A 
ATOM     91  C   UNL A   1      28.077  28.737  23.041  1.00  0.00     0.010 A 
ATOM     92  C   UNL A   1      29.786  30.368  21.550  1.00  0.00     0.021 A 
ATOM     93  C   UNL A   1      27.558  29.808  22.307  1.00  0.00     0.021 A 
ATOM     94  C   UNL A   1      28.414  30.615  21.560  1.00  0.00     0.041 A 
ATOM     95  Cl  UNL A   1      27.772  31.918  20.639  1.00  0.00    -0.084 Cl
ENDBRANCH  84  89
ENDBRANCH  74  77
ENDBRANCH  72  73
ENDBRANCH  71  72
ENDBRANCH   1  71
TORSDOF 12
ENDMDL
