MODEL 1
REMARK VINA RESULT:     -12.6      0.000      0.000
REMARK SMILES Cc1nn(C)cc1C[NH+]1CCN(C(=O)c2cnn(CC(=O)NCCCNC(=O)c3ccc(-c4c5nc(c(-c6c(F)c(F)c(F)c(F)c6F)c6ccc([nH]6)c(-c6c(F)c(F)c(F)c(F)c6F)c6nc(c(-c7c(F)c(F)c(F)c(F)c7F)c7ccc4[nH]7)C=C6)C=C5)cc3)c2)CC1
REMARK SMILES IDX 23 1 22 2 20 3 21 4 19 6 18 7 15 8 16 9 92 10 17 11 13 12
REMARK SMILES IDX 9 13 10 14 94 15 11 17 93 18 12 19 14 20 8 21 7 22 1 23 2 24
REMARK SMILES IDX 3 25 4 26 6 27 5 28 24 29 25 30 26 31 27 32 28 34 29 35
REMARK SMILES IDX 30 36 91 37 31 38 90 39 32 40 33 41 34 42 84 43 35 44 89 45
REMARK SMILES IDX 83 46 85 47 36 48 88 49 82 50 81 51 37 53 69 54 49 55 68 56
REMARK SMILES IDX 50 57 53 58 67 59 86 60 51 61 52 62 66 64 87 65 54 66 38 67
REMARK SMILES IDX 39 68 47 69 40 70 41 71 45 72 48 73 42 74 43 75 46 76 44 77
REMARK SMILES IDX 70 78 71 79 79 80 72 81 73 82 77 83 80 84 74 85 75 86 78 87
REMARK SMILES IDX 76 88 55 89 56 90 64 91 57 92 58 93 62 94 65 95 59 96 60 97
REMARK SMILES IDX 63 98 61 99
REMARK H PARENT 22 5 9 16 26 33 85 52 53 63
REMARK Flexibility Score: inf
ROOT
ATOM      1  C   UNL A   1      42.078  19.559  25.819  1.00  0.00     0.117 C 
ENDROOT
BRANCH   1   2
ATOM      2  N   UNL A   1      43.303  18.812  26.035  1.00  0.00    -0.354 N 
ATOM      3  C   UNL A   1      44.443  18.783  25.277  1.00  0.00     0.241 C 
ATOM      4  O   UNL A   1      45.346  18.027  25.645  1.00  0.00    -0.273 OA
ATOM      5  H   UNL A   1      43.316  18.245  26.838  1.00  0.00     0.163 HD
BRANCH   3   6
ATOM      6  C   UNL A   1      44.631  19.741  24.121  1.00  0.00     0.243 C 
BRANCH   6   7
ATOM      7  N   UNL A   1      44.881  21.109  24.530  1.00  0.00    -0.262 N 
ATOM      8  C   UNL A   1      45.578  22.895  25.626  1.00  0.00     0.078 A 
ATOM      9  C   UNL A   1      44.780  23.215  24.507  1.00  0.00     0.149 A 
ATOM     10  C   UNL A   1      45.702  21.520  25.544  1.00  0.00     0.123 A 
ATOM     11  N   UNL A   1      44.315  22.137  23.871  1.00  0.00    -0.180 NA
BRANCH   8  12
ATOM     12  C   UNL A   1      46.226  23.736  26.620  1.00  0.00     0.257 C 
ATOM     13  N   UNL A   1      44.237  24.796  30.356  1.00  0.00    -0.328 N 
ATOM     14  C   UNL A   1      45.398  25.539  29.858  1.00  0.00     0.284 C 
ATOM     15  C   UNL A   1      43.454  24.252  29.250  1.00  0.00     0.284 C 
ATOM     16  H   UNL A   1      43.646  25.488  30.816  1.00  0.00     0.348 HD
ATOM     17  C   UNL A   1      46.253  24.822  28.795  1.00  0.00     0.181 C 
ATOM     18  C   UNL A   1      44.235  23.506  28.158  1.00  0.00     0.181 C 
ATOM     19  N   UNL A   1      45.488  24.143  27.742  1.00  0.00    -0.327 N 
ATOM     20  O   UNL A   1      47.419  24.007  26.498  1.00  0.00    -0.269 OA
BRANCH  13  21
ATOM     21  C   UNL A   1      44.442  23.917  31.513  1.00  0.00     0.302 C 
BRANCH  21  22
ATOM     22  C   UNL A   1      44.648  24.626  32.809  1.00  0.00     0.047 A 
ATOM     23  C   UNL A   1      42.987  23.365  34.420  1.00  0.00     0.069 C 
ATOM     24  C   UNL A   1      43.987  24.394  34.052  1.00  0.00     0.068 A 
ATOM     25  N   UNL A   1      44.327  25.303  34.972  1.00  0.00    -0.178 NA
ATOM     26  N   UNL A   1      45.191  26.099  34.339  1.00  0.00    -0.275 N 
ATOM     27  C   UNL A   1      45.548  25.635  33.107  1.00  0.00     0.118 A 
ATOM     28  C   UNL A   1      45.491  27.392  34.896  1.00  0.00     0.173 C 
ENDBRANCH  21  22
ENDBRANCH  13  21
ENDBRANCH   8  12
ENDBRANCH   6   7
ENDBRANCH   3   6
ENDBRANCH   1   2
BRANCH   1  29
ATOM     29  C   UNL A   1      41.929  20.700  26.826  1.00  0.00     0.042 C 
BRANCH  29  30
ATOM     30  C   UNL A   1      41.590  22.015  26.152  1.00  0.00     0.118 C 
BRANCH  30  31
ATOM     31  N   UNL A   1      40.156  22.219  25.891  1.00  0.00    -0.352 N 
ATOM     32  C   UNL A   1      39.338  23.269  26.306  1.00  0.00     0.251 C 
ATOM     33  H   UNL A   1      39.717  21.523  25.350  1.00  0.00     0.163 HD
ATOM     34  O   UNL A   1      38.128  23.189  26.250  1.00  0.00    -0.269 OA
BRANCH  32  35
ATOM     35  C   UNL A   1      39.996  24.492  26.806  1.00  0.00     0.039 A 
ATOM     36  C   UNL A   1      40.432  25.531  25.982  1.00  0.00     0.014 A 
ATOM     37  C   UNL A   1      40.066  24.609  28.183  1.00  0.00     0.014 A 
ATOM     38  C   UNL A   1      40.846  26.719  26.587  1.00  0.00     0.010 A 
ATOM     39  C   UNL A   1      40.123  25.849  28.729  1.00  0.00     0.010 A 
ATOM     40  C   UNL A   1      40.659  26.872  27.970  1.00  0.00    -0.014 A 
BRANCH  40  41
ATOM     41  C   UNL A   1      40.915  28.109  28.688  1.00  0.00     0.031 A 
ATOM     42  C   UNL A   1      42.120  28.831  28.218  1.00  0.00     0.074 A 
ATOM     43  C   UNL A   1      39.985  28.677  29.492  1.00  0.00     0.049 A 
ATOM     44  N   UNL A   1      43.218  29.020  28.866  1.00  0.00    -0.248 NA
ATOM     45  C   UNL A   1      42.180  29.252  26.808  1.00  0.00     0.031 C 
ATOM     46  C   UNL A   1      38.609  28.238  29.769  1.00  0.00     0.029 A 
ATOM     47  N   UNL A   1      40.044  29.862  30.154  1.00  0.00    -0.354 N 
ATOM     48  C   UNL A   1      44.025  29.781  28.029  1.00  0.00     0.074 A 
ATOM     49  C   UNL A   1      43.434  29.700  26.719  1.00  0.00     0.031 C 
ATOM     50  C   UNL A   1      37.906  29.248  30.326  1.00  0.00     0.029 A 
ATOM     51  C   UNL A   1      38.816  30.340  30.608  1.00  0.00     0.049 A 
ATOM     52  H   UNL A   1      40.888  30.346  30.302  1.00  0.00     0.167 HD
ATOM     53  C   UNL A   1      44.945  30.638  28.553  1.00  0.00     0.037 A 
ATOM     54  C   UNL A   1      38.584  31.567  31.141  1.00  0.00     0.037 A 
ATOM     55  C   UNL A   1      45.198  30.331  29.943  1.00  0.00     0.049 A 
ATOM     56  C   UNL A   1      39.904  32.101  31.576  1.00  0.00     0.074 A 
ATOM     57  C   UNL A   1      45.611  29.194  30.614  1.00  0.00     0.029 A 
ATOM     58  N   UNL A   1      44.615  31.127  30.900  1.00  0.00    -0.354 N 
ATOM     59  N   UNL A   1      40.598  31.591  32.556  1.00  0.00    -0.248 NA
ATOM     60  C   UNL A   1      40.668  32.860  30.595  1.00  0.00     0.031 C 
ATOM     61  C   UNL A   1      44.789  29.140  31.779  1.00  0.00     0.029 A 
ATOM     62  C   UNL A   1      44.008  30.294  31.807  1.00  0.00     0.049 A 
ATOM     63  H   UNL A   1      44.629  32.111  30.930  1.00  0.00     0.167 HD
ATOM     64  C   UNL A   1      41.905  31.579  32.093  1.00  0.00     0.074 A 
ATOM     65  C   UNL A   1      41.895  32.428  30.901  1.00  0.00     0.031 C 
ATOM     66  C   UNL A   1      42.802  30.643  32.522  1.00  0.00     0.037 A 
BRANCH  53  67
ATOM     67  C   UNL A   1      45.308  31.973  27.944  1.00  0.00     0.064 A 
ATOM     68  C   UNL A   1      44.283  32.910  27.706  1.00  0.00     0.173 A 
ATOM     69  C   UNL A   1      46.543  32.257  27.320  1.00  0.00     0.173 A 
ATOM     70  F   UNL A   1      43.062  32.737  28.234  1.00  0.00    -0.203 F 
ATOM     71  C   UNL A   1      44.459  33.994  26.841  1.00  0.00     0.198 A 
ATOM     72  C   UNL A   1      46.731  33.370  26.505  1.00  0.00     0.198 A 
ATOM     73  F   UNL A   1      47.587  31.422  27.375  1.00  0.00    -0.203 F 
ATOM     74  F   UNL A   1      43.414  34.780  26.542  1.00  0.00    -0.200 F 
ATOM     75  C   UNL A   1      45.680  34.219  26.236  1.00  0.00     0.200 A 
ATOM     76  F   UNL A   1      47.919  33.559  25.913  1.00  0.00    -0.200 F 
ATOM     77  F   UNL A   1      45.833  35.219  25.359  1.00  0.00    -0.200 F 
ENDBRANCH  53  67
BRANCH  54  78
ATOM     78  C   UNL A   1      37.386  32.435  30.997  1.00  0.00     0.064 A 
ATOM     79  C   UNL A   1      37.104  33.082  29.781  1.00  0.00     0.173 A 
ATOM     80  C   UNL A   1      36.345  32.415  31.946  1.00  0.00     0.173 A 
ATOM     81  F   UNL A   1      38.024  33.114  28.806  1.00  0.00    -0.203 F 
ATOM     82  C   UNL A   1      35.846  33.637  29.515  1.00  0.00     0.198 A 
ATOM     83  C   UNL A   1      35.092  32.975  31.682  1.00  0.00     0.198 A 
ATOM     84  F   UNL A   1      36.486  31.765  33.109  1.00  0.00    -0.203 F 
ATOM     85  F   UNL A   1      35.596  34.184  28.318  1.00  0.00    -0.200 F 
ATOM     86  C   UNL A   1      34.837  33.571  30.461  1.00  0.00     0.200 A 
ATOM     87  F   UNL A   1      34.113  32.871  32.592  1.00  0.00    -0.200 F 
ATOM     88  F   UNL A   1      33.613  34.040  30.183  1.00  0.00    -0.200 F 
ENDBRANCH  54  78
BRANCH  66  89
ATOM     89  C   UNL A   1      42.419  29.764  33.683  1.00  0.00     0.064 A 
ATOM     90  C   UNL A   1      41.875  28.472  33.560  1.00  0.00     0.173 A 
ATOM     91  C   UNL A   1      42.757  30.191  34.974  1.00  0.00     0.173 A 
ATOM     92  F   UNL A   1      41.622  27.939  32.360  1.00  0.00    -0.203 F 
ATOM     93  C   UNL A   1      41.639  27.672  34.680  1.00  0.00     0.198 A 
ATOM     94  C   UNL A   1      42.557  29.378  36.085  1.00  0.00     0.198 A 
ATOM     95  F   UNL A   1      43.333  31.391  35.153  1.00  0.00    -0.203 F 
ATOM     96  F   UNL A   1      41.107  26.450  34.533  1.00  0.00    -0.200 F 
ATOM     97  C   UNL A   1      41.986  28.124  35.940  1.00  0.00     0.200 A 
ATOM     98  F   UNL A   1      42.944  29.800  37.297  1.00  0.00    -0.200 F 
ATOM     99  F   UNL A   1      41.796  27.343  37.013  1.00  0.00    -0.200 F 
ENDBRANCH  66  89
ENDBRANCH  40  41
ENDBRANCH  32  35
ENDBRANCH  30  31
ENDBRANCH  29  30
ENDBRANCH   1  29
TORSDOF 14
ENDMDL
MODEL 2
REMARK VINA RESULT:     -12.4      4.503      8.120
REMARK SMILES Cc1nn(C)cc1C[NH+]1CCN(C(=O)c2cnn(CC(=O)NCCCNC(=O)c3ccc(-c4c5nc(c(-c6c(F)c(F)c(F)c(F)c6F)c6ccc([nH]6)c(-c6c(F)c(F)c(F)c(F)c6F)c6nc(c(-c7c(F)c(F)c(F)c(F)c7F)c7ccc4[nH]7)C=C6)C=C5)cc3)c2)CC1
REMARK SMILES IDX 23 1 22 2 20 3 21 4 19 6 18 7 15 8 16 9 92 10 17 11 13 12
REMARK SMILES IDX 9 13 10 14 94 15 11 17 93 18 12 19 14 20 8 21 7 22 1 23 2 24
REMARK SMILES IDX 3 25 4 26 6 27 5 28 24 29 25 30 26 31 27 32 28 34 29 35
REMARK SMILES IDX 30 36 91 37 31 38 90 39 32 40 33 41 34 42 84 43 35 44 89 45
REMARK SMILES IDX 83 46 85 47 36 48 88 49 82 50 81 51 37 53 69 54 49 55 68 56
REMARK SMILES IDX 50 57 53 58 67 59 86 60 51 61 52 62 66 64 87 65 54 66 38 67
REMARK SMILES IDX 39 68 47 69 40 70 41 71 45 72 48 73 42 74 43 75 46 76 44 77
REMARK SMILES IDX 70 78 71 79 79 80 72 81 73 82 77 83 80 84 74 85 75 86 78 87
REMARK SMILES IDX 76 88 55 89 56 90 64 91 57 92 58 93 62 94 65 95 59 96 60 97
REMARK SMILES IDX 63 98 61 99
REMARK H PARENT 22 5 9 16 26 33 85 52 53 63
REMARK Flexibility Score: inf
ROOT
ATOM      1  C   UNL A   1      40.506  20.556  27.209  1.00  0.00     0.117 C 
ENDROOT
BRANCH   1   2
ATOM      2  N   UNL A   1      39.946  21.880  27.018  1.00  0.00    -0.354 N 
ATOM      3  C   UNL A   1      38.941  22.282  26.179  1.00  0.00     0.241 C 
ATOM      4  O   UNL A   1      38.667  23.484  26.162  1.00  0.00    -0.273 OA
ATOM      5  H   UNL A   1      40.345  22.591  27.569  1.00  0.00     0.163 HD
BRANCH   3   6
ATOM      6  C   UNL A   1      38.117  21.269  25.414  1.00  0.00     0.243 C 
BRANCH   6   7
ATOM      7  N   UNL A   1      36.757  21.699  25.152  1.00  0.00    -0.262 N 
ATOM      8  C   UNL A   1      34.956  22.561  24.209  1.00  0.00     0.078 A 
ATOM      9  C   UNL A   1      34.706  22.041  25.496  1.00  0.00     0.149 A 
ATOM     10  C   UNL A   1      36.280  22.226  23.984  1.00  0.00     0.123 A 
ATOM     11  N   UNL A   1      35.802  21.564  26.090  1.00  0.00    -0.180 NA
BRANCH   8  12
ATOM     12  C   UNL A   1      34.085  23.219  23.248  1.00  0.00     0.257 C 
ATOM     13  N   UNL A   1      30.512  25.378  24.517  1.00  0.00    -0.328 N 
ATOM     14  C   UNL A   1      30.708  24.951  23.128  1.00  0.00     0.284 C 
ATOM     15  C   UNL A   1      31.165  24.456  25.441  1.00  0.00     0.284 C 
ATOM     16  H   UNL A   1      29.509  25.299  24.688  1.00  0.00     0.348 HD
ATOM     17  C   UNL A   1      32.154  24.602  22.727  1.00  0.00     0.181 C 
ATOM     18  C   UNL A   1      32.617  24.073  25.118  1.00  0.00     0.181 C 
ATOM     19  N   UNL A   1      32.887  23.790  23.706  1.00  0.00    -0.327 N 
ATOM     20  O   UNL A   1      34.448  23.330  22.078  1.00  0.00    -0.269 OA
BRANCH  13  21
ATOM     21  C   UNL A   1      30.646  26.810  24.809  1.00  0.00     0.302 C 
BRANCH  21  22
ATOM     22  C   UNL A   1      30.231  27.717  23.701  1.00  0.00     0.047 A 
ATOM     23  C   UNL A   1      32.544  28.547  22.746  1.00  0.00     0.069 C 
ATOM     24  C   UNL A   1      31.066  28.486  22.835  1.00  0.00     0.068 A 
ATOM     25  N   UNL A   1      30.351  29.288  22.039  1.00  0.00    -0.178 NA
ATOM     26  N   UNL A   1      29.085  29.038  22.379  1.00  0.00    -0.275 N 
ATOM     27  C   UNL A   1      28.954  27.986  23.237  1.00  0.00     0.118 A 
ATOM     28  C   UNL A   1      28.058  29.970  21.992  1.00  0.00     0.173 C 
ENDBRANCH  21  22
ENDBRANCH  13  21
ENDBRANCH   8  12
ENDBRANCH   6   7
ENDBRANCH   3   6
ENDBRANCH   1   2
BRANCH   1  29
ATOM     29  C   UNL A   1      41.476  20.187  26.086  1.00  0.00     0.042 C 
BRANCH  29  30
ATOM     30  C   UNL A   1      42.819  19.729  26.619  1.00  0.00     0.118 C 
BRANCH  30  31
ATOM     31  N   UNL A   1      43.847  19.513  25.588  1.00  0.00    -0.352 N 
ATOM     32  C   UNL A   1      44.476  20.456  24.776  1.00  0.00     0.251 C 
ATOM     33  H   UNL A   1      44.130  18.578  25.456  1.00  0.00     0.163 HD
ATOM     34  O   UNL A   1      45.107  20.125  23.793  1.00  0.00    -0.269 OA
BRANCH  32  35
ATOM     35  C   UNL A   1      44.358  21.876  25.161  1.00  0.00     0.039 A 
ATOM     36  C   UNL A   1      43.401  22.746  24.636  1.00  0.00     0.014 A 
ATOM     37  C   UNL A   1      45.201  22.287  26.179  1.00  0.00     0.014 A 
ATOM     38  C   UNL A   1      43.258  24.001  25.231  1.00  0.00     0.010 A 
ATOM     39  C   UNL A   1      44.820  23.332  26.956  1.00  0.00     0.010 A 
ATOM     40  C   UNL A   1      43.963  24.270  26.415  1.00  0.00    -0.014 A 
BRANCH  40  41
ATOM     41  C   UNL A   1      43.787  25.479  27.201  1.00  0.00     0.031 A 
ATOM     42  C   UNL A   1      44.733  26.562  26.847  1.00  0.00     0.074 A 
ATOM     43  C   UNL A   1      42.687  25.684  27.965  1.00  0.00     0.049 A 
ATOM     44  N   UNL A   1      45.684  27.036  27.576  1.00  0.00    -0.248 NA
ATOM     45  C   UNL A   1      44.731  27.069  25.464  1.00  0.00     0.031 C 
ATOM     46  C   UNL A   1      41.502  24.829  28.128  1.00  0.00     0.029 A 
ATOM     47  N   UNL A   1      42.343  26.786  28.681  1.00  0.00    -0.354 N 
ATOM     48  C   UNL A   1      46.258  28.059  26.830  1.00  0.00     0.074 A 
ATOM     49  C   UNL A   1      45.789  27.883  25.481  1.00  0.00     0.031 C 
ATOM     50  C   UNL A   1      40.494  25.539  28.679  1.00  0.00     0.029 A 
ATOM     51  C   UNL A   1      41.006  26.836  29.071  1.00  0.00     0.049 A 
ATOM     52  H   UNL A   1      42.988  27.495  28.906  1.00  0.00     0.167 HD
ATOM     53  C   UNL A   1      46.840  29.121  27.453  1.00  0.00     0.037 A 
ATOM     54  C   UNL A   1      40.379  27.898  29.639  1.00  0.00     0.037 A 
ATOM     55  C   UNL A   1      47.104  28.820  28.841  1.00  0.00     0.049 A 
ATOM     56  C   UNL A   1      41.446  28.781  30.186  1.00  0.00     0.074 A 
ATOM     57  C   UNL A   1      47.813  27.823  29.489  1.00  0.00     0.029 A 
ATOM     58  N   UNL A   1      46.255  29.337  29.791  1.00  0.00    -0.354 N 
ATOM     59  N   UNL A   1      42.212  28.447  31.188  1.00  0.00    -0.248 NA
ATOM     60  C   UNL A   1      41.987  29.797  29.294  1.00  0.00     0.031 C 
ATOM     61  C   UNL A   1      46.990  27.448  30.592  1.00  0.00     0.029 A 
ATOM     62  C   UNL A   1      45.890  28.304  30.617  1.00  0.00     0.049 A 
ATOM     63  H   UNL A   1      45.964  30.275  29.865  1.00  0.00     0.167 HD
ATOM     64  C   UNL A   1      43.481  28.864  30.815  1.00  0.00     0.074 A 
ATOM     65  C   UNL A   1      43.271  29.742  29.663  1.00  0.00     0.031 C 
ATOM     66  C   UNL A   1      44.600  28.222  31.263  1.00  0.00     0.037 A 
BRANCH  53  67
ATOM     67  C   UNL A   1      46.804  30.538  26.928  1.00  0.00     0.064 A 
ATOM     68  C   UNL A   1      47.986  31.304  26.969  1.00  0.00     0.173 A 
ATOM     69  C   UNL A   1      45.622  31.265  26.668  1.00  0.00     0.173 A 
ATOM     70  F   UNL A   1      49.168  30.725  27.223  1.00  0.00    -0.203 F 
ATOM     71  C   UNL A   1      47.969  32.697  26.847  1.00  0.00     0.198 A 
ATOM     72  C   UNL A   1      45.616  32.646  26.490  1.00  0.00     0.198 A 
ATOM     73  F   UNL A   1      44.410  30.698  26.684  1.00  0.00    -0.203 F 
ATOM     74  F   UNL A   1      49.100  33.393  27.028  1.00  0.00    -0.200 F 
ATOM     75  C   UNL A   1      46.783  33.367  26.615  1.00  0.00     0.200 A 
ATOM     76  F   UNL A   1      44.451  33.278  26.284  1.00  0.00    -0.200 F 
ATOM     77  F   UNL A   1      46.754  34.704  26.561  1.00  0.00    -0.200 F 
ENDBRANCH  53  67
BRANCH  54  78
ATOM     78  C   UNL A   1      38.981  28.365  29.453  1.00  0.00     0.064 A 
ATOM     79  C   UNL A   1      38.141  28.591  30.558  1.00  0.00     0.173 A 
ATOM     80  C   UNL A   1      38.534  28.876  28.219  1.00  0.00     0.173 A 
ATOM     81  F   UNL A   1      38.506  28.173  31.778  1.00  0.00    -0.203 F 
ATOM     82  C   UNL A   1      36.950  29.318  30.442  1.00  0.00     0.198 A 
ATOM     83  C   UNL A   1      37.342  29.597  28.104  1.00  0.00     0.198 A 
ATOM     84  F   UNL A   1      39.291  28.776  27.117  1.00  0.00    -0.203 F 
ATOM     85  F   UNL A   1      36.212  29.571  31.532  1.00  0.00    -0.200 F 
ATOM     86  C   UNL A   1      36.559  29.832  29.218  1.00  0.00     0.200 A 
ATOM     87  F   UNL A   1      36.994  30.120  26.919  1.00  0.00    -0.200 F 
ATOM     88  F   UNL A   1      35.455  30.586  29.118  1.00  0.00    -0.200 F 
ENDBRANCH  54  78
BRANCH  66  89
ATOM     89  C   UNL A   1      44.448  27.197  32.356  1.00  0.00     0.064 A 
ATOM     90  C   UNL A   1      44.273  25.818  32.137  1.00  0.00     0.173 A 
ATOM     91  C   UNL A   1      44.638  27.612  33.680  1.00  0.00     0.173 A 
ATOM     92  F   UNL A   1      44.191  25.318  30.899  1.00  0.00    -0.203 F 
ATOM     93  C   UNL A   1      44.241  24.911  33.198  1.00  0.00     0.198 A 
ATOM     94  C   UNL A   1      44.646  26.702  34.733  1.00  0.00     0.198 A 
ATOM     95  F   UNL A   1      44.868  28.907  33.951  1.00  0.00    -0.203 F 
ATOM     96  F   UNL A   1      44.059  23.604  32.960  1.00  0.00    -0.200 F 
ATOM     97  C   UNL A   1      44.434  25.354  34.494  1.00  0.00     0.200 A 
ATOM     98  F   UNL A   1      44.886  27.130  35.981  1.00  0.00    -0.200 F 
ATOM     99  F   UNL A   1      44.444  24.481  35.511  1.00  0.00    -0.200 F 
ENDBRANCH  66  89
ENDBRANCH  40  41
ENDBRANCH  32  35
ENDBRANCH  30  31
ENDBRANCH  29  30
ENDBRANCH   1  29
TORSDOF 14
ENDMDL
MODEL 3
REMARK VINA RESULT:     -12.2      4.958     11.199
REMARK SMILES Cc1nn(C)cc1C[NH+]1CCN(C(=O)c2cnn(CC(=O)NCCCNC(=O)c3ccc(-c4c5nc(c(-c6c(F)c(F)c(F)c(F)c6F)c6ccc([nH]6)c(-c6c(F)c(F)c(F)c(F)c6F)c6nc(c(-c7c(F)c(F)c(F)c(F)c7F)c7ccc4[nH]7)C=C6)C=C5)cc3)c2)CC1
REMARK SMILES IDX 23 1 22 2 20 3 21 4 19 6 18 7 15 8 16 9 92 10 17 11 13 12
REMARK SMILES IDX 9 13 10 14 94 15 11 17 93 18 12 19 14 20 8 21 7 22 1 23 2 24
REMARK SMILES IDX 3 25 4 26 6 27 5 28 24 29 25 30 26 31 27 32 28 34 29 35
REMARK SMILES IDX 30 36 91 37 31 38 90 39 32 40 33 41 34 42 84 43 35 44 89 45
REMARK SMILES IDX 83 46 85 47 36 48 88 49 82 50 81 51 37 53 69 54 49 55 68 56
REMARK SMILES IDX 50 57 53 58 67 59 86 60 51 61 52 62 66 64 87 65 54 66 38 67
REMARK SMILES IDX 39 68 47 69 40 70 41 71 45 72 48 73 42 74 43 75 46 76 44 77
REMARK SMILES IDX 70 78 71 79 79 80 72 81 73 82 77 83 80 84 74 85 75 86 78 87
REMARK SMILES IDX 76 88 55 89 56 90 64 91 57 92 58 93 62 94 65 95 59 96 60 97
REMARK SMILES IDX 63 98 61 99
REMARK H PARENT 22 5 9 16 26 33 85 52 53 63
REMARK Flexibility Score: inf
ROOT
ATOM      1  C   UNL A   1      33.656  30.799  27.211  1.00  0.00     0.117 C 
ENDROOT
BRANCH   1   2
ATOM      2  N   UNL A   1      32.846  29.701  27.704  1.00  0.00    -0.354 N 
ATOM      3  C   UNL A   1      31.834  29.023  27.079  1.00  0.00     0.241 C 
ATOM      4  O   UNL A   1      31.257  28.146  27.727  1.00  0.00    -0.273 OA
ATOM      5  H   UNL A   1      33.053  29.400  28.618  1.00  0.00     0.163 HD
BRANCH   3   6
ATOM      6  C   UNL A   1      31.534  29.255  25.614  1.00  0.00     0.243 C 
BRANCH   6   7
ATOM      7  N   UNL A   1      31.639  28.059  24.800  1.00  0.00    -0.262 N 
ATOM      8  C   UNL A   1      32.414  26.288  23.733  1.00  0.00     0.078 A 
ATOM      9  C   UNL A   1      31.036  26.499  23.517  1.00  0.00     0.149 A 
ATOM     10  C   UNL A   1      32.743  27.267  24.654  1.00  0.00     0.123 A 
ATOM     11  N   UNL A   1      30.574  27.597  24.120  1.00  0.00    -0.180 NA
BRANCH   8  12
ATOM     12  C   UNL A   1      33.325  25.273  23.230  1.00  0.00     0.257 C 
ATOM     13  N   UNL A   1      33.414  21.250  24.919  1.00  0.00    -0.328 N 
ATOM     14  C   UNL A   1      34.514  21.773  24.102  1.00  0.00     0.284 C 
ATOM     15  C   UNL A   1      32.753  22.327  25.651  1.00  0.00     0.284 C 
ATOM     16  H   UNL A   1      33.852  20.651  25.618  1.00  0.00     0.348 HD
ATOM     17  C   UNL A   1      34.182  22.997  23.227  1.00  0.00     0.181 C 
ATOM     18  C   UNL A   1      32.373  23.576  24.841  1.00  0.00     0.181 C 
ATOM     19  N   UNL A   1      33.393  24.039  23.896  1.00  0.00    -0.327 N 
ATOM     20  O   UNL A   1      33.955  25.484  22.195  1.00  0.00    -0.269 OA
BRANCH  13  21
ATOM     21  C   UNL A   1      32.545  20.235  24.312  1.00  0.00     0.302 C 
BRANCH  21  22
ATOM     22  C   UNL A   1      33.187  18.906  24.103  1.00  0.00     0.047 A 
ATOM     23  C   UNL A   1      32.105  18.100  21.838  1.00  0.00     0.069 C 
ATOM     24  C   UNL A   1      32.962  17.979  23.040  1.00  0.00     0.068 A 
ATOM     25  N   UNL A   1      33.614  16.828  23.239  1.00  0.00    -0.178 NA
ATOM     26  N   UNL A   1      34.249  17.011  24.399  1.00  0.00    -0.275 N 
ATOM     27  C   UNL A   1      34.167  18.291  24.863  1.00  0.00     0.118 A 
ATOM     28  C   UNL A   1      34.757  15.866  25.108  1.00  0.00     0.173 C 
ENDBRANCH  21  22
ENDBRANCH  13  21
ENDBRANCH   8  12
ENDBRANCH   6   7
ENDBRANCH   3   6
ENDBRANCH   1   2
BRANCH   1  29
ATOM     29  C   UNL A   1      35.139  30.588  27.519  1.00  0.00     0.042 C 
BRANCH  29  30
ATOM     30  C   UNL A   1      35.814  31.866  27.978  1.00  0.00     0.118 C 
BRANCH  30  31
ATOM     31  N   UNL A   1      35.282  32.425  29.231  1.00  0.00    -0.352 N 
ATOM     32  C   UNL A   1      35.539  32.023  30.541  1.00  0.00     0.251 C 
ATOM     33  H   UNL A   1      34.663  33.185  29.130  1.00  0.00     0.163 HD
ATOM     34  O   UNL A   1      34.842  32.390  31.465  1.00  0.00    -0.269 OA
BRANCH  32  35
ATOM     35  C   UNL A   1      36.702  31.144  30.769  1.00  0.00     0.039 A 
ATOM     36  C   UNL A   1      36.630  29.750  30.790  1.00  0.00     0.014 A 
ATOM     37  C   UNL A   1      37.925  31.787  30.859  1.00  0.00     0.014 A 
ATOM     38  C   UNL A   1      37.826  29.030  30.805  1.00  0.00     0.010 A 
ATOM     39  C   UNL A   1      39.046  31.103  30.519  1.00  0.00     0.010 A 
ATOM     40  C   UNL A   1      39.033  29.727  30.642  1.00  0.00    -0.014 A 
BRANCH  40  41
ATOM     41  C   UNL A   1      40.326  29.078  30.498  1.00  0.00     0.031 A 
ATOM     42  C   UNL A   1      41.016  28.833  31.786  1.00  0.00     0.074 A 
ATOM     43  C   UNL A   1      40.712  28.501  29.335  1.00  0.00     0.049 A 
ATOM     44  N   UNL A   1      42.100  29.388  32.207  1.00  0.00    -0.248 NA
ATOM     45  C   UNL A   1      40.342  27.998  32.794  1.00  0.00     0.031 C 
ATOM     46  C   UNL A   1      39.965  28.369  28.075  1.00  0.00     0.029 A 
ATOM     47  N   UNL A   1      41.840  27.790  29.073  1.00  0.00    -0.354 N 
ATOM     48  C   UNL A   1      42.368  28.804  33.439  1.00  0.00     0.074 A 
ATOM     49  C   UNL A   1      41.158  28.138  33.841  1.00  0.00     0.031 C 
ATOM     50  C   UNL A   1      40.546  27.435  27.291  1.00  0.00     0.029 A 
ATOM     51  C   UNL A   1      41.794  27.030  27.905  1.00  0.00     0.049 A 
ATOM     52  H   UNL A   1      42.628  27.810  29.662  1.00  0.00     0.167 HD
ATOM     53  C   UNL A   1      43.652  28.686  33.879  1.00  0.00     0.037 A 
ATOM     54  C   UNL A   1      42.714  26.111  27.514  1.00  0.00     0.037 A 
ATOM     55  C   UNL A   1      44.532  29.555  33.131  1.00  0.00     0.049 A 
ATOM     56  C   UNL A   1      43.959  26.401  28.278  1.00  0.00     0.074 A 
ATOM     57  C   UNL A   1      44.553  30.916  32.883  1.00  0.00     0.029 A 
ATOM     58  N   UNL A   1      45.320  28.995  32.153  1.00  0.00    -0.354 N 
ATOM     59  N   UNL A   1      44.674  27.479  28.106  1.00  0.00    -0.248 NA
ATOM     60  C   UNL A   1      44.110  25.748  29.572  1.00  0.00     0.031 C 
ATOM     61  C   UNL A   1      44.888  31.030  31.500  1.00  0.00     0.029 A 
ATOM     62  C   UNL A   1      45.158  29.750  31.018  1.00  0.00     0.049 A 
ATOM     63  H   UNL A   1      45.894  28.201  32.248  1.00  0.00     0.167 HD
ATOM     64  C   UNL A   1      45.012  27.885  29.388  1.00  0.00     0.074 A 
ATOM     65  C   UNL A   1      44.685  26.746  30.248  1.00  0.00     0.031 C 
ATOM     66  C   UNL A   1      45.225  29.201  29.683  1.00  0.00     0.037 A 
BRANCH  53  67
ATOM     67  C   UNL A   1      44.169  27.520  34.690  1.00  0.00     0.064 A 
ATOM     68  C   UNL A   1      43.989  26.215  34.191  1.00  0.00     0.173 A 
ATOM     69  C   UNL A   1      44.560  27.601  36.045  1.00  0.00     0.173 A 
ATOM     70  F   UNL A   1      43.603  26.015  32.922  1.00  0.00    -0.203 F 
ATOM     71  C   UNL A   1      44.105  25.088  35.010  1.00  0.00     0.198 A 
ATOM     72  C   UNL A   1      44.731  26.471  36.843  1.00  0.00     0.198 A 
ATOM     73  F   UNL A   1      44.687  28.765  36.690  1.00  0.00    -0.203 F 
ATOM     74  F   UNL A   1      43.791  23.879  34.522  1.00  0.00    -0.200 F 
ATOM     75  C   UNL A   1      44.468  25.218  36.336  1.00  0.00     0.200 A 
ATOM     76  F   UNL A   1      45.066  26.622  38.132  1.00  0.00    -0.200 F 
ATOM     77  F   UNL A   1      44.518  24.147  37.138  1.00  0.00    -0.200 F 
ENDBRANCH  53  67
BRANCH  54  78
ATOM     78  C   UNL A   1      42.503  24.826  26.800  1.00  0.00     0.064 A 
ATOM     79  C   UNL A   1      43.147  24.563  25.578  1.00  0.00     0.173 A 
ATOM     80  C   UNL A   1      41.903  23.721  27.435  1.00  0.00     0.173 A 
ATOM     81  F   UNL A   1      43.777  25.549  24.924  1.00  0.00    -0.203 F 
ATOM     82  C   UNL A   1      43.221  23.270  25.046  1.00  0.00     0.198 A 
ATOM     83  C   UNL A   1      41.974  22.431  26.901  1.00  0.00     0.198 A 
ATOM     84  F   UNL A   1      41.323  23.849  28.637  1.00  0.00    -0.203 F 
ATOM     85  F   UNL A   1      43.904  23.051  23.914  1.00  0.00    -0.200 F 
ATOM     86  C   UNL A   1      42.647  22.203  25.716  1.00  0.00     0.200 A 
ATOM     87  F   UNL A   1      41.444  21.402  27.578  1.00  0.00    -0.200 F 
ATOM     88  F   UNL A   1      42.777  20.955  25.244  1.00  0.00    -0.200 F 
ENDBRANCH  54  78
BRANCH  66  89
ATOM     89  C   UNL A   1      45.318  30.184  28.546  1.00  0.00     0.064 A 
ATOM     90  C   UNL A   1      44.224  30.888  28.008  1.00  0.00     0.173 A 
ATOM     91  C   UNL A   1      46.591  30.537  28.081  1.00  0.00     0.173 A 
ATOM     92  F   UNL A   1      42.983  30.693  28.467  1.00  0.00    -0.203 F 
ATOM     93  C   UNL A   1      44.399  31.860  27.021  1.00  0.00     0.198 A 
ATOM     94  C   UNL A   1      46.767  31.534  27.126  1.00  0.00     0.198 A 
ATOM     95  F   UNL A   1      47.681  29.943  28.596  1.00  0.00    -0.203 F 
ATOM     96  F   UNL A   1      43.336  32.505  26.518  1.00  0.00    -0.200 F 
ATOM     97  C   UNL A   1      45.670  32.186  26.587  1.00  0.00     0.200 A 
ATOM     98  F   UNL A   1      48.005  31.882  26.748  1.00  0.00    -0.200 F 
ATOM     99  F   UNL A   1      45.843  33.146  25.668  1.00  0.00    -0.200 F 
ENDBRANCH  66  89
ENDBRANCH  40  41
ENDBRANCH  32  35
ENDBRANCH  30  31
ENDBRANCH  29  30
ENDBRANCH   1  29
TORSDOF 14
ENDMDL
