MODEL 1
REMARK VINA RESULT:     -11.7      0.000      0.000
REMARK SMILES O=C(NCCCNC(=O)[C@H](Cc1cccc(Br)c1)CC1CCC1)c1ccc(-c2c3nc(c(-c4c(F)c(F)c(F)c(F)c4F)c4ccc([nH]4)c(-c4c(F)c(F)c(F)c(F)c4F)c4nc(c(-c5c(F)c(F)c(F)c(F)c5F)c5ccc2[nH]5)C=C4)C=C3)cc1
REMARK SMILES IDX 5 1 4 2 3 3 1 4 2 5 24 7 25 8 86 9 26 10 85 11 27 12 28 13
REMARK SMILES IDX 29 14 79 15 30 16 84 17 78 18 80 19 31 20 83 21 77 22 76 23
REMARK SMILES IDX 32 25 64 26 44 27 63 28 45 29 48 30 62 31 81 32 46 33 47 34
REMARK SMILES IDX 61 36 82 37 49 38 33 39 34 40 42 41 35 42 36 43 40 44 43 45
REMARK SMILES IDX 37 46 38 47 41 48 39 49 65 50 66 51 74 52 67 53 68 54 72 55
REMARK SMILES IDX 75 56 69 57 70 58 73 59 71 60 50 61 51 62 59 63 52 64 53 65
REMARK SMILES IDX 57 66 60 67 54 68 55 69 58 70 56 71 6 72 7 73 8 74 9 76
REMARK SMILES IDX 10 77 19 78 20 79 21 80 23 81 22 82 11 83 12 84 13 85 18 86
REMARK SMILES IDX 14 87 16 88 15 89 17 90
REMARK H PARENT 3 6 80 24 48 35 7 75
REMARK Flexibility Score: inf
ROOT
ATOM      1  C   UNL A   1      33.337  29.007  23.984  1.00  0.00     0.042 C 
ENDROOT
BRANCH   1   2
ATOM      2  C   UNL A   1      33.062  29.063  25.479  1.00  0.00     0.118 C 
BRANCH   2   3
ATOM      3  N   UNL A   1      32.679  30.395  25.932  1.00  0.00    -0.352 N 
ATOM      4  O   UNL A   1      32.611  32.216  27.250  1.00  0.00    -0.269 OA
ATOM      5  C   UNL A   1      33.218  31.207  26.902  1.00  0.00     0.251 C 
ATOM      6  H   UNL A   1      31.902  30.777  25.465  1.00  0.00     0.163 HD
BRANCH   5   7
ATOM      7  C   UNL A   1      34.503  30.867  27.554  1.00  0.00     0.039 A 
ATOM      8  C   UNL A   1      34.755  29.578  28.024  1.00  0.00     0.014 A 
ATOM      9  C   UNL A   1      35.493  31.849  27.671  1.00  0.00     0.014 A 
ATOM     10  C   UNL A   1      35.891  29.327  28.784  1.00  0.00     0.010 A 
ATOM     11  C   UNL A   1      36.692  31.560  28.332  1.00  0.00     0.010 A 
ATOM     12  C   UNL A   1      36.881  30.310  28.940  1.00  0.00    -0.014 A 
BRANCH  12  13
ATOM     13  C   UNL A   1      38.108  29.982  29.715  1.00  0.00     0.031 A 
ATOM     14  C   UNL A   1      38.288  30.462  31.130  1.00  0.00     0.074 A 
ATOM     15  C   UNL A   1      39.043  29.194  29.148  1.00  0.00     0.049 A 
ATOM     16  N   UNL A   1      39.266  30.215  31.967  1.00  0.00    -0.248 NA
ATOM     17  C   UNL A   1      37.243  31.339  31.678  1.00  0.00     0.031 C 
ATOM     18  C   UNL A   1      38.990  28.679  27.777  1.00  0.00     0.029 A 
ATOM     19  N   UNL A   1      40.200  28.661  29.655  1.00  0.00    -0.354 N 
ATOM     20  C   UNL A   1      38.968  30.925  33.123  1.00  0.00     0.074 A 
ATOM     21  C   UNL A   1      37.733  31.635  32.874  1.00  0.00     0.031 C 
ATOM     22  C   UNL A   1      40.027  27.855  27.576  1.00  0.00     0.029 A 
ATOM     23  C   UNL A   1      40.854  27.833  28.776  1.00  0.00     0.049 A 
ATOM     24  H   UNL A   1      40.531  28.854  30.564  1.00  0.00     0.167 HD
ATOM     25  C   UNL A   1      39.660  30.973  34.288  1.00  0.00     0.037 A 
ATOM     26  C   UNL A   1      41.996  27.137  28.917  1.00  0.00     0.037 A 
ATOM     27  C   UNL A   1      40.876  30.242  34.543  1.00  0.00     0.049 A 
ATOM     28  C   UNL A   1      42.741  27.211  30.219  1.00  0.00     0.074 A 
ATOM     29  C   UNL A   1      41.625  30.191  35.704  1.00  0.00     0.029 A 
ATOM     30  N   UNL A   1      41.521  29.435  33.616  1.00  0.00    -0.354 N 
ATOM     31  N   UNL A   1      42.426  27.854  31.316  1.00  0.00    -0.248 NA
ATOM     32  C   UNL A   1      44.000  26.461  30.300  1.00  0.00     0.031 C 
ATOM     33  C   UNL A   1      42.750  29.392  35.468  1.00  0.00     0.029 A 
ATOM     34  C   UNL A   1      42.672  28.900  34.176  1.00  0.00     0.049 A 
ATOM     35  H   UNL A   1      41.209  29.267  32.698  1.00  0.00     0.167 HD
ATOM     36  C   UNL A   1      43.433  27.568  32.226  1.00  0.00     0.074 A 
ATOM     37  C   UNL A   1      44.359  26.676  31.557  1.00  0.00     0.031 C 
ATOM     38  C   UNL A   1      43.579  28.006  33.501  1.00  0.00     0.037 A 
BRANCH  25  39
ATOM     39  C   UNL A   1      39.131  31.861  35.378  1.00  0.00     0.064 A 
ATOM     40  C   UNL A   1      38.323  31.368  36.413  1.00  0.00     0.173 A 
ATOM     41  C   UNL A   1      39.476  33.222  35.411  1.00  0.00     0.173 A 
ATOM     42  F   UNL A   1      37.955  30.078  36.425  1.00  0.00    -0.203 F 
ATOM     43  C   UNL A   1      37.859  32.207  37.424  1.00  0.00     0.198 A 
ATOM     44  C   UNL A   1      39.034  34.052  36.439  1.00  0.00     0.198 A 
ATOM     45  F   UNL A   1      40.251  33.747  34.451  1.00  0.00    -0.203 F 
ATOM     46  F   UNL A   1      37.050  31.721  38.377  1.00  0.00    -0.200 F 
ATOM     47  C   UNL A   1      38.221  33.545  37.441  1.00  0.00     0.200 A 
ATOM     48  F   UNL A   1      39.395  35.343  36.460  1.00  0.00    -0.200 F 
ATOM     49  F   UNL A   1      37.778  34.349  38.418  1.00  0.00    -0.200 F 
ENDBRANCH  25  39
BRANCH  26  50
ATOM     50  C   UNL A   1      42.496  26.301  27.794  1.00  0.00     0.064 A 
ATOM     51  C   UNL A   1      43.438  26.803  26.886  1.00  0.00     0.173 A 
ATOM     52  C   UNL A   1      42.049  24.985  27.608  1.00  0.00     0.173 A 
ATOM     53  F   UNL A   1      43.884  28.063  27.010  1.00  0.00    -0.203 F 
ATOM     54  C   UNL A   1      43.901  26.026  25.825  1.00  0.00     0.198 A 
ATOM     55  C   UNL A   1      42.535  24.199  26.568  1.00  0.00     0.198 A 
ATOM     56  F   UNL A   1      41.151  24.456  28.454  1.00  0.00    -0.203 F 
ATOM     57  F   UNL A   1      44.768  26.546  24.946  1.00  0.00    -0.200 F 
ATOM     58  C   UNL A   1      43.454  24.722  25.672  1.00  0.00     0.200 A 
ATOM     59  F   UNL A   1      42.113  22.934  26.434  1.00  0.00    -0.200 F 
ATOM     60  F   UNL A   1      43.903  23.973  24.656  1.00  0.00    -0.200 F 
ENDBRANCH  26  50
BRANCH  38  61
ATOM     61  C   UNL A   1      44.761  27.490  34.267  1.00  0.00     0.064 A 
ATOM     62  C   UNL A   1      44.699  26.301  35.010  1.00  0.00     0.173 A 
ATOM     63  C   UNL A   1      45.978  28.188  34.246  1.00  0.00     0.173 A 
ATOM     64  F   UNL A   1      43.553  25.605  35.076  1.00  0.00    -0.203 F 
ATOM     65  C   UNL A   1      45.801  25.849  35.731  1.00  0.00     0.198 A 
ATOM     66  C   UNL A   1      47.087  27.716  34.942  1.00  0.00     0.198 A 
ATOM     67  F   UNL A   1      46.093  29.327  33.546  1.00  0.00    -0.203 F 
ATOM     68  F   UNL A   1      45.701  24.743  36.481  1.00  0.00    -0.200 F 
ATOM     69  C   UNL A   1      46.995  26.553  35.692  1.00  0.00     0.200 A 
ATOM     70  F   UNL A   1      48.244  28.391  34.892  1.00  0.00    -0.200 F 
ATOM     71  F   UNL A   1      48.055  26.117  36.387  1.00  0.00    -0.200 F 
ENDBRANCH  38  61
ENDBRANCH  12  13
ENDBRANCH   5   7
ENDBRANCH   2   3
ENDBRANCH   1   2
BRANCH   1  72
ATOM     72  C   UNL A   1      32.186  28.433  23.170  1.00  0.00     0.117 C 
BRANCH  72  73
ATOM     73  N   UNL A   1      32.634  27.631  22.042  1.00  0.00    -0.356 N 
ATOM     74  C   UNL A   1      32.941  26.307  21.936  1.00  0.00     0.223 C 
ATOM     75  H   UNL A   1      32.734  28.136  21.203  1.00  0.00     0.163 HD
ATOM     76  O   UNL A   1      33.278  25.893  20.825  1.00  0.00    -0.275 OA
BRANCH  74  77
ATOM     77  C   UNL A   1      32.913  25.368  23.144  1.00  0.00     0.083 C 
BRANCH  77  78
ATOM     78  C   UNL A   1      31.610  24.541  23.074  1.00  0.00     0.017 C 
BRANCH  78  79
ATOM     79  C   UNL A   1      30.744  24.641  24.318  1.00  0.00    -0.010 C 
ATOM     80  C   UNL A   1      30.832  23.474  25.346  1.00  0.00     0.003 C 
ATOM     81  C   UNL A   1      31.311  25.529  25.473  1.00  0.00     0.003 C 
ATOM     82  C   UNL A   1      30.626  24.546  26.441  1.00  0.00     0.001 C 
ENDBRANCH  78  79
ENDBRANCH  77  78
BRANCH  77  83
ATOM     83  C   UNL A   1      34.249  24.607  23.275  1.00  0.00     0.049 C 
BRANCH  83  84
ATOM     84  C   UNL A   1      34.291  23.545  24.354  1.00  0.00    -0.046 A 
ATOM     85  C   UNL A   1      34.500  23.890  25.696  1.00  0.00     0.004 A 
ATOM     86  C   UNL A   1      34.075  22.196  24.038  1.00  0.00     0.019 A 
ATOM     87  C   UNL A   1      34.515  22.921  26.700  1.00  0.00     0.001 A 
ATOM     88  C   UNL A   1      34.061  21.232  25.050  1.00  0.00     0.018 A 
ATOM     89  C   UNL A   1      34.288  21.588  26.377  1.00  0.00     0.016 A 
ATOM     90  Br  UNL A   1      33.704  19.425  24.622  1.00  0.00    -0.051 Br
ENDBRANCH  83  84
ENDBRANCH  77  83
ENDBRANCH  74  77
ENDBRANCH  72  73
ENDBRANCH   1  72
TORSDOF 14
ENDMDL
MODEL 2
REMARK VINA RESULT:     -11.6      0.617      1.753
REMARK SMILES O=C(NCCCNC(=O)[C@H](Cc1cccc(Br)c1)CC1CCC1)c1ccc(-c2c3nc(c(-c4c(F)c(F)c(F)c(F)c4F)c4ccc([nH]4)c(-c4c(F)c(F)c(F)c(F)c4F)c4nc(c(-c5c(F)c(F)c(F)c(F)c5F)c5ccc2[nH]5)C=C4)C=C3)cc1
REMARK SMILES IDX 5 1 4 2 3 3 1 4 2 5 24 7 25 8 86 9 26 10 85 11 27 12 28 13
REMARK SMILES IDX 29 14 79 15 30 16 84 17 78 18 80 19 31 20 83 21 77 22 76 23
REMARK SMILES IDX 32 25 64 26 44 27 63 28 45 29 48 30 62 31 81 32 46 33 47 34
REMARK SMILES IDX 61 36 82 37 49 38 33 39 34 40 42 41 35 42 36 43 40 44 43 45
REMARK SMILES IDX 37 46 38 47 41 48 39 49 65 50 66 51 74 52 67 53 68 54 72 55
REMARK SMILES IDX 75 56 69 57 70 58 73 59 71 60 50 61 51 62 59 63 52 64 53 65
REMARK SMILES IDX 57 66 60 67 54 68 55 69 58 70 56 71 6 72 7 73 8 74 9 76
REMARK SMILES IDX 10 77 19 78 20 79 21 80 23 81 22 82 11 83 12 84 13 85 18 86
REMARK SMILES IDX 14 87 16 88 15 89 17 90
REMARK H PARENT 3 6 80 24 48 35 7 75
REMARK Flexibility Score: inf
ROOT
ATOM      1  C   UNL A   1      32.965  29.013  23.997  1.00  0.00     0.042 C 
ENDROOT
BRANCH   1   2
ATOM      2  C   UNL A   1      32.900  29.110  25.512  1.00  0.00     0.118 C 
BRANCH   2   3
ATOM      3  N   UNL A   1      32.508  30.435  25.977  1.00  0.00    -0.352 N 
ATOM      4  O   UNL A   1      32.443  32.254  27.299  1.00  0.00    -0.269 OA
ATOM      5  C   UNL A   1      33.056  31.253  26.937  1.00  0.00     0.251 C 
ATOM      6  H   UNL A   1      31.716  30.808  25.527  1.00  0.00     0.163 HD
BRANCH   5   7
ATOM      7  C   UNL A   1      34.360  30.930  27.559  1.00  0.00     0.039 A 
ATOM      8  C   UNL A   1      34.654  29.635  27.986  1.00  0.00     0.014 A 
ATOM      9  C   UNL A   1      35.323  31.935  27.693  1.00  0.00     0.014 A 
ATOM     10  C   UNL A   1      35.808  29.393  28.722  1.00  0.00     0.010 A 
ATOM     11  C   UNL A   1      36.539  31.661  28.329  1.00  0.00     0.010 A 
ATOM     12  C   UNL A   1      36.772  30.399  28.895  1.00  0.00    -0.014 A 
BRANCH  12  13
ATOM     13  C   UNL A   1      38.019  30.082  29.642  1.00  0.00     0.031 A 
ATOM     14  C   UNL A   1      38.222  30.555  31.057  1.00  0.00     0.074 A 
ATOM     15  C   UNL A   1      38.952  29.309  29.051  1.00  0.00     0.049 A 
ATOM     16  N   UNL A   1      39.220  30.316  31.872  1.00  0.00    -0.248 NA
ATOM     17  C   UNL A   1      37.177  31.416  31.631  1.00  0.00     0.031 C 
ATOM     18  C   UNL A   1      38.877  28.802  27.679  1.00  0.00     0.029 A 
ATOM     19  N   UNL A   1      40.126  28.789  29.532  1.00  0.00    -0.354 N 
ATOM     20  C   UNL A   1      38.937  31.016  33.038  1.00  0.00     0.074 A 
ATOM     21  C   UNL A   1      37.688  31.710  32.819  1.00  0.00     0.031 C 
ATOM     22  C   UNL A   1      39.921  27.993  27.451  1.00  0.00     0.029 A 
ATOM     23  C   UNL A   1      40.773  27.974  28.634  1.00  0.00     0.049 A 
ATOM     24  H   UNL A   1      40.473  28.981  30.434  1.00  0.00     0.167 HD
ATOM     25  C   UNL A   1      39.652  31.065  34.189  1.00  0.00     0.037 A 
ATOM     26  C   UNL A   1      41.927  27.292  28.747  1.00  0.00     0.037 A 
ATOM     27  C   UNL A   1      40.883  30.349  34.414  1.00  0.00     0.049 A 
ATOM     28  C   UNL A   1      42.697  27.368  30.034  1.00  0.00     0.074 A 
ATOM     29  C   UNL A   1      41.656  30.301  35.560  1.00  0.00     0.029 A 
ATOM     30  N   UNL A   1      41.519  29.556  33.469  1.00  0.00    -0.354 N 
ATOM     31  N   UNL A   1      42.396  28.001  31.141  1.00  0.00    -0.248 NA
ATOM     32  C   UNL A   1      43.967  26.635  30.084  1.00  0.00     0.031 C 
ATOM     33  C   UNL A   1      42.786  29.518  35.295  1.00  0.00     0.029 A 
ATOM     34  C   UNL A   1      42.688  29.032  34.002  1.00  0.00     0.049 A 
ATOM     35  H   UNL A   1      41.190  29.390  32.557  1.00  0.00     0.167 HD
ATOM     36  C   UNL A   1      43.425  27.723  32.029  1.00  0.00     0.074 A 
ATOM     37  C   UNL A   1      44.349  26.847  31.335  1.00  0.00     0.031 C 
ATOM     38  C   UNL A   1      43.592  28.155  33.302  1.00  0.00     0.037 A 
BRANCH  25  39
ATOM     39  C   UNL A   1      39.135  31.941  35.295  1.00  0.00     0.064 A 
ATOM     40  C   UNL A   1      38.382  31.425  36.360  1.00  0.00     0.173 A 
ATOM     41  C   UNL A   1      39.435  33.312  35.312  1.00  0.00     0.173 A 
ATOM     42  F   UNL A   1      38.057  30.124  36.389  1.00  0.00    -0.203 F 
ATOM     43  C   UNL A   1      37.927  32.252  37.385  1.00  0.00     0.198 A 
ATOM     44  C   UNL A   1      39.005  34.131  36.353  1.00  0.00     0.198 A 
ATOM     45  F   UNL A   1      40.157  33.858  34.322  1.00  0.00    -0.203 F 
ATOM     46  F   UNL A   1      37.170  31.744  38.368  1.00  0.00    -0.200 F 
ATOM     47  C   UNL A   1      38.245  33.602  37.385  1.00  0.00     0.200 A 
ATOM     48  F   UNL A   1      39.323  35.433  36.357  1.00  0.00    -0.200 F 
ATOM     49  F   UNL A   1      37.812  34.394  38.376  1.00  0.00    -0.200 F 
ENDBRANCH  25  39
BRANCH  26  50
ATOM     50  C   UNL A   1      42.413  26.470  27.609  1.00  0.00     0.064 A 
ATOM     51  C   UNL A   1      41.930  25.171  27.399  1.00  0.00     0.173 A 
ATOM     52  C   UNL A   1      43.364  26.965  26.705  1.00  0.00     0.173 A 
ATOM     53  F   UNL A   1      41.032  24.645  28.246  1.00  0.00    -0.203 F 
ATOM     54  C   UNL A   1      42.392  24.393  26.339  1.00  0.00     0.198 A 
ATOM     55  C   UNL A   1      43.802  26.200  25.628  1.00  0.00     0.198 A 
ATOM     56  F   UNL A   1      43.854  28.205  26.858  1.00  0.00    -0.203 F 
ATOM     57  F   UNL A   1      41.946  23.139  26.187  1.00  0.00    -0.200 F 
ATOM     58  C   UNL A   1      43.322  24.912  25.450  1.00  0.00     0.200 A 
ATOM     59  F   UNL A   1      44.688  26.711  24.762  1.00  0.00    -0.200 F 
ATOM     60  F   UNL A   1      43.762  24.166  24.427  1.00  0.00    -0.200 F 
ENDBRANCH  26  50
BRANCH  38  61
ATOM     61  C   UNL A   1      44.797  27.649  34.042  1.00  0.00     0.064 A 
ATOM     62  C   UNL A   1      46.010  28.353  34.048  1.00  0.00     0.173 A 
ATOM     63  C   UNL A   1      44.729  26.449  34.765  1.00  0.00     0.173 A 
ATOM     64  F   UNL A   1      46.130  29.498  33.358  1.00  0.00    -0.203 F 
ATOM     65  C   UNL A   1      47.121  27.857  34.723  1.00  0.00     0.198 A 
ATOM     66  C   UNL A   1      45.833  25.972  35.466  1.00  0.00     0.198 A 
ATOM     67  F   UNL A   1      43.591  25.740  34.797  1.00  0.00    -0.203 F 
ATOM     68  F   UNL A   1      48.287  28.516  34.668  1.00  0.00    -0.200 F 
ATOM     69  C   UNL A   1      47.031  26.671  35.437  1.00  0.00     0.200 A 
ATOM     70  F   UNL A   1      45.740  24.832  36.165  1.00  0.00    -0.200 F 
ATOM     71  F   UNL A   1      48.102  26.195  36.086  1.00  0.00    -0.200 F 
ENDBRANCH  38  61
ENDBRANCH  12  13
ENDBRANCH   5   7
ENDBRANCH   2   3
ENDBRANCH   1   2
BRANCH   1  72
ATOM     72  C   UNL A   1      34.037  28.060  23.489  1.00  0.00     0.117 C 
BRANCH  72  73
ATOM     73  N   UNL A   1      33.739  27.520  22.171  1.00  0.00    -0.356 N 
ATOM     74  C   UNL A   1      33.228  26.318  21.779  1.00  0.00     0.223 C 
ATOM     75  H   UNL A   1      33.941  28.133  21.428  1.00  0.00     0.163 HD
ATOM     76  O   UNL A   1      33.059  26.143  20.570  1.00  0.00    -0.275 OA
BRANCH  74  77
ATOM     77  C   UNL A   1      32.912  25.204  22.780  1.00  0.00     0.083 C 
BRANCH  77  78
ATOM     78  C   UNL A   1      31.478  25.432  23.307  1.00  0.00     0.017 C 
BRANCH  78  79
ATOM     79  C   UNL A   1      31.346  25.314  24.816  1.00  0.00    -0.010 C 
ATOM     80  C   UNL A   1      31.083  23.895  25.402  1.00  0.00     0.003 C 
ATOM     81  C   UNL A   1      32.687  25.254  25.615  1.00  0.00     0.003 C 
ATOM     82  C   UNL A   1      31.951  24.332  26.605  1.00  0.00     0.001 C 
ENDBRANCH  78  79
ENDBRANCH  77  78
BRANCH  77  83
ATOM     83  C   UNL A   1      33.256  23.823  22.186  1.00  0.00     0.049 C 
BRANCH  83  84
ATOM     84  C   UNL A   1      33.937  22.856  23.134  1.00  0.00    -0.046 A 
ATOM     85  C   UNL A   1      35.262  23.063  23.544  1.00  0.00     0.004 A 
ATOM     86  C   UNL A   1      33.240  21.760  23.659  1.00  0.00     0.019 A 
ATOM     87  C   UNL A   1      35.888  22.193  24.437  1.00  0.00     0.001 A 
ATOM     88  C   UNL A   1      33.861  20.907  24.576  1.00  0.00     0.018 A 
ATOM     89  C   UNL A   1      35.184  21.115  24.961  1.00  0.00     0.016 A 
ATOM     90  Br  UNL A   1      32.892  19.468  25.328  1.00  0.00    -0.051 Br
ENDBRANCH  83  84
ENDBRANCH  77  83
ENDBRANCH  74  77
ENDBRANCH  72  73
ENDBRANCH   1  72
TORSDOF 14
ENDMDL
MODEL 3
REMARK VINA RESULT:     -11.6      1.767      3.077
REMARK SMILES O=C(NCCCNC(=O)[C@H](Cc1cccc(Br)c1)CC1CCC1)c1ccc(-c2c3nc(c(-c4c(F)c(F)c(F)c(F)c4F)c4ccc([nH]4)c(-c4c(F)c(F)c(F)c(F)c4F)c4nc(c(-c5c(F)c(F)c(F)c(F)c5F)c5ccc2[nH]5)C=C4)C=C3)cc1
REMARK SMILES IDX 5 1 4 2 3 3 1 4 2 5 24 7 25 8 86 9 26 10 85 11 27 12 28 13
REMARK SMILES IDX 29 14 79 15 30 16 84 17 78 18 80 19 31 20 83 21 77 22 76 23
REMARK SMILES IDX 32 25 64 26 44 27 63 28 45 29 48 30 62 31 81 32 46 33 47 34
REMARK SMILES IDX 61 36 82 37 49 38 33 39 34 40 42 41 35 42 36 43 40 44 43 45
REMARK SMILES IDX 37 46 38 47 41 48 39 49 65 50 66 51 74 52 67 53 68 54 72 55
REMARK SMILES IDX 75 56 69 57 70 58 73 59 71 60 50 61 51 62 59 63 52 64 53 65
REMARK SMILES IDX 57 66 60 67 54 68 55 69 58 70 56 71 6 72 7 73 8 74 9 76
REMARK SMILES IDX 10 77 19 78 20 79 21 80 23 81 22 82 11 83 12 84 13 85 18 86
REMARK SMILES IDX 14 87 16 88 15 89 17 90
REMARK H PARENT 3 6 80 24 48 35 7 75
REMARK Flexibility Score: inf
ROOT
ATOM      1  C   UNL A   1      31.833  28.572  26.344  1.00  0.00     0.042 C 
ENDROOT
BRANCH   1   2
ATOM      2  C   UNL A   1      32.895  29.542  25.852  1.00  0.00     0.118 C 
BRANCH   2   3
ATOM      3  N   UNL A   1      32.628  30.920  26.247  1.00  0.00    -0.352 N 
ATOM      4  O   UNL A   1      32.745  32.807  27.465  1.00  0.00    -0.269 OA
ATOM      5  C   UNL A   1      33.264  31.739  27.150  1.00  0.00     0.251 C 
ATOM      6  H   UNL A   1      31.861  31.334  25.789  1.00  0.00     0.163 HD
BRANCH   5   7
ATOM      7  C   UNL A   1      34.548  31.339  27.769  1.00  0.00     0.039 A 
ATOM      8  C   UNL A   1      34.780  30.021  28.160  1.00  0.00     0.014 A 
ATOM      9  C   UNL A   1      35.555  32.295  27.936  1.00  0.00     0.014 A 
ATOM     10  C   UNL A   1      35.917  29.706  28.894  1.00  0.00     0.010 A 
ATOM     11  C   UNL A   1      36.753  31.948  28.569  1.00  0.00     0.010 A 
ATOM     12  C   UNL A   1      36.925  30.661  29.100  1.00  0.00    -0.014 A 
BRANCH  12  13
ATOM     13  C   UNL A   1      38.152  30.267  29.844  1.00  0.00     0.031 A 
ATOM     14  C   UNL A   1      38.366  30.687  31.273  1.00  0.00     0.074 A 
ATOM     15  C   UNL A   1      39.055  29.473  29.234  1.00  0.00     0.049 A 
ATOM     16  N   UNL A   1      39.347  30.380  32.086  1.00  0.00    -0.248 NA
ATOM     17  C   UNL A   1      37.356  31.575  31.868  1.00  0.00     0.031 C 
ATOM     18  C   UNL A   1      38.966  29.012  27.846  1.00  0.00     0.029 A 
ATOM     19  N   UNL A   1      40.201  28.887  29.704  1.00  0.00    -0.354 N 
ATOM     20  C   UNL A   1      39.088  31.055  33.272  1.00  0.00     0.074 A 
ATOM     21  C   UNL A   1      37.871  31.810  33.067  1.00  0.00     0.031 C 
ATOM     22  C   UNL A   1      39.975  28.164  27.599  1.00  0.00     0.029 A 
ATOM     23  C   UNL A   1      40.817  28.072  28.786  1.00  0.00     0.049 A 
ATOM     24  H   UNL A   1      40.550  29.035  30.614  1.00  0.00     0.167 HD
ATOM     25  C   UNL A   1      39.797  31.038  34.427  1.00  0.00     0.037 A 
ATOM     26  C   UNL A   1      41.939  27.337  28.883  1.00  0.00     0.037 A 
ATOM     27  C   UNL A   1      40.993  30.261  34.636  1.00  0.00     0.049 A 
ATOM     28  C   UNL A   1      42.703  27.339  30.176  1.00  0.00     0.074 A 
ATOM     29  C   UNL A   1      41.756  30.144  35.784  1.00  0.00     0.029 A 
ATOM     30  N   UNL A   1      41.600  29.470  33.671  1.00  0.00    -0.354 N 
ATOM     31  N   UNL A   1      42.424  27.950  31.300  1.00  0.00    -0.248 NA
ATOM     32  C   UNL A   1      43.940  26.549  30.210  1.00  0.00     0.031 C 
ATOM     33  C   UNL A   1      42.851  29.320  35.502  1.00  0.00     0.029 A 
ATOM     34  C   UNL A   1      42.741  28.880  34.193  1.00  0.00     0.049 A 
ATOM     35  H   UNL A   1      41.270  29.347  32.752  1.00  0.00     0.167 HD
ATOM     36  C   UNL A   1      43.434  27.600  32.184  1.00  0.00     0.074 A 
ATOM     37  C   UNL A   1      44.323  26.706  31.469  1.00  0.00     0.031 C 
ATOM     38  C   UNL A   1      43.611  27.985  33.472  1.00  0.00     0.037 A 
BRANCH  25  39
ATOM     39  C   UNL A   1      39.311  31.900  35.557  1.00  0.00     0.064 A 
ATOM     40  C   UNL A   1      38.439  31.413  36.542  1.00  0.00     0.173 A 
ATOM     41  C   UNL A   1      39.760  33.225  35.680  1.00  0.00     0.173 A 
ATOM     42  F   UNL A   1      37.970  30.159  36.468  1.00  0.00    -0.203 F 
ATOM     43  C   UNL A   1      38.015  32.226  37.592  1.00  0.00     0.198 A 
ATOM     44  C   UNL A   1      39.358  34.026  36.747  1.00  0.00     0.198 A 
ATOM     45  F   UNL A   1      40.600  33.741  34.771  1.00  0.00    -0.203 F 
ATOM     46  F   UNL A   1      37.145  31.752  38.496  1.00  0.00    -0.200 F 
ATOM     47  C   UNL A   1      38.481  33.528  37.697  1.00  0.00     0.200 A 
ATOM     48  F   UNL A   1      39.819  35.280  36.854  1.00  0.00    -0.200 F 
ATOM     49  F   UNL A   1      38.077  34.306  38.712  1.00  0.00    -0.200 F 
ENDBRANCH  25  39
BRANCH  26  50
ATOM     50  C   UNL A   1      42.397  26.529  27.723  1.00  0.00     0.064 A 
ATOM     51  C   UNL A   1      43.334  27.040  26.813  1.00  0.00     0.173 A 
ATOM     52  C   UNL A   1      41.915  25.231  27.501  1.00  0.00     0.173 A 
ATOM     53  F   UNL A   1      43.812  28.284  26.972  1.00  0.00    -0.203 F 
ATOM     54  C   UNL A   1      43.758  26.290  25.718  1.00  0.00     0.198 A 
ATOM     55  C   UNL A   1      42.363  24.470  26.425  1.00  0.00     0.198 A 
ATOM     56  F   UNL A   1      41.022  24.694  28.346  1.00  0.00    -0.203 F 
ATOM     57  F   UNL A   1      44.620  26.819  24.840  1.00  0.00    -0.200 F 
ATOM     58  C   UNL A   1      43.277  25.003  25.529  1.00  0.00     0.200 A 
ATOM     59  F   UNL A   1      41.909  23.221  26.256  1.00  0.00    -0.200 F 
ATOM     60  F   UNL A   1      43.689  24.279  24.480  1.00  0.00    -0.200 F 
ENDBRANCH  26  50
BRANCH  38  61
ATOM     61  C   UNL A   1      44.787  27.404  34.201  1.00  0.00     0.064 A 
ATOM     62  C   UNL A   1      46.031  28.052  34.233  1.00  0.00     0.173 A 
ATOM     63  C   UNL A   1      44.661  26.189  34.891  1.00  0.00     0.173 A 
ATOM     64  F   UNL A   1      46.207  29.208  33.575  1.00  0.00    -0.203 F 
ATOM     65  C   UNL A   1      47.115  27.487  34.898  1.00  0.00     0.198 A 
ATOM     66  C   UNL A   1      45.738  25.643  35.582  1.00  0.00     0.198 A 
ATOM     67  F   UNL A   1      43.491  25.532  34.898  1.00  0.00    -0.203 F 
ATOM     68  F   UNL A   1      48.309  28.093  34.866  1.00  0.00    -0.200 F 
ATOM     69  C   UNL A   1      46.967  26.286  35.578  1.00  0.00     0.200 A 
ATOM     70  F   UNL A   1      45.589  24.489  36.249  1.00  0.00    -0.200 F 
ATOM     71  F   UNL A   1      48.012  25.743  36.218  1.00  0.00    -0.200 F 
ENDBRANCH  38  61
ENDBRANCH  12  13
ENDBRANCH   5   7
ENDBRANCH   2   3
ENDBRANCH   1   2
BRANCH   1  72
ATOM     72  C   UNL A   1      32.332  27.143  26.498  1.00  0.00     0.117 C 
BRANCH  72  73
ATOM     73  N   UNL A   1      31.268  26.201  26.814  1.00  0.00    -0.356 N 
ATOM     74  C   UNL A   1      30.779  25.125  26.135  1.00  0.00     0.223 C 
ATOM     75  H   UNL A   1      30.820  26.373  27.674  1.00  0.00     0.163 HD
ATOM     76  O   UNL A   1      29.869  24.487  26.668  1.00  0.00    -0.275 OA
BRANCH  74  77
ATOM     77  C   UNL A   1      31.298  24.736  24.749  1.00  0.00     0.083 C 
BRANCH  77  78
ATOM     78  C   UNL A   1      31.717  23.251  24.798  1.00  0.00     0.017 C 
BRANCH  78  79
ATOM     79  C   UNL A   1      33.219  23.032  24.879  1.00  0.00    -0.010 C 
ATOM     80  C   UNL A   1      33.922  22.432  23.625  1.00  0.00     0.003 C 
ATOM     81  C   UNL A   1      34.106  24.291  24.613  1.00  0.00     0.003 C 
ATOM     82  C   UNL A   1      35.131  23.324  23.989  1.00  0.00     0.001 C 
ENDBRANCH  78  79
ENDBRANCH  77  78
BRANCH  77  83
ATOM     83  C   UNL A   1      30.305  25.174  23.652  1.00  0.00     0.049 C 
BRANCH  83  84
ATOM     84  C   UNL A   1      30.317  26.651  23.312  1.00  0.00    -0.046 A 
ATOM     85  C   UNL A   1      31.491  27.279  22.874  1.00  0.00     0.004 A 
ATOM     86  C   UNL A   1      29.141  27.410  23.385  1.00  0.00     0.019 A 
ATOM     87  C   UNL A   1      31.505  28.632  22.534  1.00  0.00     0.001 A 
ATOM     88  C   UNL A   1      29.153  28.758  23.016  1.00  0.00     0.018 A 
ATOM     89  C   UNL A   1      30.331  29.373  22.599  1.00  0.00     0.016 A 
ATOM     90  Br  UNL A   1      27.548  29.758  23.054  1.00  0.00    -0.051 Br
ENDBRANCH  83  84
ENDBRANCH  77  83
ENDBRANCH  74  77
ENDBRANCH  72  73
ENDBRANCH   1  72
TORSDOF 14
ENDMDL
