MODEL 1
REMARK VINA RESULT:     -11.6      0.000      0.000
REMARK SMILES CCc1ccc(C(=O)NCCCNC(=O)c2ccc(-c3c4nc(c(-c5c(F)c(F)c(F)c(F)c5F)c5ccc([nH]5)c(-c5c(F)c(F)c(F)c(F)c5F)c5nc(c(-c6c(F)c(F)c(F)c(F)c6F)c6ccc3[nH]6)C=C5)C=C4)cc2)cc1S(=O)(=O)C(CC)CC
REMARK SMILES IDX 10 1 9 2 7 3 8 4 6 6 3 7 4 8 80 9 5 10 79 11 2 12 1 13 81 14
REMARK SMILES IDX 82 15 83 16 84 17 85 18 86 19 87 20 88 21 11 22 12 23 13 24
REMARK SMILES IDX 14 25 15 27 16 28 17 29 78 30 18 31 77 32 19 33 20 34 21 35
REMARK SMILES IDX 71 36 22 37 76 38 70 39 72 40 23 41 75 42 69 43 68 44 24 46
REMARK SMILES IDX 56 47 36 48 55 49 37 50 40 51 54 52 73 53 38 54 39 55 53 57
REMARK SMILES IDX 74 58 41 59 25 60 26 61 34 62 27 63 28 64 32 65 35 66 29 67
REMARK SMILES IDX 30 68 33 69 31 70 57 71 58 72 66 73 59 74 60 75 64 76 67 77
REMARK SMILES IDX 61 78 62 79 65 80 63 81 42 82 43 83 51 84 44 85 45 86 49 87
REMARK SMILES IDX 52 88 46 89 47 90 50 91 48 92
REMARK H PARENT 9 5 13 26 72 45 40 56
REMARK Flexibility Score: inf
ROOT
ATOM      1  C   UNL A   1      31.576  30.686  26.661  1.00  0.00     0.118 C 
ENDROOT
BRANCH   1   2
ATOM      2  N   UNL A   1      32.795  30.218  27.300  1.00  0.00    -0.352 N 
ATOM      3  C   UNL A   1      33.653  29.180  27.043  1.00  0.00     0.251 C 
ATOM      4  O   UNL A   1      34.651  29.088  27.760  1.00  0.00    -0.269 OA
ATOM      5  H   UNL A   1      33.060  30.758  28.080  1.00  0.00     0.163 HD
BRANCH   3   6
ATOM      6  C   UNL A   1      33.468  28.188  25.946  1.00  0.00     0.041 A 
ATOM      7  C   UNL A   1      33.227  26.349  23.748  1.00  0.00    -0.030 A 
ATOM      8  C   UNL A   1      33.860  27.609  23.625  1.00  0.00     0.006 A 
ATOM      9  C   UNL A   1      32.704  26.025  25.012  1.00  0.00     0.071 A 
ATOM     10  C   UNL A   1      33.958  28.515  24.687  1.00  0.00     0.014 A 
ATOM     11  C   UNL A   1      32.888  26.934  26.091  1.00  0.00     0.034 A 
BRANCH   7  12
ATOM     12  C   UNL A   1      33.293  25.434  22.554  1.00  0.00     0.033 C 
ATOM     13  C   UNL A   1      32.424  25.793  21.349  1.00  0.00     0.009 C 
ENDBRANCH   7  12
BRANCH   9  14
ATOM     14  S   UNL A   1      31.773  24.598  25.585  1.00  0.00     0.181 S 
ATOM     15  O   UNL A   1      31.427  24.939  26.952  1.00  0.00    -0.223 OA
ATOM     16  O   UNL A   1      30.689  24.485  24.613  1.00  0.00    -0.223 OA
BRANCH  14  17
ATOM     17  C   UNL A   1      32.523  23.002  25.623  1.00  0.00     0.113 C 
BRANCH  17  18
ATOM     18  C   UNL A   1      32.485  22.183  24.310  1.00  0.00     0.017 C 
ATOM     19  C   UNL A   1      32.464  20.664  24.346  1.00  0.00     0.005 C 
ENDBRANCH  17  18
BRANCH  17  20
ATOM     20  C   UNL A   1      33.775  22.856  26.507  1.00  0.00     0.017 C 
ATOM     21  C   UNL A   1      33.496  22.176  27.849  1.00  0.00     0.005 C 
ENDBRANCH  17  20
ENDBRANCH  14  17
ENDBRANCH   9  14
ENDBRANCH   3   6
ENDBRANCH   1   2
BRANCH   1  22
ATOM     22  C   UNL A   1      31.448  32.210  26.739  1.00  0.00     0.042 C 
BRANCH  22  23
ATOM     23  C   UNL A   1      32.733  32.913  27.175  1.00  0.00     0.118 C 
BRANCH  23  24
ATOM     24  N   UNL A   1      32.488  34.280  27.605  1.00  0.00    -0.352 N 
ATOM     25  C   UNL A   1      33.012  34.987  28.654  1.00  0.00     0.251 C 
ATOM     26  H   UNL A   1      31.842  34.777  27.053  1.00  0.00     0.163 HD
ATOM     27  O   UNL A   1      32.525  36.081  28.934  1.00  0.00    -0.269 OA
BRANCH  25  28
ATOM     28  C   UNL A   1      34.145  34.471  29.457  1.00  0.00     0.039 A 
ATOM     29  C   UNL A   1      35.427  34.534  28.896  1.00  0.00     0.014 A 
ATOM     30  C   UNL A   1      33.959  33.832  30.686  1.00  0.00     0.014 A 
ATOM     31  C   UNL A   1      36.514  33.964  29.561  1.00  0.00     0.010 A 
ATOM     32  C   UNL A   1      35.055  33.306  31.374  1.00  0.00     0.010 A 
ATOM     33  C   UNL A   1      36.337  33.343  30.805  1.00  0.00    -0.014 A 
BRANCH  33  34
ATOM     34  C   UNL A   1      37.474  32.670  31.482  1.00  0.00     0.031 A 
ATOM     35  C   UNL A   1      38.178  31.523  30.804  1.00  0.00     0.074 A 
ATOM     36  C   UNL A   1      37.860  33.068  32.708  1.00  0.00     0.049 A 
ATOM     37  N   UNL A   1      39.163  30.779  31.242  1.00  0.00    -0.248 NA
ATOM     38  C   UNL A   1      37.694  31.149  29.466  1.00  0.00     0.031 C 
ATOM     39  C   UNL A   1      37.237  34.140  33.484  1.00  0.00     0.029 A 
ATOM     40  N   UNL A   1      38.867  32.610  33.520  1.00  0.00    -0.354 N 
ATOM     41  C   UNL A   1      39.396  29.837  30.248  1.00  0.00     0.074 A 
ATOM     42  C   UNL A   1      38.432  30.081  29.198  1.00  0.00     0.031 C 
ATOM     43  C   UNL A   1      37.881  34.265  34.656  1.00  0.00     0.029 A 
ATOM     44  C   UNL A   1      38.949  33.271  34.722  1.00  0.00     0.049 A 
ATOM     45  H   UNL A   1      39.474  31.878  33.266  1.00  0.00     0.167 HD
ATOM     46  C   UNL A   1      40.339  28.866  30.210  1.00  0.00     0.037 A 
ATOM     47  C   UNL A   1      39.792  33.093  35.756  1.00  0.00     0.037 A 
ATOM     48  C   UNL A   1      41.331  28.654  31.231  1.00  0.00     0.049 A 
ATOM     49  C   UNL A   1      40.871  32.047  35.657  1.00  0.00     0.074 A 
ATOM     50  C   UNL A   1      42.359  27.728  31.260  1.00  0.00     0.029 A 
ATOM     51  N   UNL A   1      41.422  29.391  32.402  1.00  0.00    -0.354 N 
ATOM     52  N   UNL A   1      41.114  31.199  34.688  1.00  0.00    -0.248 NA
ATOM     53  C   UNL A   1      41.803  31.949  36.788  1.00  0.00     0.031 C 
ATOM     54  C   UNL A   1      43.062  27.892  32.459  1.00  0.00     0.029 A 
ATOM     55  C   UNL A   1      42.491  28.941  33.159  1.00  0.00     0.049 A 
ATOM     56  H   UNL A   1      40.817  30.124  32.657  1.00  0.00     0.167 HD
ATOM     57  C   UNL A   1      42.245  30.493  35.076  1.00  0.00     0.074 A 
ATOM     58  C   UNL A   1      42.646  31.018  36.365  1.00  0.00     0.031 C 
ATOM     59  C   UNL A   1      42.892  29.498  34.424  1.00  0.00     0.037 A 
BRANCH  46  60
ATOM     60  C   UNL A   1      40.354  27.956  29.018  1.00  0.00     0.064 A 
ATOM     61  C   UNL A   1      41.124  28.245  27.882  1.00  0.00     0.173 A 
ATOM     62  C   UNL A   1      39.632  26.752  29.033  1.00  0.00     0.173 A 
ATOM     63  F   UNL A   1      41.823  29.389  27.814  1.00  0.00    -0.203 F 
ATOM     64  C   UNL A   1      41.156  27.373  26.798  1.00  0.00     0.198 A 
ATOM     65  C   UNL A   1      39.686  25.871  27.957  1.00  0.00     0.198 A 
ATOM     66  F   UNL A   1      38.884  26.426  30.098  1.00  0.00    -0.203 F 
ATOM     67  F   UNL A   1      41.873  27.687  25.709  1.00  0.00    -0.200 F 
ATOM     68  C   UNL A   1      40.444  26.184  26.839  1.00  0.00     0.200 A 
ATOM     69  F   UNL A   1      39.006  24.717  28.003  1.00  0.00    -0.200 F 
ATOM     70  F   UNL A   1      40.486  25.339  25.799  1.00  0.00    -0.200 F 
ENDBRANCH  46  60
BRANCH  47  71
ATOM     71  C   UNL A   1      39.677  33.948  36.964  1.00  0.00     0.064 A 
ATOM     72  C   UNL A   1      38.910  33.540  38.064  1.00  0.00     0.173 A 
ATOM     73  C   UNL A   1      40.311  35.197  37.036  1.00  0.00     0.173 A 
ATOM     74  F   UNL A   1      38.269  32.362  38.032  1.00  0.00    -0.203 F 
ATOM     75  C   UNL A   1      38.758  34.360  39.180  1.00  0.00     0.198 A 
ATOM     76  C   UNL A   1      40.177  36.006  38.162  1.00  0.00     0.198 A 
ATOM     77  F   UNL A   1      41.058  35.630  36.011  1.00  0.00    -0.203 F 
ATOM     78  F   UNL A   1      37.977  33.968  40.195  1.00  0.00    -0.200 F 
ATOM     79  C   UNL A   1      39.394  35.591  39.229  1.00  0.00     0.200 A 
ATOM     80  F   UNL A   1      40.801  37.191  38.211  1.00  0.00    -0.200 F 
ATOM     81  F   UNL A   1      39.244  36.382  40.300  1.00  0.00    -0.200 F 
ENDBRANCH  47  71
BRANCH  59  82
ATOM     82  C   UNL A   1      44.133  28.952  35.064  1.00  0.00     0.064 A 
ATOM     83  C   UNL A   1      44.086  27.878  35.964  1.00  0.00     0.173 A 
ATOM     84  C   UNL A   1      45.388  29.494  34.746  1.00  0.00     0.173 A 
ATOM     85  F   UNL A   1      42.909  27.337  36.308  1.00  0.00    -0.203 F 
ATOM     86  C   UNL A   1      45.251  27.383  36.545  1.00  0.00     0.198 A 
ATOM     87  C   UNL A   1      46.552  28.980  35.311  1.00  0.00     0.198 A 
ATOM     88  F   UNL A   1      45.484  30.519  33.886  1.00  0.00    -0.203 F 
ATOM     89  F   UNL A   1      45.180  26.385  37.436  1.00  0.00    -0.200 F 
ATOM     90  C   UNL A   1      46.482  27.931  36.214  1.00  0.00     0.200 A 
ATOM     91  F   UNL A   1      47.741  29.505  34.983  1.00  0.00    -0.200 F 
ATOM     92  F   UNL A   1      47.602  27.452  36.773  1.00  0.00    -0.200 F 
ENDBRANCH  59  82
ENDBRANCH  33  34
ENDBRANCH  25  28
ENDBRANCH  23  24
ENDBRANCH  22  23
ENDBRANCH   1  22
TORSDOF 15
ENDMDL
MODEL 2
REMARK VINA RESULT:     -11.6      0.752      7.464
REMARK SMILES CCc1ccc(C(=O)NCCCNC(=O)c2ccc(-c3c4nc(c(-c5c(F)c(F)c(F)c(F)c5F)c5ccc([nH]5)c(-c5c(F)c(F)c(F)c(F)c5F)c5nc(c(-c6c(F)c(F)c(F)c(F)c6F)c6ccc3[nH]6)C=C5)C=C4)cc2)cc1S(=O)(=O)C(CC)CC
REMARK SMILES IDX 10 1 9 2 7 3 8 4 6 6 3 7 4 8 80 9 5 10 79 11 2 12 1 13 81 14
REMARK SMILES IDX 82 15 83 16 84 17 85 18 86 19 87 20 88 21 11 22 12 23 13 24
REMARK SMILES IDX 14 25 15 27 16 28 17 29 78 30 18 31 77 32 19 33 20 34 21 35
REMARK SMILES IDX 71 36 22 37 76 38 70 39 72 40 23 41 75 42 69 43 68 44 24 46
REMARK SMILES IDX 56 47 36 48 55 49 37 50 40 51 54 52 73 53 38 54 39 55 53 57
REMARK SMILES IDX 74 58 41 59 25 60 26 61 34 62 27 63 28 64 32 65 35 66 29 67
REMARK SMILES IDX 30 68 33 69 31 70 57 71 58 72 66 73 59 74 60 75 64 76 67 77
REMARK SMILES IDX 61 78 62 79 65 80 63 81 42 82 43 83 51 84 44 85 45 86 49 87
REMARK SMILES IDX 52 88 46 89 47 90 50 91 48 92
REMARK H PARENT 9 5 13 26 72 45 40 56
REMARK Flexibility Score: inf
ROOT
ATOM      1  C   UNL A   1      31.680  30.604  26.521  1.00  0.00     0.118 C 
ENDROOT
BRANCH   1   2
ATOM      2  N   UNL A   1      32.917  30.120  27.111  1.00  0.00    -0.352 N 
ATOM      3  C   UNL A   1      33.741  29.062  26.830  1.00  0.00     0.251 C 
ATOM      4  O   UNL A   1      34.769  28.959  27.503  1.00  0.00    -0.269 OA
ATOM      5  H   UNL A   1      33.227  30.665  27.871  1.00  0.00     0.163 HD
BRANCH   3   6
ATOM      6  C   UNL A   1      33.488  28.060  25.756  1.00  0.00     0.041 A 
ATOM      7  C   UNL A   1      33.109  26.202  23.595  1.00  0.00    -0.030 A 
ATOM      8  C   UNL A   1      33.730  27.462  23.419  1.00  0.00     0.006 A 
ATOM      9  C   UNL A   1      32.671  25.887  24.892  1.00  0.00     0.071 A 
ATOM     10  C   UNL A   1      33.894  28.377  24.464  1.00  0.00     0.014 A 
ATOM     11  C   UNL A   1      32.923  26.806  25.950  1.00  0.00     0.034 A 
BRANCH   7  12
ATOM     12  C   UNL A   1      33.099  25.276  22.407  1.00  0.00     0.033 C 
ATOM     13  C   UNL A   1      32.522  25.821  21.101  1.00  0.00     0.009 C 
ENDBRANCH   7  12
BRANCH   9  14
ATOM     14  S   UNL A   1      31.783  24.463  25.538  1.00  0.00     0.181 S 
ATOM     15  O   UNL A   1      31.421  24.865  26.885  1.00  0.00    -0.223 OA
ATOM     16  O   UNL A   1      30.707  24.265  24.570  1.00  0.00    -0.223 OA
BRANCH  14  17
ATOM     17  C   UNL A   1      32.583  22.896  25.661  1.00  0.00     0.113 C 
BRANCH  17  18
ATOM     18  C   UNL A   1      32.684  22.061  24.361  1.00  0.00     0.017 C 
ATOM     19  C   UNL A   1      32.522  20.551  24.398  1.00  0.00     0.005 C 
ENDBRANCH  17  18
BRANCH  17  20
ATOM     20  C   UNL A   1      33.760  22.806  26.648  1.00  0.00     0.017 C 
ATOM     21  C   UNL A   1      35.052  23.429  26.113  1.00  0.00     0.005 C 
ENDBRANCH  17  20
ENDBRANCH  14  17
ENDBRANCH   9  14
ENDBRANCH   3   6
ENDBRANCH   1   2
BRANCH   1  22
ATOM     22  C   UNL A   1      31.476  32.099  26.786  1.00  0.00     0.042 C 
BRANCH  22  23
ATOM     23  C   UNL A   1      32.775  32.860  27.045  1.00  0.00     0.118 C 
BRANCH  23  24
ATOM     24  N   UNL A   1      32.534  34.170  27.626  1.00  0.00    -0.352 N 
ATOM     25  C   UNL A   1      33.067  34.757  28.741  1.00  0.00     0.251 C 
ATOM     26  H   UNL A   1      31.883  34.725  27.138  1.00  0.00     0.163 HD
ATOM     27  O   UNL A   1      32.583  35.813  29.146  1.00  0.00    -0.269 OA
BRANCH  25  28
ATOM     28  C   UNL A   1      34.208  34.157  29.471  1.00  0.00     0.039 A 
ATOM     29  C   UNL A   1      35.500  34.423  29.000  1.00  0.00     0.014 A 
ATOM     30  C   UNL A   1      34.029  33.259  30.527  1.00  0.00     0.014 A 
ATOM     31  C   UNL A   1      36.603  33.797  29.582  1.00  0.00     0.010 A 
ATOM     32  C   UNL A   1      35.136  32.671  31.142  1.00  0.00     0.010 A 
ATOM     33  C   UNL A   1      36.431  32.913  30.657  1.00  0.00    -0.014 A 
BRANCH  33  34
ATOM     34  C   UNL A   1      37.591  32.187  31.231  1.00  0.00     0.031 A 
ATOM     35  C   UNL A   1      38.075  32.521  32.618  1.00  0.00     0.074 A 
ATOM     36  C   UNL A   1      38.225  31.247  30.505  1.00  0.00     0.049 A 
ATOM     37  N   UNL A   1      39.092  32.032  33.283  1.00  0.00    -0.248 NA
ATOM     38  C   UNL A   1      37.328  33.560  33.345  1.00  0.00     0.031 C 
ATOM     39  C   UNL A   1      37.878  30.859  29.138  1.00  0.00     0.029 A 
ATOM     40  N   UNL A   1      39.302  30.454  30.814  1.00  0.00    -0.354 N 
ATOM     41  C   UNL A   1      39.122  32.720  34.489  1.00  0.00     0.074 A 
ATOM     42  C   UNL A   1      38.043  33.682  34.455  1.00  0.00     0.031 C 
ATOM     43  C   UNL A   1      38.718  29.894  28.729  1.00  0.00     0.029 A 
ATOM     44  C   UNL A   1      39.673  29.610  29.796  1.00  0.00     0.049 A 
ATOM     45  H   UNL A   1      39.763  30.486  31.682  1.00  0.00     0.167 HD
ATOM     46  C   UNL A   1      39.965  32.554  35.535  1.00  0.00     0.037 A 
ATOM     47  C   UNL A   1      40.672  28.709  29.735  1.00  0.00     0.037 A 
ATOM     48  C   UNL A   1      41.008  31.564  35.589  1.00  0.00     0.049 A 
ATOM     49  C   UNL A   1      41.553  28.502  30.938  1.00  0.00     0.074 A 
ATOM     50  C   UNL A   1      41.883  31.285  36.625  1.00  0.00     0.029 A 
ATOM     51  N   UNL A   1      41.307  30.681  34.564  1.00  0.00    -0.354 N 
ATOM     52  N   UNL A   1      41.536  29.122  32.092  1.00  0.00    -0.248 NA
ATOM     53  C   UNL A   1      42.579  27.456  30.834  1.00  0.00     0.031 C 
ATOM     54  C   UNL A   1      42.726  30.245  36.218  1.00  0.00     0.029 A 
ATOM     55  C   UNL A   1      42.353  29.856  34.943  1.00  0.00     0.049 A 
ATOM     56  H   UNL A   1      40.846  30.647  33.695  1.00  0.00     0.167 HD
ATOM     57  C   UNL A   1      42.522  28.519  32.862  1.00  0.00     0.074 A 
ATOM     58  C   UNL A   1      43.112  27.478  32.047  1.00  0.00     0.031 C 
ATOM     59  C   UNL A   1      42.905  28.804  34.130  1.00  0.00     0.037 A 
BRANCH  46  60
ATOM     60  C   UNL A   1      39.795  33.459  36.719  1.00  0.00     0.064 A 
ATOM     61  C   UNL A   1      40.464  34.688  36.807  1.00  0.00     0.173 A 
ATOM     62  C   UNL A   1      38.908  33.118  37.752  1.00  0.00     0.173 A 
ATOM     63  F   UNL A   1      41.330  35.054  35.850  1.00  0.00    -0.203 F 
ATOM     64  C   UNL A   1      40.268  35.534  37.895  1.00  0.00     0.198 A 
ATOM     65  C   UNL A   1      38.696  33.978  38.827  1.00  0.00     0.198 A 
ATOM     66  F   UNL A   1      38.239  31.956  37.713  1.00  0.00    -0.203 F 
ATOM     67  F   UNL A   1      40.945  36.688  37.974  1.00  0.00    -0.200 F 
ATOM     68  C   UNL A   1      39.378  35.182  38.899  1.00  0.00     0.200 A 
ATOM     69  F   UNL A   1      37.828  33.641  39.791  1.00  0.00    -0.200 F 
ATOM     70  F   UNL A   1      39.182  36.004  39.940  1.00  0.00    -0.200 F 
ENDBRANCH  46  60
BRANCH  47  71
ATOM     71  C   UNL A   1      40.873  27.904  28.503  1.00  0.00     0.064 A 
ATOM     72  C   UNL A   1      41.697  28.367  27.468  1.00  0.00     0.173 A 
ATOM     73  C   UNL A   1      40.230  26.671  28.326  1.00  0.00     0.173 A 
ATOM     74  F   UNL A   1      42.316  29.551  27.585  1.00  0.00    -0.203 F 
ATOM     75  C   UNL A   1      41.850  27.640  26.290  1.00  0.00     0.198 A 
ATOM     76  C   UNL A   1      40.402  25.933  27.157  1.00  0.00     0.198 A 
ATOM     77  F   UNL A   1      39.433  26.184  29.289  1.00  0.00    -0.203 F 
ATOM     78  F   UNL A   1      42.602  28.129  25.296  1.00  0.00    -0.200 F 
ATOM     79  C   UNL A   1      41.204  26.422  26.137  1.00  0.00     0.200 A 
ATOM     80  F   UNL A   1      39.785  24.752  27.016  1.00  0.00    -0.200 F 
ATOM     81  F   UNL A   1      41.347  25.725  25.001  1.00  0.00    -0.200 F 
ENDBRANCH  47  71
BRANCH  59  82
ATOM     82  C   UNL A   1      43.971  27.942  34.734  1.00  0.00     0.064 A 
ATOM     83  C   UNL A   1      45.329  28.284  34.655  1.00  0.00     0.173 A 
ATOM     84  C   UNL A   1      43.625  26.772  35.428  1.00  0.00     0.173 A 
ATOM     85  F   UNL A   1      45.709  29.386  33.990  1.00  0.00    -0.203 F 
ATOM     86  C   UNL A   1      46.304  27.472  35.227  1.00  0.00     0.198 A 
ATOM     87  C   UNL A   1      44.601  25.976  36.019  1.00  0.00     0.198 A 
ATOM     88  F   UNL A   1      42.338  26.406  35.535  1.00  0.00    -0.203 F 
ATOM     89  F   UNL A   1      47.598  27.795  35.102  1.00  0.00    -0.200 F 
ATOM     90  C   UNL A   1      45.940  26.322  35.912  1.00  0.00     0.200 A 
ATOM     91  F   UNL A   1      44.246  24.870  36.688  1.00  0.00    -0.200 F 
ATOM     92  F   UNL A   1      46.880  25.542  36.462  1.00  0.00    -0.200 F 
ENDBRANCH  59  82
ENDBRANCH  33  34
ENDBRANCH  25  28
ENDBRANCH  23  24
ENDBRANCH  22  23
ENDBRANCH   1  22
TORSDOF 15
ENDMDL
MODEL 3
REMARK VINA RESULT:     -11.4      5.847     11.123
REMARK SMILES CCc1ccc(C(=O)NCCCNC(=O)c2ccc(-c3c4nc(c(-c5c(F)c(F)c(F)c(F)c5F)c5ccc([nH]5)c(-c5c(F)c(F)c(F)c(F)c5F)c5nc(c(-c6c(F)c(F)c(F)c(F)c6F)c6ccc3[nH]6)C=C5)C=C4)cc2)cc1S(=O)(=O)C(CC)CC
REMARK SMILES IDX 10 1 9 2 7 3 8 4 6 6 3 7 4 8 80 9 5 10 79 11 2 12 1 13 81 14
REMARK SMILES IDX 82 15 83 16 84 17 85 18 86 19 87 20 88 21 11 22 12 23 13 24
REMARK SMILES IDX 14 25 15 27 16 28 17 29 78 30 18 31 77 32 19 33 20 34 21 35
REMARK SMILES IDX 71 36 22 37 76 38 70 39 72 40 23 41 75 42 69 43 68 44 24 46
REMARK SMILES IDX 56 47 36 48 55 49 37 50 40 51 54 52 73 53 38 54 39 55 53 57
REMARK SMILES IDX 74 58 41 59 25 60 26 61 34 62 27 63 28 64 32 65 35 66 29 67
REMARK SMILES IDX 30 68 33 69 31 70 57 71 58 72 66 73 59 74 60 75 64 76 67 77
REMARK SMILES IDX 61 78 62 79 65 80 63 81 42 82 43 83 51 84 44 85 45 86 49 87
REMARK SMILES IDX 52 88 46 89 47 90 50 91 48 92
REMARK H PARENT 9 5 13 26 72 45 40 56
REMARK Flexibility Score: inf
ROOT
ATOM      1  C   UNL A   1      36.589  20.584  25.069  1.00  0.00     0.118 C 
ENDROOT
BRANCH   1   2
ATOM      2  N   UNL A   1      35.344  19.838  24.989  1.00  0.00    -0.352 N 
ATOM      3  C   UNL A   1      34.024  20.204  25.049  1.00  0.00     0.251 C 
ATOM      4  O   UNL A   1      33.189  19.312  24.888  1.00  0.00    -0.269 OA
ATOM      5  H   UNL A   1      35.475  18.870  24.866  1.00  0.00     0.163 HD
BRANCH   3   6
ATOM      6  C   UNL A   1      33.546  21.599  25.266  1.00  0.00     0.041 A 
ATOM      7  C   UNL A   1      32.689  24.284  25.832  1.00  0.00    -0.030 A 
ATOM      8  C   UNL A   1      33.061  23.371  26.848  1.00  0.00     0.006 A 
ATOM      9  C   UNL A   1      32.750  23.818  24.508  1.00  0.00     0.071 A 
ATOM     10  C   UNL A   1      33.456  22.057  26.576  1.00  0.00     0.014 A 
ATOM     11  C   UNL A   1      33.231  22.502  24.260  1.00  0.00     0.034 A 
BRANCH   7  12
ATOM     12  C   UNL A   1      32.392  25.697  26.262  1.00  0.00     0.033 C 
ATOM     13  C   UNL A   1      33.500  26.732  26.078  1.00  0.00     0.009 C 
ENDBRANCH   7  12
BRANCH   9  14
ATOM     14  S   UNL A   1      32.305  24.595  22.950  1.00  0.00     0.181 S 
ATOM     15  O   UNL A   1      33.262  24.048  22.006  1.00  0.00    -0.223 OA
ATOM     16  O   UNL A   1      30.898  24.239  22.781  1.00  0.00    -0.223 OA
BRANCH  14  17
ATOM     17  C   UNL A   1      32.356  26.350  22.783  1.00  0.00     0.113 C 
BRANCH  17  18
ATOM     18  C   UNL A   1      33.655  26.958  22.201  1.00  0.00     0.017 C 
ATOM     19  C   UNL A   1      33.994  28.421  22.429  1.00  0.00     0.005 C 
ENDBRANCH  17  18
BRANCH  17  20
ATOM     20  C   UNL A   1      31.030  27.040  22.412  1.00  0.00     0.017 C 
ATOM     21  C   UNL A   1      30.437  27.871  23.553  1.00  0.00     0.005 C 
ENDBRANCH  17  20
ENDBRANCH  14  17
ENDBRANCH   9  14
ENDBRANCH   3   6
ENDBRANCH   1   2
BRANCH   1  22
ATOM     22  C   UNL A   1      37.807  19.657  25.003  1.00  0.00     0.042 C 
BRANCH  22  23
ATOM     23  C   UNL A   1      39.043  20.216  25.705  1.00  0.00     0.118 C 
BRANCH  23  24
ATOM     24  N   UNL A   1      40.051  19.194  25.931  1.00  0.00    -0.352 N 
ATOM     25  C   UNL A   1      41.402  19.307  26.123  1.00  0.00     0.251 C 
ATOM     26  H   UNL A   1      39.707  18.271  25.949  1.00  0.00     0.163 HD
ATOM     27  O   UNL A   1      42.090  18.288  26.119  1.00  0.00    -0.269 OA
BRANCH  25  28
ATOM     28  C   UNL A   1      42.054  20.620  26.335  1.00  0.00     0.039 A 
ATOM     29  C   UNL A   1      42.216  21.066  27.653  1.00  0.00     0.014 A 
ATOM     30  C   UNL A   1      42.401  21.461  25.274  1.00  0.00     0.014 A 
ATOM     31  C   UNL A   1      42.724  22.341  27.907  1.00  0.00     0.010 A 
ATOM     32  C   UNL A   1      42.956  22.717  25.528  1.00  0.00     0.010 A 
ATOM     33  C   UNL A   1      43.096  23.179  26.846  1.00  0.00    -0.014 A 
BRANCH  33  34
ATOM     34  C   UNL A   1      43.565  24.563  27.106  1.00  0.00     0.031 A 
ATOM     35  C   UNL A   1      42.605  25.593  27.639  1.00  0.00     0.074 A 
ATOM     36  C   UNL A   1      44.841  24.903  26.844  1.00  0.00     0.049 A 
ATOM     37  N   UNL A   1      42.806  26.862  27.895  1.00  0.00    -0.248 NA
ATOM     38  C   UNL A   1      41.229  25.142  27.898  1.00  0.00     0.031 C 
ATOM     39  C   UNL A   1      45.858  24.008  26.292  1.00  0.00     0.029 A 
ATOM     40  N   UNL A   1      45.498  26.098  27.001  1.00  0.00    -0.354 N 
ATOM     41  C   UNL A   1      41.581  27.362  28.317  1.00  0.00     0.074 A 
ATOM     42  C   UNL A   1      40.634  26.272  28.255  1.00  0.00     0.031 C 
ATOM     43  C   UNL A   1      47.013  24.681  26.165  1.00  0.00     0.029 A 
ATOM     44  C   UNL A   1      46.814  26.058  26.609  1.00  0.00     0.049 A 
ATOM     45  H   UNL A   1      45.068  26.906  27.361  1.00  0.00     0.167 HD
ATOM     46  C   UNL A   1      41.278  28.616  28.732  1.00  0.00     0.037 A 
ATOM     47  C   UNL A   1      47.750  27.025  26.610  1.00  0.00     0.037 A 
ATOM     48  C   UNL A   1      42.231  29.688  28.841  1.00  0.00     0.049 A 
ATOM     49  C   UNL A   1      47.400  28.390  27.137  1.00  0.00     0.074 A 
ATOM     50  C   UNL A   1      42.031  30.979  29.298  1.00  0.00     0.029 A 
ATOM     51  N   UNL A   1      43.570  29.587  28.499  1.00  0.00    -0.354 N 
ATOM     52  N   UNL A   1      46.252  28.835  27.584  1.00  0.00    -0.248 NA
ATOM     53  C   UNL A   1      48.484  29.382  27.178  1.00  0.00     0.031 C 
ATOM     54  C   UNL A   1      43.247  31.667  29.214  1.00  0.00     0.029 A 
ATOM     55  C   UNL A   1      44.210  30.793  28.736  1.00  0.00     0.049 A 
ATOM     56  H   UNL A   1      44.003  28.779  28.140  1.00  0.00     0.167 HD
ATOM     57  C   UNL A   1      46.482  30.143  27.990  1.00  0.00     0.074 A 
ATOM     58  C   UNL A   1      47.883  30.417  27.746  1.00  0.00     0.031 C 
ATOM     59  C   UNL A   1      45.611  31.036  28.517  1.00  0.00     0.037 A 
BRANCH  46  60
ATOM     60  C   UNL A   1      39.855  28.900  29.110  1.00  0.00     0.064 A 
ATOM     61  C   UNL A   1      38.914  29.323  28.161  1.00  0.00     0.173 A 
ATOM     62  C   UNL A   1      39.414  28.694  30.426  1.00  0.00     0.173 A 
ATOM     63  F   UNL A   1      39.288  29.545  26.892  1.00  0.00    -0.203 F 
ATOM     64  C   UNL A   1      37.588  29.549  28.519  1.00  0.00     0.198 A 
ATOM     65  C   UNL A   1      38.082  28.897  30.775  1.00  0.00     0.198 A 
ATOM     66  F   UNL A   1      40.274  28.284  31.371  1.00  0.00    -0.203 F 
ATOM     67  F   UNL A   1      36.713  29.986  27.602  1.00  0.00    -0.200 F 
ATOM     68  C   UNL A   1      37.171  29.327  29.823  1.00  0.00     0.200 A 
ATOM     69  F   UNL A   1      37.679  28.672  32.034  1.00  0.00    -0.200 F 
ATOM     70  F   UNL A   1      35.891  29.534  30.164  1.00  0.00    -0.200 F 
ENDBRANCH  46  60
BRANCH  47  71
ATOM     71  C   UNL A   1      49.124  26.730  26.129  1.00  0.00     0.064 A 
ATOM     72  C   UNL A   1      50.102  26.234  27.002  1.00  0.00     0.173 A 
ATOM     73  C   UNL A   1      49.493  26.957  24.796  1.00  0.00     0.173 A 
ATOM     74  F   UNL A   1      49.800  26.021  28.292  1.00  0.00    -0.203 F 
ATOM     75  C   UNL A   1      51.405  26.003  26.568  1.00  0.00     0.198 A 
ATOM     76  C   UNL A   1      50.791  26.703  24.356  1.00  0.00     0.198 A 
ATOM     77  F   UNL A   1      48.593  27.428  23.921  1.00  0.00    -0.203 F 
ATOM     78  F   UNL A   1      52.332  25.579  27.436  1.00  0.00    -0.200 F 
ATOM     79  C   UNL A   1      51.747  26.235  25.245  1.00  0.00     0.200 A 
ATOM     80  F   UNL A   1      51.116  26.919  23.075  1.00  0.00    -0.200 F 
ATOM     81  F   UNL A   1      53.002  26.017  24.828  1.00  0.00    -0.200 F 
ENDBRANCH  47  71
BRANCH  59  82
ATOM     82  C   UNL A   1      46.158  32.373  28.919  1.00  0.00     0.064 A 
ATOM     83  C   UNL A   1      46.118  33.475  28.054  1.00  0.00     0.173 A 
ATOM     84  C   UNL A   1      46.702  32.557  30.199  1.00  0.00     0.173 A 
ATOM     85  F   UNL A   1      45.619  33.344  26.816  1.00  0.00    -0.203 F 
ATOM     86  C   UNL A   1      46.628  34.710  28.447  1.00  0.00     0.198 A 
ATOM     87  C   UNL A   1      47.189  33.798  30.597  1.00  0.00     0.198 A 
ATOM     88  F   UNL A   1      46.757  31.532  31.064  1.00  0.00    -0.203 F 
ATOM     89  F   UNL A   1      46.620  35.739  27.590  1.00  0.00    -0.200 F 
ATOM     90  C   UNL A   1      47.158  34.872  29.720  1.00  0.00     0.200 A 
ATOM     91  F   UNL A   1      47.692  33.954  31.829  1.00  0.00    -0.200 F 
ATOM     92  F   UNL A   1      47.647  36.060  30.097  1.00  0.00    -0.200 F 
ENDBRANCH  59  82
ENDBRANCH  33  34
ENDBRANCH  25  28
ENDBRANCH  23  24
ENDBRANCH  22  23
ENDBRANCH   1  22
TORSDOF 15
ENDMDL
