MODEL 1
REMARK VINA RESULT:     -12.2      0.000      0.000
REMARK SMILES C[C@@H]1SCCC[C@H]1[N@H+]1CCC[C@H](CCC(=O)NCCCNC(=O)c2ccc(-c3c4nc(c(-c5c(F)c(F)c(F)c(F)c5F)c5ccc([nH]5)c(-c5c(F)c(F)c(F)c(F)c5F)c5nc(c(-c6c(F)c(F)c(F)c(F)c6F)c6ccc3[nH]6)C=C5)C=C4)cc2)C1
REMARK SMILES IDX 18 1 17 2 15 3 16 4 14 6 13 7 12 8 8 9 9 10 87 11 10 13
REMARK SMILES IDX 11 14 7 15 1 16 2 17 3 18 4 19 6 20 5 21 19 22 20 23 21 24
REMARK SMILES IDX 22 25 23 27 24 28 25 29 86 30 26 31 85 32 27 33 28 34 29 35
REMARK SMILES IDX 79 36 30 37 84 38 78 39 80 40 31 41 83 42 77 43 76 44 32 46
REMARK SMILES IDX 64 47 44 48 63 49 45 50 48 51 62 52 81 53 46 54 47 55 61 57
REMARK SMILES IDX 82 58 49 59 33 60 34 61 42 62 35 63 36 64 40 65 43 66 37 67
REMARK SMILES IDX 38 68 41 69 39 70 65 71 66 72 74 73 67 74 68 75 72 76 75 77
REMARK SMILES IDX 69 78 70 79 73 80 71 81 50 82 51 83 59 84 52 85 53 86 57 87
REMARK SMILES IDX 60 88 54 89 55 90 58 91 56 92
REMARK H PARENT 17 5 8 12 21 26 80 45 48 56
REMARK Flexibility Score: inf
ROOT
ATOM      1  C   UNL A   1      32.871  28.351  22.407  1.00  0.00     0.117 C 
ENDROOT
BRANCH   1   2
ATOM      2  N   UNL A   1      31.842  29.319  22.007  1.00  0.00    -0.356 N 
ATOM      3  C   UNL A   1      30.501  29.399  22.239  1.00  0.00     0.220 C 
ATOM      4  O   UNL A   1      29.818  29.959  21.376  1.00  0.00    -0.275 OA
ATOM      5  H   UNL A   1      32.191  30.061  21.461  1.00  0.00     0.163 HD
BRANCH   3   6
ATOM      6  C   UNL A   1      29.849  28.916  23.526  1.00  0.00     0.100 C 
BRANCH   6   7
ATOM      7  C   UNL A   1      29.470  27.419  23.520  1.00  0.00     0.019 C 
BRANCH   7   8
ATOM      8  C   UNL A   1      30.488  26.429  24.156  1.00  0.00     0.045 C 
ATOM      9  N   UNL A   1      30.759  23.901  24.550  1.00  0.00    -0.331 N 
ATOM     10  C   UNL A   1      30.902  24.137  25.971  1.00  0.00     0.262 C 
ATOM     11  C   UNL A   1      30.109  24.987  23.846  1.00  0.00     0.265 C 
ATOM     12  H   UNL A   1      30.141  23.097  24.663  1.00  0.00     0.348 HD
ATOM     13  C   UNL A   1      31.387  25.538  26.343  1.00  0.00     0.062 C 
ATOM     14  C   UNL A   1      30.563  26.636  25.676  1.00  0.00     0.015 C 
BRANCH   9  15
ATOM     15  C   UNL A   1      31.707  23.118  23.741  1.00  0.00     0.196 C 
ATOM     16  C   UNL A   1      33.237  23.121  21.701  1.00  0.00     0.026 C 
ATOM     17  C   UNL A   1      32.724  23.927  22.901  1.00  0.00     0.101 C 
ATOM     18  S   UNL A   1      34.126  24.554  23.893  1.00  0.00    -0.153 SA
ATOM     19  C   UNL A   1      34.647  23.035  24.735  1.00  0.00     0.070 C 
ATOM     20  C   UNL A   1      32.341  21.932  24.492  1.00  0.00     0.067 C 
ATOM     21  C   UNL A   1      33.536  22.224  25.384  1.00  0.00     0.017 C 
ENDBRANCH   9  15
ENDBRANCH   7   8
ENDBRANCH   6   7
ENDBRANCH   3   6
ENDBRANCH   1   2
BRANCH   1  22
ATOM     22  C   UNL A   1      33.736  29.021  23.476  1.00  0.00     0.042 C 
BRANCH  22  23
ATOM     23  C   UNL A   1      33.345  29.042  24.954  1.00  0.00     0.118 C 
BRANCH  23  24
ATOM     24  N   UNL A   1      32.636  30.161  25.522  1.00  0.00    -0.352 N 
ATOM     25  C   UNL A   1      32.993  30.938  26.619  1.00  0.00     0.251 C 
ATOM     26  H   UNL A   1      31.792  30.405  25.078  1.00  0.00     0.163 HD
ATOM     27  O   UNL A   1      32.205  31.799  26.992  1.00  0.00    -0.269 OA
BRANCH  25  28
ATOM     28  C   UNL A   1      34.274  30.744  27.392  1.00  0.00     0.039 A 
ATOM     29  C   UNL A   1      34.551  29.464  27.909  1.00  0.00     0.014 A 
ATOM     30  C   UNL A   1      35.183  31.761  27.682  1.00  0.00     0.014 A 
ATOM     31  C   UNL A   1      35.718  29.213  28.657  1.00  0.00     0.010 A 
ATOM     32  C   UNL A   1      36.379  31.500  28.361  1.00  0.00     0.010 A 
ATOM     33  C   UNL A   1      36.658  30.228  28.876  1.00  0.00    -0.014 A 
BRANCH  33  34
ATOM     34  C   UNL A   1      37.904  30.025  29.672  1.00  0.00     0.031 A 
ATOM     35  C   UNL A   1      38.996  29.122  29.149  1.00  0.00     0.074 A 
ATOM     36  C   UNL A   1      38.036  30.572  30.896  1.00  0.00     0.049 A 
ATOM     37  N   UNL A   1      40.082  28.689  29.744  1.00  0.00    -0.248 NA
ATOM     38  C   UNL A   1      38.827  28.612  27.778  1.00  0.00     0.031 C 
ATOM     39  C   UNL A   1      37.058  31.441  31.547  1.00  0.00     0.029 A 
ATOM     40  N   UNL A   1      39.047  30.458  31.824  1.00  0.00    -0.354 N 
ATOM     41  C   UNL A   1      40.706  27.843  28.833  1.00  0.00     0.074 A 
ATOM     42  C   UNL A   1      39.854  27.783  27.665  1.00  0.00     0.031 C 
ATOM     43  C   UNL A   1      37.519  31.794  32.758  1.00  0.00     0.029 A 
ATOM     44  C   UNL A   1      38.807  31.145  32.990  1.00  0.00     0.049 A 
ATOM     45  H   UNL A   1      39.865  29.935  31.666  1.00  0.00     0.167 HD
ATOM     46  C   UNL A   1      41.891  27.194  28.945  1.00  0.00     0.037 A 
ATOM     47  C   UNL A   1      39.535  31.231  34.121  1.00  0.00     0.037 A 
ATOM     48  C   UNL A   1      42.764  27.277  30.087  1.00  0.00     0.049 A 
ATOM     49  C   UNL A   1      40.844  30.491  34.225  1.00  0.00     0.074 A 
ATOM     50  C   UNL A   1      44.000  26.682  30.277  1.00  0.00     0.029 A 
ATOM     51  N   UNL A   1      42.494  28.010  31.233  1.00  0.00    -0.354 N 
ATOM     52  N   UNL A   1      41.437  29.725  33.343  1.00  0.00    -0.248 NA
ATOM     53  C   UNL A   1      41.587  30.633  35.487  1.00  0.00     0.031 C 
ATOM     54  C   UNL A   1      44.467  27.032  31.548  1.00  0.00     0.029 A 
ATOM     55  C   UNL A   1      43.540  27.878  32.133  1.00  0.00     0.049 A 
ATOM     56  H   UNL A   1      41.682  28.544  31.384  1.00  0.00     0.167 HD
ATOM     57  C   UNL A   1      42.634  29.326  33.925  1.00  0.00     0.074 A 
ATOM     58  C   UNL A   1      42.690  29.943  35.233  1.00  0.00     0.031 C 
ATOM     59  C   UNL A   1      43.599  28.521  33.421  1.00  0.00     0.037 A 
BRANCH  46  60
ATOM     60  C   UNL A   1      42.330  26.343  27.787  1.00  0.00     0.064 A 
ATOM     61  C   UNL A   1      41.813  25.053  27.590  1.00  0.00     0.173 A 
ATOM     62  C   UNL A   1      43.240  26.836  26.839  1.00  0.00     0.173 A 
ATOM     63  F   UNL A   1      40.947  24.531  28.472  1.00  0.00    -0.203 F 
ATOM     64  C   UNL A   1      42.216  24.276  26.506  1.00  0.00     0.198 A 
ATOM     65  C   UNL A   1      43.616  26.068  25.739  1.00  0.00     0.198 A 
ATOM     66  F   UNL A   1      43.757  28.067  26.972  1.00  0.00    -0.203 F 
ATOM     67  F   UNL A   1      41.746  23.029  26.367  1.00  0.00    -0.200 F 
ATOM     68  C   UNL A   1      43.110  24.787  25.578  1.00  0.00     0.200 A 
ATOM     69  F   UNL A   1      44.470  26.568  24.835  1.00  0.00    -0.200 F 
ATOM     70  F   UNL A   1      43.490  24.041  24.531  1.00  0.00    -0.200 F 
ENDBRANCH  46  60
BRANCH  47  71
ATOM     71  C   UNL A   1      39.062  32.072  35.254  1.00  0.00     0.064 A 
ATOM     72  C   UNL A   1      39.370  33.439  35.305  1.00  0.00     0.173 A 
ATOM     73  C   UNL A   1      38.331  31.526  36.319  1.00  0.00     0.173 A 
ATOM     74  F   UNL A   1      40.091  34.000  34.325  1.00  0.00    -0.203 F 
ATOM     75  C   UNL A   1      38.986  34.224  36.392  1.00  0.00     0.198 A 
ATOM     76  C   UNL A   1      37.923  32.319  37.390  1.00  0.00     0.198 A 
ATOM     77  F   UNL A   1      38.013  30.224  36.317  1.00  0.00    -0.203 F 
ATOM     78  F   UNL A   1      39.341  35.514  36.441  1.00  0.00    -0.200 F 
ATOM     79  C   UNL A   1      38.259  33.664  37.431  1.00  0.00     0.200 A 
ATOM     80  F   UNL A   1      37.214  31.776  38.390  1.00  0.00    -0.200 F 
ATOM     81  F   UNL A   1      37.894  34.417  38.477  1.00  0.00    -0.200 F 
ENDBRANCH  47  71
BRANCH  59  82
ATOM     82  C   UNL A   1      44.828  28.304  34.255  1.00  0.00     0.064 A 
ATOM     83  C   UNL A   1      44.948  27.209  35.122  1.00  0.00     0.173 A 
ATOM     84  C   UNL A   1      45.916  29.186  34.153  1.00  0.00     0.173 A 
ATOM     85  F   UNL A   1      43.931  26.346  35.266  1.00  0.00    -0.203 F 
ATOM     86  C   UNL A   1      46.104  27.016  35.875  1.00  0.00     0.198 A 
ATOM     87  C   UNL A   1      47.080  28.974  34.887  1.00  0.00     0.198 A 
ATOM     88  F   UNL A   1      45.854  30.245  33.334  1.00  0.00    -0.203 F 
ATOM     89  F   UNL A   1      46.181  25.988  36.731  1.00  0.00    -0.200 F 
ATOM     90  C   UNL A   1      47.171  27.895  35.752  1.00  0.00     0.200 A 
ATOM     91  F   UNL A   1      48.114  29.818  34.757  1.00  0.00    -0.200 F 
ATOM     92  F   UNL A   1      48.285  27.703  36.473  1.00  0.00    -0.200 F 
ENDBRANCH  59  82
ENDBRANCH  33  34
ENDBRANCH  25  28
ENDBRANCH  23  24
ENDBRANCH  22  23
ENDBRANCH   1  22
TORSDOF 13
ENDMDL
MODEL 2
REMARK VINA RESULT:     -11.9      5.845      9.681
REMARK SMILES C[C@@H]1SCCC[C@H]1[N@H+]1CCC[C@H](CCC(=O)NCCCNC(=O)c2ccc(-c3c4nc(c(-c5c(F)c(F)c(F)c(F)c5F)c5ccc([nH]5)c(-c5c(F)c(F)c(F)c(F)c5F)c5nc(c(-c6c(F)c(F)c(F)c(F)c6F)c6ccc3[nH]6)C=C5)C=C4)cc2)C1
REMARK SMILES IDX 18 1 17 2 15 3 16 4 14 6 13 7 12 8 8 9 9 10 87 11 10 13
REMARK SMILES IDX 11 14 7 15 1 16 2 17 3 18 4 19 6 20 5 21 19 22 20 23 21 24
REMARK SMILES IDX 22 25 23 27 24 28 25 29 86 30 26 31 85 32 27 33 28 34 29 35
REMARK SMILES IDX 79 36 30 37 84 38 78 39 80 40 31 41 83 42 77 43 76 44 32 46
REMARK SMILES IDX 64 47 44 48 63 49 45 50 48 51 62 52 81 53 46 54 47 55 61 57
REMARK SMILES IDX 82 58 49 59 33 60 34 61 42 62 35 63 36 64 40 65 43 66 37 67
REMARK SMILES IDX 38 68 41 69 39 70 65 71 66 72 74 73 67 74 68 75 72 76 75 77
REMARK SMILES IDX 69 78 70 79 73 80 71 81 50 82 51 83 59 84 52 85 53 86 57 87
REMARK SMILES IDX 60 88 54 89 55 90 58 91 56 92
REMARK H PARENT 17 5 8 12 21 26 80 45 48 56
REMARK Flexibility Score: inf
ROOT
ATOM      1  C   UNL A   1      40.873  19.651  26.302  1.00  0.00     0.117 C 
ENDROOT
BRANCH   1   2
ATOM      2  N   UNL A   1      40.608  20.801  27.176  1.00  0.00    -0.356 N 
ATOM      3  C   UNL A   1      39.974  21.991  26.979  1.00  0.00     0.220 C 
ATOM      4  O   UNL A   1      40.361  22.948  27.657  1.00  0.00    -0.275 OA
ATOM      5  H   UNL A   1      40.959  20.689  28.089  1.00  0.00     0.163 HD
BRANCH   3   6
ATOM      6  C   UNL A   1      38.783  22.155  26.046  1.00  0.00     0.100 C 
BRANCH   6   7
ATOM      7  C   UNL A   1      38.116  23.547  26.111  1.00  0.00     0.019 C 
BRANCH   7   8
ATOM      8  C   UNL A   1      36.753  23.712  25.379  1.00  0.00     0.045 C 
ATOM      9  N   UNL A   1      34.280  23.080  25.705  1.00  0.00    -0.331 N 
ATOM     10  C   UNL A   1      34.286  22.399  24.427  1.00  0.00     0.262 C 
ATOM     11  C   UNL A   1      35.601  23.261  26.268  1.00  0.00     0.265 C 
ATOM     12  H   UNL A   1      33.758  22.346  26.185  1.00  0.00     0.348 HD
ATOM     13  C   UNL A   1      35.352  22.886  23.445  1.00  0.00     0.062 C 
ATOM     14  C   UNL A   1      36.745  22.914  24.068  1.00  0.00     0.015 C 
BRANCH   9  15
ATOM     15  C   UNL A   1      33.295  24.101  26.096  1.00  0.00     0.196 C 
ATOM     16  C   UNL A   1      32.708  26.582  26.062  1.00  0.00     0.026 C 
ATOM     17  C   UNL A   1      33.297  25.408  25.268  1.00  0.00     0.101 C 
ATOM     18  S   UNL A   1      32.442  25.233  23.662  1.00  0.00    -0.153 SA
ATOM     19  C   UNL A   1      30.874  24.498  24.194  1.00  0.00     0.070 C 
ATOM     20  C   UNL A   1      31.882  23.543  26.353  1.00  0.00     0.067 C 
ATOM     21  C   UNL A   1      30.985  23.318  25.147  1.00  0.00     0.017 C 
ENDBRANCH   9  15
ENDBRANCH   7   8
ENDBRANCH   6   7
ENDBRANCH   3   6
ENDBRANCH   1   2
BRANCH   1  22
ATOM     22  C   UNL A   1      42.330  19.750  25.848  1.00  0.00     0.042 C 
BRANCH  22  23
ATOM     23  C   UNL A   1      43.260  18.537  25.802  1.00  0.00     0.118 C 
BRANCH  23  24
ATOM     24  N   UNL A   1      44.188  18.350  24.716  1.00  0.00    -0.352 N 
ATOM     25  C   UNL A   1      45.022  19.293  24.125  1.00  0.00     0.251 C 
ATOM     26  H   UNL A   1      44.238  17.440  24.344  1.00  0.00     0.163 HD
ATOM     27  O   UNL A   1      45.683  18.947  23.153  1.00  0.00    -0.269 OA
BRANCH  25  28
ATOM     28  C   UNL A   1      45.119  20.725  24.593  1.00  0.00     0.039 A 
ATOM     29  C   UNL A   1      44.668  21.739  23.728  1.00  0.00     0.014 A 
ATOM     30  C   UNL A   1      45.677  21.122  25.808  1.00  0.00     0.014 A 
ATOM     31  C   UNL A   1      44.745  23.098  24.089  1.00  0.00     0.010 A 
ATOM     32  C   UNL A   1      45.688  22.465  26.203  1.00  0.00     0.010 A 
ATOM     33  C   UNL A   1      45.240  23.476  25.344  1.00  0.00    -0.014 A 
BRANCH  33  34
ATOM     34  C   UNL A   1      45.359  24.900  25.777  1.00  0.00     0.031 A 
ATOM     35  C   UNL A   1      46.695  25.601  25.713  1.00  0.00     0.074 A 
ATOM     36  C   UNL A   1      44.303  25.549  26.308  1.00  0.00     0.049 A 
ATOM     37  N   UNL A   1      47.049  26.774  26.180  1.00  0.00    -0.248 NA
ATOM     38  C   UNL A   1      47.791  24.867  25.060  1.00  0.00     0.031 C 
ATOM     39  C   UNL A   1      42.959  24.996  26.462  1.00  0.00     0.029 A 
ATOM     40  N   UNL A   1      44.204  26.815  26.836  1.00  0.00    -0.354 N 
ATOM     41  C   UNL A   1      48.405  26.905  25.900  1.00  0.00     0.074 A 
ATOM     42  C   UNL A   1      48.823  25.673  25.267  1.00  0.00     0.031 C 
ATOM     43  C   UNL A   1      42.165  25.919  27.030  1.00  0.00     0.029 A 
ATOM     44  C   UNL A   1      42.953  27.116  27.319  1.00  0.00     0.049 A 
ATOM     45  H   UNL A   1      44.957  27.447  26.864  1.00  0.00     0.167 HD
ATOM     46  C   UNL A   1      49.224  27.962  26.123  1.00  0.00     0.037 A 
ATOM     47  C   UNL A   1      42.495  28.224  27.936  1.00  0.00     0.037 A 
ATOM     48  C   UNL A   1      48.810  29.206  26.717  1.00  0.00     0.049 A 
ATOM     49  C   UNL A   1      43.429  29.381  28.183  1.00  0.00     0.074 A 
ATOM     50  C   UNL A   1      49.562  30.345  26.952  1.00  0.00     0.029 A 
ATOM     51  N   UNL A   1      47.526  29.477  27.162  1.00  0.00    -0.354 N 
ATOM     52  N   UNL A   1      44.698  29.503  27.881  1.00  0.00    -0.248 NA
ATOM     53  C   UNL A   1      42.861  30.558  28.858  1.00  0.00     0.031 C 
ATOM     54  C   UNL A   1      48.739  31.297  27.565  1.00  0.00     0.029 A 
ATOM     55  C   UNL A   1      47.466  30.765  27.674  1.00  0.00     0.049 A 
ATOM     56  H   UNL A   1      46.769  28.850  27.121  1.00  0.00     0.167 HD
ATOM     57  C   UNL A   1      45.068  30.777  28.290  1.00  0.00     0.074 A 
ATOM     58  C   UNL A   1      43.888  31.396  28.856  1.00  0.00     0.031 C 
ATOM     59  C   UNL A   1      46.279  31.381  28.207  1.00  0.00     0.037 A 
BRANCH  46  60
ATOM     60  C   UNL A   1      50.661  27.828  25.705  1.00  0.00     0.064 A 
ATOM     61  C   UNL A   1      51.057  28.028  24.374  1.00  0.00     0.173 A 
ATOM     62  C   UNL A   1      51.659  27.540  26.649  1.00  0.00     0.173 A 
ATOM     63  F   UNL A   1      50.142  28.296  23.430  1.00  0.00    -0.203 F 
ATOM     64  C   UNL A   1      52.394  27.915  23.997  1.00  0.00     0.198 A 
ATOM     65  C   UNL A   1      52.998  27.459  26.274  1.00  0.00     0.198 A 
ATOM     66  F   UNL A   1      51.338  27.350  27.937  1.00  0.00    -0.203 F 
ATOM     67  F   UNL A   1      52.740  28.063  22.711  1.00  0.00    -0.200 F 
ATOM     68  C   UNL A   1      53.363  27.639  24.948  1.00  0.00     0.200 A 
ATOM     69  F   UNL A   1      53.937  27.205  27.197  1.00  0.00    -0.200 F 
ATOM     70  F   UNL A   1      54.650  27.538  24.586  1.00  0.00    -0.200 F 
ENDBRANCH  46  60
BRANCH  47  71
ATOM     71  C   UNL A   1      41.069  28.316  28.350  1.00  0.00     0.064 A 
ATOM     72  C   UNL A   1      40.114  28.894  27.501  1.00  0.00     0.173 A 
ATOM     73  C   UNL A   1      40.638  27.865  29.606  1.00  0.00     0.173 A 
ATOM     74  F   UNL A   1      40.484  29.365  26.301  1.00  0.00    -0.203 F 
ATOM     75  C   UNL A   1      38.788  29.043  27.903  1.00  0.00     0.198 A 
ATOM     76  C   UNL A   1      39.305  27.988  29.994  1.00  0.00     0.198 A 
ATOM     77  F   UNL A   1      41.512  27.305  30.455  1.00  0.00    -0.203 F 
ATOM     78  F   UNL A   1      37.910  29.649  27.094  1.00  0.00    -0.200 F 
ATOM     79  C   UNL A   1      38.383  28.585  29.147  1.00  0.00     0.200 A 
ATOM     80  F   UNL A   1      38.915  27.537  31.195  1.00  0.00    -0.200 F 
ATOM     81  F   UNL A   1      37.110  28.731  29.535  1.00  0.00    -0.200 F 
ENDBRANCH  47  71
BRANCH  59  82
ATOM     82  C   UNL A   1      46.380  32.801  28.682  1.00  0.00     0.064 A 
ATOM     83  C   UNL A   1      46.150  33.885  27.823  1.00  0.00     0.173 A 
ATOM     84  C   UNL A   1      46.673  33.078  30.026  1.00  0.00     0.173 A 
ATOM     85  F   UNL A   1      45.882  33.674  26.525  1.00  0.00    -0.203 F 
ATOM     86  C   UNL A   1      46.233  35.196  28.286  1.00  0.00     0.198 A 
ATOM     87  C   UNL A   1      46.728  34.388  30.492  1.00  0.00     0.198 A 
ATOM     88  F   UNL A   1      46.895  32.077  30.891  1.00  0.00    -0.203 F 
ATOM     89  F   UNL A   1      46.054  36.217  27.439  1.00  0.00    -0.200 F 
ATOM     90  C   UNL A   1      46.514  35.446  29.622  1.00  0.00     0.200 A 
ATOM     91  F   UNL A   1      46.988  34.628  31.786  1.00  0.00    -0.200 F 
ATOM     92  F   UNL A   1      46.587  36.708  30.067  1.00  0.00    -0.200 F 
ENDBRANCH  59  82
ENDBRANCH  33  34
ENDBRANCH  25  28
ENDBRANCH  23  24
ENDBRANCH  22  23
ENDBRANCH   1  22
TORSDOF 13
ENDMDL
MODEL 3
REMARK VINA RESULT:     -11.9      5.049     10.074
REMARK SMILES C[C@@H]1SCCC[C@H]1[N@H+]1CCC[C@H](CCC(=O)NCCCNC(=O)c2ccc(-c3c4nc(c(-c5c(F)c(F)c(F)c(F)c5F)c5ccc([nH]5)c(-c5c(F)c(F)c(F)c(F)c5F)c5nc(c(-c6c(F)c(F)c(F)c(F)c6F)c6ccc3[nH]6)C=C5)C=C4)cc2)C1
REMARK SMILES IDX 18 1 17 2 15 3 16 4 14 6 13 7 12 8 8 9 9 10 87 11 10 13
REMARK SMILES IDX 11 14 7 15 1 16 2 17 3 18 4 19 6 20 5 21 19 22 20 23 21 24
REMARK SMILES IDX 22 25 23 27 24 28 25 29 86 30 26 31 85 32 27 33 28 34 29 35
REMARK SMILES IDX 79 36 30 37 84 38 78 39 80 40 31 41 83 42 77 43 76 44 32 46
REMARK SMILES IDX 64 47 44 48 63 49 45 50 48 51 62 52 81 53 46 54 47 55 61 57
REMARK SMILES IDX 82 58 49 59 33 60 34 61 42 62 35 63 36 64 40 65 43 66 37 67
REMARK SMILES IDX 38 68 41 69 39 70 65 71 66 72 74 73 67 74 68 75 72 76 75 77
REMARK SMILES IDX 69 78 70 79 73 80 71 81 50 82 51 83 59 84 52 85 53 86 57 87
REMARK SMILES IDX 60 88 54 89 55 90 58 91 56 92
REMARK H PARENT 17 5 8 12 21 26 80 45 48 56
REMARK Flexibility Score: inf
ROOT
ATOM      1  C   UNL A   1      36.564  20.526  24.981  1.00  0.00     0.117 C 
ENDROOT
BRANCH   1   2
ATOM      2  N   UNL A   1      36.859  21.596  24.019  1.00  0.00    -0.356 N 
ATOM      3  C   UNL A   1      36.420  22.880  23.894  1.00  0.00     0.220 C 
ATOM      4  O   UNL A   1      36.385  23.349  22.752  1.00  0.00    -0.275 OA
ATOM      5  H   UNL A   1      37.503  21.331  23.323  1.00  0.00     0.163 HD
BRANCH   3   6
ATOM      6  C   UNL A   1      36.068  23.759  25.085  1.00  0.00     0.100 C 
BRANCH   6   7
ATOM      7  C   UNL A   1      34.695  23.445  25.719  1.00  0.00     0.019 C 
BRANCH   7   8
ATOM      8  C   UNL A   1      33.536  24.440  25.424  1.00  0.00     0.045 C 
ATOM      9  N   UNL A   1      32.963  26.922  25.783  1.00  0.00    -0.331 N 
ATOM     10  C   UNL A   1      31.754  26.542  26.484  1.00  0.00     0.262 C 
ATOM     11  C   UNL A   1      33.956  25.870  25.733  1.00  0.00     0.265 C 
ATOM     12  H   UNL A   1      33.215  27.654  26.448  1.00  0.00     0.348 HD
ATOM     13  C   UNL A   1      31.218  25.154  26.131  1.00  0.00     0.062 C 
ATOM     14  C   UNL A   1      32.288  24.072  26.239  1.00  0.00     0.015 C 
BRANCH   9  15
ATOM     15  C   UNL A   1      33.004  27.868  24.656  1.00  0.00     0.196 C 
ATOM     16  C   UNL A   1      34.026  28.384  22.377  1.00  0.00     0.026 C 
ATOM     17  C   UNL A   1      33.458  27.292  23.294  1.00  0.00     0.101 C 
ATOM     18  S   UNL A   1      32.134  26.367  22.437  1.00  0.00    -0.153 SA
ATOM     19  C   UNL A   1      30.782  27.572  22.509  1.00  0.00     0.070 C 
ATOM     20  C   UNL A   1      31.764  28.775  24.553  1.00  0.00     0.067 C 
ATOM     21  C   UNL A   1      30.532  28.206  23.868  1.00  0.00     0.017 C 
ENDBRANCH   9  15
ENDBRANCH   7   8
ENDBRANCH   6   7
ENDBRANCH   3   6
ENDBRANCH   1   2
BRANCH   1  22
ATOM     22  C   UNL A   1      37.770  19.585  25.000  1.00  0.00     0.042 C 
BRANCH  22  23
ATOM     23  C   UNL A   1      39.060  19.919  25.750  1.00  0.00     0.118 C 
BRANCH  23  24
ATOM     24  N   UNL A   1      40.159  18.989  25.792  1.00  0.00    -0.352 N 
ATOM     25  C   UNL A   1      41.505  19.258  26.022  1.00  0.00     0.251 C 
ATOM     26  H   UNL A   1      39.930  18.045  25.638  1.00  0.00     0.163 HD
ATOM     27  O   UNL A   1      42.298  18.328  25.936  1.00  0.00    -0.269 OA
BRANCH  25  28
ATOM     28  C   UNL A   1      42.036  20.637  26.326  1.00  0.00     0.039 A 
ATOM     29  C   UNL A   1      42.278  20.975  27.671  1.00  0.00     0.014 A 
ATOM     30  C   UNL A   1      42.253  21.628  25.369  1.00  0.00     0.014 A 
ATOM     31  C   UNL A   1      42.755  22.250  28.032  1.00  0.00     0.010 A 
ATOM     32  C   UNL A   1      42.797  22.871  25.715  1.00  0.00     0.010 A 
ATOM     33  C   UNL A   1      43.039  23.210  27.052  1.00  0.00    -0.014 A 
BRANCH  33  34
ATOM     34  C   UNL A   1      43.533  24.581  27.374  1.00  0.00     0.031 A 
ATOM     35  C   UNL A   1      42.577  25.623  27.905  1.00  0.00     0.074 A 
ATOM     36  C   UNL A   1      44.809  24.931  27.117  1.00  0.00     0.049 A 
ATOM     37  N   UNL A   1      42.763  26.906  28.101  1.00  0.00    -0.248 NA
ATOM     38  C   UNL A   1      41.218  25.162  28.232  1.00  0.00     0.031 C 
ATOM     39  C   UNL A   1      45.839  24.046  26.578  1.00  0.00     0.029 A 
ATOM     40  N   UNL A   1      45.451  26.140  27.259  1.00  0.00    -0.354 N 
ATOM     41  C   UNL A   1      41.543  27.405  28.548  1.00  0.00     0.074 A 
ATOM     42  C   UNL A   1      40.612  26.298  28.546  1.00  0.00     0.031 C 
ATOM     43  C   UNL A   1      46.986  24.733  26.448  1.00  0.00     0.029 A 
ATOM     44  C   UNL A   1      46.765  26.119  26.855  1.00  0.00     0.049 A 
ATOM     45  H   UNL A   1      45.011  26.944  27.616  1.00  0.00     0.167 HD
ATOM     46  C   UNL A   1      41.230  28.662  28.948  1.00  0.00     0.037 A 
ATOM     47  C   UNL A   1      47.682  27.105  26.806  1.00  0.00     0.037 A 
ATOM     48  C   UNL A   1      42.159  29.762  28.989  1.00  0.00     0.049 A 
ATOM     49  C   UNL A   1      47.306  28.497  27.245  1.00  0.00     0.074 A 
ATOM     50  C   UNL A   1      41.941  31.062  29.411  1.00  0.00     0.029 A 
ATOM     51  N   UNL A   1      43.487  29.686  28.600  1.00  0.00    -0.354 N 
ATOM     52  N   UNL A   1      46.161  28.944  27.698  1.00  0.00    -0.248 NA
ATOM     53  C   UNL A   1      48.358  29.523  27.168  1.00  0.00     0.031 C 
ATOM     54  C   UNL A   1      43.131  31.782  29.252  1.00  0.00     0.029 A 
ATOM     55  C   UNL A   1      44.099  30.918  28.770  1.00  0.00     0.049 A 
ATOM     56  H   UNL A   1      43.930  28.878  28.256  1.00  0.00     0.167 HD
ATOM     57  C   UNL A   1      46.364  30.286  27.994  1.00  0.00     0.074 A 
ATOM     58  C   UNL A   1      47.745  30.581  27.679  1.00  0.00     0.031 C 
ATOM     59  C   UNL A   1      45.483  31.193  28.482  1.00  0.00     0.037 A 
BRANCH  46  60
ATOM     60  C   UNL A   1      39.819  28.918  29.394  1.00  0.00     0.064 A 
ATOM     61  C   UNL A   1      38.836  29.361  28.496  1.00  0.00     0.173 A 
ATOM     62  C   UNL A   1      39.432  28.677  30.722  1.00  0.00     0.173 A 
ATOM     63  F   UNL A   1      39.155  29.616  27.218  1.00  0.00    -0.203 F 
ATOM     64  C   UNL A   1      37.526  29.583  28.917  1.00  0.00     0.198 A 
ATOM     65  C   UNL A   1      38.114  28.870  31.131  1.00  0.00     0.198 A 
ATOM     66  F   UNL A   1      40.328  28.242  31.620  1.00  0.00    -0.203 F 
ATOM     67  F   UNL A   1      36.618  30.054  28.051  1.00  0.00    -0.200 F 
ATOM     68  C   UNL A   1      37.165  29.330  30.231  1.00  0.00     0.200 A 
ATOM     69  F   UNL A   1      37.763  28.611  32.399  1.00  0.00    -0.200 F 
ATOM     70  F   UNL A   1      35.903  29.537  30.632  1.00  0.00    -0.200 F 
ENDBRANCH  46  60
BRANCH  47  71
ATOM     71  C   UNL A   1      49.067  26.818  26.344  1.00  0.00     0.064 A 
ATOM     72  C   UNL A   1      49.421  26.991  24.998  1.00  0.00     0.173 A 
ATOM     73  C   UNL A   1      50.048  26.334  27.220  1.00  0.00     0.173 A 
ATOM     74  F   UNL A   1      48.509  27.425  24.116  1.00  0.00    -0.203 F 
ATOM     75  C   UNL A   1      50.697  26.666  24.541  1.00  0.00     0.198 A 
ATOM     76  C   UNL A   1      51.332  26.036  26.767  1.00  0.00     0.198 A 
ATOM     77  F   UNL A   1      49.760  26.149  28.516  1.00  0.00    -0.203 F 
ATOM     78  F   UNL A   1      50.990  26.788  23.239  1.00  0.00    -0.200 F 
ATOM     79  C   UNL A   1      51.653  26.193  25.426  1.00  0.00     0.200 A 
ATOM     80  F   UNL A   1      52.257  25.587  27.627  1.00  0.00    -0.200 F 
ATOM     81  F   UNL A   1      52.878  25.876  24.986  1.00  0.00    -0.200 F 
ENDBRANCH  47  71
BRANCH  59  82
ATOM     82  C   UNL A   1      45.995  32.575  28.765  1.00  0.00     0.064 A 
ATOM     83  C   UNL A   1      45.940  33.594  27.804  1.00  0.00     0.173 A 
ATOM     84  C   UNL A   1      46.513  32.892  30.031  1.00  0.00     0.173 A 
ATOM     85  F   UNL A   1      45.468  33.339  26.574  1.00  0.00    -0.203 F 
ATOM     86  C   UNL A   1      46.406  34.875  28.092  1.00  0.00     0.198 A 
ATOM     87  C   UNL A   1      46.952  34.180  30.324  1.00  0.00     0.198 A 
ATOM     88  F   UNL A   1      46.582  31.955  30.987  1.00  0.00    -0.203 F 
ATOM     89  F   UNL A   1      46.384  35.823  27.145  1.00  0.00    -0.200 F 
ATOM     90  C   UNL A   1      46.904  35.169  29.353  1.00  0.00     0.200 A 
ATOM     91  F   UNL A   1      47.422  34.464  31.546  1.00  0.00    -0.200 F 
ATOM     92  F   UNL A   1      47.345  36.404  29.630  1.00  0.00    -0.200 F 
ENDBRANCH  59  82
ENDBRANCH  33  34
ENDBRANCH  25  28
ENDBRANCH  23  24
ENDBRANCH  22  23
ENDBRANCH   1  22
TORSDOF 13
ENDMDL
