MODEL 1
REMARK VINA RESULT:      -9.8      0.000      0.000
REMARK SMILES CS(=O)(=O)c1ccc(/C=C(/C(=O)NCCCNC(=O)c2ccc(-c3c4nc(c(-c5c(F)c(F)c(F)c(F)c5F)c5ccc([nH]5)c(-c5c(F)c(F)c(F)c(F)c5F)c5nc(c(-c6c(F)c(F)c(F)c(F)c6F)c6ccc3[nH]6)C=C5)C=C4)cc2)c2cccc(Br)c2)cc1
REMARK SMILES IDX 15 1 14 2 13 3 11 4 12 5 10 7 9 8 8 9 5 10 6 11 91 12 7 13
REMARK SMILES IDX 90 14 2 15 1 16 3 17 4 18 83 19 84 20 89 21 85 22 87 23
REMARK SMILES IDX 86 24 88 25 16 26 17 27 18 28 19 30 20 31 21 32 82 33 22 34
REMARK SMILES IDX 81 35 23 36 24 37 25 38 75 39 26 40 80 41 74 42 76 43 27 44
REMARK SMILES IDX 79 45 73 46 72 47 28 49 60 50 40 51 59 52 41 53 44 54 58 55
REMARK SMILES IDX 77 56 42 57 43 58 57 60 78 61 45 62 29 63 30 64 38 65 31 66
REMARK SMILES IDX 32 67 36 68 39 69 33 70 34 71 37 72 35 73 61 74 62 75 70 76
REMARK SMILES IDX 63 77 64 78 68 79 71 80 65 81 66 82 69 83 67 84 46 85 47 86
REMARK SMILES IDX 55 87 48 88 49 89 53 90 56 91 50 92 51 93 54 94 52 95
REMARK H PARENT 13 6 17 29 76 48 44 59
REMARK Flexibility Score: inf
ROOT
ATOM      1  C   UNL A   1      34.721  33.092  30.417  1.00  0.00     0.042 C 
ENDROOT
BRANCH   1   2
ATOM      2  C   UNL A   1      35.154  32.065  31.465  1.00  0.00     0.118 C 
BRANCH   2   3
ATOM      3  N   UNL A   1      35.206  32.670  32.783  1.00  0.00    -0.352 N 
ATOM      4  C   UNL A   1      36.131  32.703  33.778  1.00  0.00     0.251 C 
ATOM      5  O   UNL A   1      35.790  33.300  34.802  1.00  0.00    -0.269 OA
ATOM      6  H   UNL A   1      34.388  33.169  33.006  1.00  0.00     0.163 HD
BRANCH   4   7
ATOM      7  C   UNL A   1      37.526  32.134  33.649  1.00  0.00     0.047 C 
ATOM      8  C   UNL A   1      37.843  30.911  34.134  1.00  0.00     0.022 C 
BRANCH   8   9
ATOM      9  C   UNL A   1      39.099  30.139  34.004  1.00  0.00    -0.025 A 
ATOM     10  C   UNL A   1      41.470  28.715  33.515  1.00  0.00     0.067 A 
ATOM     11  C   UNL A   1      41.401  29.601  34.589  1.00  0.00     0.021 A 
ATOM     12  C   UNL A   1      40.357  28.503  32.700  1.00  0.00     0.021 A 
ATOM     13  C   UNL A   1      40.209  30.287  34.846  1.00  0.00     0.009 A 
ATOM     14  C   UNL A   1      39.179  29.210  32.952  1.00  0.00     0.009 A 
BRANCH  10  15
ATOM     15  S   UNL A   1      42.995  27.884  33.138  1.00  0.00     0.175 S 
ATOM     16  C   UNL A   1      43.025  26.511  34.259  1.00  0.00     0.163 C 
ATOM     17  O   UNL A   1      44.084  28.771  33.508  1.00  0.00    -0.224 OA
ATOM     18  O   UNL A   1      42.874  27.370  31.789  1.00  0.00    -0.224 OA
ENDBRANCH  10  15
ENDBRANCH   8   9
BRANCH   7  19
ATOM     19  C   UNL A   1      38.574  33.047  33.120  1.00  0.00    -0.012 A 
ATOM     20  C   UNL A   1      39.643  33.405  33.962  1.00  0.00     0.009 A 
ATOM     21  C   UNL A   1      38.580  33.495  31.793  1.00  0.00     0.024 A 
ATOM     22  C   UNL A   1      40.707  34.171  33.489  1.00  0.00     0.002 A 
ATOM     23  C   UNL A   1      39.664  34.240  31.319  1.00  0.00     0.018 A 
ATOM     24  C   UNL A   1      40.726  34.578  32.159  1.00  0.00     0.016 A 
ATOM     25  Br  UNL A   1      39.719  34.756  29.501  1.00  0.00    -0.051 Br
ENDBRANCH   7  19
ENDBRANCH   4   7
ENDBRANCH   2   3
ENDBRANCH   1   2
BRANCH   1  26
ATOM     26  C   UNL A   1      35.141  32.727  28.990  1.00  0.00     0.118 C 
BRANCH  26  27
ATOM     27  N   UNL A   1      34.403  31.584  28.475  1.00  0.00    -0.352 N 
ATOM     28  C   UNL A   1      34.851  30.359  28.049  1.00  0.00     0.251 C 
ATOM     29  H   UNL A   1      33.428  31.709  28.424  1.00  0.00     0.163 HD
ATOM     30  O   UNL A   1      34.088  29.613  27.443  1.00  0.00    -0.269 OA
BRANCH  28  31
ATOM     31  C   UNL A   1      36.244  29.929  28.303  1.00  0.00     0.039 A 
ATOM     32  C   UNL A   1      37.188  30.078  27.283  1.00  0.00     0.014 A 
ATOM     33  C   UNL A   1      36.612  29.328  29.510  1.00  0.00     0.014 A 
ATOM     34  C   UNL A   1      38.509  29.674  27.489  1.00  0.00     0.010 A 
ATOM     35  C   UNL A   1      37.944  28.984  29.739  1.00  0.00     0.010 A 
ATOM     36  C   UNL A   1      38.905  29.150  28.730  1.00  0.00    -0.014 A 
BRANCH  36  37
ATOM     37  C   UNL A   1      40.317  28.766  28.987  1.00  0.00     0.031 A 
ATOM     38  C   UNL A   1      41.261  29.738  29.642  1.00  0.00     0.074 A 
ATOM     39  C   UNL A   1      40.765  27.564  28.576  1.00  0.00     0.049 A 
ATOM     40  N   UNL A   1      42.544  29.618  29.874  1.00  0.00    -0.248 NA
ATOM     41  C   UNL A   1      40.690  31.024  30.071  1.00  0.00     0.031 C 
ATOM     42  C   UNL A   1      39.958  26.550  27.896  1.00  0.00     0.029 A 
ATOM     43  N   UNL A   1      42.012  26.996  28.657  1.00  0.00    -0.354 N 
ATOM     44  C   UNL A   1      42.935  30.815  30.458  1.00  0.00     0.074 A 
ATOM     45  C   UNL A   1      41.766  31.666  30.504  1.00  0.00     0.031 C 
ATOM     46  C   UNL A   1      40.725  25.479  27.635  1.00  0.00     0.029 A 
ATOM     47  C   UNL A   1      42.085  25.744  28.094  1.00  0.00     0.049 A 
ATOM     48  H   UNL A   1      42.781  27.443  29.078  1.00  0.00     0.167 HD
ATOM     49  C   UNL A   1      44.156  31.164  30.935  1.00  0.00     0.037 A 
ATOM     50  C   UNL A   1      43.133  24.911  27.954  1.00  0.00     0.037 A 
ATOM     51  C   UNL A   1      45.311  30.305  30.912  1.00  0.00     0.049 A 
ATOM     52  C   UNL A   1      44.479  25.328  28.486  1.00  0.00     0.074 A 
ATOM     53  C   UNL A   1      46.576  30.548  31.417  1.00  0.00     0.029 A 
ATOM     54  N   UNL A   1      45.339  29.036  30.354  1.00  0.00    -0.354 N 
ATOM     55  N   UNL A   1      44.821  26.438  29.092  1.00  0.00    -0.248 NA
ATOM     56  C   UNL A   1      45.581  24.370  28.320  1.00  0.00     0.031 C 
ATOM     57  C   UNL A   1      47.382  29.442  31.127  1.00  0.00     0.029 A 
ATOM     58  C   UNL A   1      46.605  28.490  30.486  1.00  0.00     0.049 A 
ATOM     59  H   UNL A   1      44.573  28.589  29.927  1.00  0.00     0.167 HD
ATOM     60  C   UNL A   1      46.167  26.301  29.406  1.00  0.00     0.074 A 
ATOM     61  C   UNL A   1      46.574  24.993  28.937  1.00  0.00     0.031 C 
ATOM     62  C   UNL A   1      46.991  27.181  30.027  1.00  0.00     0.037 A 
BRANCH  49  63
ATOM     63  C   UNL A   1      44.305  32.535  31.529  1.00  0.00     0.064 A 
ATOM     64  C   UNL A   1      44.104  32.769  32.897  1.00  0.00     0.173 A 
ATOM     65  C   UNL A   1      44.705  33.619  30.731  1.00  0.00     0.173 A 
ATOM     66  F   UNL A   1      43.713  31.770  33.703  1.00  0.00    -0.203 F 
ATOM     67  C   UNL A   1      44.271  34.040  33.441  1.00  0.00     0.198 A 
ATOM     68  C   UNL A   1      44.900  34.882  31.283  1.00  0.00     0.198 A 
ATOM     69  F   UNL A   1      44.918  33.450  29.418  1.00  0.00    -0.203 F 
ATOM     70  F   UNL A   1      44.030  34.248  34.743  1.00  0.00    -0.200 F 
ATOM     71  C   UNL A   1      44.677  35.094  32.635  1.00  0.00     0.200 A 
ATOM     72  F   UNL A   1      45.305  35.897  30.506  1.00  0.00    -0.200 F 
ATOM     73  F   UNL A   1      44.847  36.314  33.162  1.00  0.00    -0.200 F 
ENDBRANCH  49  63
BRANCH  50  74
ATOM     74  C   UNL A   1      42.952  23.590  27.298  1.00  0.00     0.064 A 
ATOM     75  C   UNL A   1      43.385  23.376  25.981  1.00  0.00     0.173 A 
ATOM     76  C   UNL A   1      42.331  22.522  27.962  1.00  0.00     0.173 A 
ATOM     77  F   UNL A   1      43.966  24.373  25.298  1.00  0.00    -0.203 F 
ATOM     78  C   UNL A   1      43.181  22.152  25.346  1.00  0.00     0.198 A 
ATOM     79  C   UNL A   1      42.155  21.290  27.335  1.00  0.00     0.198 A 
ATOM     80  F   UNL A   1      41.904  22.672  29.224  1.00  0.00    -0.203 F 
ATOM     81  F   UNL A   1      43.560  21.992  24.071  1.00  0.00    -0.200 F 
ATOM     82  C   UNL A   1      42.571  21.109  26.025  1.00  0.00     0.200 A 
ATOM     83  F   UNL A   1      41.579  20.279  28.001  1.00  0.00    -0.200 F 
ATOM     84  F   UNL A   1      42.377  19.932  25.415  1.00  0.00    -0.200 F 
ENDBRANCH  50  74
BRANCH  62  85
ATOM     85  C   UNL A   1      48.405  26.742  30.273  1.00  0.00     0.064 A 
ATOM     86  C   UNL A   1      49.445  27.078  29.393  1.00  0.00     0.173 A 
ATOM     87  C   UNL A   1      48.728  26.008  31.424  1.00  0.00     0.173 A 
ATOM     88  F   UNL A   1      49.183  27.764  28.270  1.00  0.00    -0.203 F 
ATOM     89  C   UNL A   1      50.753  26.672  29.645  1.00  0.00     0.198 A 
ATOM     90  C   UNL A   1      50.042  25.631  31.688  1.00  0.00     0.198 A 
ATOM     91  F   UNL A   1      47.772  25.667  32.300  1.00  0.00    -0.203 F 
ATOM     92  F   UNL A   1      51.722  26.963  28.766  1.00  0.00    -0.200 F 
ATOM     93  C   UNL A   1      51.052  25.957  30.794  1.00  0.00     0.200 A 
ATOM     94  F   UNL A   1      50.331  24.951  32.806  1.00  0.00    -0.200 F 
ATOM     95  F   UNL A   1      52.313  25.574  31.038  1.00  0.00    -0.200 F 
ENDBRANCH  62  85
ENDBRANCH  36  37
ENDBRANCH  28  31
ENDBRANCH  26  27
ENDBRANCH   1  26
TORSDOF 13
ENDMDL
MODEL 2
REMARK VINA RESULT:      -9.7      0.931      1.627
REMARK SMILES CS(=O)(=O)c1ccc(/C=C(/C(=O)NCCCNC(=O)c2ccc(-c3c4nc(c(-c5c(F)c(F)c(F)c(F)c5F)c5ccc([nH]5)c(-c5c(F)c(F)c(F)c(F)c5F)c5nc(c(-c6c(F)c(F)c(F)c(F)c6F)c6ccc3[nH]6)C=C5)C=C4)cc2)c2cccc(Br)c2)cc1
REMARK SMILES IDX 15 1 14 2 13 3 11 4 12 5 10 7 9 8 8 9 5 10 6 11 91 12 7 13
REMARK SMILES IDX 90 14 2 15 1 16 3 17 4 18 83 19 84 20 89 21 85 22 87 23
REMARK SMILES IDX 86 24 88 25 16 26 17 27 18 28 19 30 20 31 21 32 82 33 22 34
REMARK SMILES IDX 81 35 23 36 24 37 25 38 75 39 26 40 80 41 74 42 76 43 27 44
REMARK SMILES IDX 79 45 73 46 72 47 28 49 60 50 40 51 59 52 41 53 44 54 58 55
REMARK SMILES IDX 77 56 42 57 43 58 57 60 78 61 45 62 29 63 30 64 38 65 31 66
REMARK SMILES IDX 32 67 36 68 39 69 33 70 34 71 37 72 35 73 61 74 62 75 70 76
REMARK SMILES IDX 63 77 64 78 68 79 71 80 65 81 66 82 69 83 67 84 46 85 47 86
REMARK SMILES IDX 55 87 48 88 49 89 53 90 56 91 50 92 51 93 54 94 52 95
REMARK H PARENT 13 6 17 29 76 48 44 59
REMARK Flexibility Score: inf
ROOT
ATOM      1  C   UNL A   1      34.489  32.712  30.358  1.00  0.00     0.042 C 
ENDROOT
BRANCH   1   2
ATOM      2  C   UNL A   1      35.781  32.670  31.176  1.00  0.00     0.118 C 
BRANCH   2   3
ATOM      3  N   UNL A   1      35.519  33.010  32.562  1.00  0.00    -0.352 N 
ATOM      4  C   UNL A   1      36.185  32.815  33.731  1.00  0.00     0.251 C 
ATOM      5  O   UNL A   1      35.610  33.218  34.745  1.00  0.00    -0.269 OA
ATOM      6  H   UNL A   1      34.669  33.490  32.683  1.00  0.00     0.163 HD
BRANCH   4   7
ATOM      7  C   UNL A   1      37.575  32.224  33.819  1.00  0.00     0.047 C 
ATOM      8  C   UNL A   1      37.778  30.887  33.865  1.00  0.00     0.022 C 
BRANCH   8   9
ATOM      9  C   UNL A   1      39.044  30.122  33.833  1.00  0.00    -0.025 A 
ATOM     10  C   UNL A   1      41.425  28.664  33.525  1.00  0.00     0.067 A 
ATOM     11  C   UNL A   1      41.376  29.735  34.417  1.00  0.00     0.021 A 
ATOM     12  C   UNL A   1      40.288  28.287  32.809  1.00  0.00     0.021 A 
ATOM     13  C   UNL A   1      40.180  30.440  34.588  1.00  0.00     0.009 A 
ATOM     14  C   UNL A   1      39.105  29.013  32.970  1.00  0.00     0.009 A 
BRANCH  10  15
ATOM     15  S   UNL A   1      42.953  27.798  33.250  1.00  0.00     0.175 S 
ATOM     16  C   UNL A   1      42.879  26.429  34.374  1.00  0.00     0.163 C 
ATOM     17  O   UNL A   1      44.034  28.662  33.688  1.00  0.00    -0.224 OA
ATOM     18  O   UNL A   1      42.908  27.281  31.897  1.00  0.00    -0.224 OA
ENDBRANCH  10  15
ENDBRANCH   8   9
BRANCH   7  19
ATOM     19  C   UNL A   1      38.695  33.180  34.027  1.00  0.00    -0.012 A 
ATOM     20  C   UNL A   1      39.451  33.585  32.912  1.00  0.00     0.009 A 
ATOM     21  C   UNL A   1      38.969  33.755  35.274  1.00  0.00     0.024 A 
ATOM     22  C   UNL A   1      40.443  34.557  33.028  1.00  0.00     0.002 A 
ATOM     23  C   UNL A   1      39.947  34.749  35.378  1.00  0.00     0.018 A 
ATOM     24  C   UNL A   1      40.682  35.153  34.263  1.00  0.00     0.016 A 
ATOM     25  Br  UNL A   1      40.245  35.596  37.042  1.00  0.00    -0.051 Br
ENDBRANCH   7  19
ENDBRANCH   4   7
ENDBRANCH   2   3
ENDBRANCH   1   2
BRANCH   1  26
ATOM     26  C   UNL A   1      34.707  32.526  28.854  1.00  0.00     0.118 C 
BRANCH  26  27
ATOM     27  N   UNL A   1      34.073  31.318  28.352  1.00  0.00    -0.352 N 
ATOM     28  C   UNL A   1      34.625  30.126  27.954  1.00  0.00     0.251 C 
ATOM     29  H   UNL A   1      33.091  31.361  28.287  1.00  0.00     0.163 HD
ATOM     30  O   UNL A   1      33.934  29.310  27.352  1.00  0.00    -0.269 OA
BRANCH  28  31
ATOM     31  C   UNL A   1      36.045  29.816  28.231  1.00  0.00     0.039 A 
ATOM     32  C   UNL A   1      36.390  29.328  29.496  1.00  0.00     0.014 A 
ATOM     33  C   UNL A   1      37.042  30.057  27.283  1.00  0.00     0.014 A 
ATOM     34  C   UNL A   1      37.723  29.034  29.791  1.00  0.00     0.010 A 
ATOM     35  C   UNL A   1      38.363  29.703  27.555  1.00  0.00     0.010 A 
ATOM     36  C   UNL A   1      38.717  29.191  28.813  1.00  0.00    -0.014 A 
BRANCH  36  37
ATOM     37  C   UNL A   1      40.132  28.831  29.090  1.00  0.00     0.031 A 
ATOM     38  C   UNL A   1      41.038  29.802  29.796  1.00  0.00     0.074 A 
ATOM     39  C   UNL A   1      40.616  27.654  28.651  1.00  0.00     0.049 A 
ATOM     40  N   UNL A   1      42.318  29.704  30.053  1.00  0.00    -0.248 NA
ATOM     41  C   UNL A   1      40.429  31.062  30.252  1.00  0.00     0.031 C 
ATOM     42  C   UNL A   1      39.848  26.644  27.921  1.00  0.00     0.029 A 
ATOM     43  N   UNL A   1      41.874  27.111  28.743  1.00  0.00    -0.354 N 
ATOM     44  C   UNL A   1      42.669  30.891  30.684  1.00  0.00     0.074 A 
ATOM     45  C   UNL A   1      41.480  31.713  30.730  1.00  0.00     0.031 C 
ATOM     46  C   UNL A   1      40.645  25.599  27.645  1.00  0.00     0.029 A 
ATOM     47  C   UNL A   1      41.989  25.880  28.143  1.00  0.00     0.049 A 
ATOM     48  H   UNL A   1      42.623  27.561  29.195  1.00  0.00     0.167 HD
ATOM     49  C   UNL A   1      43.870  31.251  31.199  1.00  0.00     0.037 A 
ATOM     50  C   UNL A   1      43.058  25.076  28.001  1.00  0.00     0.037 A 
ATOM     51  C   UNL A   1      45.045  30.420  31.175  1.00  0.00     0.049 A 
ATOM     52  C   UNL A   1      44.382  25.504  28.576  1.00  0.00     0.074 A 
ATOM     53  C   UNL A   1      46.293  30.674  31.716  1.00  0.00     0.029 A 
ATOM     54  N   UNL A   1      45.115  29.170  30.578  1.00  0.00    -0.354 N 
ATOM     55  N   UNL A   1      44.685  26.603  29.224  1.00  0.00    -0.248 NA
ATOM     56  C   UNL A   1      45.509  24.578  28.405  1.00  0.00     0.031 C 
ATOM     57  C   UNL A   1      47.131  29.596  31.410  1.00  0.00     0.029 A 
ATOM     58  C   UNL A   1      46.390  28.648  30.722  1.00  0.00     0.049 A 
ATOM     59  H   UNL A   1      44.369  28.720  30.120  1.00  0.00     0.167 HD
ATOM     60  C   UNL A   1      46.026  26.486  29.564  1.00  0.00     0.074 A 
ATOM     61  C   UNL A   1      46.474  25.203  29.064  1.00  0.00     0.031 C 
ATOM     62  C   UNL A   1      46.816  27.363  30.230  1.00  0.00     0.037 A 
BRANCH  49  63
ATOM     63  C   UNL A   1      43.976  32.605  31.838  1.00  0.00     0.064 A 
ATOM     64  C   UNL A   1      43.902  32.769  33.230  1.00  0.00     0.173 A 
ATOM     65  C   UNL A   1      44.204  33.749  31.057  1.00  0.00     0.173 A 
ATOM     66  F   UNL A   1      43.676  31.709  34.023  1.00  0.00    -0.203 F 
ATOM     67  C   UNL A   1      44.026  34.026  33.813  1.00  0.00     0.198 A 
ATOM     68  C   UNL A   1      44.358  35.001  31.645  1.00  0.00     0.198 A 
ATOM     69  F   UNL A   1      44.290  33.649  29.722  1.00  0.00    -0.203 F 
ATOM     70  F   UNL A   1      43.908  34.162  35.141  1.00  0.00    -0.200 F 
ATOM     71  C   UNL A   1      44.262  35.141  33.021  1.00  0.00     0.200 A 
ATOM     72  F   UNL A   1      44.599  36.075  30.880  1.00  0.00    -0.200 F 
ATOM     73  F   UNL A   1      44.392  36.349  33.585  1.00  0.00    -0.200 F 
ENDBRANCH  49  63
BRANCH  50  74
ATOM     74  C   UNL A   1      42.922  23.773  27.299  1.00  0.00     0.064 A 
ATOM     75  C   UNL A   1      42.421  22.645  27.965  1.00  0.00     0.173 A 
ATOM     76  C   UNL A   1      43.304  23.621  25.957  1.00  0.00     0.173 A 
ATOM     77  F   UNL A   1      42.062  22.735  29.254  1.00  0.00    -0.203 F 
ATOM     78  C   UNL A   1      42.330  21.411  27.324  1.00  0.00     0.198 A 
ATOM     79  C   UNL A   1      43.183  22.393  25.309  1.00  0.00     0.198 A 
ATOM     80  F   UNL A   1      43.784  24.669  25.272  1.00  0.00    -0.203 F 
ATOM     81  F   UNL A   1      41.894  20.339  28.001  1.00  0.00    -0.200 F 
ATOM     82  C   UNL A   1      42.706  21.287  25.996  1.00  0.00     0.200 A 
ATOM     83  F   UNL A   1      43.533  22.281  24.020  1.00  0.00    -0.200 F 
ATOM     84  F   UNL A   1      42.616  20.101  25.379  1.00  0.00    -0.200 F 
ENDBRANCH  50  74
BRANCH  62  85
ATOM     85  C   UNL A   1      48.234  26.948  30.494  1.00  0.00     0.064 A 
ATOM     86  C   UNL A   1      49.285  27.337  29.651  1.00  0.00     0.173 A 
ATOM     87  C   UNL A   1      48.549  26.183  31.629  1.00  0.00     0.173 A 
ATOM     88  F   UNL A   1      49.033  28.054  28.545  1.00  0.00    -0.203 F 
ATOM     89  C   UNL A   1      50.597  26.953  29.920  1.00  0.00     0.198 A 
ATOM     90  C   UNL A   1      49.864  25.827  31.910  1.00  0.00     0.198 A 
ATOM     91  F   UNL A   1      47.581  25.791  32.470  1.00  0.00    -0.203 F 
ATOM     92  F   UNL A   1      51.578  27.295  29.073  1.00  0.00    -0.200 F 
ATOM     93  C   UNL A   1      50.886  26.206  31.052  1.00  0.00     0.200 A 
ATOM     94  F   UNL A   1      50.144  25.117  33.011  1.00  0.00    -0.200 F 
ATOM     95  F   UNL A   1      52.150  25.844  31.311  1.00  0.00    -0.200 F 
ENDBRANCH  62  85
ENDBRANCH  36  37
ENDBRANCH  28  31
ENDBRANCH  26  27
ENDBRANCH   1  26
TORSDOF 13
ENDMDL
MODEL 3
REMARK VINA RESULT:      -9.6      4.871     10.674
REMARK SMILES CS(=O)(=O)c1ccc(/C=C(/C(=O)NCCCNC(=O)c2ccc(-c3c4nc(c(-c5c(F)c(F)c(F)c(F)c5F)c5ccc([nH]5)c(-c5c(F)c(F)c(F)c(F)c5F)c5nc(c(-c6c(F)c(F)c(F)c(F)c6F)c6ccc3[nH]6)C=C5)C=C4)cc2)c2cccc(Br)c2)cc1
REMARK SMILES IDX 15 1 14 2 13 3 11 4 12 5 10 7 9 8 8 9 5 10 6 11 91 12 7 13
REMARK SMILES IDX 90 14 2 15 1 16 3 17 4 18 83 19 84 20 89 21 85 22 87 23
REMARK SMILES IDX 86 24 88 25 16 26 17 27 18 28 19 30 20 31 21 32 82 33 22 34
REMARK SMILES IDX 81 35 23 36 24 37 25 38 75 39 26 40 80 41 74 42 76 43 27 44
REMARK SMILES IDX 79 45 73 46 72 47 28 49 60 50 40 51 59 52 41 53 44 54 58 55
REMARK SMILES IDX 77 56 42 57 43 58 57 60 78 61 45 62 29 63 30 64 38 65 31 66
REMARK SMILES IDX 32 67 36 68 39 69 33 70 34 71 37 72 35 73 61 74 62 75 70 76
REMARK SMILES IDX 63 77 64 78 68 79 71 80 65 81 66 82 69 83 67 84 46 85 47 86
REMARK SMILES IDX 55 87 48 88 49 89 53 90 56 91 50 92 51 93 54 94 52 95
REMARK H PARENT 13 6 17 29 76 48 44 59
REMARK Flexibility Score: inf
ROOT
ATOM      1  C   UNL A   1      35.722  23.327  24.729  1.00  0.00     0.042 C 
ENDROOT
BRANCH   1   2
ATOM      2  C   UNL A   1      34.580  24.340  24.621  1.00  0.00     0.118 C 
BRANCH   2   3
ATOM      3  N   UNL A   1      33.625  24.150  25.697  1.00  0.00    -0.352 N 
ATOM      4  C   UNL A   1      32.569  24.864  26.168  1.00  0.00     0.251 C 
ATOM      5  O   UNL A   1      32.005  24.391  27.158  1.00  0.00    -0.269 OA
ATOM      6  H   UNL A   1      33.775  23.316  26.197  1.00  0.00     0.163 HD
BRANCH   4   7
ATOM      7  C   UNL A   1      32.035  26.114  25.503  1.00  0.00     0.047 C 
ATOM      8  C   UNL A   1      31.247  26.054  24.405  1.00  0.00     0.022 C 
BRANCH   8   9
ATOM      9  C   UNL A   1      30.539  27.140  23.690  1.00  0.00    -0.025 A 
ATOM     10  C   UNL A   1      29.058  29.229  22.538  1.00  0.00     0.067 A 
ATOM     11  C   UNL A   1      30.441  29.182  22.369  1.00  0.00     0.021 A 
ATOM     12  C   UNL A   1      28.397  28.225  23.247  1.00  0.00     0.021 A 
ATOM     13  C   UNL A   1      31.171  28.124  22.921  1.00  0.00     0.009 A 
ATOM     14  C   UNL A   1      29.139  27.185  23.813  1.00  0.00     0.009 A 
BRANCH  10  15
ATOM     15  S   UNL A   1      28.124  30.600  21.898  1.00  0.00     0.175 S 
ATOM     16  C   UNL A   1      29.198  31.993  22.124  1.00  0.00     0.163 C 
ATOM     17  O   UNL A   1      26.974  30.793  22.762  1.00  0.00    -0.224 OA
ATOM     18  O   UNL A   1      27.964  30.374  20.476  1.00  0.00    -0.224 OA
ENDBRANCH  10  15
ENDBRANCH   8   9
BRANCH   7  19
ATOM     19  C   UNL A   1      32.556  27.412  26.008  1.00  0.00    -0.012 A 
ATOM     20  C   UNL A   1      33.925  27.517  26.313  1.00  0.00     0.009 A 
ATOM     21  C   UNL A   1      31.752  28.555  26.109  1.00  0.00     0.024 A 
ATOM     22  C   UNL A   1      34.489  28.735  26.688  1.00  0.00     0.002 A 
ATOM     23  C   UNL A   1      32.329  29.779  26.460  1.00  0.00     0.018 A 
ATOM     24  C   UNL A   1      33.691  29.874  26.747  1.00  0.00     0.016 A 
ATOM     25  Br  UNL A   1      31.262  31.339  26.496  1.00  0.00    -0.051 Br
ENDBRANCH   7  19
ENDBRANCH   4   7
ENDBRANCH   2   3
ENDBRANCH   1   2
BRANCH   1  26
ATOM     26  C   UNL A   1      36.483  23.398  26.056  1.00  0.00     0.118 C 
BRANCH  26  27
ATOM     27  N   UNL A   1      37.642  22.520  26.072  1.00  0.00    -0.352 N 
ATOM     28  C   UNL A   1      38.965  22.802  26.303  1.00  0.00     0.251 C 
ATOM     29  H   UNL A   1      37.447  21.572  25.889  1.00  0.00     0.163 HD
ATOM     30  O   UNL A   1      39.817  21.955  26.052  1.00  0.00    -0.269 OA
BRANCH  28  31
ATOM     31  C   UNL A   1      39.379  24.116  26.841  1.00  0.00     0.039 A 
ATOM     32  C   UNL A   1      39.069  24.425  28.169  1.00  0.00     0.014 A 
ATOM     33  C   UNL A   1      40.014  25.066  26.036  1.00  0.00     0.014 A 
ATOM     34  C   UNL A   1      39.439  25.661  28.704  1.00  0.00     0.010 A 
ATOM     35  C   UNL A   1      40.441  26.273  26.587  1.00  0.00     0.010 A 
ATOM     36  C   UNL A   1      40.155  26.585  27.925  1.00  0.00    -0.014 A 
BRANCH  36  37
ATOM     37  C   UNL A   1      40.606  27.882  28.493  1.00  0.00     0.031 A 
ATOM     38  C   UNL A   1      42.050  28.087  28.862  1.00  0.00     0.074 A 
ATOM     39  C   UNL A   1      39.704  28.852  28.732  1.00  0.00     0.049 A 
ATOM     40  N   UNL A   1      42.618  29.113  29.444  1.00  0.00    -0.248 NA
ATOM     41  C   UNL A   1      42.973  26.982  28.559  1.00  0.00     0.031 C 
ATOM     42  C   UNL A   1      38.270  28.760  28.453  1.00  0.00     0.029 A 
ATOM     43  N   UNL A   1      39.856  30.104  29.276  1.00  0.00    -0.354 N 
ATOM     44  C   UNL A   1      43.956  28.772  29.590  1.00  0.00     0.074 A 
ATOM     45  C   UNL A   1      44.108  27.427  29.079  1.00  0.00     0.031 C 
ATOM     46  C   UNL A   1      37.677  29.909  28.814  1.00  0.00     0.029 A 
ATOM     47  C   UNL A   1      38.679  30.805  29.384  1.00  0.00     0.049 A 
ATOM     48  H   UNL A   1      40.725  30.464  29.563  1.00  0.00     0.167 HD
ATOM     49  C   UNL A   1      44.971  29.522  30.084  1.00  0.00     0.037 A 
ATOM     50  C   UNL A   1      38.435  32.026  29.894  1.00  0.00     0.037 A 
ATOM     51  C   UNL A   1      44.823  30.870  30.567  1.00  0.00     0.049 A 
ATOM     52  C   UNL A   1      39.580  32.835  30.444  1.00  0.00     0.074 A 
ATOM     53  C   UNL A   1      45.799  31.731  31.038  1.00  0.00     0.029 A 
ATOM     54  N   UNL A   1      43.618  31.554  30.638  1.00  0.00    -0.354 N 
ATOM     55  N   UNL A   1      40.851  32.524  30.520  1.00  0.00    -0.248 NA
ATOM     56  C   UNL A   1      39.256  34.167  30.972  1.00  0.00     0.031 C 
ATOM     57  C   UNL A   1      45.178  32.920  31.434  1.00  0.00     0.029 A 
ATOM     58  C   UNL A   1      43.824  32.819  31.163  1.00  0.00     0.049 A 
ATOM     59  H   UNL A   1      42.746  31.194  30.358  1.00  0.00     0.167 HD
ATOM     60  C   UNL A   1      41.482  33.630  31.074  1.00  0.00     0.074 A 
ATOM     61  C   UNL A   1      40.455  34.625  31.301  1.00  0.00     0.031 C 
ATOM     62  C   UNL A   1      42.793  33.804  31.369  1.00  0.00     0.037 A 
BRANCH  49  63
ATOM     63  C   UNL A   1      46.339  28.904  30.124  1.00  0.00     0.064 A 
ATOM     64  C   UNL A   1      46.787  28.183  31.242  1.00  0.00     0.173 A 
ATOM     65  C   UNL A   1      47.193  28.987  29.014  1.00  0.00     0.173 A 
ATOM     66  F   UNL A   1      46.013  28.081  32.333  1.00  0.00    -0.203 F 
ATOM     67  C   UNL A   1      48.048  27.593  31.257  1.00  0.00     0.198 A 
ATOM     68  C   UNL A   1      48.442  28.371  29.021  1.00  0.00     0.198 A 
ATOM     69  F   UNL A   1      46.813  29.658  27.917  1.00  0.00    -0.203 F 
ATOM     70  F   UNL A   1      48.471  26.948  32.353  1.00  0.00    -0.200 F 
ATOM     71  C   UNL A   1      48.871  27.680  30.144  1.00  0.00     0.200 A 
ATOM     72  F   UNL A   1      49.230  28.444  27.940  1.00  0.00    -0.200 F 
ATOM     73  F   UNL A   1      50.080  27.102  30.156  1.00  0.00    -0.200 F 
ENDBRANCH  49  63
BRANCH  50  74
ATOM     74  C   UNL A   1      37.052  32.571  29.896  1.00  0.00     0.064 A 
ATOM     75  C   UNL A   1      36.555  33.275  28.790  1.00  0.00     0.173 A 
ATOM     76  C   UNL A   1      36.206  32.414  31.003  1.00  0.00     0.173 A 
ATOM     77  F   UNL A   1      37.334  33.468  27.715  1.00  0.00    -0.203 F 
ATOM     78  C   UNL A   1      35.274  33.823  28.801  1.00  0.00     0.198 A 
ATOM     79  C   UNL A   1      34.914  32.937  31.001  1.00  0.00     0.198 A 
ATOM     80  F   UNL A   1      36.630  31.744  32.085  1.00  0.00    -0.203 F 
ATOM     81  F   UNL A   1      34.844  34.534  27.750  1.00  0.00    -0.200 F 
ATOM     82  C   UNL A   1      34.453  33.649  29.904  1.00  0.00     0.200 A 
ATOM     83  F   UNL A   1      34.117  32.753  32.063  1.00  0.00    -0.200 F 
ATOM     84  F   UNL A   1      33.220  34.175  29.914  1.00  0.00    -0.200 F 
ENDBRANCH  50  74
BRANCH  62  85
ATOM     85  C   UNL A   1      43.200  35.135  31.931  1.00  0.00     0.064 A 
ATOM     86  C   UNL A   1      43.674  36.169  31.109  1.00  0.00     0.173 A 
ATOM     87  C   UNL A   1      43.078  35.391  33.306  1.00  0.00     0.173 A 
ATOM     88  F   UNL A   1      43.824  35.968  29.791  1.00  0.00    -0.203 F 
ATOM     89  C   UNL A   1      44.035  37.401  31.648  1.00  0.00     0.198 A 
ATOM     90  C   UNL A   1      43.411  36.634  33.836  1.00  0.00     0.198 A 
ATOM     91  F   UNL A   1      42.625  34.438  34.133  1.00  0.00    -0.203 F 
ATOM     92  F   UNL A   1      44.531  38.358  30.851  1.00  0.00    -0.200 F 
ATOM     93  C   UNL A   1      43.896  37.636  33.008  1.00  0.00     0.200 A 
ATOM     94  F   UNL A   1      43.264  36.863  35.148  1.00  0.00    -0.200 F 
ATOM     95  F   UNL A   1      44.237  38.825  33.522  1.00  0.00    -0.200 F 
ENDBRANCH  62  85
ENDBRANCH  36  37
ENDBRANCH  28  31
ENDBRANCH  26  27
ENDBRANCH   1  26
TORSDOF 13
ENDMDL
