MODEL 1
REMARK VINA RESULT:     -13.2      0.000      0.000
REMARK SMILES Cn1ncc(C(=O)NCCCNC(=O)c2ccc(-c3c4nc(c(-c5c(F)c(F)c(F)c(F)c5F)c5ccc([nH]5)c(-c5c(F)c(F)c(F)c(F)c5F)c5nc(c(-c6c(F)c(F)c(F)c(F)c6F)c6ccc3[nH]6)C=C5)C=C4)cc2)c1C(=O)Nc1nccc(-c2ccc(OC(F)F)cc2)n1
REMARK SMILES IDX 6 1 7 2 8 3 5 5 1 6 2 7 3 8 78 9 4 10 79 11 80 12 81 13
REMARK SMILES IDX 82 15 83 16 97 17 84 18 86 19 85 20 87 21 88 22 96 23 89 24
REMARK SMILES IDX 95 25 90 26 91 27 92 28 93 29 94 30 9 31 10 32 11 33 12 34
REMARK SMILES IDX 13 35 14 37 15 38 16 39 77 40 17 41 76 42 18 43 19 44 20 45
REMARK SMILES IDX 70 46 21 47 75 48 69 49 71 50 22 51 74 52 68 53 67 54 23 56
REMARK SMILES IDX 55 57 35 58 54 59 36 60 39 61 53 62 72 63 37 64 38 65 52 67
REMARK SMILES IDX 73 68 40 69 24 70 25 71 33 72 26 73 27 74 31 75 34 76 28 77
REMARK SMILES IDX 29 78 32 79 30 80 56 81 57 82 65 83 58 84 59 85 63 86 66 87
REMARK SMILES IDX 60 88 61 89 64 90 62 91 41 92 42 93 50 94 43 95 44 96 48 97
REMARK SMILES IDX 51 98 45 99 46 100 49 101 47 102
REMARK H PARENT 8 4 81 14 12 36 71 55 39 66
REMARK Flexibility Score: inf
ROOT
ATOM      1  C   UNL A   1      33.476  28.757  26.523  1.00  0.00     0.255 C 
ATOM      2  O   UNL A   1      34.349  28.454  27.345  1.00  0.00    -0.269 OA
ATOM      3  N   UNL A   1      32.891  29.965  26.767  1.00  0.00    -0.352 N 
ATOM      4  H   UNL A   1      33.294  30.446  27.526  1.00  0.00     0.163 HD
ENDROOT
BRANCH   1   5
ATOM      5  C   UNL A   1      33.166  27.834  25.431  1.00  0.00     0.090 A 
ATOM      6  C   UNL A   1      31.444  25.719  23.083  1.00  0.00     0.174 C 
ATOM      7  N   UNL A   1      32.371  26.496  23.870  1.00  0.00    -0.262 N 
ATOM      8  N   UNL A   1      33.244  27.260  23.201  1.00  0.00    -0.180 NA
ATOM      9  C   UNL A   1      32.367  26.696  25.234  1.00  0.00     0.139 A 
ATOM     10  C   UNL A   1      33.692  28.092  24.132  1.00  0.00     0.149 A 
BRANCH   9  11
ATOM     11  C   UNL A   1      31.465  26.000  26.114  1.00  0.00     0.277 C 
ATOM     12  O   UNL A   1      30.329  26.427  26.337  1.00  0.00    -0.267 OA
ATOM     13  N   UNL A   1      31.869  24.900  26.841  1.00  0.00    -0.289 N 
ATOM     14  H   UNL A   1      31.817  24.944  27.824  1.00  0.00     0.173 HD
BRANCH  13  15
ATOM     15  C   UNL A   1      32.342  23.734  26.261  1.00  0.00     0.230 A 
ATOM     16  N   UNL A   1      31.389  23.055  25.608  1.00  0.00    -0.221 NA
ATOM     17  N   UNL A   1      33.639  23.426  26.246  1.00  0.00    -0.213 NA
ATOM     18  C   UNL A   1      31.798  22.064  24.799  1.00  0.00     0.117 A 
ATOM     19  C   UNL A   1      34.009  22.378  25.470  1.00  0.00     0.076 A 
ATOM     20  C   UNL A   1      33.109  21.683  24.684  1.00  0.00     0.049 A 
BRANCH  19  21
ATOM     21  C   UNL A   1      35.456  22.156  25.383  1.00  0.00     0.001 A 
ATOM     22  C   UNL A   1      35.986  20.898  25.070  1.00  0.00     0.014 A 
ATOM     23  C   UNL A   1      36.351  23.183  25.720  1.00  0.00     0.014 A 
ATOM     24  C   UNL A   1      37.365  20.668  25.140  1.00  0.00     0.047 A 
ATOM     25  C   UNL A   1      37.724  22.945  25.822  1.00  0.00     0.047 A 
ATOM     26  C   UNL A   1      38.240  21.682  25.541  1.00  0.00     0.126 A 
BRANCH  26  27
ATOM     27  O   UNL A   1      39.551  21.312  25.630  1.00  0.00    -0.435 OA
BRANCH  27  28
ATOM     28  C   UNL A   1      40.382  22.006  26.552  1.00  0.00     0.542 C 
ATOM     29  F   UNL A   1      40.813  21.155  27.516  1.00  0.00    -0.167 F 
ATOM     30  F   UNL A   1      41.467  22.513  25.919  1.00  0.00    -0.167 F 
ENDBRANCH  27  28
ENDBRANCH  26  27
ENDBRANCH  19  21
ENDBRANCH  13  15
ENDBRANCH   9  11
ENDBRANCH   1   5
BRANCH   3  31
ATOM     31  C   UNL A   1      31.811  30.686  26.152  1.00  0.00     0.118 C 
BRANCH  31  32
ATOM     32  C   UNL A   1      31.474  31.976  26.868  1.00  0.00     0.042 C 
BRANCH  32  33
ATOM     33  C   UNL A   1      32.692  32.699  27.401  1.00  0.00     0.118 C 
BRANCH  33  34
ATOM     34  N   UNL A   1      32.442  34.119  27.638  1.00  0.00    -0.352 N 
ATOM     35  C   UNL A   1      32.988  34.973  28.566  1.00  0.00     0.251 C 
ATOM     36  H   UNL A   1      31.776  34.529  27.040  1.00  0.00     0.163 HD
ATOM     37  O   UNL A   1      32.497  36.083  28.752  1.00  0.00    -0.269 OA
BRANCH  35  38
ATOM     38  C   UNL A   1      34.155  34.541  29.358  1.00  0.00     0.039 A 
ATOM     39  C   UNL A   1      33.968  34.048  30.652  1.00  0.00     0.014 A 
ATOM     40  C   UNL A   1      35.435  34.598  28.805  1.00  0.00     0.014 A 
ATOM     41  C   UNL A   1      35.057  33.524  31.351  1.00  0.00     0.010 A 
ATOM     42  C   UNL A   1      36.486  33.964  29.446  1.00  0.00     0.010 A 
ATOM     43  C   UNL A   1      36.313  33.431  30.731  1.00  0.00    -0.014 A 
BRANCH  43  44
ATOM     44  C   UNL A   1      37.480  32.805  31.397  1.00  0.00     0.031 A 
ATOM     45  C   UNL A   1      38.154  31.627  30.748  1.00  0.00     0.074 A 
ATOM     46  C   UNL A   1      37.859  33.218  32.621  1.00  0.00     0.049 A 
ATOM     47  N   UNL A   1      39.074  30.829  31.225  1.00  0.00    -0.248 NA
ATOM     48  C   UNL A   1      37.698  31.271  29.393  1.00  0.00     0.031 C 
ATOM     49  C   UNL A   1      37.249  34.316  33.372  1.00  0.00     0.029 A 
ATOM     50  N   UNL A   1      38.836  32.747  33.461  1.00  0.00    -0.354 N 
ATOM     51  C   UNL A   1      39.280  29.866  30.246  1.00  0.00     0.074 A 
ATOM     52  C   UNL A   1      38.348  30.139  29.176  1.00  0.00     0.031 C 
ATOM     53  C   UNL A   1      37.879  34.449  34.551  1.00  0.00     0.029 A 
ATOM     54  C   UNL A   1      38.900  33.413  34.661  1.00  0.00     0.049 A 
ATOM     55  H   UNL A   1      39.435  32.001  33.226  1.00  0.00     0.167 HD
ATOM     56  C   UNL A   1      40.186  28.862  30.230  1.00  0.00     0.037 A 
ATOM     57  C   UNL A   1      39.685  33.199  35.734  1.00  0.00     0.037 A 
ATOM     58  C   UNL A   1      41.136  28.624  31.282  1.00  0.00     0.049 A 
ATOM     59  C   UNL A   1      40.685  32.073  35.692  1.00  0.00     0.074 A 
ATOM     60  C   UNL A   1      42.143  27.678  31.337  1.00  0.00     0.029 A 
ATOM     61  N   UNL A   1      41.195  29.345  32.467  1.00  0.00    -0.354 N 
ATOM     62  N   UNL A   1      40.917  31.208  34.734  1.00  0.00    -0.248 NA
ATOM     63  C   UNL A   1      41.532  31.895  36.879  1.00  0.00     0.031 C 
ATOM     64  C   UNL A   1      42.779  27.792  32.578  1.00  0.00     0.029 A 
ATOM     65  C   UNL A   1      42.208  28.849  33.270  1.00  0.00     0.049 A 
ATOM     66  H   UNL A   1      40.604  30.097  32.701  1.00  0.00     0.167 HD
ATOM     67  C   UNL A   1      41.957  30.408  35.186  1.00  0.00     0.074 A 
ATOM     68  C   UNL A   1      42.317  30.896  36.502  1.00  0.00     0.031 C 
ATOM     69  C   UNL A   1      42.562  29.364  34.569  1.00  0.00     0.037 A 
BRANCH  56  70
ATOM     70  C   UNL A   1      40.196  27.951  29.035  1.00  0.00     0.064 A 
ATOM     71  C   UNL A   1      40.904  28.273  27.867  1.00  0.00     0.173 A 
ATOM     72  C   UNL A   1      39.510  26.727  29.069  1.00  0.00     0.173 A 
ATOM     73  F   UNL A   1      41.566  29.437  27.776  1.00  0.00    -0.203 F 
ATOM     74  C   UNL A   1      40.898  27.420  26.766  1.00  0.00     0.198 A 
ATOM     75  C   UNL A   1      39.535  25.861  27.978  1.00  0.00     0.198 A 
ATOM     76  F   UNL A   1      38.820  26.368  30.161  1.00  0.00    -0.203 F 
ATOM     77  F   UNL A   1      41.533  27.777  25.641  1.00  0.00    -0.200 F 
ATOM     78  C   UNL A   1      40.220  26.212  26.825  1.00  0.00     0.200 A 
ATOM     79  F   UNL A   1      38.892  24.688  28.043  1.00  0.00    -0.200 F 
ATOM     80  F   UNL A   1      40.222  25.389  25.768  1.00  0.00    -0.200 F 
ENDBRANCH  56  70
BRANCH  57  81
ATOM     81  C   UNL A   1      39.573  34.078  36.928  1.00  0.00     0.064 A 
ATOM     82  C   UNL A   1      40.239  35.311  36.975  1.00  0.00     0.173 A 
ATOM     83  C   UNL A   1      38.805  33.709  38.042  1.00  0.00     0.173 A 
ATOM     84  F   UNL A   1      41.000  35.701  35.943  1.00  0.00    -0.203 F 
ATOM     85  C   UNL A   1      40.160  36.131  38.100  1.00  0.00     0.198 A 
ATOM     86  C   UNL A   1      38.702  34.543  39.154  1.00  0.00     0.198 A 
ATOM     87  F   UNL A   1      38.141  32.544  38.044  1.00  0.00    -0.203 F 
ATOM     88  F   UNL A   1      40.847  37.280  38.138  1.00  0.00    -0.200 F 
ATOM     89  C   UNL A   1      39.388  35.748  39.187  1.00  0.00     0.200 A 
ATOM     90  F   UNL A   1      37.941  34.178  40.194  1.00  0.00    -0.200 F 
ATOM     91  F   UNL A   1      39.309  36.537  40.266  1.00  0.00    -0.200 F 
ENDBRANCH  57  81
BRANCH  69  92
ATOM     92  C   UNL A   1      43.709  28.708  35.279  1.00  0.00     0.064 A 
ATOM     93  C   UNL A   1      43.515  27.649  36.177  1.00  0.00     0.173 A 
ATOM     94  C   UNL A   1      45.028  29.105  35.004  1.00  0.00     0.173 A 
ATOM     95  F   UNL A   1      42.274  27.243  36.483  1.00  0.00    -0.203 F 
ATOM     96  C   UNL A   1      44.597  27.024  36.789  1.00  0.00     0.198 A 
ATOM     97  C   UNL A   1      46.108  28.457  35.593  1.00  0.00     0.198 A 
ATOM     98  F   UNL A   1      45.267  30.108  34.146  1.00  0.00    -0.203 F 
ATOM     99  F   UNL A   1      44.387  26.042  37.676  1.00  0.00    -0.200 F 
ATOM    100  C   UNL A   1      45.892  27.420  36.488  1.00  0.00     0.200 A 
ATOM    101  F   UNL A   1      47.359  28.829  35.287  1.00  0.00    -0.200 F 
ATOM    102  F   UNL A   1      46.934  26.806  37.066  1.00  0.00    -0.200 F 
ENDBRANCH  69  92
ENDBRANCH  43  44
ENDBRANCH  35  38
ENDBRANCH  33  34
ENDBRANCH  32  33
ENDBRANCH  31  32
ENDBRANCH   3  31
TORSDOF 15
ENDMDL
MODEL 2
REMARK VINA RESULT:     -13.2      1.959      2.476
REMARK SMILES Cn1ncc(C(=O)NCCCNC(=O)c2ccc(-c3c4nc(c(-c5c(F)c(F)c(F)c(F)c5F)c5ccc([nH]5)c(-c5c(F)c(F)c(F)c(F)c5F)c5nc(c(-c6c(F)c(F)c(F)c(F)c6F)c6ccc3[nH]6)C=C5)C=C4)cc2)c1C(=O)Nc1nccc(-c2ccc(OC(F)F)cc2)n1
REMARK SMILES IDX 6 1 7 2 8 3 5 5 1 6 2 7 3 8 78 9 4 10 79 11 80 12 81 13
REMARK SMILES IDX 82 15 83 16 97 17 84 18 86 19 85 20 87 21 88 22 96 23 89 24
REMARK SMILES IDX 95 25 90 26 91 27 92 28 93 29 94 30 9 31 10 32 11 33 12 34
REMARK SMILES IDX 13 35 14 37 15 38 16 39 77 40 17 41 76 42 18 43 19 44 20 45
REMARK SMILES IDX 70 46 21 47 75 48 69 49 71 50 22 51 74 52 68 53 67 54 23 56
REMARK SMILES IDX 55 57 35 58 54 59 36 60 39 61 53 62 72 63 37 64 38 65 52 67
REMARK SMILES IDX 73 68 40 69 24 70 25 71 33 72 26 73 27 74 31 75 34 76 28 77
REMARK SMILES IDX 29 78 32 79 30 80 56 81 57 82 65 83 58 84 59 85 63 86 66 87
REMARK SMILES IDX 60 88 61 89 64 90 62 91 41 92 42 93 50 94 43 95 44 96 48 97
REMARK SMILES IDX 51 98 45 99 46 100 49 101 47 102
REMARK H PARENT 8 4 81 14 12 36 71 55 39 66
REMARK Flexibility Score: inf
ROOT
ATOM      1  C   UNL A   1      32.748  29.097  24.599  1.00  0.00     0.255 C 
ATOM      2  O   UNL A   1      33.841  28.953  24.039  1.00  0.00    -0.269 OA
ATOM      3  N   UNL A   1      32.776  29.992  25.628  1.00  0.00    -0.352 N 
ATOM      4  H   UNL A   1      33.648  30.437  25.733  1.00  0.00     0.163 HD
ENDROOT
BRANCH   1   5
ATOM      5  C   UNL A   1      31.595  28.329  24.132  1.00  0.00     0.090 A 
ATOM      6  C   UNL A   1      28.533  26.443  23.988  1.00  0.00     0.174 C 
ATOM      7  N   UNL A   1      29.754  27.177  23.756  1.00  0.00    -0.262 N 
ATOM      8  N   UNL A   1      29.723  28.118  22.804  1.00  0.00    -0.180 NA
ATOM      9  C   UNL A   1      30.909  27.161  24.507  1.00  0.00     0.139 A 
ATOM     10  C   UNL A   1      30.810  28.836  23.056  1.00  0.00     0.149 A 
BRANCH   9  11
ATOM     11  C   UNL A   1      31.105  26.251  25.604  1.00  0.00     0.277 C 
ATOM     12  O   UNL A   1      30.245  26.102  26.475  1.00  0.00    -0.267 OA
ATOM     13  N   UNL A   1      32.306  25.602  25.801  1.00  0.00    -0.289 N 
ATOM     14  H   UNL A   1      32.789  25.757  26.645  1.00  0.00     0.173 HD
BRANCH  13  15
ATOM     15  C   UNL A   1      32.868  24.741  24.872  1.00  0.00     0.230 A 
ATOM     16  N   UNL A   1      33.843  25.315  24.154  1.00  0.00    -0.221 NA
ATOM     17  N   UNL A   1      32.552  23.447  24.824  1.00  0.00    -0.213 NA
ATOM     18  C   UNL A   1      34.618  24.499  23.422  1.00  0.00     0.117 A 
ATOM     19  C   UNL A   1      33.315  22.661  24.023  1.00  0.00     0.076 A 
ATOM     20  C   UNL A   1      34.403  23.149  23.325  1.00  0.00     0.049 A 
BRANCH  19  21
ATOM     21  C   UNL A   1      33.014  21.228  24.100  1.00  0.00     0.001 A 
ATOM     22  C   UNL A   1      33.483  20.437  25.156  1.00  0.00     0.014 A 
ATOM     23  C   UNL A   1      32.334  20.590  23.051  1.00  0.00     0.014 A 
ATOM     24  C   UNL A   1      33.315  19.048  25.134  1.00  0.00     0.047 A 
ATOM     25  C   UNL A   1      32.195  19.201  23.013  1.00  0.00     0.047 A 
ATOM     26  C   UNL A   1      32.693  18.418  24.051  1.00  0.00     0.126 A 
BRANCH  26  27
ATOM     27  O   UNL A   1      32.650  17.056  24.123  1.00  0.00    -0.435 OA
BRANCH  27  28
ATOM     28  C   UNL A   1      33.790  16.325  23.686  1.00  0.00     0.542 C 
ATOM     29  F   UNL A   1      34.408  16.993  22.680  1.00  0.00    -0.167 F 
ATOM     30  F   UNL A   1      34.673  16.178  24.702  1.00  0.00    -0.167 F 
ENDBRANCH  27  28
ENDBRANCH  26  27
ENDBRANCH  19  21
ENDBRANCH  13  15
ENDBRANCH   9  11
ENDBRANCH   1   5
BRANCH   3  31
ATOM     31  C   UNL A   1      31.803  30.423  26.593  1.00  0.00     0.118 C 
BRANCH  31  32
ATOM     32  C   UNL A   1      31.652  31.928  26.653  1.00  0.00     0.042 C 
BRANCH  32  33
ATOM     33  C   UNL A   1      32.778  32.611  27.400  1.00  0.00     0.118 C 
BRANCH  33  34
ATOM     34  N   UNL A   1      32.509  34.026  27.648  1.00  0.00    -0.352 N 
ATOM     35  C   UNL A   1      33.037  34.877  28.588  1.00  0.00     0.251 C 
ATOM     36  H   UNL A   1      31.842  34.432  27.049  1.00  0.00     0.163 HD
ATOM     37  O   UNL A   1      32.531  35.979  28.782  1.00  0.00    -0.269 OA
BRANCH  35  38
ATOM     38  C   UNL A   1      34.203  34.453  29.385  1.00  0.00     0.039 A 
ATOM     39  C   UNL A   1      34.007  33.849  30.630  1.00  0.00     0.014 A 
ATOM     40  C   UNL A   1      35.493  34.627  28.883  1.00  0.00     0.014 A 
ATOM     41  C   UNL A   1      35.104  33.336  31.325  1.00  0.00     0.010 A 
ATOM     42  C   UNL A   1      36.561  34.006  29.511  1.00  0.00     0.010 A 
ATOM     43  C   UNL A   1      36.381  33.364  30.744  1.00  0.00    -0.014 A 
BRANCH  43  44
ATOM     44  C   UNL A   1      37.563  32.756  31.400  1.00  0.00     0.031 A 
ATOM     45  C   UNL A   1      38.259  31.598  30.738  1.00  0.00     0.074 A 
ATOM     46  C   UNL A   1      37.938  33.166  32.627  1.00  0.00     0.049 A 
ATOM     47  N   UNL A   1      39.197  30.815  31.205  1.00  0.00    -0.248 NA
ATOM     48  C   UNL A   1      37.805  31.246  29.381  1.00  0.00     0.031 C 
ATOM     49  C   UNL A   1      37.307  34.244  33.390  1.00  0.00     0.029 A 
ATOM     50  N   UNL A   1      38.927  32.707  33.459  1.00  0.00    -0.354 N 
ATOM     51  C   UNL A   1      39.420  29.866  30.216  1.00  0.00     0.074 A 
ATOM     52  C   UNL A   1      38.478  30.129  29.152  1.00  0.00     0.031 C 
ATOM     53  C   UNL A   1      37.938  34.378  34.568  1.00  0.00     0.029 A 
ATOM     54  C   UNL A   1      38.981  33.363  34.665  1.00  0.00     0.049 A 
ATOM     55  H   UNL A   1      39.540  31.976  33.216  1.00  0.00     0.167 HD
ATOM     56  C   UNL A   1      40.346  28.881  30.188  1.00  0.00     0.037 A 
ATOM     57  C   UNL A   1      39.774  33.155  35.734  1.00  0.00     0.037 A 
ATOM     58  C   UNL A   1      41.304  28.653  31.235  1.00  0.00     0.049 A 
ATOM     59  C   UNL A   1      40.796  32.050  35.679  1.00  0.00     0.074 A 
ATOM     60  C   UNL A   1      42.330  27.727  31.278  1.00  0.00     0.029 A 
ATOM     61  N   UNL A   1      41.352  29.364  32.426  1.00  0.00    -0.354 N 
ATOM     62  N   UNL A   1      41.043  31.199  34.712  1.00  0.00    -0.248 NA
ATOM     63  C   UNL A   1      41.651  31.878  36.861  1.00  0.00     0.031 C 
ATOM     64  C   UNL A   1      42.968  27.843  32.518  1.00  0.00     0.029 A 
ATOM     65  C   UNL A   1      42.378  28.881  33.222  1.00  0.00     0.049 A 
ATOM     66  H   UNL A   1      40.746  30.101  32.669  1.00  0.00     0.167 HD
ATOM     67  C   UNL A   1      42.101  30.416  35.153  1.00  0.00     0.074 A 
ATOM     68  C   UNL A   1      42.455  30.899  36.472  1.00  0.00     0.031 C 
ATOM     69  C   UNL A   1      42.725  29.391  34.524  1.00  0.00     0.037 A 
BRANCH  56  70
ATOM     70  C   UNL A   1      40.370  27.981  28.985  1.00  0.00     0.064 A 
ATOM     71  C   UNL A   1      41.116  28.300  27.840  1.00  0.00     0.173 A 
ATOM     72  C   UNL A   1      39.659  26.772  28.987  1.00  0.00     0.173 A 
ATOM     73  F   UNL A   1      41.803  29.451  27.779  1.00  0.00    -0.203 F 
ATOM     74  C   UNL A   1      41.124  27.459  26.730  1.00  0.00     0.198 A 
ATOM     75  C   UNL A   1      39.698  25.916  27.889  1.00  0.00     0.198 A 
ATOM     76  F   UNL A   1      38.933  26.416  30.056  1.00  0.00    -0.203 F 
ATOM     77  F   UNL A   1      41.797  27.814  25.627  1.00  0.00    -0.200 F 
ATOM     78  C   UNL A   1      40.421  26.264  26.758  1.00  0.00     0.200 A 
ATOM     79  F   UNL A   1      39.030  24.755  27.924  1.00  0.00    -0.200 F 
ATOM     80  F   UNL A   1      40.435  25.451  25.694  1.00  0.00    -0.200 F 
ENDBRANCH  56  70
BRANCH  57  81
ATOM     81  C   UNL A   1      39.647  34.020  36.936  1.00  0.00     0.064 A 
ATOM     82  C   UNL A   1      40.315  35.252  37.007  1.00  0.00     0.173 A 
ATOM     83  C   UNL A   1      38.864  33.640  38.036  1.00  0.00     0.173 A 
ATOM     84  F   UNL A   1      41.089  35.652  35.988  1.00  0.00    -0.203 F 
ATOM     85  C   UNL A   1      40.223  36.058  38.140  1.00  0.00     0.198 A 
ATOM     86  C   UNL A   1      38.749  34.461  39.156  1.00  0.00     0.198 A 
ATOM     87  F   UNL A   1      38.199  32.476  38.016  1.00  0.00    -0.203 F 
ATOM     88  F   UNL A   1      40.910  37.207  38.200  1.00  0.00    -0.200 F 
ATOM     89  C   UNL A   1      39.436  35.665  39.212  1.00  0.00     0.200 A 
ATOM     90  F   UNL A   1      37.973  34.086  40.182  1.00  0.00    -0.200 F 
ATOM     91  F   UNL A   1      39.344  36.441  40.299  1.00  0.00    -0.200 F 
ENDBRANCH  57  81
BRANCH  69  92
ATOM     92  C   UNL A   1      43.888  28.753  35.224  1.00  0.00     0.064 A 
ATOM     93  C   UNL A   1      43.725  27.644  36.066  1.00  0.00     0.173 A 
ATOM     94  C   UNL A   1      45.192  29.220  34.995  1.00  0.00     0.173 A 
ATOM     95  F   UNL A   1      42.498  27.169  36.329  1.00  0.00    -0.203 F 
ATOM     96  C   UNL A   1      44.824  27.038  36.669  1.00  0.00     0.198 A 
ATOM     97  C   UNL A   1      46.290  28.592  35.573  1.00  0.00     0.198 A 
ATOM     98  F   UNL A   1      45.401  30.273  34.190  1.00  0.00    -0.203 F 
ATOM     99  F   UNL A   1      44.642  26.005  37.504  1.00  0.00    -0.200 F 
ATOM    100  C   UNL A   1      46.105  27.504  36.413  1.00  0.00     0.200 A 
ATOM    101  F   UNL A   1      47.527  29.033  35.310  1.00  0.00    -0.200 F 
ATOM    102  F   UNL A   1      47.163  26.909  36.981  1.00  0.00    -0.200 F 
ENDBRANCH  69  92
ENDBRANCH  43  44
ENDBRANCH  35  38
ENDBRANCH  33  34
ENDBRANCH  32  33
ENDBRANCH  31  32
ENDBRANCH   3  31
TORSDOF 15
ENDMDL
MODEL 3
REMARK VINA RESULT:     -13.1      2.970      5.515
REMARK SMILES Cn1ncc(C(=O)NCCCNC(=O)c2ccc(-c3c4nc(c(-c5c(F)c(F)c(F)c(F)c5F)c5ccc([nH]5)c(-c5c(F)c(F)c(F)c(F)c5F)c5nc(c(-c6c(F)c(F)c(F)c(F)c6F)c6ccc3[nH]6)C=C5)C=C4)cc2)c1C(=O)Nc1nccc(-c2ccc(OC(F)F)cc2)n1
REMARK SMILES IDX 6 1 7 2 8 3 5 5 1 6 2 7 3 8 78 9 4 10 79 11 80 12 81 13
REMARK SMILES IDX 82 15 83 16 97 17 84 18 86 19 85 20 87 21 88 22 96 23 89 24
REMARK SMILES IDX 95 25 90 26 91 27 92 28 93 29 94 30 9 31 10 32 11 33 12 34
REMARK SMILES IDX 13 35 14 37 15 38 16 39 77 40 17 41 76 42 18 43 19 44 20 45
REMARK SMILES IDX 70 46 21 47 75 48 69 49 71 50 22 51 74 52 68 53 67 54 23 56
REMARK SMILES IDX 55 57 35 58 54 59 36 60 39 61 53 62 72 63 37 64 38 65 52 67
REMARK SMILES IDX 73 68 40 69 24 70 25 71 33 72 26 73 27 74 31 75 34 76 28 77
REMARK SMILES IDX 29 78 32 79 30 80 56 81 57 82 65 83 58 84 59 85 63 86 66 87
REMARK SMILES IDX 60 88 61 89 64 90 62 91 41 92 42 93 50 94 43 95 44 96 48 97
REMARK SMILES IDX 51 98 45 99 46 100 49 101 47 102
REMARK H PARENT 8 4 81 14 12 36 71 55 39 66
REMARK Flexibility Score: inf
ROOT
ATOM      1  C   UNL A   1      33.678  25.956  25.397  1.00  0.00     0.255 C 
ATOM      2  O   UNL A   1      34.404  26.143  24.413  1.00  0.00    -0.269 OA
ATOM      3  N   UNL A   1      33.087  27.094  25.863  1.00  0.00    -0.352 N 
ATOM      4  H   UNL A   1      33.275  27.885  25.309  1.00  0.00     0.163 HD
ENDROOT
BRANCH   1   5
ATOM      5  C   UNL A   1      33.540  24.606  25.941  1.00  0.00     0.090 A 
ATOM      6  C   UNL A   1      32.542  21.193  26.497  1.00  0.00     0.174 C 
ATOM      7  N   UNL A   1      33.124  22.514  26.497  1.00  0.00    -0.262 N 
ATOM      8  N   UNL A   1      34.459  22.588  26.571  1.00  0.00    -0.180 NA
ATOM      9  C   UNL A   1      32.498  23.718  26.252  1.00  0.00     0.139 A 
ATOM     10  C   UNL A   1      34.712  23.835  26.197  1.00  0.00     0.149 A 
BRANCH   9  11
ATOM     11  C   UNL A   1      31.072  23.828  26.095  1.00  0.00     0.277 C 
ATOM     12  O   UNL A   1      30.308  23.691  27.053  1.00  0.00    -0.267 OA
ATOM     13  N   UNL A   1      30.489  23.967  24.852  1.00  0.00    -0.289 N 
ATOM     14  H   UNL A   1      29.851  23.277  24.555  1.00  0.00     0.173 HD
BRANCH  13  15
ATOM     15  C   UNL A   1      30.753  25.028  24.000  1.00  0.00     0.230 A 
ATOM     16  N   UNL A   1      31.494  24.672  22.941  1.00  0.00    -0.221 NA
ATOM     17  N   UNL A   1      30.195  26.226  24.167  1.00  0.00    -0.213 NA
ATOM     18  C   UNL A   1      31.579  25.558  21.936  1.00  0.00     0.117 A 
ATOM     19  C   UNL A   1      30.355  27.121  23.160  1.00  0.00     0.076 A 
ATOM     20  C   UNL A   1      31.018  26.807  21.989  1.00  0.00     0.049 A 
BRANCH  19  21
ATOM     21  C   UNL A   1      29.618  28.377  23.329  1.00  0.00     0.001 A 
ATOM     22  C   UNL A   1      28.289  28.508  22.909  1.00  0.00     0.014 A 
ATOM     23  C   UNL A   1      30.269  29.519  23.822  1.00  0.00     0.014 A 
ATOM     24  C   UNL A   1      27.652  29.754  22.939  1.00  0.00     0.047 A 
ATOM     25  C   UNL A   1      29.644  30.768  23.822  1.00  0.00     0.047 A 
ATOM     26  C   UNL A   1      28.333  30.896  23.371  1.00  0.00     0.126 A 
BRANCH  26  27
ATOM     27  O   UNL A   1      27.620  32.057  23.292  1.00  0.00    -0.435 OA
BRANCH  27  28
ATOM     28  C   UNL A   1      28.059  33.051  22.374  1.00  0.00     0.542 C 
ATOM     29  F   UNL A   1      28.990  33.843  22.960  1.00  0.00    -0.167 F 
ATOM     30  F   UNL A   1      28.620  32.471  21.286  1.00  0.00    -0.167 F 
ENDBRANCH  27  28
ENDBRANCH  26  27
ENDBRANCH  19  21
ENDBRANCH  13  15
ENDBRANCH   9  11
ENDBRANCH   1   5
BRANCH   3  31
ATOM     31  C   UNL A   1      32.245  27.382  26.992  1.00  0.00     0.118 C 
BRANCH  31  32
ATOM     32  C   UNL A   1      31.965  28.860  27.162  1.00  0.00     0.042 C 
BRANCH  32  33
ATOM     33  C   UNL A   1      32.889  29.740  26.347  1.00  0.00     0.118 C 
BRANCH  33  34
ATOM     34  N   UNL A   1      32.678  31.163  26.605  1.00  0.00    -0.352 N 
ATOM     35  C   UNL A   1      33.384  32.035  27.398  1.00  0.00     0.251 C 
ATOM     36  H   UNL A   1      31.908  31.559  26.138  1.00  0.00     0.163 HD
ATOM     37  O   UNL A   1      32.930  33.146  27.657  1.00  0.00    -0.269 OA
BRANCH  35  38
ATOM     38  C   UNL A   1      34.684  31.622  27.960  1.00  0.00     0.039 A 
ATOM     39  C   UNL A   1      35.760  32.513  27.941  1.00  0.00     0.014 A 
ATOM     40  C   UNL A   1      34.827  30.358  28.534  1.00  0.00     0.014 A 
ATOM     41  C   UNL A   1      36.949  32.167  28.585  1.00  0.00     0.010 A 
ATOM     42  C   UNL A   1      35.959  30.069  29.279  1.00  0.00     0.010 A 
ATOM     43  C   UNL A   1      37.037  30.965  29.303  1.00  0.00    -0.014 A 
BRANCH  43  44
ATOM     44  C   UNL A   1      38.246  30.590  30.075  1.00  0.00     0.031 A 
ATOM     45  C   UNL A   1      39.226  29.615  29.482  1.00  0.00     0.074 A 
ATOM     46  C   UNL A   1      38.404  31.033  31.337  1.00  0.00     0.049 A 
ATOM     47  N   UNL A   1      40.251  29.024  30.039  1.00  0.00    -0.248 NA
ATOM     48  C   UNL A   1      38.993  29.215  28.083  1.00  0.00     0.031 C 
ATOM     49  C   UNL A   1      37.494  31.941  32.037  1.00  0.00     0.029 A 
ATOM     50  N   UNL A   1      39.376  30.760  32.265  1.00  0.00    -0.354 N 
ATOM     51  C   UNL A   1      40.761  28.167  29.073  1.00  0.00     0.074 A 
ATOM     52  C   UNL A   1      39.898  28.264  27.918  1.00  0.00     0.031 C 
ATOM     53  C   UNL A   1      37.962  32.167  33.275  1.00  0.00     0.029 A 
ATOM     54  C   UNL A   1      39.174  31.381  33.474  1.00  0.00     0.049 A 
ATOM     55  H   UNL A   1      40.147  30.175  32.083  1.00  0.00     0.167 HD
ATOM     56  C   UNL A   1      41.866  27.390  29.136  1.00  0.00     0.037 A 
ATOM     57  C   UNL A   1      39.880  31.307  34.619  1.00  0.00     0.037 A 
ATOM     58  C   UNL A   1      42.740  27.331  30.275  1.00  0.00     0.049 A 
ATOM     59  C   UNL A   1      41.107  30.433  34.663  1.00  0.00     0.074 A 
ATOM     60  C   UNL A   1      43.924  26.630  30.419  1.00  0.00     0.029 A 
ATOM     61  N   UNL A   1      42.522  28.004  31.470  1.00  0.00    -0.354 N 
ATOM     62  N   UNL A   1      41.617  29.676  33.722  1.00  0.00    -0.248 NA
ATOM     63  C   UNL A   1      41.854  30.405  35.927  1.00  0.00     0.031 C 
ATOM     64  C   UNL A   1      44.396  26.838  31.720  1.00  0.00     0.029 A 
ATOM     65  C   UNL A   1      43.539  27.716  32.365  1.00  0.00     0.049 A 
ATOM     66  H   UNL A   1      41.758  28.597  31.653  1.00  0.00     0.167 HD
ATOM     67  C   UNL A   1      42.763  29.111  34.266  1.00  0.00     0.074 A 
ATOM     68  C   UNL A   1      42.876  29.619  35.618  1.00  0.00     0.031 C 
ATOM     69  C   UNL A   1      43.642  28.250  33.699  1.00  0.00     0.037 A 
BRANCH  56  70
ATOM     70  C   UNL A   1      42.194  26.547  27.936  1.00  0.00     0.064 A 
ATOM     71  C   UNL A   1      41.583  25.302  27.719  1.00  0.00     0.173 A 
ATOM     72  C   UNL A   1      43.111  27.002  26.976  1.00  0.00     0.173 A 
ATOM     73  F   UNL A   1      40.710  24.812  28.613  1.00  0.00    -0.203 F 
ATOM     74  C   UNL A   1      41.902  24.529  26.605  1.00  0.00     0.198 A 
ATOM     75  C   UNL A   1      43.401  26.243  25.845  1.00  0.00     0.198 A 
ATOM     76  F   UNL A   1      43.721  28.186  27.131  1.00  0.00    -0.203 F 
ATOM     77  F   UNL A   1      41.349  23.319  26.451  1.00  0.00    -0.200 F 
ATOM     78  C   UNL A   1      42.805  25.004  25.665  1.00  0.00     0.200 A 
ATOM     79  F   UNL A   1      44.261  26.710  24.931  1.00  0.00    -0.200 F 
ATOM     80  F   UNL A   1      43.104  24.264  24.589  1.00  0.00    -0.200 F 
ENDBRANCH  56  70
BRANCH  57  81
ATOM     81  C   UNL A   1      39.460  32.096  35.806  1.00  0.00     0.064 A 
ATOM     82  C   UNL A   1      38.490  31.602  36.690  1.00  0.00     0.173 A 
ATOM     83  C   UNL A   1      40.012  33.355  36.084  1.00  0.00     0.173 A 
ATOM     84  F   UNL A   1      37.920  30.410  36.459  1.00  0.00    -0.203 F 
ATOM     85  C   UNL A   1      38.071  32.346  37.792  1.00  0.00     0.198 A 
ATOM     86  C   UNL A   1      39.614  34.086  37.203  1.00  0.00     0.198 A 
ATOM     87  F   UNL A   1      40.949  33.871  35.276  1.00  0.00    -0.203 F 
ATOM     88  F   UNL A   1      37.107  31.870  38.592  1.00  0.00    -0.200 F 
ATOM     89  C   UNL A   1      38.637  33.585  38.050  1.00  0.00     0.200 A 
ATOM     90  F   UNL A   1      40.177  35.274  37.459  1.00  0.00    -0.200 F 
ATOM     91  F   UNL A   1      38.238  34.298  39.111  1.00  0.00    -0.200 F 
ENDBRANCH  57  81
BRANCH  69  92
ATOM     92  C   UNL A   1      44.833  27.840  34.514  1.00  0.00     0.064 A 
ATOM     93  C   UNL A   1      44.831  26.675  35.292  1.00  0.00     0.173 A 
ATOM     94  C   UNL A   1      46.017  28.594  34.458  1.00  0.00     0.173 A 
ATOM     95  F   UNL A   1      43.720  25.930  35.389  1.00  0.00    -0.203 F 
ATOM     96  C   UNL A   1      45.964  26.288  36.002  1.00  0.00     0.198 A 
ATOM     97  C   UNL A   1      47.157  28.187  35.143  1.00  0.00     0.198 A 
ATOM     98  F   UNL A   1      46.073  29.712  33.720  1.00  0.00    -0.203 F 
ATOM     99  F   UNL A   1      45.927  25.193  36.775  1.00  0.00    -0.200 F 
ATOM    100  C   UNL A   1      47.128  27.037  35.918  1.00  0.00     0.200 A 
ATOM    101  F   UNL A   1      48.286  28.902  35.047  1.00  0.00    -0.200 F 
ATOM    102  F   UNL A   1      48.223  26.654  36.590  1.00  0.00    -0.200 F 
ENDBRANCH  69  92
ENDBRANCH  43  44
ENDBRANCH  35  38
ENDBRANCH  33  34
ENDBRANCH  32  33
ENDBRANCH  31  32
ENDBRANCH   3  31
TORSDOF 15
ENDMDL
