MODEL 1
REMARK VINA RESULT:     -12.6      0.000      0.000
REMARK SMILES COc1cc(Cn2cc(C(=O)NCCCNC(=O)c3ccc(-c4c5nc(c(-c6c(F)c(F)c(F)c(F)c6F)c6ccc([nH]6)c(-c6c(F)c(F)c(F)c(F)c6F)c6nc(c(-c7c(F)c(F)c(F)c(F)c7F)c7ccc4[nH]7)C=C6)C=C5)cc3)c(=O)[nH]c2=O)ccn1
REMARK SMILES IDX 13 1 12 2 10 3 11 4 9 6 7 7 8 8 85 9 84 10 86 11 82 12 83 14
REMARK SMILES IDX 6 15 5 16 3 17 4 18 89 19 88 20 87 21 2 22 1 23 14 24 15 25
REMARK SMILES IDX 16 26 17 27 18 29 19 30 20 31 81 32 21 33 80 34 22 35 23 36
REMARK SMILES IDX 24 37 74 38 25 39 79 40 73 41 75 42 26 43 78 44 72 45 71 46
REMARK SMILES IDX 27 48 59 49 39 50 58 51 40 52 43 53 57 54 76 55 41 56 42 57
REMARK SMILES IDX 56 59 77 60 44 61 28 62 29 63 37 64 30 65 31 66 35 67 38 68
REMARK SMILES IDX 32 69 33 70 36 71 34 72 60 73 61 74 69 75 62 76 63 77 67 78
REMARK SMILES IDX 70 79 64 80 65 81 68 82 66 83 45 84 46 85 54 86 47 87 48 88
REMARK SMILES IDX 52 89 55 90 49 91 50 92 53 93 51 94
REMARK H PARENT 12 5 84 13 16 28 75 47 43 58
REMARK Flexibility Score: inf
ROOT
ATOM      1  C   UNL A   1      31.576  30.799  26.855  1.00  0.00     0.118 C 
ENDROOT
BRANCH   1   2
ATOM      2  N   UNL A   1      32.966  30.375  26.877  1.00  0.00    -0.352 N 
ATOM      3  C   UNL A   1      33.632  29.347  26.272  1.00  0.00     0.258 C 
ATOM      4  O   UNL A   1      34.808  29.184  26.592  1.00  0.00    -0.269 OA
ATOM      5  H   UNL A   1      33.542  30.941  27.438  1.00  0.00     0.163 HD
BRANCH   3   6
ATOM      6  C   UNL A   1      32.988  28.464  25.260  1.00  0.00     0.121 A 
ATOM      7  N   UNL A   1      31.596  28.119  23.333  1.00  0.00    -0.295 N 
ATOM      8  C   UNL A   1      32.161  28.922  24.309  1.00  0.00     0.110 A 
ATOM      9  C   UNL A   1      31.723  26.739  23.366  1.00  0.00     0.328 A 
ATOM     10  N   UNL A   1      32.457  26.250  24.413  1.00  0.00    -0.273 N 
ATOM     11  O   UNL A   1      31.240  25.979  22.533  1.00  0.00    -0.248 OA
ATOM     12  C   UNL A   1      33.175  26.989  25.317  1.00  0.00     0.266 A 
ATOM     13  H   UNL A   1      32.471  25.273  24.528  1.00  0.00     0.175 HD
ATOM     14  O   UNL A   1      33.948  26.437  26.090  1.00  0.00    -0.268 OA
BRANCH   7  15
ATOM     15  C   UNL A   1      30.904  28.738  22.199  1.00  0.00     0.162 C 
BRANCH  15  16
ATOM     16  C   UNL A   1      29.521  29.222  22.580  1.00  0.00    -0.021 A 
ATOM     17  C   UNL A   1      27.963  30.974  23.049  1.00  0.00     0.213 A 
ATOM     18  C   UNL A   1      29.245  30.588  22.686  1.00  0.00     0.074 A 
ATOM     19  N   UNL A   1      26.969  30.120  23.365  1.00  0.00    -0.222 NA
ATOM     20  C   UNL A   1      27.259  28.809  23.278  1.00  0.00     0.115 A 
ATOM     21  C   UNL A   1      28.493  28.320  22.876  1.00  0.00     0.026 A 
BRANCH  17  22
ATOM     22  O   UNL A   1      27.651  32.307  23.114  1.00  0.00    -0.481 OA
ATOM     23  C   UNL A   1      28.837  33.067  22.891  1.00  0.00     0.280 C 
ENDBRANCH  17  22
ENDBRANCH  15  16
ENDBRANCH   7  15
ENDBRANCH   3   6
ENDBRANCH   1   2
BRANCH   1  24
ATOM     24  C   UNL A   1      31.492  32.322  26.745  1.00  0.00     0.042 C 
BRANCH  24  25
ATOM     25  C   UNL A   1      32.763  33.022  27.209  1.00  0.00     0.118 C 
BRANCH  25  26
ATOM     26  N   UNL A   1      32.492  34.370  27.689  1.00  0.00    -0.352 N 
ATOM     27  C   UNL A   1      33.047  35.047  28.751  1.00  0.00     0.251 C 
ATOM     28  H   UNL A   1      31.814  34.870  27.179  1.00  0.00     0.163 HD
ATOM     29  O   UNL A   1      32.549  36.096  29.135  1.00  0.00    -0.269 OA
BRANCH  27  30
ATOM     30  C   UNL A   1      34.226  34.488  29.450  1.00  0.00     0.039 A 
ATOM     31  C   UNL A   1      35.514  34.689  28.949  1.00  0.00     0.014 A 
ATOM     32  C   UNL A   1      34.039  33.757  30.627  1.00  0.00     0.014 A 
ATOM     33  C   UNL A   1      36.592  34.031  29.532  1.00  0.00     0.010 A 
ATOM     34  C   UNL A   1      35.135  33.168  31.263  1.00  0.00     0.010 A 
ATOM     35  C   UNL A   1      36.415  33.266  30.697  1.00  0.00    -0.014 A 
BRANCH  35  36
ATOM     36  C   UNL A   1      37.588  32.594  31.310  1.00  0.00     0.031 A 
ATOM     37  C   UNL A   1      38.044  32.952  32.697  1.00  0.00     0.074 A 
ATOM     38  C   UNL A   1      38.208  31.613  30.628  1.00  0.00     0.049 A 
ATOM     39  N   UNL A   1      39.036  32.458  33.395  1.00  0.00    -0.248 NA
ATOM     40  C   UNL A   1      37.288  34.004  33.394  1.00  0.00     0.031 C 
ATOM     41  C   UNL A   1      37.840  31.164  29.284  1.00  0.00     0.029 A 
ATOM     42  N   UNL A   1      39.252  30.795  30.978  1.00  0.00    -0.354 N 
ATOM     43  C   UNL A   1      39.031  33.143  34.603  1.00  0.00     0.074 A 
ATOM     44  C   UNL A   1      37.959  34.112  34.533  1.00  0.00     0.031 C 
ATOM     45  C   UNL A   1      38.601  30.113  28.949  1.00  0.00     0.029 A 
ATOM     46  C   UNL A   1      39.556  29.858  30.021  1.00  0.00     0.049 A 
ATOM     47  H   UNL A   1      39.737  30.873  31.831  1.00  0.00     0.167 HD
ATOM     48  C   UNL A   1      39.842  32.968  35.674  1.00  0.00     0.037 A 
ATOM     49  C   UNL A   1      40.506  28.905  30.004  1.00  0.00     0.037 A 
ATOM     50  C   UNL A   1      40.905  31.997  35.738  1.00  0.00     0.049 A 
ATOM     51  C   UNL A   1      41.428  28.771  31.181  1.00  0.00     0.074 A 
ATOM     52  C   UNL A   1      41.787  31.750  36.774  1.00  0.00     0.029 A 
ATOM     53  N   UNL A   1      41.227  31.110  34.719  1.00  0.00    -0.354 N 
ATOM     54  N   UNL A   1      41.428  29.438  32.308  1.00  0.00    -0.248 NA
ATOM     55  C   UNL A   1      42.488  27.761  31.077  1.00  0.00     0.031 C 
ATOM     56  C   UNL A   1      42.670  30.743  36.368  1.00  0.00     0.029 A 
ATOM     57  C   UNL A   1      42.305  30.325  35.098  1.00  0.00     0.049 A 
ATOM     58  H   UNL A   1      40.759  31.048  33.856  1.00  0.00     0.167 HD
ATOM     59  C   UNL A   1      42.474  28.921  33.057  1.00  0.00     0.074 A 
ATOM     60  C   UNL A   1      43.078  27.873  32.260  1.00  0.00     0.031 C 
ATOM     61  C   UNL A   1      42.897  29.286  34.293  1.00  0.00     0.037 A 
BRANCH  48  62
ATOM     62  C   UNL A   1      39.622  33.857  36.865  1.00  0.00     0.064 A 
ATOM     63  C   UNL A   1      38.817  33.458  37.943  1.00  0.00     0.173 A 
ATOM     64  C   UNL A   1      40.258  35.104  36.952  1.00  0.00     0.173 A 
ATOM     65  F   UNL A   1      38.173  32.282  37.905  1.00  0.00    -0.203 F 
ATOM     66  C   UNL A   1      38.640  34.283  39.050  1.00  0.00     0.198 A 
ATOM     67  C   UNL A   1      40.101  35.915  38.073  1.00  0.00     0.198 A 
ATOM     68  F   UNL A   1      41.042  35.535  35.951  1.00  0.00    -0.203 F 
ATOM     69  F   UNL A   1      37.830  33.899  40.047  1.00  0.00    -0.200 F 
ATOM     70  C   UNL A   1      39.288  35.507  39.119  1.00  0.00     0.200 A 
ATOM     71  F   UNL A   1      40.738  37.093  38.141  1.00  0.00    -0.200 F 
ATOM     72  F   UNL A   1      39.121  36.297  40.189  1.00  0.00    -0.200 F 
ENDBRANCH  48  62
BRANCH  49  73
ATOM     73  C   UNL A   1      40.602  27.998  28.832  1.00  0.00     0.064 A 
ATOM     74  C   UNL A   1      39.861  26.809  28.785  1.00  0.00     0.173 A 
ATOM     75  C   UNL A   1      41.379  28.331  27.713  1.00  0.00     0.173 A 
ATOM     76  F   UNL A   1      39.118  26.440  29.838  1.00  0.00    -0.203 F 
ATOM     77  C   UNL A   1      39.888  25.992  27.657  1.00  0.00     0.198 A 
ATOM     78  C   UNL A   1      41.383  27.527  26.576  1.00  0.00     0.198 A 
ATOM     79  F   UNL A   1      42.100  29.461  27.709  1.00  0.00    -0.203 F 
ATOM     80  F   UNL A   1      39.184  24.853  27.642  1.00  0.00    -0.200 F 
ATOM     81  C   UNL A   1      40.639  26.357  26.549  1.00  0.00     0.200 A 
ATOM     82  F   UNL A   1      42.093  27.895  25.501  1.00  0.00    -0.200 F 
ATOM     83  F   UNL A   1      40.643  25.584  25.456  1.00  0.00    -0.200 F 
ENDBRANCH  49  73
BRANCH  61  84
ATOM     84  C   UNL A   1      44.055  28.531  34.874  1.00  0.00     0.064 A 
ATOM     85  C   UNL A   1      43.867  27.350  35.607  1.00  0.00     0.173 A 
ATOM     86  C   UNL A   1      45.370  28.966  34.651  1.00  0.00     0.173 A 
ATOM     87  F   UNL A   1      42.628  26.901  35.858  1.00  0.00    -0.203 F 
ATOM     88  C   UNL A   1      44.955  26.643  36.112  1.00  0.00     0.198 A 
ATOM     89  C   UNL A   1      46.456  28.242  35.134  1.00  0.00     0.198 A 
ATOM     90  F   UNL A   1      45.601  30.087  33.951  1.00  0.00    -0.203 F 
ATOM     91  F   UNL A   1      44.752  25.538  36.844  1.00  0.00    -0.200 F 
ATOM     92  C   UNL A   1      46.248  27.084  35.869  1.00  0.00     0.200 A 
ATOM     93  F   UNL A   1      47.704  28.663  34.887  1.00  0.00    -0.200 F 
ATOM     94  F   UNL A   1      47.293  26.396  36.347  1.00  0.00    -0.200 F 
ENDBRANCH  61  84
ENDBRANCH  35  36
ENDBRANCH  27  30
ENDBRANCH  25  26
ENDBRANCH  24  25
ENDBRANCH   1  24
TORSDOF 13
ENDMDL
MODEL 2
REMARK VINA RESULT:     -12.6      2.726      5.127
REMARK SMILES COc1cc(Cn2cc(C(=O)NCCCNC(=O)c3ccc(-c4c5nc(c(-c6c(F)c(F)c(F)c(F)c6F)c6ccc([nH]6)c(-c6c(F)c(F)c(F)c(F)c6F)c6nc(c(-c7c(F)c(F)c(F)c(F)c7F)c7ccc4[nH]7)C=C6)C=C5)cc3)c(=O)[nH]c2=O)ccn1
REMARK SMILES IDX 13 1 12 2 10 3 11 4 9 6 7 7 8 8 85 9 84 10 86 11 82 12 83 14
REMARK SMILES IDX 6 15 5 16 3 17 4 18 89 19 88 20 87 21 2 22 1 23 14 24 15 25
REMARK SMILES IDX 16 26 17 27 18 29 19 30 20 31 81 32 21 33 80 34 22 35 23 36
REMARK SMILES IDX 24 37 74 38 25 39 79 40 73 41 75 42 26 43 78 44 72 45 71 46
REMARK SMILES IDX 27 48 59 49 39 50 58 51 40 52 43 53 57 54 76 55 41 56 42 57
REMARK SMILES IDX 56 59 77 60 44 61 28 62 29 63 37 64 30 65 31 66 35 67 38 68
REMARK SMILES IDX 32 69 33 70 36 71 34 72 60 73 61 74 69 75 62 76 63 77 67 78
REMARK SMILES IDX 70 79 64 80 65 81 68 82 66 83 45 84 46 85 54 86 47 87 48 88
REMARK SMILES IDX 52 89 55 90 49 91 50 92 53 93 51 94
REMARK H PARENT 12 5 84 13 16 28 75 47 43 58
REMARK Flexibility Score: inf
ROOT
ATOM      1  C   UNL A   1      31.819  28.953  23.344  1.00  0.00     0.118 C 
ENDROOT
BRANCH   1   2
ATOM      2  N   UNL A   1      31.784  27.897  22.346  1.00  0.00    -0.352 N 
ATOM      3  C   UNL A   1      31.679  26.538  22.437  1.00  0.00     0.258 C 
ATOM      4  O   UNL A   1      31.800  25.902  21.391  1.00  0.00    -0.269 OA
ATOM      5  H   UNL A   1      31.847  28.226  21.422  1.00  0.00     0.163 HD
BRANCH   3   6
ATOM      6  C   UNL A   1      31.416  25.842  23.728  1.00  0.00     0.121 A 
ATOM      7  N   UNL A   1      32.123  24.496  25.586  1.00  0.00    -0.295 N 
ATOM      8  C   UNL A   1      32.339  25.107  24.363  1.00  0.00     0.110 A 
ATOM      9  C   UNL A   1      30.867  24.471  26.173  1.00  0.00     0.328 A 
ATOM     10  N   UNL A   1      29.885  25.107  25.463  1.00  0.00    -0.273 N 
ATOM     11  O   UNL A   1      30.616  23.941  27.251  1.00  0.00    -0.248 OA
ATOM     12  C   UNL A   1      30.059  25.866  24.335  1.00  0.00     0.266 A 
ATOM     13  H   UNL A   1      28.963  25.011  25.796  1.00  0.00     0.175 HD
ATOM     14  O   UNL A   1      29.137  26.545  23.899  1.00  0.00    -0.268 OA
BRANCH   7  15
ATOM     15  C   UNL A   1      33.256  23.919  26.317  1.00  0.00     0.162 C 
BRANCH  15  16
ATOM     16  C   UNL A   1      33.633  22.554  25.782  1.00  0.00    -0.021 A 
ATOM     17  C   UNL A   1      33.080  20.308  25.174  1.00  0.00     0.213 A 
ATOM     18  C   UNL A   1      32.676  21.543  25.662  1.00  0.00     0.074 A 
ATOM     19  N   UNL A   1      34.351  19.992  24.858  1.00  0.00    -0.222 NA
ATOM     20  C   UNL A   1      35.263  20.971  24.999  1.00  0.00     0.115 A 
ATOM     21  C   UNL A   1      34.954  22.253  25.430  1.00  0.00     0.026 A 
BRANCH  17  22
ATOM     22  O   UNL A   1      32.153  19.313  25.002  1.00  0.00    -0.481 OA
ATOM     23  C   UNL A   1      32.757  18.062  25.329  1.00  0.00     0.280 C 
ENDBRANCH  17  22
ENDBRANCH  15  16
ENDBRANCH   7  15
ENDBRANCH   3   6
ENDBRANCH   1   2
BRANCH   1  24
ATOM     24  C   UNL A   1      33.211  29.035  23.975  1.00  0.00     0.042 C 
BRANCH  24  25
ATOM     25  C   UNL A   1      33.170  29.124  25.494  1.00  0.00     0.118 C 
BRANCH  25  26
ATOM     26  N   UNL A   1      32.748  30.443  25.946  1.00  0.00    -0.352 N 
ATOM     27  C   UNL A   1      33.275  31.234  26.942  1.00  0.00     0.251 C 
ATOM     28  H   UNL A   1      31.975  30.824  25.470  1.00  0.00     0.163 HD
ATOM     29  O   UNL A   1      32.664  32.223  27.325  1.00  0.00    -0.269 OA
BRANCH  27  30
ATOM     30  C   UNL A   1      34.564  30.870  27.573  1.00  0.00     0.039 A 
ATOM     31  C   UNL A   1      34.799  29.566  28.014  1.00  0.00     0.014 A 
ATOM     32  C   UNL A   1      35.552  31.848  27.719  1.00  0.00     0.014 A 
ATOM     33  C   UNL A   1      35.952  29.280  28.737  1.00  0.00     0.010 A 
ATOM     34  C   UNL A   1      36.748  31.537  28.371  1.00  0.00     0.010 A 
ATOM     35  C   UNL A   1      36.940  30.260  28.921  1.00  0.00    -0.014 A 
BRANCH  35  36
ATOM     36  C   UNL A   1      38.171  29.920  29.679  1.00  0.00     0.031 A 
ATOM     37  C   UNL A   1      38.391  30.449  31.069  1.00  0.00     0.074 A 
ATOM     38  C   UNL A   1      39.066  29.081  29.126  1.00  0.00     0.049 A 
ATOM     39  N   UNL A   1      39.397  30.243  31.882  1.00  0.00    -0.248 NA
ATOM     40  C   UNL A   1      37.346  31.325  31.620  1.00  0.00     0.031 C 
ATOM     41  C   UNL A   1      38.947  28.487  27.793  1.00  0.00     0.029 A 
ATOM     42  N   UNL A   1      40.232  28.555  29.622  1.00  0.00    -0.354 N 
ATOM     43  C   UNL A   1      39.114  30.969  33.031  1.00  0.00     0.074 A 
ATOM     44  C   UNL A   1      37.857  31.650  32.800  1.00  0.00     0.031 C 
ATOM     45  C   UNL A   1      39.962  27.633  27.602  1.00  0.00     0.029 A 
ATOM     46  C   UNL A   1      40.839  27.669  28.766  1.00  0.00     0.049 A 
ATOM     47  H   UNL A   1      40.599  28.791  30.505  1.00  0.00     0.167 HD
ATOM     48  C   UNL A   1      39.833  31.049  34.177  1.00  0.00     0.037 A 
ATOM     49  C   UNL A   1      41.981  26.970  28.899  1.00  0.00     0.037 A 
ATOM     50  C   UNL A   1      41.081  30.365  34.401  1.00  0.00     0.049 A 
ATOM     51  C   UNL A   1      42.788  27.122  30.156  1.00  0.00     0.074 A 
ATOM     52  C   UNL A   1      41.889  30.390  35.523  1.00  0.00     0.029 A 
ATOM     53  N   UNL A   1      41.700  29.528  33.481  1.00  0.00    -0.354 N 
ATOM     54  N   UNL A   1      42.521  27.829  31.227  1.00  0.00    -0.248 NA
ATOM     55  C   UNL A   1      44.060  26.390  30.217  1.00  0.00     0.031 C 
ATOM     56  C   UNL A   1      43.018  29.603  35.268  1.00  0.00     0.029 A 
ATOM     57  C   UNL A   1      42.887  29.044  34.007  1.00  0.00     0.049 A 
ATOM     58  H   UNL A   1      41.347  29.311  32.589  1.00  0.00     0.167 HD
ATOM     59  C   UNL A   1      43.580  27.616  32.098  1.00  0.00     0.074 A 
ATOM     60  C   UNL A   1      44.487  26.702  31.434  1.00  0.00     0.031 C 
ATOM     61  C   UNL A   1      43.782  28.136  33.333  1.00  0.00     0.037 A 
BRANCH  48  62
ATOM     62  C   UNL A   1      39.295  31.921  35.276  1.00  0.00     0.064 A 
ATOM     63  C   UNL A   1      39.572  33.296  35.328  1.00  0.00     0.173 A 
ATOM     64  C   UNL A   1      38.455  31.386  36.264  1.00  0.00     0.173 A 
ATOM     65  F   UNL A   1      40.381  33.855  34.416  1.00  0.00    -0.203 F 
ATOM     66  C   UNL A   1      39.048  34.096  36.339  1.00  0.00     0.198 A 
ATOM     67  C   UNL A   1      37.910  32.194  37.259  1.00  0.00     0.198 A 
ATOM     68  F   UNL A   1      38.154  30.078  36.261  1.00  0.00    -0.203 F 
ATOM     69  F   UNL A   1      39.364  35.397  36.394  1.00  0.00    -0.200 F 
ATOM     70  C   UNL A   1      38.211  33.547  37.300  1.00  0.00     0.200 A 
ATOM     71  F   UNL A   1      37.093  31.663  38.179  1.00  0.00    -0.200 F 
ATOM     72  F   UNL A   1      37.702  34.320  38.269  1.00  0.00    -0.200 F 
ENDBRANCH  48  62
BRANCH  49  73
ATOM     73  C   UNL A   1      42.402  26.052  27.811  1.00  0.00     0.064 A 
ATOM     74  C   UNL A   1      43.318  26.471  26.837  1.00  0.00     0.173 A 
ATOM     75  C   UNL A   1      41.952  24.725  27.761  1.00  0.00     0.173 A 
ATOM     76  F   UNL A   1      43.762  27.735  26.833  1.00  0.00    -0.203 F 
ATOM     77  C   UNL A   1      43.774  25.591  25.857  1.00  0.00     0.198 A 
ATOM     78  C   UNL A   1      42.430  23.840  26.799  1.00  0.00     0.198 A 
ATOM     79  F   UNL A   1      41.079  24.277  28.675  1.00  0.00    -0.203 F 
ATOM     80  F   UNL A   1      44.639  26.018  24.927  1.00  0.00    -0.200 F 
ATOM     81  C   UNL A   1      43.340  24.273  25.846  1.00  0.00     0.200 A 
ATOM     82  F   UNL A   1      42.023  22.563  26.804  1.00  0.00    -0.200 F 
ATOM     83  F   UNL A   1      43.800  23.422  24.920  1.00  0.00    -0.200 F 
ENDBRANCH  49  73
BRANCH  61  84
ATOM     84  C   UNL A   1      45.020  27.710  34.064  1.00  0.00     0.064 A 
ATOM     85  C   UNL A   1      46.210  28.447  33.981  1.00  0.00     0.173 A 
ATOM     86  C   UNL A   1      45.001  26.581  34.897  1.00  0.00     0.173 A 
ATOM     87  F   UNL A   1      46.283  29.526  33.187  1.00  0.00    -0.203 F 
ATOM     88  C   UNL A   1      47.343  28.057  34.692  1.00  0.00     0.198 A 
ATOM     89  C   UNL A   1      46.126  26.211  35.627  1.00  0.00     0.198 A 
ATOM     90  F   UNL A   1      43.885  25.847  35.014  1.00  0.00    -0.203 F 
ATOM     91  F   UNL A   1      48.482  28.753  34.567  1.00  0.00    -0.200 F 
ATOM     92  C   UNL A   1      47.298  26.945  35.519  1.00  0.00     0.200 A 
ATOM     93  F   UNL A   1      46.077  25.143  36.436  1.00  0.00    -0.200 F 
ATOM     94  F   UNL A   1      48.385  26.578  36.210  1.00  0.00    -0.200 F 
ENDBRANCH  61  84
ENDBRANCH  35  36
ENDBRANCH  27  30
ENDBRANCH  25  26
ENDBRANCH  24  25
ENDBRANCH   1  24
TORSDOF 13
ENDMDL
MODEL 3
REMARK VINA RESULT:     -12.6      1.831      3.704
REMARK SMILES COc1cc(Cn2cc(C(=O)NCCCNC(=O)c3ccc(-c4c5nc(c(-c6c(F)c(F)c(F)c(F)c6F)c6ccc([nH]6)c(-c6c(F)c(F)c(F)c(F)c6F)c6nc(c(-c7c(F)c(F)c(F)c(F)c7F)c7ccc4[nH]7)C=C6)C=C5)cc3)c(=O)[nH]c2=O)ccn1
REMARK SMILES IDX 13 1 12 2 10 3 11 4 9 6 7 7 8 8 85 9 84 10 86 11 82 12 83 14
REMARK SMILES IDX 6 15 5 16 3 17 4 18 89 19 88 20 87 21 2 22 1 23 14 24 15 25
REMARK SMILES IDX 16 26 17 27 18 29 19 30 20 31 81 32 21 33 80 34 22 35 23 36
REMARK SMILES IDX 24 37 74 38 25 39 79 40 73 41 75 42 26 43 78 44 72 45 71 46
REMARK SMILES IDX 27 48 59 49 39 50 58 51 40 52 43 53 57 54 76 55 41 56 42 57
REMARK SMILES IDX 56 59 77 60 44 61 28 62 29 63 37 64 30 65 31 66 35 67 38 68
REMARK SMILES IDX 32 69 33 70 36 71 34 72 60 73 61 74 69 75 62 76 63 77 67 78
REMARK SMILES IDX 70 79 64 80 65 81 68 82 66 83 45 84 46 85 54 86 47 87 48 88
REMARK SMILES IDX 52 89 55 90 49 91 50 92 53 93 51 94
REMARK H PARENT 12 5 84 13 16 28 75 47 43 58
REMARK Flexibility Score: inf
ROOT
ATOM      1  C   UNL A   1      31.738  30.847  26.300  1.00  0.00     0.118 C 
ENDROOT
BRANCH   1   2
ATOM      2  N   UNL A   1      33.009  30.350  26.801  1.00  0.00    -0.352 N 
ATOM      3  C   UNL A   1      33.512  29.091  26.968  1.00  0.00     0.258 C 
ATOM      4  O   UNL A   1      34.598  29.000  27.539  1.00  0.00    -0.269 OA
ATOM      5  H   UNL A   1      33.630  31.062  27.075  1.00  0.00     0.163 HD
BRANCH   3   6
ATOM      6  C   UNL A   1      32.805  27.876  26.476  1.00  0.00     0.121 A 
ATOM      7  N   UNL A   1      32.635  25.969  25.028  1.00  0.00    -0.295 N 
ATOM      8  C   UNL A   1      33.257  27.127  25.461  1.00  0.00     0.110 A 
ATOM      9  C   UNL A   1      31.397  25.583  25.518  1.00  0.00     0.328 A 
ATOM     10  N   UNL A   1      30.863  26.418  26.463  1.00  0.00    -0.273 N 
ATOM     11  O   UNL A   1      30.798  24.571  25.167  1.00  0.00    -0.248 OA
ATOM     12  C   UNL A   1      31.490  27.484  27.052  1.00  0.00     0.266 A 
ATOM     13  H   UNL A   1      29.939  26.233  26.747  1.00  0.00     0.175 HD
ATOM     14  O   UNL A   1      30.987  28.038  28.022  1.00  0.00    -0.268 OA
BRANCH   7  15
ATOM     15  C   UNL A   1      33.325  25.089  24.079  1.00  0.00     0.162 C 
BRANCH  15  16
ATOM     16  C   UNL A   1      34.283  24.148  24.780  1.00  0.00    -0.021 A 
ATOM     17  C   UNL A   1      36.185  22.699  24.777  1.00  0.00     0.213 A 
ATOM     18  C   UNL A   1      35.345  23.561  24.087  1.00  0.00     0.074 A 
ATOM     19  N   UNL A   1      36.018  22.339  26.065  1.00  0.00    -0.222 NA
ATOM     20  C   UNL A   1      34.979  22.898  26.712  1.00  0.00     0.115 A 
ATOM     21  C   UNL A   1      34.111  23.809  26.127  1.00  0.00     0.026 A 
BRANCH  17  22
ATOM     22  O   UNL A   1      37.262  22.146  24.135  1.00  0.00    -0.481 OA
ATOM     23  C   UNL A   1      37.537  20.872  24.714  1.00  0.00     0.280 C 
ENDBRANCH  17  22
ENDBRANCH  15  16
ENDBRANCH   7  15
ENDBRANCH   3   6
ENDBRANCH   1   2
BRANCH   1  24
ATOM     24  C   UNL A   1      31.474  32.254  26.839  1.00  0.00     0.042 C 
BRANCH  24  25
ATOM     25  C   UNL A   1      32.751  33.008  27.184  1.00  0.00     0.118 C 
BRANCH  25  26
ATOM     26  N   UNL A   1      32.471  34.353  27.667  1.00  0.00    -0.352 N 
ATOM     27  C   UNL A   1      33.020  35.031  28.731  1.00  0.00     0.251 C 
ATOM     28  H   UNL A   1      31.789  34.849  27.158  1.00  0.00     0.163 HD
ATOM     29  O   UNL A   1      32.515  36.076  29.117  1.00  0.00    -0.269 OA
BRANCH  27  30
ATOM     30  C   UNL A   1      34.203  34.479  29.429  1.00  0.00     0.039 A 
ATOM     31  C   UNL A   1      35.479  34.601  28.876  1.00  0.00     0.014 A 
ATOM     32  C   UNL A   1      34.031  33.836  30.658  1.00  0.00     0.014 A 
ATOM     33  C   UNL A   1      36.554  33.947  29.469  1.00  0.00     0.010 A 
ATOM     34  C   UNL A   1      35.128  33.252  31.298  1.00  0.00     0.010 A 
ATOM     35  C   UNL A   1      36.391  33.268  30.687  1.00  0.00    -0.014 A 
BRANCH  35  36
ATOM     36  C   UNL A   1      37.561  32.597  31.308  1.00  0.00     0.031 A 
ATOM     37  C   UNL A   1      38.015  32.966  32.693  1.00  0.00     0.074 A 
ATOM     38  C   UNL A   1      38.180  31.609  30.635  1.00  0.00     0.049 A 
ATOM     39  N   UNL A   1      39.005  32.474  33.397  1.00  0.00    -0.248 NA
ATOM     40  C   UNL A   1      37.261  34.025  33.380  1.00  0.00     0.031 C 
ATOM     41  C   UNL A   1      37.813  31.151  29.294  1.00  0.00     0.029 A 
ATOM     42  N   UNL A   1      39.221  30.792  30.993  1.00  0.00    -0.354 N 
ATOM     43  C   UNL A   1      39.000  33.169  34.599  1.00  0.00     0.074 A 
ATOM     44  C   UNL A   1      37.930  34.140  34.520  1.00  0.00     0.031 C 
ATOM     45  C   UNL A   1      38.572  30.096  28.968  1.00  0.00     0.029 A 
ATOM     46  C   UNL A   1      39.525  29.846  30.045  1.00  0.00     0.049 A 
ATOM     47  H   UNL A   1      39.704  30.875  31.847  1.00  0.00     0.167 HD
ATOM     48  C   UNL A   1      39.808  33.000  35.673  1.00  0.00     0.037 A 
ATOM     49  C   UNL A   1      40.472  28.891  30.037  1.00  0.00     0.037 A 
ATOM     50  C   UNL A   1      40.868  32.027  35.747  1.00  0.00     0.049 A 
ATOM     51  C   UNL A   1      41.391  28.764  31.216  1.00  0.00     0.074 A 
ATOM     52  C   UNL A   1      41.748  31.786  36.786  1.00  0.00     0.029 A 
ATOM     53  N   UNL A   1      41.190  31.131  34.736  1.00  0.00    -0.354 N 
ATOM     54  N   UNL A   1      41.391  29.440  32.339  1.00  0.00    -0.248 NA
ATOM     55  C   UNL A   1      42.449  27.750  31.123  1.00  0.00     0.031 C 
ATOM     56  C   UNL A   1      42.629  30.774  36.390  1.00  0.00     0.029 A 
ATOM     57  C   UNL A   1      42.265  30.346  35.123  1.00  0.00     0.049 A 
ATOM     58  H   UNL A   1      40.723  31.064  33.872  1.00  0.00     0.167 HD
ATOM     59  C   UNL A   1      42.434  28.926  33.094  1.00  0.00     0.074 A 
ATOM     60  C   UNL A   1      43.037  27.870  32.306  1.00  0.00     0.031 C 
ATOM     61  C   UNL A   1      42.856  29.300  34.327  1.00  0.00     0.037 A 
BRANCH  48  62
ATOM     62  C   UNL A   1      39.588  33.899  36.857  1.00  0.00     0.064 A 
ATOM     63  C   UNL A   1      38.803  33.499  37.949  1.00  0.00     0.173 A 
ATOM     64  C   UNL A   1      40.204  35.158  36.921  1.00  0.00     0.173 A 
ATOM     65  F   UNL A   1      38.178  32.312  37.933  1.00  0.00    -0.203 F 
ATOM     66  C   UNL A   1      38.626  34.334  39.049  1.00  0.00     0.198 A 
ATOM     67  C   UNL A   1      40.048  35.979  38.035  1.00  0.00     0.198 A 
ATOM     68  F   UNL A   1      40.968  35.590  35.906  1.00  0.00    -0.203 F 
ATOM     69  F   UNL A   1      37.835  33.949  40.061  1.00  0.00    -0.200 F 
ATOM     70  C   UNL A   1      39.254  35.570  39.096  1.00  0.00     0.200 A 
ATOM     71  F   UNL A   1      40.665  37.168  38.082  1.00  0.00    -0.200 F 
ATOM     72  F   UNL A   1      39.088  36.369  40.159  1.00  0.00    -0.200 F 
ENDBRANCH  48  62
BRANCH  49  73
ATOM     73  C   UNL A   1      40.568  27.974  28.873  1.00  0.00     0.064 A 
ATOM     74  C   UNL A   1      39.840  26.777  28.843  1.00  0.00     0.173 A 
ATOM     75  C   UNL A   1      41.331  28.306  27.744  1.00  0.00     0.173 A 
ATOM     76  F   UNL A   1      39.110  26.410  29.906  1.00  0.00    -0.203 F 
ATOM     77  C   UNL A   1      39.866  25.950  27.722  1.00  0.00     0.198 A 
ATOM     78  C   UNL A   1      41.334  27.491  26.614  1.00  0.00     0.198 A 
ATOM     79  F   UNL A   1      42.040  29.443  27.723  1.00  0.00    -0.203 F 
ATOM     80  F   UNL A   1      39.174  24.803  27.723  1.00  0.00    -0.200 F 
ATOM     81  C   UNL A   1      40.603  26.313  26.604  1.00  0.00     0.200 A 
ATOM     82  F   UNL A   1      42.032  27.857  25.529  1.00  0.00    -0.200 F 
ATOM     83  F   UNL A   1      40.606  25.530  25.518  1.00  0.00    -0.200 F 
ENDBRANCH  49  73
BRANCH  61  84
ATOM     84  C   UNL A   1      44.010  28.546  34.916  1.00  0.00     0.064 A 
ATOM     85  C   UNL A   1      45.332  28.991  34.762  1.00  0.00     0.173 A 
ATOM     86  C   UNL A   1      43.788  27.396  35.687  1.00  0.00     0.173 A 
ATOM     87  F   UNL A   1      45.596  30.078  34.022  1.00  0.00    -0.203 F 
ATOM     88  C   UNL A   1      46.391  28.298  35.343  1.00  0.00     0.198 A 
ATOM     89  C   UNL A   1      44.847  26.722  36.290  1.00  0.00     0.198 A 
ATOM     90  F   UNL A   1      42.542  26.934  35.869  1.00  0.00    -0.203 F 
ATOM     91  F   UNL A   1      47.649  28.717  35.150  1.00  0.00    -0.200 F 
ATOM     92  C   UNL A   1      46.147  27.169  36.112  1.00  0.00     0.200 A 
ATOM     93  F   UNL A   1      44.608  25.639  37.043  1.00  0.00    -0.200 F 
ATOM     94  F   UNL A   1      47.167  26.511  36.679  1.00  0.00    -0.200 F 
ENDBRANCH  61  84
ENDBRANCH  35  36
ENDBRANCH  27  30
ENDBRANCH  25  26
ENDBRANCH  24  25
ENDBRANCH   1  24
TORSDOF 13
ENDMDL
