MODEL 1
REMARK VINA RESULT:     -12.5      0.000      0.000
REMARK SMILES COc1cc([C@H]2[NH2+][C@@H](C(=O)NCCCNC(=O)c3ccc(-c4c5nc(c(-c6c(F)c(F)c(F)c(F)c6F)c6ccc([nH]6)c(-c6c(F)c(F)c(F)c(F)c6F)c6nc(c(-c7c(F)c(F)c(F)c(F)c7F)c7ccc4[nH]7)C=C6)C=C5)cc3)CS2)cc([N+](=O)[O-])c1OC
REMARK SMILES IDX 13 1 12 2 11 3 9 4 10 5 8 7 6 8 7 9 82 10 81 13 5 14 3 15
REMARK SMILES IDX 4 16 88 17 84 18 83 19 2 20 1 21 89 22 90 23 85 24 86 25
REMARK SMILES IDX 87 26 14 27 15 28 16 29 17 31 18 32 19 33 80 34 20 35 79 36
REMARK SMILES IDX 21 37 22 38 23 39 73 40 24 41 78 42 72 43 74 44 25 45 77 46
REMARK SMILES IDX 71 47 70 48 26 50 58 51 38 52 57 53 39 54 42 55 56 56 75 57
REMARK SMILES IDX 40 58 41 59 55 61 76 62 43 63 27 64 28 65 36 66 29 67 30 68
REMARK SMILES IDX 34 69 37 70 31 71 32 72 35 73 33 74 59 75 60 76 68 77 61 78
REMARK SMILES IDX 62 79 66 80 69 81 63 82 64 83 67 84 65 85 44 86 45 87 53 88
REMARK SMILES IDX 46 89 47 90 51 91 54 92 48 93 49 94 52 95 50 96
REMARK H PARENT 11 6 7 11 7 12 15 30 74 49 42 60
REMARK Flexibility Score: inf
ROOT
ATOM      1  C   UNL A   1      31.557  32.041  26.876  1.00  0.00     0.042 C 
ENDROOT
BRANCH   1   2
ATOM      2  C   UNL A   1      31.748  30.533  26.868  1.00  0.00     0.118 C 
BRANCH   2   3
ATOM      3  N   UNL A   1      32.611  30.069  25.798  1.00  0.00    -0.351 N 
ATOM      4  C   UNL A   1      32.397  29.413  24.630  1.00  0.00     0.279 C 
ATOM      5  O   UNL A   1      33.412  29.159  23.968  1.00  0.00    -0.268 OA
ATOM      6  H   UNL A   1      33.562  30.277  25.955  1.00  0.00     0.163 HD
BRANCH   4   7
ATOM      7  C   UNL A   1      31.034  28.897  24.136  1.00  0.00     0.283 C 
ATOM      8  C   UNL A   1      30.304  26.635  23.667  1.00  0.00     0.274 C 
ATOM      9  N   UNL A   1      30.579  27.610  24.726  1.00  0.00    -0.321 N 
ATOM     10  S   UNL A   1      31.130  27.197  22.154  1.00  0.00    -0.088 SA
ATOM     11  H   UNL A   1      31.307  27.246  25.341  1.00  0.00     0.348 HD
ATOM     12  H   UNL A   1      29.723  27.774  25.257  1.00  0.00     0.348 HD
ATOM     13  C   UNL A   1      30.991  28.920  22.613  1.00  0.00     0.151 C 
BRANCH   8  14
ATOM     14  C   UNL A   1      30.561  25.178  24.066  1.00  0.00     0.031 A 
ATOM     15  C   UNL A   1      31.514  22.978  23.503  1.00  0.00     0.168 A 
ATOM     16  C   UNL A   1      31.078  24.269  23.126  1.00  0.00     0.061 A 
ATOM     17  C   UNL A   1      31.455  22.544  24.840  1.00  0.00     0.239 A 
ATOM     18  C   UNL A   1      30.889  23.430  25.777  1.00  0.00     0.315 A 
ATOM     19  C   UNL A   1      30.446  24.716  25.388  1.00  0.00     0.101 A 
BRANCH  15  20
ATOM     20  O   UNL A   1      32.170  22.253  22.540  1.00  0.00    -0.493 OA
ATOM     21  C   UNL A   1      33.280  22.954  21.981  1.00  0.00     0.278 C 
ENDBRANCH  15  20
BRANCH  17  22
ATOM     22  O   UNL A   1      31.941  21.369  25.328  1.00  0.00    -0.488 OA
ATOM     23  C   UNL A   1      33.327  21.122  25.466  1.00  0.00     0.279 C 
ENDBRANCH  17  22
BRANCH  18  24
ATOM     24  N   UNL A   1      30.764  23.090  27.216  1.00  0.00     0.066 N 
ATOM     25  O   UNL A   1      29.615  22.937  27.660  1.00  0.00    -0.258 OA
ATOM     26  O   UNL A   1      31.777  22.967  27.914  1.00  0.00    -0.258 OA
ENDBRANCH  18  24
ENDBRANCH   8  14
ENDBRANCH   4   7
ENDBRANCH   2   3
ENDBRANCH   1   2
BRANCH   1  27
ATOM     27  C   UNL A   1      32.812  32.830  27.218  1.00  0.00     0.118 C 
BRANCH  27  28
ATOM     28  N   UNL A   1      32.529  34.200  27.629  1.00  0.00    -0.352 N 
ATOM     29  C   UNL A   1      33.052  34.959  28.646  1.00  0.00     0.251 C 
ATOM     30  H   UNL A   1      31.846  34.657  27.086  1.00  0.00     0.163 HD
ATOM     31  O   UNL A   1      32.518  36.030  28.935  1.00  0.00    -0.269 OA
BRANCH  29  32
ATOM     32  C   UNL A   1      34.227  34.496  29.414  1.00  0.00     0.039 A 
ATOM     33  C   UNL A   1      34.032  33.965  30.692  1.00  0.00     0.014 A 
ATOM     34  C   UNL A   1      35.518  34.593  28.892  1.00  0.00     0.014 A 
ATOM     35  C   UNL A   1      35.116  33.444  31.401  1.00  0.00     0.010 A 
ATOM     36  C   UNL A   1      36.582  33.990  29.557  1.00  0.00     0.010 A 
ATOM     37  C   UNL A   1      36.392  33.400  30.814  1.00  0.00    -0.014 A 
BRANCH  37  38
ATOM     38  C   UNL A   1      37.525  32.707  31.479  1.00  0.00     0.031 A 
ATOM     39  C   UNL A   1      38.201  31.538  30.819  1.00  0.00     0.074 A 
ATOM     40  C   UNL A   1      37.889  33.084  32.721  1.00  0.00     0.049 A 
ATOM     41  N   UNL A   1      39.149  30.761  31.282  1.00  0.00    -0.248 NA
ATOM     42  C   UNL A   1      37.734  31.177  29.472  1.00  0.00     0.031 C 
ATOM     43  C   UNL A   1      37.274  34.169  33.489  1.00  0.00     0.029 A 
ATOM     44  N   UNL A   1      38.856  32.590  33.563  1.00  0.00    -0.354 N 
ATOM     45  C   UNL A   1      39.381  29.817  30.290  1.00  0.00     0.074 A 
ATOM     46  C   UNL A   1      38.439  30.083  29.225  1.00  0.00     0.031 C 
ATOM     47  C   UNL A   1      37.892  34.275  34.675  1.00  0.00     0.029 A 
ATOM     48  C   UNL A   1      38.914  33.238  34.773  1.00  0.00     0.049 A 
ATOM     49  H   UNL A   1      39.450  31.845  33.320  1.00  0.00     0.167 HD
ATOM     50  C   UNL A   1      40.311  28.832  30.263  1.00  0.00     0.037 A 
ATOM     51  C   UNL A   1      39.691  33.010  35.848  1.00  0.00     0.037 A 
ATOM     52  C   UNL A   1      41.255  28.581  31.321  1.00  0.00     0.049 A 
ATOM     53  C   UNL A   1      40.697  31.892  35.802  1.00  0.00     0.074 A 
ATOM     54  C   UNL A   1      42.278  27.648  31.362  1.00  0.00     0.029 A 
ATOM     55  N   UNL A   1      41.287  29.259  32.532  1.00  0.00    -0.354 N 
ATOM     56  N   UNL A   1      40.961  31.055  34.828  1.00  0.00    -0.248 NA
ATOM     57  C   UNL A   1      41.517  31.690  37.004  1.00  0.00     0.031 C 
ATOM     58  C   UNL A   1      42.888  27.722  32.618  1.00  0.00     0.029 A 
ATOM     59  C   UNL A   1      42.288  28.742  33.338  1.00  0.00     0.049 A 
ATOM     60  H   UNL A   1      40.686  29.998  32.780  1.00  0.00     0.167 HD
ATOM     61  C   UNL A   1      41.988  30.244  35.288  1.00  0.00     0.074 A 
ATOM     62  C   UNL A   1      42.317  30.705  36.622  1.00  0.00     0.031 C 
ATOM     63  C   UNL A   1      42.603  29.209  34.666  1.00  0.00     0.037 A 
BRANCH  50  64
ATOM     64  C   UNL A   1      40.355  27.948  29.049  1.00  0.00     0.064 A 
ATOM     65  C   UNL A   1      41.126  28.280  27.923  1.00  0.00     0.173 A 
ATOM     66  C   UNL A   1      39.654  26.733  29.025  1.00  0.00     0.173 A 
ATOM     67  F   UNL A   1      41.810  29.433  27.888  1.00  0.00    -0.203 F 
ATOM     68  C   UNL A   1      41.168  27.442  26.810  1.00  0.00     0.198 A 
ATOM     69  C   UNL A   1      39.725  25.883  27.925  1.00  0.00     0.198 A 
ATOM     70  F   UNL A   1      38.906  26.363  30.076  1.00  0.00    -0.203 F 
ATOM     71  F   UNL A   1      41.871  27.805  25.728  1.00  0.00    -0.200 F 
ATOM     72  C   UNL A   1      40.475  26.242  26.815  1.00  0.00     0.200 A 
ATOM     73  F   UNL A   1      39.066  24.716  27.938  1.00  0.00    -0.200 F 
ATOM     74  F   UNL A   1      40.524  25.433  25.748  1.00  0.00    -0.200 F 
ENDBRANCH  50  64
BRANCH  51  75
ATOM     75  C   UNL A   1      39.554  33.863  37.059  1.00  0.00     0.064 A 
ATOM     76  C   UNL A   1      40.236  35.084  37.159  1.00  0.00     0.173 A 
ATOM     77  C   UNL A   1      38.748  33.476  38.140  1.00  0.00     0.173 A 
ATOM     78  F   UNL A   1      41.038  35.486  36.162  1.00  0.00    -0.203 F 
ATOM     79  C   UNL A   1      40.136  35.873  38.303  1.00  0.00     0.198 A 
ATOM     80  C   UNL A   1      38.624  34.282  39.270  1.00  0.00     0.198 A 
ATOM     81  F   UNL A   1      38.073  32.318  38.093  1.00  0.00    -0.203 F 
ATOM     82  F   UNL A   1      40.843  37.008  38.395  1.00  0.00    -0.200 F 
ATOM     83  C   UNL A   1      39.325  35.474  39.355  1.00  0.00     0.200 A 
ATOM     84  F   UNL A   1      37.832  33.897  40.279  1.00  0.00    -0.200 F 
ATOM     85  F   UNL A   1      39.230  36.233  40.455  1.00  0.00    -0.200 F 
ENDBRANCH  51  75
BRANCH  63  86
ATOM     86  C   UNL A   1      43.711  28.518  35.409  1.00  0.00     0.064 A 
ATOM     87  C   UNL A   1      45.052  28.898  35.251  1.00  0.00     0.173 A 
ATOM     88  C   UNL A   1      43.425  27.485  36.314  1.00  0.00     0.173 A 
ATOM     89  F   UNL A   1      45.381  29.870  34.386  1.00  0.00    -0.203 F 
ATOM     90  C   UNL A   1      46.068  28.250  35.949  1.00  0.00     0.198 A 
ATOM     91  C   UNL A   1      44.439  26.862  37.037  1.00  0.00     0.198 A 
ATOM     92  F   UNL A   1      42.158  27.087  36.508  1.00  0.00    -0.203 F 
ATOM     93  F   UNL A   1      47.346  28.594  35.742  1.00  0.00    -0.200 F 
ATOM     94  C   UNL A   1      45.759  27.239  36.847  1.00  0.00     0.200 A 
ATOM     95  F   UNL A   1      44.138  25.897  37.916  1.00  0.00    -0.200 F 
ATOM     96  F   UNL A   1      46.737  26.621  37.524  1.00  0.00    -0.200 F 
ENDBRANCH  63  86
ENDBRANCH  37  38
ENDBRANCH  29  32
ENDBRANCH  27  28
ENDBRANCH   1  27
TORSDOF 14
ENDMDL
MODEL 2
REMARK VINA RESULT:     -12.5      0.344      1.969
REMARK SMILES COc1cc([C@H]2[NH2+][C@@H](C(=O)NCCCNC(=O)c3ccc(-c4c5nc(c(-c6c(F)c(F)c(F)c(F)c6F)c6ccc([nH]6)c(-c6c(F)c(F)c(F)c(F)c6F)c6nc(c(-c7c(F)c(F)c(F)c(F)c7F)c7ccc4[nH]7)C=C6)C=C5)cc3)CS2)cc([N+](=O)[O-])c1OC
REMARK SMILES IDX 13 1 12 2 11 3 9 4 10 5 8 7 6 8 7 9 82 10 81 13 5 14 3 15
REMARK SMILES IDX 4 16 88 17 84 18 83 19 2 20 1 21 89 22 90 23 85 24 86 25
REMARK SMILES IDX 87 26 14 27 15 28 16 29 17 31 18 32 19 33 80 34 20 35 79 36
REMARK SMILES IDX 21 37 22 38 23 39 73 40 24 41 78 42 72 43 74 44 25 45 77 46
REMARK SMILES IDX 71 47 70 48 26 50 58 51 38 52 57 53 39 54 42 55 56 56 75 57
REMARK SMILES IDX 40 58 41 59 55 61 76 62 43 63 27 64 28 65 36 66 29 67 30 68
REMARK SMILES IDX 34 69 37 70 31 71 32 72 35 73 33 74 59 75 60 76 68 77 61 78
REMARK SMILES IDX 62 79 66 80 69 81 63 82 64 83 67 84 65 85 44 86 45 87 53 88
REMARK SMILES IDX 46 89 47 90 51 91 54 92 48 93 49 94 52 95 50 96
REMARK H PARENT 11 6 7 11 7 12 15 30 74 49 42 60
REMARK Flexibility Score: inf
ROOT
ATOM      1  C   UNL A   1      31.479  32.121  26.635  1.00  0.00     0.042 C 
ENDROOT
BRANCH   1   2
ATOM      2  C   UNL A   1      31.535  30.603  26.619  1.00  0.00     0.118 C 
BRANCH   2   3
ATOM      3  N   UNL A   1      32.507  30.074  25.681  1.00  0.00    -0.351 N 
ATOM      4  C   UNL A   1      32.420  29.318  24.557  1.00  0.00     0.279 C 
ATOM      5  O   UNL A   1      33.500  29.036  24.021  1.00  0.00    -0.268 OA
ATOM      6  H   UNL A   1      33.434  30.318  25.911  1.00  0.00     0.163 HD
BRANCH   4   7
ATOM      7  C   UNL A   1      31.122  28.729  23.979  1.00  0.00     0.283 C 
ATOM      8  C   UNL A   1      30.527  26.425  23.522  1.00  0.00     0.274 C 
ATOM      9  N   UNL A   1      30.678  27.439  24.570  1.00  0.00    -0.321 N 
ATOM     10  S   UNL A   1      31.438  26.986  22.059  1.00  0.00    -0.088 SA
ATOM     11  H   UNL A   1      31.373  27.123  25.247  1.00  0.00     0.348 HD
ATOM     12  H   UNL A   1      29.779  27.577  25.032  1.00  0.00     0.348 HD
ATOM     13  C   UNL A   1      31.192  28.712  22.457  1.00  0.00     0.151 C 
BRANCH   8  14
ATOM     14  C   UNL A   1      30.815  24.993  23.980  1.00  0.00     0.031 A 
ATOM     15  C   UNL A   1      31.863  22.810  23.531  1.00  0.00     0.168 A 
ATOM     16  C   UNL A   1      31.401  24.072  23.093  1.00  0.00     0.061 A 
ATOM     17  C   UNL A   1      31.762  22.418  24.878  1.00  0.00     0.239 A 
ATOM     18  C   UNL A   1      31.128  23.313  25.761  1.00  0.00     0.315 A 
ATOM     19  C   UNL A   1      30.660  24.569  25.311  1.00  0.00     0.101 A 
BRANCH  15  20
ATOM     20  O   UNL A   1      32.582  22.076  22.621  1.00  0.00    -0.493 OA
ATOM     21  C   UNL A   1      31.856  20.956  22.116  1.00  0.00     0.278 C 
ENDBRANCH  15  20
BRANCH  17  22
ATOM     22  O   UNL A   1      32.266  21.276  25.425  1.00  0.00    -0.488 OA
ATOM     23  C   UNL A   1      33.652  21.084  25.632  1.00  0.00     0.279 C 
ENDBRANCH  17  22
BRANCH  18  24
ATOM     24  N   UNL A   1      30.955  23.016  27.205  1.00  0.00     0.066 N 
ATOM     25  O   UNL A   1      29.792  22.863  27.611  1.00  0.00    -0.258 OA
ATOM     26  O   UNL A   1      31.943  22.927  27.943  1.00  0.00    -0.258 OA
ENDBRANCH  18  24
ENDBRANCH   8  14
ENDBRANCH   4   7
ENDBRANCH   2   3
ENDBRANCH   1   2
BRANCH   1  27
ATOM     27  C   UNL A   1      32.671  32.785  27.307  1.00  0.00     0.118 C 
BRANCH  27  28
ATOM     28  N   UNL A   1      32.428  34.184  27.645  1.00  0.00    -0.352 N 
ATOM     29  C   UNL A   1      32.999  34.990  28.597  1.00  0.00     0.251 C 
ATOM     30  H   UNL A   1      31.737  34.622  27.097  1.00  0.00     0.163 HD
ATOM     31  O   UNL A   1      32.496  36.087  28.838  1.00  0.00    -0.269 OA
BRANCH  29  32
ATOM     32  C   UNL A   1      34.189  34.548  29.354  1.00  0.00     0.039 A 
ATOM     33  C   UNL A   1      34.024  34.085  30.663  1.00  0.00     0.014 A 
ATOM     34  C   UNL A   1      35.466  34.599  28.791  1.00  0.00     0.014 A 
ATOM     35  C   UNL A   1      35.122  33.584  31.366  1.00  0.00     0.010 A 
ATOM     36  C   UNL A   1      36.541  34.014  29.455  1.00  0.00     0.010 A 
ATOM     37  C   UNL A   1      36.379  33.491  30.746  1.00  0.00    -0.014 A 
BRANCH  37  38
ATOM     38  C   UNL A   1      37.521  32.815  31.413  1.00  0.00     0.031 A 
ATOM     39  C   UNL A   1      38.206  31.647  30.760  1.00  0.00     0.074 A 
ATOM     40  C   UNL A   1      37.886  33.206  32.650  1.00  0.00     0.049 A 
ATOM     41  N   UNL A   1      39.163  30.883  31.226  1.00  0.00    -0.248 NA
ATOM     42  C   UNL A   1      37.739  31.270  29.418  1.00  0.00     0.031 C 
ATOM     43  C   UNL A   1      37.263  34.291  33.411  1.00  0.00     0.029 A 
ATOM     44  N   UNL A   1      38.860  32.729  33.492  1.00  0.00    -0.354 N 
ATOM     45  C   UNL A   1      39.402  29.933  30.241  1.00  0.00     0.074 A 
ATOM     46  C   UNL A   1      38.454  30.181  29.178  1.00  0.00     0.031 C 
ATOM     47  C   UNL A   1      37.884  34.413  34.593  1.00  0.00     0.029 A 
ATOM     48  C   UNL A   1      38.916  33.388  34.697  1.00  0.00     0.049 A 
ATOM     49  H   UNL A   1      39.461  31.987  33.254  1.00  0.00     0.167 HD
ATOM     50  C   UNL A   1      40.342  28.958  30.220  1.00  0.00     0.037 A 
ATOM     51  C   UNL A   1      39.699  33.177  35.771  1.00  0.00     0.037 A 
ATOM     52  C   UNL A   1      41.292  28.725  31.276  1.00  0.00     0.049 A 
ATOM     53  C   UNL A   1      40.717  32.069  35.731  1.00  0.00     0.074 A 
ATOM     54  C   UNL A   1      42.324  27.802  31.322  1.00  0.00     0.029 A 
ATOM     55  N   UNL A   1      41.321  29.413  32.481  1.00  0.00    -0.354 N 
ATOM     56  N   UNL A   1      40.985  31.226  34.763  1.00  0.00    -0.248 NA
ATOM     57  C   UNL A   1      41.543  31.885  36.931  1.00  0.00     0.031 C 
ATOM     58  C   UNL A   1      42.937  27.893  32.574  1.00  0.00     0.029 A 
ATOM     59  C   UNL A   1      42.330  28.913  33.288  1.00  0.00     0.049 A 
ATOM     60  H   UNL A   1      40.714  30.149  32.725  1.00  0.00     0.167 HD
ATOM     61  C   UNL A   1      42.022  30.429  35.226  1.00  0.00     0.074 A 
ATOM     62  C   UNL A   1      42.351  30.905  36.555  1.00  0.00     0.031 C 
ATOM     63  C   UNL A   1      42.645  29.395  34.611  1.00  0.00     0.037 A 
BRANCH  50  64
ATOM     64  C   UNL A   1      40.390  28.064  29.012  1.00  0.00     0.064 A 
ATOM     65  C   UNL A   1      39.678  26.855  28.961  1.00  0.00     0.173 A 
ATOM     66  C   UNL A   1      41.122  28.440  27.876  1.00  0.00     0.173 A 
ATOM     67  F   UNL A   1      38.969  26.443  30.023  1.00  0.00    -0.203 F 
ATOM     68  C   UNL A   1      39.722  26.044  27.829  1.00  0.00     0.198 A 
ATOM     69  C   UNL A   1      41.136  27.643  26.734  1.00  0.00     0.198 A 
ATOM     70  F   UNL A   1      41.817  29.588  27.867  1.00  0.00    -0.203 F 
ATOM     71  F   UNL A   1      39.074  24.870  27.823  1.00  0.00    -0.200 F 
ATOM     72  C   UNL A   1      40.443  26.442  26.714  1.00  0.00     0.200 A 
ATOM     73  F   UNL A   1      41.822  28.037  25.652  1.00  0.00    -0.200 F 
ATOM     74  F   UNL A   1      40.476  25.666  25.623  1.00  0.00    -0.200 F 
ENDBRANCH  50  64
BRANCH  51  75
ATOM     75  C   UNL A   1      39.558  34.039  36.975  1.00  0.00     0.064 A 
ATOM     76  C   UNL A   1      38.791  33.622  38.072  1.00  0.00     0.173 A 
ATOM     77  C   UNL A   1      40.177  35.296  37.052  1.00  0.00     0.173 A 
ATOM     78  F   UNL A   1      38.159  32.439  38.035  1.00  0.00    -0.203 F 
ATOM     79  C   UNL A   1      38.629  34.438  39.189  1.00  0.00     0.198 A 
ATOM     80  C   UNL A   1      40.040  36.097  38.184  1.00  0.00     0.198 A 
ATOM     81  F   UNL A   1      40.922  35.740  36.030  1.00  0.00    -0.203 F 
ATOM     82  F   UNL A   1      37.844  34.038  40.200  1.00  0.00    -0.200 F 
ATOM     83  C   UNL A   1      39.259  35.673  39.247  1.00  0.00     0.200 A 
ATOM     84  F   UNL A   1      40.658  37.284  38.239  1.00  0.00    -0.200 F 
ATOM     85  F   UNL A   1      39.102  36.457  40.322  1.00  0.00    -0.200 F 
ENDBRANCH  51  75
BRANCH  63  86
ATOM     86  C   UNL A   1      43.763  28.721  35.356  1.00  0.00     0.064 A 
ATOM     87  C   UNL A   1      43.520  27.676  36.259  1.00  0.00     0.173 A 
ATOM     88  C   UNL A   1      45.095  29.106  35.140  1.00  0.00     0.173 A 
ATOM     89  F   UNL A   1      42.263  27.280  36.513  1.00  0.00    -0.203 F 
ATOM     90  C   UNL A   1      44.567  27.060  36.940  1.00  0.00     0.198 A 
ATOM     91  C   UNL A   1      46.142  28.465  35.796  1.00  0.00     0.198 A 
ATOM     92  F   UNL A   1      45.383  30.096  34.281  1.00  0.00    -0.203 F 
ATOM     93  F   UNL A   1      44.307  26.100  37.838  1.00  0.00    -0.200 F 
ATOM     94  C   UNL A   1      45.877  27.449  36.701  1.00  0.00     0.200 A 
ATOM     95  F   UNL A   1      47.408  28.831  35.552  1.00  0.00    -0.200 F 
ATOM     96  F   UNL A   1      46.884  26.850  37.352  1.00  0.00    -0.200 F 
ENDBRANCH  63  86
ENDBRANCH  37  38
ENDBRANCH  29  32
ENDBRANCH  27  28
ENDBRANCH   1  27
TORSDOF 14
ENDMDL
MODEL 3
REMARK VINA RESULT:     -12.4      5.846     11.376
REMARK SMILES COc1cc([C@H]2[NH2+][C@@H](C(=O)NCCCNC(=O)c3ccc(-c4c5nc(c(-c6c(F)c(F)c(F)c(F)c6F)c6ccc([nH]6)c(-c6c(F)c(F)c(F)c(F)c6F)c6nc(c(-c7c(F)c(F)c(F)c(F)c7F)c7ccc4[nH]7)C=C6)C=C5)cc3)CS2)cc([N+](=O)[O-])c1OC
REMARK SMILES IDX 13 1 12 2 11 3 9 4 10 5 8 7 6 8 7 9 82 10 81 13 5 14 3 15
REMARK SMILES IDX 4 16 88 17 84 18 83 19 2 20 1 21 89 22 90 23 85 24 86 25
REMARK SMILES IDX 87 26 14 27 15 28 16 29 17 31 18 32 19 33 80 34 20 35 79 36
REMARK SMILES IDX 21 37 22 38 23 39 73 40 24 41 78 42 72 43 74 44 25 45 77 46
REMARK SMILES IDX 71 47 70 48 26 50 58 51 38 52 57 53 39 54 42 55 56 56 75 57
REMARK SMILES IDX 40 58 41 59 55 61 76 62 43 63 27 64 28 65 36 66 29 67 30 68
REMARK SMILES IDX 34 69 37 70 31 71 32 72 35 73 33 74 59 75 60 76 68 77 61 78
REMARK SMILES IDX 62 79 66 80 69 81 63 82 64 83 67 84 65 85 44 86 45 87 53 88
REMARK SMILES IDX 46 89 47 90 51 91 54 92 48 93 49 94 52 95 50 96
REMARK H PARENT 11 6 7 11 7 12 15 30 74 49 42 60
REMARK Flexibility Score: inf
ROOT
ATOM      1  C   UNL A   1      38.222  19.868  24.992  1.00  0.00     0.042 C 
ENDROOT
BRANCH   1   2
ATOM      2  C   UNL A   1      37.401  21.100  24.648  1.00  0.00     0.118 C 
BRANCH   2   3
ATOM      3  N   UNL A   1      36.541  21.538  25.731  1.00  0.00    -0.351 N 
ATOM      4  C   UNL A   1      35.208  21.457  25.969  1.00  0.00     0.279 C 
ATOM      5  O   UNL A   1      34.823  21.983  27.023  1.00  0.00    -0.268 OA
ATOM      6  H   UNL A   1      37.035  21.995  26.452  1.00  0.00     0.163 HD
BRANCH   4   7
ATOM      7  C   UNL A   1      34.166  20.861  25.007  1.00  0.00     0.283 C 
ATOM      8  C   UNL A   1      32.296  21.921  23.888  1.00  0.00     0.274 C 
ATOM      9  N   UNL A   1      33.751  21.739  23.881  1.00  0.00    -0.321 N 
ATOM     10  S   UNL A   1      31.679  21.467  25.530  1.00  0.00    -0.088 SA
ATOM     11  H   UNL A   1      34.205  22.647  23.978  1.00  0.00     0.348 HD
ATOM     12  H   UNL A   1      34.027  21.303  23.001  1.00  0.00     0.348 HD
ATOM     13  C   UNL A   1      32.996  20.288  25.798  1.00  0.00     0.151 C 
BRANCH   8  14
ATOM     14  C   UNL A   1      31.824  23.274  23.348  1.00  0.00     0.031 A 
ATOM     15  C   UNL A   1      30.426  25.282  23.631  1.00  0.00     0.168 A 
ATOM     16  C   UNL A   1      30.761  23.951  23.970  1.00  0.00     0.061 A 
ATOM     17  C   UNL A   1      31.149  25.994  22.656  1.00  0.00     0.239 A 
ATOM     18  C   UNL A   1      32.181  25.305  21.991  1.00  0.00     0.315 A 
ATOM     19  C   UNL A   1      32.501  23.970  22.331  1.00  0.00     0.101 A 
BRANCH  15  20
ATOM     20  O   UNL A   1      29.498  25.899  24.431  1.00  0.00    -0.493 OA
ATOM     21  C   UNL A   1      29.730  25.673  25.821  1.00  0.00     0.278 C 
ENDBRANCH  15  20
BRANCH  17  22
ATOM     22  O   UNL A   1      30.982  27.306  22.328  1.00  0.00    -0.488 OA
ATOM     23  C   UNL A   1      31.417  28.358  23.168  1.00  0.00     0.279 C 
ENDBRANCH  17  22
BRANCH  18  24
ATOM     24  N   UNL A   1      33.013  25.942  20.941  1.00  0.00     0.066 N 
ATOM     25  O   UNL A   1      33.803  26.826  21.308  1.00  0.00    -0.258 OA
ATOM     26  O   UNL A   1      32.904  25.584  19.762  1.00  0.00    -0.258 OA
ENDBRANCH  18  24
ENDBRANCH   8  14
ENDBRANCH   4   7
ENDBRANCH   2   3
ENDBRANCH   1   2
BRANCH   1  27
ATOM     27  C   UNL A   1      39.293  20.105  26.047  1.00  0.00     0.118 C 
BRANCH  27  28
ATOM     28  N   UNL A   1      40.341  19.090  26.032  1.00  0.00    -0.352 N 
ATOM     29  C   UNL A   1      41.706  19.208  26.098  1.00  0.00     0.251 C 
ATOM     30  H   UNL A   1      40.012  18.164  25.963  1.00  0.00     0.163 HD
ATOM     31  O   UNL A   1      42.408  18.223  25.866  1.00  0.00    -0.269 OA
BRANCH  29  32
ATOM     32  C   UNL A   1      42.344  20.503  26.414  1.00  0.00     0.039 A 
ATOM     33  C   UNL A   1      42.909  21.249  25.376  1.00  0.00     0.014 A 
ATOM     34  C   UNL A   1      42.402  20.981  27.725  1.00  0.00     0.014 A 
ATOM     35  C   UNL A   1      43.441  22.513  25.639  1.00  0.00     0.010 A 
ATOM     36  C   UNL A   1      42.846  22.278  27.971  1.00  0.00     0.010 A 
ATOM     37  C   UNL A   1      43.361  23.062  26.929  1.00  0.00    -0.014 A 
BRANCH  37  38
ATOM     38  C   UNL A   1      43.771  24.464  27.199  1.00  0.00     0.031 A 
ATOM     39  C   UNL A   1      42.770  25.474  27.685  1.00  0.00     0.074 A 
ATOM     40  C   UNL A   1      45.035  24.844  26.926  1.00  0.00     0.049 A 
ATOM     41  N   UNL A   1      42.925  26.758  27.896  1.00  0.00    -0.248 NA
ATOM     42  C   UNL A   1      41.407  24.985  27.944  1.00  0.00     0.031 C 
ATOM     43  C   UNL A   1      46.085  23.970  26.400  1.00  0.00     0.029 A 
ATOM     44  N   UNL A   1      45.650  26.067  27.040  1.00  0.00    -0.354 N 
ATOM     45  C   UNL A   1      41.682  27.228  28.300  1.00  0.00     0.074 A 
ATOM     46  C   UNL A   1      40.770  26.106  28.251  1.00  0.00     0.031 C 
ATOM     47  C   UNL A   1      47.217  24.675  26.260  1.00  0.00     0.029 A 
ATOM     48  C   UNL A   1      46.964  26.061  26.639  1.00  0.00     0.049 A 
ATOM     49  H   UNL A   1      45.192  26.870  27.377  1.00  0.00     0.167 HD
ATOM     50  C   UNL A   1      41.339  28.477  28.695  1.00  0.00     0.037 A 
ATOM     51  C   UNL A   1      47.860  27.063  26.569  1.00  0.00     0.037 A 
ATOM     52  C   UNL A   1      42.255  29.588  28.754  1.00  0.00     0.049 A 
ATOM     53  C   UNL A   1      47.445  28.448  26.989  1.00  0.00     0.074 A 
ATOM     54  C   UNL A   1      42.020  30.877  29.200  1.00  0.00     0.029 A 
ATOM     55  N   UNL A   1      43.580  29.544  28.344  1.00  0.00    -0.354 N 
ATOM     56  N   UNL A   1      46.288  28.864  27.442  1.00  0.00    -0.248 NA
ATOM     57  C   UNL A   1      48.464  29.501  26.892  1.00  0.00     0.031 C 
ATOM     58  C   UNL A   1      43.184  31.627  29.005  1.00  0.00     0.029 A 
ATOM     59  C   UNL A   1      44.164  30.792  28.495  1.00  0.00     0.049 A 
ATOM     60  H   UNL A   1      44.037  28.744  27.997  1.00  0.00     0.167 HD
ATOM     61  C   UNL A   1      46.443  30.217  27.704  1.00  0.00     0.074 A 
ATOM     62  C   UNL A   1      47.816  30.548  27.381  1.00  0.00     0.031 C 
ATOM     63  C   UNL A   1      45.532  31.108  28.167  1.00  0.00     0.037 A 
BRANCH  50  64
ATOM     64  C   UNL A   1      39.911  28.715  29.096  1.00  0.00     0.064 A 
ATOM     65  C   UNL A   1      39.477  28.540  30.419  1.00  0.00     0.173 A 
ATOM     66  C   UNL A   1      38.972  29.165  28.155  1.00  0.00     0.173 A 
ATOM     67  F   UNL A   1      40.331  28.102  31.358  1.00  0.00    -0.203 F 
ATOM     68  C   UNL A   1      38.152  28.777  30.778  1.00  0.00     0.198 A 
ATOM     69  C   UNL A   1      37.656  29.434  28.524  1.00  0.00     0.198 A 
ATOM     70  F   UNL A   1      39.332  29.355  26.876  1.00  0.00    -0.203 F 
ATOM     71  F   UNL A   1      37.751  28.554  32.038  1.00  0.00    -0.200 F 
ATOM     72  C   UNL A   1      37.245  29.232  29.833  1.00  0.00     0.200 A 
ATOM     73  F   UNL A   1      36.785  29.888  27.612  1.00  0.00    -0.200 F 
ATOM     74  F   UNL A   1      35.974  29.469  30.182  1.00  0.00    -0.200 F 
ENDBRANCH  50  64
BRANCH  51  75
ATOM     75  C   UNL A   1      49.241  26.793  26.089  1.00  0.00     0.064 A 
ATOM     76  C   UNL A   1      50.238  26.360  26.975  1.00  0.00     0.173 A 
ATOM     77  C   UNL A   1      49.596  26.969  24.743  1.00  0.00     0.173 A 
ATOM     78  F   UNL A   1      49.955  26.202  28.276  1.00  0.00    -0.203 F 
ATOM     79  C   UNL A   1      51.542  26.135  26.537  1.00  0.00     0.198 A 
ATOM     80  C   UNL A   1      50.892  26.713  24.301  1.00  0.00     0.198 A 
ATOM     81  F   UNL A   1      48.679  27.381  23.856  1.00  0.00    -0.203 F 
ATOM     82  F   UNL A   1      52.488  25.776  27.415  1.00  0.00    -0.200 F 
ATOM     83  C   UNL A   1      51.866  26.306  25.199  1.00  0.00     0.200 A 
ATOM     84  F   UNL A   1      51.198  26.870  23.007  1.00  0.00    -0.200 F 
ATOM     85  F   UNL A   1      53.120  26.090  24.780  1.00  0.00    -0.200 F 
ENDBRANCH  51  75
BRANCH  63  86
ATOM     86  C   UNL A   1      45.996  32.522  28.376  1.00  0.00     0.064 A 
ATOM     87  C   UNL A   1      45.866  33.495  27.375  1.00  0.00     0.173 A 
ATOM     88  C   UNL A   1      46.548  32.915  29.605  1.00  0.00     0.173 A 
ATOM     89  F   UNL A   1      45.358  33.167  26.176  1.00  0.00    -0.203 F 
ATOM     90  C   UNL A   1      46.298  34.802  27.585  1.00  0.00     0.198 A 
ATOM     91  C   UNL A   1      46.947  34.231  29.824  1.00  0.00     0.198 A 
ATOM     92  F   UNL A   1      46.689  32.025  30.599  1.00  0.00    -0.203 F 
ATOM     93  F   UNL A   1      46.213  35.702  26.595  1.00  0.00    -0.200 F 
ATOM     94  C   UNL A   1      46.829  35.170  28.812  1.00  0.00     0.200 A 
ATOM     95  F   UNL A   1      47.445  34.588  31.016  1.00  0.00    -0.200 F 
ATOM     96  F   UNL A   1      47.238  36.430  29.015  1.00  0.00    -0.200 F 
ENDBRANCH  63  86
ENDBRANCH  37  38
ENDBRANCH  29  32
ENDBRANCH  27  28
ENDBRANCH   1  27
TORSDOF 14
ENDMDL
