MODEL 1
REMARK VINA RESULT:     -13.9      0.000      0.000
REMARK SMILES Cc1ccc(-c2nc(C)c(C(=O)N3CCC(C(=O)NCCCNC(=O)c4ccc(-c5c6nc(c(-c7c(F)c(F)c(F)c(F)c7F)c7ccc([nH]7)c(-c7c(F)c(F)c(F)c(F)c7F)c7nc(c(-c8c(F)c(F)c(F)c(F)c8F)c8ccc5[nH]8)C=C7)C=C6)cc4)CC3)s2)o1
REMARK SMILES IDX 21 1 20 2 19 3 17 4 18 5 16 7 11 8 12 9 13 10 14 11 90 12
REMARK SMILES IDX 15 13 89 14 10 15 6 16 7 17 91 18 8 19 9 20 5 21 1 22 2 23
REMARK SMILES IDX 3 24 92 25 4 26 22 27 23 28 24 29 25 31 26 32 27 33 88 34
REMARK SMILES IDX 28 35 87 36 29 37 30 38 31 39 81 40 32 41 86 42 80 43 82 44
REMARK SMILES IDX 33 45 85 46 79 47 78 48 34 50 66 51 46 52 65 53 47 54 50 55
REMARK SMILES IDX 64 56 83 57 48 58 49 59 63 61 84 62 51 63 35 64 36 65 44 66
REMARK SMILES IDX 37 67 38 68 42 69 45 70 39 71 40 72 43 73 41 74 67 75 68 76
REMARK SMILES IDX 76 77 69 78 70 79 74 80 77 81 71 82 72 83 75 84 73 85 52 86
REMARK SMILES IDX 53 87 61 88 54 89 55 90 59 91 62 92 56 93 57 94 60 95 58 96
REMARK H PARENT 19 6 23 30 82 49 50 60
REMARK Flexibility Score: inf
ROOT
ATOM      1  C   UNL A   1      31.420  32.282  26.804  1.00  0.00     0.042 C 
ENDROOT
BRANCH   1   2
ATOM      2  C   UNL A   1      31.588  30.783  26.607  1.00  0.00     0.117 C 
BRANCH   2   3
ATOM      3  N   UNL A   1      32.360  30.466  25.414  1.00  0.00    -0.356 N 
ATOM      4  C   UNL A   1      32.639  29.273  24.822  1.00  0.00     0.223 C 
ATOM      5  O   UNL A   1      33.349  29.280  23.814  1.00  0.00    -0.275 OA
ATOM      6  H   UNL A   1      32.745  31.248  24.959  1.00  0.00     0.163 HD
BRANCH   4   7
ATOM      7  C   UNL A   1      32.093  27.967  25.374  1.00  0.00     0.082 C 
ATOM      8  C   UNL A   1      31.323  24.199  23.943  1.00  0.00     0.265 C 
ATOM      9  O   UNL A   1      30.833  24.443  22.840  1.00  0.00    -0.268 OA
ATOM     10  N   UNL A   1      31.429  25.225  24.880  1.00  0.00    -0.338 N 
ATOM     11  C   UNL A   1      30.339  26.175  25.006  1.00  0.00     0.120 C 
ATOM     12  C   UNL A   1      32.617  25.489  25.678  1.00  0.00     0.120 C 
ATOM     13  C   UNL A   1      30.779  27.587  24.681  1.00  0.00     0.035 C 
ATOM     14  C   UNL A   1      33.178  26.877  25.396  1.00  0.00     0.035 C 
BRANCH   8  15
ATOM     15  C   UNL A   1      31.686  22.853  24.368  1.00  0.00     0.115 A 
ATOM     16  C   UNL A   1      32.386  20.520  24.328  1.00  0.00     0.159 A 
ATOM     17  N   UNL A   1      31.702  20.765  25.420  1.00  0.00    -0.237 NA
ATOM     18  S   UNL A   1      32.665  21.877  23.326  1.00  0.00    -0.105 S 
ATOM     19  C   UNL A   1      31.278  22.082  25.449  1.00  0.00     0.062 A 
ATOM     20  C   UNL A   1      30.394  22.439  26.589  1.00  0.00     0.068 C 
BRANCH  16  21
ATOM     21  C   UNL A   1      32.806  19.189  24.001  1.00  0.00     0.162 A 
ATOM     22  C   UNL A   1      34.829  16.387  24.963  1.00  0.00     0.087 C 
ATOM     23  C   UNL A   1      33.913  17.284  24.230  1.00  0.00     0.101 A 
ATOM     24  C   UNL A   1      33.214  17.181  23.049  1.00  0.00     0.046 A 
ATOM     25  O   UNL A   1      33.681  18.494  24.801  1.00  0.00    -0.459 OA
ATOM     26  C   UNL A   1      32.491  18.394  22.910  1.00  0.00     0.054 A 
ENDBRANCH  16  21
ENDBRANCH   8  15
ENDBRANCH   4   7
ENDBRANCH   2   3
ENDBRANCH   1   2
BRANCH   1  27
ATOM     27  C   UNL A   1      32.709  32.996  27.170  1.00  0.00     0.118 C 
BRANCH  27  28
ATOM     28  N   UNL A   1      32.481  34.355  27.640  1.00  0.00    -0.352 N 
ATOM     29  C   UNL A   1      33.024  35.021  28.708  1.00  0.00     0.251 C 
ATOM     30  H   UNL A   1      31.835  34.876  27.111  1.00  0.00     0.163 HD
ATOM     31  O   UNL A   1      32.548  36.097  29.062  1.00  0.00    -0.269 OA
BRANCH  29  32
ATOM     32  C   UNL A   1      34.169  34.445  29.444  1.00  0.00     0.039 A 
ATOM     33  C   UNL A   1      33.929  33.760  30.638  1.00  0.00     0.014 A 
ATOM     34  C   UNL A   1      35.477  34.594  28.975  1.00  0.00     0.014 A 
ATOM     35  C   UNL A   1      34.993  33.177  31.326  1.00  0.00     0.010 A 
ATOM     36  C   UNL A   1      36.521  33.925  29.603  1.00  0.00     0.010 A 
ATOM     37  C   UNL A   1      36.294  33.225  30.796  1.00  0.00    -0.014 A 
BRANCH  37  38
ATOM     38  C   UNL A   1      37.429  32.566  31.489  1.00  0.00     0.031 A 
ATOM     39  C   UNL A   1      38.158  31.426  30.832  1.00  0.00     0.074 A 
ATOM     40  C   UNL A   1      37.770  32.963  32.730  1.00  0.00     0.049 A 
ATOM     41  N   UNL A   1      39.153  30.706  31.288  1.00  0.00    -0.248 NA
ATOM     42  C   UNL A   1      37.689  31.018  29.497  1.00  0.00     0.031 C 
ATOM     43  C   UNL A   1      37.098  34.014  33.497  1.00  0.00     0.029 A 
ATOM     44  N   UNL A   1      38.766  32.527  33.567  1.00  0.00    -0.354 N 
ATOM     45  C   UNL A   1      39.414  29.759  30.307  1.00  0.00     0.074 A 
ATOM     46  C   UNL A   1      38.434  29.950  29.260  1.00  0.00     0.031 C 
ATOM     47  C   UNL A   1      37.723  34.165  34.676  1.00  0.00     0.029 A 
ATOM     48  C   UNL A   1      38.814  33.200  34.763  1.00  0.00     0.049 A 
ATOM     49  H   UNL A   1      39.388  31.800  33.332  1.00  0.00     0.167 HD
ATOM     50  C   UNL A   1      40.402  28.833  30.266  1.00  0.00     0.037 A 
ATOM     51  C   UNL A   1      39.646  33.054  35.811  1.00  0.00     0.037 A 
ATOM     52  C   UNL A   1      41.391  28.663  31.297  1.00  0.00     0.049 A 
ATOM     53  C   UNL A   1      40.743  32.026  35.736  1.00  0.00     0.074 A 
ATOM     54  C   UNL A   1      42.467  27.795  31.327  1.00  0.00     0.029 A 
ATOM     55  N   UNL A   1      41.423  29.382  32.484  1.00  0.00    -0.354 N 
ATOM     56  N   UNL A   1      41.028  31.188  34.769  1.00  0.00    -0.248 NA
ATOM     57  C   UNL A   1      41.640  31.934  36.894  1.00  0.00     0.031 C 
ATOM     58  C   UNL A   1      43.122  27.954  32.554  1.00  0.00     0.029 A 
ATOM     59  C   UNL A   1      42.489  28.961  33.263  1.00  0.00     0.049 A 
ATOM     60  H   UNL A   1      40.781  30.085  32.736  1.00  0.00     0.167 HD
ATOM     61  C   UNL A   1      42.154  30.492  35.187  1.00  0.00     0.074 A 
ATOM     62  C   UNL A   1      42.510  31.021  36.488  1.00  0.00     0.031 C 
ATOM     63  C   UNL A   1      42.833  29.505  34.552  1.00  0.00     0.037 A 
BRANCH  50  64
ATOM     64  C   UNL A   1      40.464  27.936  29.062  1.00  0.00     0.064 A 
ATOM     65  C   UNL A   1      39.707  26.756  28.982  1.00  0.00     0.173 A 
ATOM     66  C   UNL A   1      41.265  28.274  27.960  1.00  0.00     0.173 A 
ATOM     67  F   UNL A   1      38.933  26.379  30.012  1.00  0.00    -0.203 F 
ATOM     68  C   UNL A   1      39.775  25.933  27.861  1.00  0.00     0.198 A 
ATOM     69  C   UNL A   1      41.304  27.466  26.827  1.00  0.00     0.198 A 
ATOM     70  F   UNL A   1      42.005  29.392  27.979  1.00  0.00    -0.203 F 
ATOM     71  F   UNL A   1      39.086  24.784  27.833  1.00  0.00    -0.200 F 
ATOM     72  C   UNL A   1      40.567  26.293  26.781  1.00  0.00     0.200 A 
ATOM     73  F   UNL A   1      42.059  27.821  25.778  1.00  0.00    -0.200 F 
ATOM     74  F   UNL A   1      40.625  25.503  25.700  1.00  0.00    -0.200 F 
ENDBRANCH  50  64
BRANCH  51  75
ATOM     75  C   UNL A   1      39.501  33.930  37.003  1.00  0.00     0.064 A 
ATOM     76  C   UNL A   1      40.099  35.199  37.042  1.00  0.00     0.173 A 
ATOM     77  C   UNL A   1      38.773  33.518  38.129  1.00  0.00     0.173 A 
ATOM     78  F   UNL A   1      40.821  35.629  35.997  1.00  0.00    -0.203 F 
ATOM     79  C   UNL A   1      39.994  36.010  38.169  1.00  0.00     0.198 A 
ATOM     80  C   UNL A   1      38.644  34.344  39.243  1.00  0.00     0.198 A 
ATOM     81  F   UNL A   1      38.178  32.317  38.140  1.00  0.00    -0.203 F 
ATOM     82  F   UNL A   1      40.619  37.196  38.199  1.00  0.00    -0.200 F 
ATOM     83  C   UNL A   1      39.263  35.584  39.267  1.00  0.00     0.200 A 
ATOM     84  F   UNL A   1      37.924  33.935  40.297  1.00  0.00    -0.200 F 
ATOM     85  F   UNL A   1      39.162  36.366  40.352  1.00  0.00    -0.200 F 
ENDBRANCH  51  75
BRANCH  63  86
ATOM     86  C   UNL A   1      44.055  28.963  35.238  1.00  0.00     0.064 A 
ATOM     87  C   UNL A   1      45.330  29.502  35.014  1.00  0.00     0.173 A 
ATOM     88  C   UNL A   1      43.941  27.903  36.151  1.00  0.00     0.173 A 
ATOM     89  F   UNL A   1      45.494  30.508  34.141  1.00  0.00    -0.203 F 
ATOM     90  C   UNL A   1      46.451  28.976  35.650  1.00  0.00     0.198 A 
ATOM     91  C   UNL A   1      45.059  27.402  36.811  1.00  0.00     0.198 A 
ATOM     92  F   UNL A   1      42.743  27.357  36.408  1.00  0.00    -0.203 F 
ATOM     93  F   UNL A   1      47.667  29.467  35.374  1.00  0.00    -0.200 F 
ATOM     94  C   UNL A   1      46.314  27.931  36.552  1.00  0.00     0.200 A 
ATOM     95  F   UNL A   1      44.923  26.403  37.694  1.00  0.00    -0.200 F 
ATOM     96  F   UNL A   1      47.394  27.427  37.165  1.00  0.00    -0.200 F 
ENDBRANCH  63  86
ENDBRANCH  37  38
ENDBRANCH  29  32
ENDBRANCH  27  28
ENDBRANCH   1  27
TORSDOF 12
ENDMDL
MODEL 2
REMARK VINA RESULT:     -13.9      0.767      7.396
REMARK SMILES Cc1ccc(-c2nc(C)c(C(=O)N3CCC(C(=O)NCCCNC(=O)c4ccc(-c5c6nc(c(-c7c(F)c(F)c(F)c(F)c7F)c7ccc([nH]7)c(-c7c(F)c(F)c(F)c(F)c7F)c7nc(c(-c8c(F)c(F)c(F)c(F)c8F)c8ccc5[nH]8)C=C7)C=C6)cc4)CC3)s2)o1
REMARK SMILES IDX 21 1 20 2 19 3 17 4 18 5 16 7 11 8 12 9 13 10 14 11 90 12
REMARK SMILES IDX 15 13 89 14 10 15 6 16 7 17 91 18 8 19 9 20 5 21 1 22 2 23
REMARK SMILES IDX 3 24 92 25 4 26 22 27 23 28 24 29 25 31 26 32 27 33 88 34
REMARK SMILES IDX 28 35 87 36 29 37 30 38 31 39 81 40 32 41 86 42 80 43 82 44
REMARK SMILES IDX 33 45 85 46 79 47 78 48 34 50 66 51 46 52 65 53 47 54 50 55
REMARK SMILES IDX 64 56 83 57 48 58 49 59 63 61 84 62 51 63 35 64 36 65 44 66
REMARK SMILES IDX 37 67 38 68 42 69 45 70 39 71 40 72 43 73 41 74 67 75 68 76
REMARK SMILES IDX 76 77 69 78 70 79 74 80 77 81 71 82 72 83 75 84 73 85 52 86
REMARK SMILES IDX 53 87 61 88 54 89 55 90 59 91 62 92 56 93 57 94 60 95 58 96
REMARK H PARENT 19 6 23 30 82 49 50 60
REMARK Flexibility Score: inf
ROOT
ATOM      1  C   UNL A   1      31.421  32.243  26.840  1.00  0.00     0.042 C 
ENDROOT
BRANCH   1   2
ATOM      2  C   UNL A   1      31.615  30.749  26.629  1.00  0.00     0.117 C 
BRANCH   2   3
ATOM      3  N   UNL A   1      32.329  30.454  25.395  1.00  0.00    -0.356 N 
ATOM      4  C   UNL A   1      32.565  29.274  24.761  1.00  0.00     0.223 C 
ATOM      5  O   UNL A   1      33.230  29.298  23.723  1.00  0.00    -0.275 OA
ATOM      6  H   UNL A   1      32.704  31.243  24.943  1.00  0.00     0.163 HD
BRANCH   4   7
ATOM      7  C   UNL A   1      32.027  27.961  25.303  1.00  0.00     0.082 C 
ATOM      8  C   UNL A   1      31.363  24.174  23.867  1.00  0.00     0.265 C 
ATOM      9  O   UNL A   1      30.899  24.405  22.750  1.00  0.00    -0.268 OA
ATOM     10  N   UNL A   1      31.425  25.205  24.803  1.00  0.00    -0.338 N 
ATOM     11  C   UNL A   1      30.316  26.137  24.894  1.00  0.00     0.120 C 
ATOM     12  C   UNL A   1      32.586  25.493  25.632  1.00  0.00     0.120 C 
ATOM     13  C   UNL A   1      30.740  27.555  24.576  1.00  0.00     0.035 C 
ATOM     14  C   UNL A   1      33.131  26.889  25.360  1.00  0.00     0.035 C 
BRANCH   8  15
ATOM     15  C   UNL A   1      31.737  22.836  24.308  1.00  0.00     0.115 A 
ATOM     16  C   UNL A   1      32.442  20.505  24.294  1.00  0.00     0.159 A 
ATOM     17  N   UNL A   1      31.777  20.766  25.394  1.00  0.00    -0.237 NA
ATOM     18  S   UNL A   1      32.700  21.846  23.265  1.00  0.00    -0.105 S 
ATOM     19  C   UNL A   1      31.350  22.082  25.409  1.00  0.00     0.062 A 
ATOM     20  C   UNL A   1      30.486  22.456  26.559  1.00  0.00     0.068 C 
BRANCH  16  21
ATOM     21  C   UNL A   1      32.861  19.170  23.982  1.00  0.00     0.162 A 
ATOM     22  C   UNL A   1      34.838  16.355  25.001  1.00  0.00     0.087 C 
ATOM     23  C   UNL A   1      33.947  17.257  24.243  1.00  0.00     0.101 A 
ATOM     24  C   UNL A   1      33.276  17.156  23.046  1.00  0.00     0.046 A 
ATOM     25  O   UNL A   1      33.710  18.470  24.805  1.00  0.00    -0.459 OA
ATOM     26  C   UNL A   1      32.566  18.373  22.886  1.00  0.00     0.054 A 
ENDBRANCH  16  21
ENDBRANCH   8  15
ENDBRANCH   4   7
ENDBRANCH   2   3
ENDBRANCH   1   2
BRANCH   1  27
ATOM     27  C   UNL A   1      32.720  33.003  27.045  1.00  0.00     0.118 C 
BRANCH  27  28
ATOM     28  N   UNL A   1      32.512  34.311  27.650  1.00  0.00    -0.352 N 
ATOM     29  C   UNL A   1      33.089  34.869  28.761  1.00  0.00     0.251 C 
ATOM     30  H   UNL A   1      31.855  34.882  27.190  1.00  0.00     0.163 HD
ATOM     31  O   UNL A   1      32.629  35.909  29.229  1.00  0.00    -0.269 OA
BRANCH  29  32
ATOM     32  C   UNL A   1      34.251  34.222  29.405  1.00  0.00     0.039 A 
ATOM     33  C   UNL A   1      34.026  33.289  30.421  1.00  0.00     0.014 A 
ATOM     34  C   UNL A   1      35.557  34.545  29.029  1.00  0.00     0.014 A 
ATOM     35  C   UNL A   1      35.109  32.640  31.014  1.00  0.00     0.010 A 
ATOM     36  C   UNL A   1      36.627  33.823  29.545  1.00  0.00     0.010 A 
ATOM     37  C   UNL A   1      36.417  32.876  30.557  1.00  0.00    -0.014 A 
BRANCH  37  38
ATOM     38  C   UNL A   1      37.575  32.157  31.142  1.00  0.00     0.031 A 
ATOM     39  C   UNL A   1      38.053  32.493  32.529  1.00  0.00     0.074 A 
ATOM     40  C   UNL A   1      38.227  31.236  30.406  1.00  0.00     0.049 A 
ATOM     41  N   UNL A   1      39.063  31.997  33.200  1.00  0.00    -0.248 NA
ATOM     42  C   UNL A   1      37.319  33.548  33.247  1.00  0.00     0.031 C 
ATOM     43  C   UNL A   1      37.899  30.869  29.027  1.00  0.00     0.029 A 
ATOM     44  N   UNL A   1      39.304  30.444  30.713  1.00  0.00    -0.354 N 
ATOM     45  C   UNL A   1      39.091  32.688  34.405  1.00  0.00     0.074 A 
ATOM     46  C   UNL A   1      38.041  33.682  34.348  1.00  0.00     0.031 C 
ATOM     47  C   UNL A   1      38.733  29.899  28.620  1.00  0.00     0.029 A 
ATOM     48  C   UNL A   1      39.676  29.602  29.694  1.00  0.00     0.049 A 
ATOM     49  H   UNL A   1      39.767  30.476  31.581  1.00  0.00     0.167 HD
ATOM     50  C   UNL A   1      39.897  32.491  35.475  1.00  0.00     0.037 A 
ATOM     51  C   UNL A   1      40.665  28.691  29.634  1.00  0.00     0.037 A 
ATOM     52  C   UNL A   1      40.923  31.483  35.536  1.00  0.00     0.049 A 
ATOM     53  C   UNL A   1      41.541  28.483  30.841  1.00  0.00     0.074 A 
ATOM     54  C   UNL A   1      41.756  31.163  36.593  1.00  0.00     0.029 A 
ATOM     55  N   UNL A   1      41.254  30.631  34.492  1.00  0.00    -0.354 N 
ATOM     56  N   UNL A   1      41.508  29.090  32.003  1.00  0.00    -0.248 NA
ATOM     57  C   UNL A   1      42.583  27.455  30.730  1.00  0.00     0.031 C 
ATOM     58  C   UNL A   1      42.624  30.149  36.172  1.00  0.00     0.029 A 
ATOM     59  C   UNL A   1      42.293  29.798  34.874  1.00  0.00     0.049 A 
ATOM     60  H   UNL A   1      40.815  30.621  33.611  1.00  0.00     0.167 HD
ATOM     61  C   UNL A   1      42.500  28.496  32.772  1.00  0.00     0.074 A 
ATOM     62  C   UNL A   1      43.104  27.469  31.948  1.00  0.00     0.031 C 
ATOM     63  C   UNL A   1      42.877  28.775  34.044  1.00  0.00     0.037 A 
BRANCH  50  64
ATOM     64  C   UNL A   1      39.697  33.381  36.668  1.00  0.00     0.064 A 
ATOM     65  C   UNL A   1      40.381  34.600  36.802  1.00  0.00     0.173 A 
ATOM     66  C   UNL A   1      38.788  33.028  37.677  1.00  0.00     0.173 A 
ATOM     67  F   UNL A   1      41.271  34.981  35.873  1.00  0.00    -0.203 F 
ATOM     68  C   UNL A   1      40.187  35.415  37.915  1.00  0.00     0.198 A 
ATOM     69  C   UNL A   1      38.571  33.861  38.772  1.00  0.00     0.198 A 
ATOM     70  F   UNL A   1      38.103  31.877  37.599  1.00  0.00    -0.203 F 
ATOM     71  F   UNL A   1      40.893  36.546  38.046  1.00  0.00    -0.200 F 
ATOM     72  C   UNL A   1      39.276  35.049  38.894  1.00  0.00     0.200 A 
ATOM     73  F   UNL A   1      37.681  33.514  39.711  1.00  0.00    -0.200 F 
ATOM     74  F   UNL A   1      39.085  35.838  39.961  1.00  0.00    -0.200 F 
ENDBRANCH  50  64
BRANCH  51  75
ATOM     75  C   UNL A   1      40.856  27.879  28.404  1.00  0.00     0.064 A 
ATOM     76  C   UNL A   1      40.223  26.636  28.256  1.00  0.00     0.173 A 
ATOM     77  C   UNL A   1      41.678  28.321  27.357  1.00  0.00     0.173 A 
ATOM     78  F   UNL A   1      39.443  26.163  29.239  1.00  0.00    -0.203 F 
ATOM     79  C   UNL A   1      40.425  25.856  27.120  1.00  0.00     0.198 A 
ATOM     80  C   UNL A   1      41.854  27.553  26.208  1.00  0.00     0.198 A 
ATOM     81  F   UNL A   1      42.301  29.504  27.446  1.00  0.00    -0.203 F 
ATOM     82  F   UNL A   1      39.849  24.649  27.028  1.00  0.00    -0.200 F 
ATOM     83  C   UNL A   1      41.236  26.316  26.095  1.00  0.00     0.200 A 
ATOM     84  F   UNL A   1      42.627  28.008  25.212  1.00  0.00    -0.200 F 
ATOM     85  F   UNL A   1      41.429  25.565  25.001  1.00  0.00    -0.200 F 
ENDBRANCH  51  75
BRANCH  63  86
ATOM     86  C   UNL A   1      43.967  27.928  34.636  1.00  0.00     0.064 A 
ATOM     87  C   UNL A   1      43.695  26.703  35.262  1.00  0.00     0.173 A 
ATOM     88  C   UNL A   1      45.306  28.340  34.555  1.00  0.00     0.173 A 
ATOM     89  F   UNL A   1      42.430  26.270  35.378  1.00  0.00    -0.203 F 
ATOM     90  C   UNL A   1      44.718  25.940  35.817  1.00  0.00     0.198 A 
ATOM     91  C   UNL A   1      46.331  27.559  35.080  1.00  0.00     0.198 A 
ATOM     92  F   UNL A   1      45.622  29.500  33.959  1.00  0.00    -0.203 F 
ATOM     93  F   UNL A   1      44.428  24.803  36.464  1.00  0.00    -0.200 F 
ATOM     94  C   UNL A   1      46.035  26.365  35.721  1.00  0.00     0.200 A 
ATOM     95  F   UNL A   1      47.604  27.964  34.972  1.00  0.00    -0.200 F 
ATOM     96  F   UNL A   1      47.019  25.629  36.253  1.00  0.00    -0.200 F 
ENDBRANCH  63  86
ENDBRANCH  37  38
ENDBRANCH  29  32
ENDBRANCH  27  28
ENDBRANCH   1  27
TORSDOF 12
ENDMDL
MODEL 3
REMARK VINA RESULT:     -13.9      0.734      7.144
REMARK SMILES Cc1ccc(-c2nc(C)c(C(=O)N3CCC(C(=O)NCCCNC(=O)c4ccc(-c5c6nc(c(-c7c(F)c(F)c(F)c(F)c7F)c7ccc([nH]7)c(-c7c(F)c(F)c(F)c(F)c7F)c7nc(c(-c8c(F)c(F)c(F)c(F)c8F)c8ccc5[nH]8)C=C7)C=C6)cc4)CC3)s2)o1
REMARK SMILES IDX 21 1 20 2 19 3 17 4 18 5 16 7 11 8 12 9 13 10 14 11 90 12
REMARK SMILES IDX 15 13 89 14 10 15 6 16 7 17 91 18 8 19 9 20 5 21 1 22 2 23
REMARK SMILES IDX 3 24 92 25 4 26 22 27 23 28 24 29 25 31 26 32 27 33 88 34
REMARK SMILES IDX 28 35 87 36 29 37 30 38 31 39 81 40 32 41 86 42 80 43 82 44
REMARK SMILES IDX 33 45 85 46 79 47 78 48 34 50 66 51 46 52 65 53 47 54 50 55
REMARK SMILES IDX 64 56 83 57 48 58 49 59 63 61 84 62 51 63 35 64 36 65 44 66
REMARK SMILES IDX 37 67 38 68 42 69 45 70 39 71 40 72 43 73 41 74 67 75 68 76
REMARK SMILES IDX 76 77 69 78 70 79 74 80 77 81 71 82 72 83 75 84 73 85 52 86
REMARK SMILES IDX 53 87 61 88 54 89 55 90 59 91 62 92 56 93 57 94 60 95 58 96
REMARK H PARENT 19 6 23 30 82 49 50 60
REMARK Flexibility Score: inf
ROOT
ATOM      1  C   UNL A   1      31.403  32.237  26.859  1.00  0.00     0.042 C 
ENDROOT
BRANCH   1   2
ATOM      2  C   UNL A   1      31.587  30.744  26.636  1.00  0.00     0.117 C 
BRANCH   2   3
ATOM      3  N   UNL A   1      32.288  30.454  25.394  1.00  0.00    -0.356 N 
ATOM      4  C   UNL A   1      32.520  29.276  24.755  1.00  0.00     0.223 C 
ATOM      5  O   UNL A   1      33.174  29.304  23.710  1.00  0.00    -0.275 OA
ATOM      6  H   UNL A   1      32.657  31.245  24.940  1.00  0.00     0.163 HD
BRANCH   4   7
ATOM      7  C   UNL A   1      31.991  27.960  25.299  1.00  0.00     0.082 C 
ATOM      8  C   UNL A   1      31.336  24.171  23.865  1.00  0.00     0.265 C 
ATOM      9  O   UNL A   1      30.865  24.401  22.750  1.00  0.00    -0.268 OA
ATOM     10  N   UNL A   1      31.398  25.202  24.801  1.00  0.00    -0.338 N 
ATOM     11  C   UNL A   1      30.285  26.129  24.898  1.00  0.00     0.120 C 
ATOM     12  C   UNL A   1      32.561  25.495  25.625  1.00  0.00     0.120 C 
ATOM     13  C   UNL A   1      30.701  27.549  24.577  1.00  0.00     0.035 C 
ATOM     14  C   UNL A   1      33.099  26.893  25.350  1.00  0.00     0.035 C 
BRANCH   8  15
ATOM     15  C   UNL A   1      31.718  22.835  24.304  1.00  0.00     0.115 A 
ATOM     16  C   UNL A   1      32.423  20.503  24.285  1.00  0.00     0.159 A 
ATOM     17  N   UNL A   1      31.778  20.768  25.396  1.00  0.00    -0.237 NA
ATOM     18  S   UNL A   1      32.662  21.841  23.247  1.00  0.00    -0.105 S 
ATOM     19  C   UNL A   1      31.351  22.084  25.414  1.00  0.00     0.062 A 
ATOM     20  C   UNL A   1      30.507  22.462  26.578  1.00  0.00     0.068 C 
BRANCH  16  21
ATOM     21  C   UNL A   1      32.836  19.167  23.970  1.00  0.00     0.162 A 
ATOM     22  C   UNL A   1      34.779  16.332  24.998  1.00  0.00     0.087 C 
ATOM     23  C   UNL A   1      33.905  17.245  24.234  1.00  0.00     0.101 A 
ATOM     24  C   UNL A   1      33.250  17.156  23.027  1.00  0.00     0.046 A 
ATOM     25  O   UNL A   1      33.670  18.456  24.800  1.00  0.00    -0.459 OA
ATOM     26  C   UNL A   1      32.551  18.380  22.865  1.00  0.00     0.054 A 
ENDBRANCH  16  21
ENDBRANCH   8  15
ENDBRANCH   4   7
ENDBRANCH   2   3
ENDBRANCH   1   2
BRANCH   1  27
ATOM     27  C   UNL A   1      32.709  32.991  27.045  1.00  0.00     0.118 C 
BRANCH  27  28
ATOM     28  N   UNL A   1      32.514  34.311  27.627  1.00  0.00    -0.352 N 
ATOM     29  C   UNL A   1      33.098  34.885  28.726  1.00  0.00     0.251 C 
ATOM     30  H   UNL A   1      31.860  34.880  27.159  1.00  0.00     0.163 HD
ATOM     31  O   UNL A   1      32.647  35.936  29.177  1.00  0.00    -0.269 OA
BRANCH  29  32
ATOM     32  C   UNL A   1      34.256  34.239  29.380  1.00  0.00     0.039 A 
ATOM     33  C   UNL A   1      34.026  33.325  30.410  1.00  0.00     0.014 A 
ATOM     34  C   UNL A   1      35.564  34.546  28.995  1.00  0.00     0.014 A 
ATOM     35  C   UNL A   1      35.105  32.678  31.012  1.00  0.00     0.010 A 
ATOM     36  C   UNL A   1      36.629  33.825  29.521  1.00  0.00     0.010 A 
ATOM     37  C   UNL A   1      36.414  32.896  30.549  1.00  0.00    -0.014 A 
BRANCH  37  38
ATOM     38  C   UNL A   1      37.568  32.178  31.144  1.00  0.00     0.031 A 
ATOM     39  C   UNL A   1      38.044  32.525  32.529  1.00  0.00     0.074 A 
ATOM     40  C   UNL A   1      38.218  31.248  30.418  1.00  0.00     0.049 A 
ATOM     41  N   UNL A   1      39.050  32.032  33.207  1.00  0.00    -0.248 NA
ATOM     42  C   UNL A   1      37.313  33.590  33.235  1.00  0.00     0.031 C 
ATOM     43  C   UNL A   1      37.892  30.869  29.042  1.00  0.00     0.029 A 
ATOM     44  N   UNL A   1      39.291  30.454  30.735  1.00  0.00    -0.354 N 
ATOM     45  C   UNL A   1      39.078  32.734  34.405  1.00  0.00     0.074 A 
ATOM     46  C   UNL A   1      38.032  33.731  34.337  1.00  0.00     0.031 C 
ATOM     47  C   UNL A   1      38.723  29.891  28.646  1.00  0.00     0.029 A 
ATOM     48  C   UNL A   1      39.662  29.601  29.725  1.00  0.00     0.049 A 
ATOM     49  H   UNL A   1      39.752  30.492  31.605  1.00  0.00     0.167 HD
ATOM     50  C   UNL A   1      39.881  32.544  35.479  1.00  0.00     0.037 A 
ATOM     51  C   UNL A   1      40.648  28.686  29.677  1.00  0.00     0.037 A 
ATOM     52  C   UNL A   1      40.902  31.533  35.553  1.00  0.00     0.049 A 
ATOM     53  C   UNL A   1      41.519  28.486  30.888  1.00  0.00     0.074 A 
ATOM     54  C   UNL A   1      41.732  31.219  36.614  1.00  0.00     0.029 A 
ATOM     55  N   UNL A   1      41.232  30.669  34.518  1.00  0.00    -0.354 N 
ATOM     56  N   UNL A   1      41.486  29.104  32.043  1.00  0.00    -0.248 NA
ATOM     57  C   UNL A   1      42.558  27.453  30.789  1.00  0.00     0.031 C 
ATOM     58  C   UNL A   1      42.596  30.198  36.206  1.00  0.00     0.029 A 
ATOM     59  C   UNL A   1      42.268  29.836  34.909  1.00  0.00     0.049 A 
ATOM     60  H   UNL A   1      40.796  30.653  33.635  1.00  0.00     0.167 HD
ATOM     61  C   UNL A   1      42.474  28.513  32.820  1.00  0.00     0.074 A 
ATOM     62  C   UNL A   1      43.076  27.476  32.008  1.00  0.00     0.031 C 
ATOM     63  C   UNL A   1      42.849  28.803  34.091  1.00  0.00     0.037 A 
BRANCH  50  64
ATOM     64  C   UNL A   1      39.681  33.446  36.664  1.00  0.00     0.064 A 
ATOM     65  C   UNL A   1      38.822  33.098  37.719  1.00  0.00     0.173 A 
ATOM     66  C   UNL A   1      40.379  34.659  36.763  1.00  0.00     0.173 A 
ATOM     67  F   UNL A   1      38.121  31.955  37.670  1.00  0.00    -0.203 F 
ATOM     68  C   UNL A   1      38.645  33.945  38.810  1.00  0.00     0.198 A 
ATOM     69  C   UNL A   1      40.226  35.488  37.872  1.00  0.00     0.198 A 
ATOM     70  F   UNL A   1      41.217  35.040  35.787  1.00  0.00    -0.203 F 
ATOM     71  F   UNL A   1      37.778  33.615  39.777  1.00  0.00    -0.200 F 
ATOM     72  C   UNL A   1      39.353  35.134  38.890  1.00  0.00     0.200 A 
ATOM     73  F   UNL A   1      40.920  36.630  37.955  1.00  0.00    -0.200 F 
ATOM     74  F   UNL A   1      39.187  35.944  39.945  1.00  0.00    -0.200 F 
ENDBRANCH  50  64
BRANCH  51  75
ATOM     75  C   UNL A   1      40.839  27.862  28.454  1.00  0.00     0.064 A 
ATOM     76  C   UNL A   1      41.659  28.306  27.407  1.00  0.00     0.173 A 
ATOM     77  C   UNL A   1      40.202  26.621  28.302  1.00  0.00     0.173 A 
ATOM     78  F   UNL A   1      42.274  29.494  27.497  1.00  0.00    -0.203 F 
ATOM     79  C   UNL A   1      41.815  27.554  26.245  1.00  0.00     0.198 A 
ATOM     80  C   UNL A   1      40.383  25.856  27.153  1.00  0.00     0.198 A 
ATOM     81  F   UNL A   1      39.413  26.148  29.277  1.00  0.00    -0.203 F 
ATOM     82  F   UNL A   1      42.562  28.026  25.238  1.00  0.00    -0.200 F 
ATOM     83  C   UNL A   1      41.180  26.327  26.121  1.00  0.00     0.200 A 
ATOM     84  F   UNL A   1      39.781  24.663  27.042  1.00  0.00    -0.200 F 
ATOM     85  F   UNL A   1      41.331  25.602  25.003  1.00  0.00    -0.200 F 
ENDBRANCH  51  75
BRANCH  63  86
ATOM     86  C   UNL A   1      43.934  27.957  34.694  1.00  0.00     0.064 A 
ATOM     87  C   UNL A   1      45.284  28.334  34.636  1.00  0.00     0.173 A 
ATOM     88  C   UNL A   1      43.614  26.764  35.360  1.00  0.00     0.173 A 
ATOM     89  F   UNL A   1      45.645  29.458  33.999  1.00  0.00    -0.203 F 
ATOM     90  C   UNL A   1      46.276  27.529  35.189  1.00  0.00     0.198 A 
ATOM     91  C   UNL A   1      44.604  25.979  35.942  1.00  0.00     0.198 A 
ATOM     92  F   UNL A   1      42.337  26.363  35.452  1.00  0.00    -0.203 F 
ATOM     93  F   UNL A   1      47.564  27.877  35.068  1.00  0.00    -0.200 F 
ATOM     94  C   UNL A   1      45.935  26.356  35.847  1.00  0.00     0.200 A 
ATOM     95  F   UNL A   1      44.271  24.855  36.591  1.00  0.00    -0.200 F 
ATOM     96  F   UNL A   1      46.890  25.583  36.381  1.00  0.00    -0.200 F 
ENDBRANCH  63  86
ENDBRANCH  37  38
ENDBRANCH  29  32
ENDBRANCH  27  28
ENDBRANCH   1  27
TORSDOF 12
ENDMDL
