MODEL 1
REMARK VINA RESULT:     -11.6      0.000      0.000
REMARK SMILES CCCSc1nc(=O)cc(CC(=O)NCCCNC(=O)c2ccc(-c3c4nc(c(-c5c(F)c(F)c(F)c(F)c5F)c5ccc([nH]5)c(-c5c(F)c(F)c(F)c(F)c5F)c5nc(c(-c6c(F)c(F)c(F)c(F)c6F)c6ccc3[nH]6)C=C5)C=C4)cc2)[nH]1
REMARK SMILES IDX 15 1 14 2 12 3 13 4 11 6 10 7 5 8 6 9 84 10 7 11 8 13 9 14
REMARK SMILES IDX 4 15 3 16 2 17 1 18 16 19 17 20 18 21 19 22 20 24 21 25
REMARK SMILES IDX 22 26 83 27 23 28 82 29 24 30 25 31 26 32 76 33 27 34 81 35
REMARK SMILES IDX 75 36 77 37 28 38 80 39 74 40 73 41 29 43 61 44 41 45 60 46
REMARK SMILES IDX 42 47 45 48 59 49 78 50 43 51 44 52 58 54 79 55 46 56 30 57
REMARK SMILES IDX 31 58 39 59 32 60 33 61 37 62 40 63 34 64 35 65 38 66 36 67
REMARK SMILES IDX 62 68 63 69 71 70 64 71 65 72 69 73 72 74 66 75 67 76 70 77
REMARK SMILES IDX 68 78 47 79 48 80 56 81 49 82 50 83 54 84 57 85 51 86 52 87
REMARK SMILES IDX 55 88 53 89
REMARK H PARENT 14 5 84 12 18 23 77 42 45 53
REMARK Flexibility Score: inf
ROOT
ATOM      1  C   UNL A   1      31.795  30.520  26.569  1.00  0.00     0.117 C 
ENDROOT
BRANCH   1   2
ATOM      2  N   UNL A   1      32.153  30.267  25.184  1.00  0.00    -0.356 N 
ATOM      3  C   UNL A   1      32.850  29.224  24.645  1.00  0.00     0.225 C 
ATOM      4  O   UNL A   1      33.103  29.242  23.440  1.00  0.00    -0.275 OA
ATOM      5  H   UNL A   1      31.849  30.947  24.540  1.00  0.00     0.163 HD
BRANCH   3   6
ATOM      6  C   UNL A   1      33.309  28.074  25.533  1.00  0.00     0.154 C 
BRANCH   6   7
ATOM      7  C   UNL A   1      32.280  26.977  25.579  1.00  0.00     0.032 A 
ATOM      8  C   UNL A   1      30.135  26.208  24.896  1.00  0.00     0.169 A 
ATOM      9  N   UNL A   1      30.089  25.234  25.739  1.00  0.00    -0.185 NA
ATOM     10  N   UNL A   1      31.181  27.067  24.762  1.00  0.00    -0.337 N 
ATOM     11  C   UNL A   1      31.211  24.979  26.497  1.00  0.00     0.273 A 
ATOM     12  H   UNL A   1      31.149  27.765  24.066  1.00  0.00     0.168 HD
ATOM     13  O   UNL A   1      31.312  24.009  27.241  1.00  0.00    -0.267 OA
ATOM     14  C   UNL A   1      32.347  25.943  26.434  1.00  0.00     0.095 A 
BRANCH   8  15
ATOM     15  S   UNL A   1      28.798  26.546  23.831  1.00  0.00    -0.088 SA
BRANCH  15  16
ATOM     16  C   UNL A   1      29.290  28.143  23.113  1.00  0.00     0.078 C 
BRANCH  16  17
ATOM     17  C   UNL A   1      28.142  29.140  22.937  1.00  0.00     0.008 C 
ATOM     18  C   UNL A   1      28.231  30.017  21.697  1.00  0.00     0.005 C 
ENDBRANCH  16  17
ENDBRANCH  15  16
ENDBRANCH   8  15
ENDBRANCH   6   7
ENDBRANCH   3   6
ENDBRANCH   1   2
BRANCH   1  19
ATOM     19  C   UNL A   1      31.514  31.996  26.838  1.00  0.00     0.042 C 
BRANCH  19  20
ATOM     20  C   UNL A   1      32.730  32.789  27.301  1.00  0.00     0.118 C 
BRANCH  20  21
ATOM     21  N   UNL A   1      32.424  34.180  27.611  1.00  0.00    -0.352 N 
ATOM     22  C   UNL A   1      32.946  35.014  28.574  1.00  0.00     0.251 C 
ATOM     23  H   UNL A   1      31.732  34.589  27.042  1.00  0.00     0.163 HD
ATOM     24  O   UNL A   1      32.435  36.112  28.769  1.00  0.00    -0.269 OA
BRANCH  22  25
ATOM     25  C   UNL A   1      34.092  34.576  29.401  1.00  0.00     0.039 A 
ATOM     26  C   UNL A   1      35.389  34.583  28.889  1.00  0.00     0.014 A 
ATOM     27  C   UNL A   1      33.859  34.128  30.705  1.00  0.00     0.014 A 
ATOM     28  C   UNL A   1      36.408  33.948  29.590  1.00  0.00     0.010 A 
ATOM     29  C   UNL A   1      34.909  33.582  31.451  1.00  0.00     0.010 A 
ATOM     30  C   UNL A   1      36.178  33.423  30.873  1.00  0.00    -0.014 A 
BRANCH  30  31
ATOM     31  C   UNL A   1      37.262  32.672  31.561  1.00  0.00     0.031 A 
ATOM     32  C   UNL A   1      37.960  31.530  30.866  1.00  0.00     0.074 A 
ATOM     33  C   UNL A   1      37.671  33.061  32.783  1.00  0.00     0.049 A 
ATOM     34  N   UNL A   1      38.942  30.777  31.297  1.00  0.00    -0.248 NA
ATOM     35  C   UNL A   1      37.493  31.181  29.514  1.00  0.00     0.031 C 
ATOM     36  C   UNL A   1      37.089  34.162  33.553  1.00  0.00     0.029 A 
ATOM     37  N   UNL A   1      38.687  32.598  33.582  1.00  0.00    -0.354 N 
ATOM     38  C   UNL A   1      39.199  29.866  30.279  1.00  0.00     0.074 A 
ATOM     39  C   UNL A   1      38.241  30.125  29.227  1.00  0.00     0.031 C 
ATOM     40  C   UNL A   1      37.790  34.325  34.684  1.00  0.00     0.029 A 
ATOM     41  C   UNL A   1      38.827  33.301  34.754  1.00  0.00     0.049 A 
ATOM     42  H   UNL A   1      39.260  31.837  33.338  1.00  0.00     0.167 HD
ATOM     43  C   UNL A   1      40.161  28.915  30.217  1.00  0.00     0.037 A 
ATOM     44  C   UNL A   1      39.683  33.132  35.780  1.00  0.00     0.037 A 
ATOM     45  C   UNL A   1      41.137  28.679  31.250  1.00  0.00     0.049 A 
ATOM     46  C   UNL A   1      40.701  32.026  35.713  1.00  0.00     0.074 A 
ATOM     47  C   UNL A   1      42.171  27.760  31.262  1.00  0.00     0.029 A 
ATOM     48  N   UNL A   1      41.199  29.369  32.452  1.00  0.00    -0.354 N 
ATOM     49  N   UNL A   1      40.946  31.188  34.735  1.00  0.00    -0.248 NA
ATOM     50  C   UNL A   1      41.553  31.836  36.894  1.00  0.00     0.031 C 
ATOM     51  C   UNL A   1      42.824  27.853  32.494  1.00  0.00     0.029 A 
ATOM     52  C   UNL A   1      42.232  28.868  33.229  1.00  0.00     0.049 A 
ATOM     53  H   UNL A   1      40.599  30.104  32.714  1.00  0.00     0.167 HD
ATOM     54  C   UNL A   1      41.984  30.380  35.177  1.00  0.00     0.074 A 
ATOM     55  C   UNL A   1      42.342  30.845  36.501  1.00  0.00     0.031 C 
ATOM     56  C   UNL A   1      42.579  29.339  34.546  1.00  0.00     0.037 A 
BRANCH  43  57
ATOM     57  C   UNL A   1      40.220  28.045  28.993  1.00  0.00     0.064 A 
ATOM     58  C   UNL A   1      40.983  28.402  27.871  1.00  0.00     0.173 A 
ATOM     59  C   UNL A   1      39.568  26.801  28.972  1.00  0.00     0.173 A 
ATOM     60  F   UNL A   1      41.617  29.584  27.835  1.00  0.00    -0.203 F 
ATOM     61  C   UNL A   1      41.081  27.555  26.770  1.00  0.00     0.198 A 
ATOM     62  C   UNL A   1      39.694  25.943  27.883  1.00  0.00     0.198 A 
ATOM     63  F   UNL A   1      38.830  26.407  30.021  1.00  0.00    -0.203 F 
ATOM     64  F   UNL A   1      41.786  27.933  25.696  1.00  0.00    -0.200 F 
ATOM     65  C   UNL A   1      40.445  26.322  26.781  1.00  0.00     0.200 A 
ATOM     66  F   UNL A   1      39.092  24.746  27.903  1.00  0.00    -0.200 F 
ATOM     67  F   UNL A   1      40.556  25.499  25.730  1.00  0.00    -0.200 F 
ENDBRANCH  43  57
BRANCH  44  68
ATOM     68  C   UNL A   1      39.607  34.034  36.958  1.00  0.00     0.064 A 
ATOM     69  C   UNL A   1      38.847  33.689  38.085  1.00  0.00     0.173 A 
ATOM     70  C   UNL A   1      40.308  35.249  36.993  1.00  0.00     0.173 A 
ATOM     71  F   UNL A   1      38.140  32.550  38.092  1.00  0.00    -0.203 F 
ATOM     72  C   UNL A   1      38.787  34.527  39.197  1.00  0.00     0.198 A 
ATOM     73  C   UNL A   1      40.275  36.070  38.119  1.00  0.00     0.198 A 
ATOM     74  F   UNL A   1      41.050  35.627  35.942  1.00  0.00    -0.203 F 
ATOM     75  F   UNL A   1      38.025  34.191  40.246  1.00  0.00    -0.200 F 
ATOM     76  C   UNL A   1      39.510  35.711  39.217  1.00  0.00     0.200 A 
ATOM     77  F   UNL A   1      40.989  37.203  38.140  1.00  0.00    -0.200 F 
ATOM     78  F   UNL A   1      39.464  36.508  40.293  1.00  0.00    -0.200 F 
ENDBRANCH  44  68
BRANCH  56  79
ATOM     79  C   UNL A   1      43.679  28.619  35.270  1.00  0.00     0.064 A 
ATOM     80  C   UNL A   1      45.021  28.994  35.110  1.00  0.00     0.173 A 
ATOM     81  C   UNL A   1      43.385  27.610  36.200  1.00  0.00     0.173 A 
ATOM     82  F   UNL A   1      45.356  29.944  34.224  1.00  0.00    -0.203 F 
ATOM     83  C   UNL A   1      46.028  28.378  35.847  1.00  0.00     0.198 A 
ATOM     84  C   UNL A   1      44.392  27.019  36.957  1.00  0.00     0.198 A 
ATOM     85  F   UNL A   1      42.116  27.221  36.396  1.00  0.00    -0.203 F 
ATOM     86  F   UNL A   1      47.308  28.732  35.655  1.00  0.00    -0.200 F 
ATOM     87  C   UNL A   1      45.712  27.401  36.778  1.00  0.00     0.200 A 
ATOM     88  F   UNL A   1      44.082  26.088  37.871  1.00  0.00    -0.200 F 
ATOM     89  F   UNL A   1      46.681  26.827  37.504  1.00  0.00    -0.200 F 
ENDBRANCH  56  79
ENDBRANCH  30  31
ENDBRANCH  22  25
ENDBRANCH  20  21
ENDBRANCH  19  20
ENDBRANCH   1  19
TORSDOF 14
ENDMDL
MODEL 2
REMARK VINA RESULT:     -11.6      1.404      7.835
REMARK SMILES CCCSc1nc(=O)cc(CC(=O)NCCCNC(=O)c2ccc(-c3c4nc(c(-c5c(F)c(F)c(F)c(F)c5F)c5ccc([nH]5)c(-c5c(F)c(F)c(F)c(F)c5F)c5nc(c(-c6c(F)c(F)c(F)c(F)c6F)c6ccc3[nH]6)C=C5)C=C4)cc2)[nH]1
REMARK SMILES IDX 15 1 14 2 12 3 13 4 11 6 10 7 5 8 6 9 84 10 7 11 8 13 9 14
REMARK SMILES IDX 4 15 3 16 2 17 1 18 16 19 17 20 18 21 19 22 20 24 21 25
REMARK SMILES IDX 22 26 83 27 23 28 82 29 24 30 25 31 26 32 76 33 27 34 81 35
REMARK SMILES IDX 75 36 77 37 28 38 80 39 74 40 73 41 29 43 61 44 41 45 60 46
REMARK SMILES IDX 42 47 45 48 59 49 78 50 43 51 44 52 58 54 79 55 46 56 30 57
REMARK SMILES IDX 31 58 39 59 32 60 33 61 37 62 40 63 34 64 35 65 38 66 36 67
REMARK SMILES IDX 62 68 63 69 71 70 64 71 65 72 69 73 72 74 66 75 67 76 70 77
REMARK SMILES IDX 68 78 47 79 48 80 56 81 49 82 50 83 54 84 57 85 51 86 52 87
REMARK SMILES IDX 55 88 53 89
REMARK H PARENT 14 5 84 12 18 23 77 42 45 53
REMARK Flexibility Score: inf
ROOT
ATOM      1  C   UNL A   1      31.783  30.493  26.601  1.00  0.00     0.117 C 
ENDROOT
BRANCH   1   2
ATOM      2  N   UNL A   1      32.108  30.079  25.247  1.00  0.00    -0.356 N 
ATOM      3  C   UNL A   1      33.020  29.159  24.816  1.00  0.00     0.225 C 
ATOM      4  O   UNL A   1      33.183  29.010  23.605  1.00  0.00    -0.275 OA
ATOM      5  H   UNL A   1      31.595  30.528  24.536  1.00  0.00     0.163 HD
BRANCH   3   6
ATOM      6  C   UNL A   1      33.820  28.347  25.828  1.00  0.00     0.154 C 
BRANCH   6   7
ATOM      7  C   UNL A   1      33.417  26.898  25.807  1.00  0.00     0.032 A 
ATOM      8  C   UNL A   1      33.615  24.777  24.749  1.00  0.00     0.169 A 
ATOM      9  N   UNL A   1      32.609  24.250  25.359  1.00  0.00    -0.185 NA
ATOM     10  N   UNL A   1      34.062  26.046  24.944  1.00  0.00    -0.337 N 
ATOM     11  C   UNL A   1      31.995  24.985  26.349  1.00  0.00     0.273 A 
ATOM     12  H   UNL A   1      34.861  26.358  24.460  1.00  0.00     0.168 HD
ATOM     13  O   UNL A   1      31.108  24.534  27.066  1.00  0.00    -0.267 OA
ATOM     14  C   UNL A   1      32.406  26.406  26.540  1.00  0.00     0.095 A 
BRANCH   8  15
ATOM     15  S   UNL A   1      34.510  23.887  23.547  1.00  0.00    -0.088 SA
BRANCH  15  16
ATOM     16  C   UNL A   1      34.963  22.381  24.463  1.00  0.00     0.078 C 
BRANCH  16  17
ATOM     17  C   UNL A   1      36.089  22.574  25.483  1.00  0.00     0.008 C 
ATOM     18  C   UNL A   1      37.094  23.663  25.138  1.00  0.00     0.005 C 
ENDBRANCH  16  17
ENDBRANCH  15  16
ENDBRANCH   8  15
ENDBRANCH   6   7
ENDBRANCH   3   6
ENDBRANCH   1   2
BRANCH   1  19
ATOM     19  C   UNL A   1      31.566  32.000  26.715  1.00  0.00     0.042 C 
BRANCH  19  20
ATOM     20  C   UNL A   1      32.749  32.758  27.304  1.00  0.00     0.118 C 
BRANCH  20  21
ATOM     21  N   UNL A   1      32.433  34.140  27.643  1.00  0.00    -0.352 N 
ATOM     22  C   UNL A   1      32.988  34.976  28.584  1.00  0.00     0.251 C 
ATOM     23  H   UNL A   1      31.704  34.540  27.114  1.00  0.00     0.163 HD
ATOM     24  O   UNL A   1      32.467  36.062  28.816  1.00  0.00    -0.269 OA
BRANCH  22  25
ATOM     25  C   UNL A   1      34.185  34.554  29.346  1.00  0.00     0.039 A 
ATOM     26  C   UNL A   1      35.466  34.750  28.834  1.00  0.00     0.014 A 
ATOM     27  C   UNL A   1      34.017  33.929  30.585  1.00  0.00     0.014 A 
ATOM     28  C   UNL A   1      36.553  34.137  29.447  1.00  0.00     0.010 A 
ATOM     29  C   UNL A   1      35.126  33.400  31.254  1.00  0.00     0.010 A 
ATOM     30  C   UNL A   1      36.395  33.439  30.656  1.00  0.00    -0.014 A 
BRANCH  30  31
ATOM     31  C   UNL A   1      37.557  32.718  31.241  1.00  0.00     0.031 A 
ATOM     32  C   UNL A   1      38.040  33.047  32.631  1.00  0.00     0.074 A 
ATOM     33  C   UNL A   1      38.135  31.715  30.552  1.00  0.00     0.049 A 
ATOM     34  N   UNL A   1      39.019  32.508  33.316  1.00  0.00    -0.248 NA
ATOM     35  C   UNL A   1      37.338  34.125  33.347  1.00  0.00     0.031 C 
ATOM     36  C   UNL A   1      37.749  31.288  29.207  1.00  0.00     0.029 A 
ATOM     37  N   UNL A   1      39.148  30.854  30.895  1.00  0.00    -0.354 N 
ATOM     38  C   UNL A   1      39.056  33.186  34.528  1.00  0.00     0.074 A 
ATOM     39  C   UNL A   1      38.034  34.207  34.472  1.00  0.00     0.031 C 
ATOM     40  C   UNL A   1      38.474  30.216  28.861  1.00  0.00     0.029 A 
ATOM     41  C   UNL A   1      39.423  29.918  29.929  1.00  0.00     0.049 A 
ATOM     42  H   UNL A   1      39.630  30.903  31.752  1.00  0.00     0.167 HD
ATOM     43  C   UNL A   1      39.853  32.961  35.600  1.00  0.00     0.037 A 
ATOM     44  C   UNL A   1      40.347  28.938  29.897  1.00  0.00     0.037 A 
ATOM     45  C   UNL A   1      40.847  31.922  35.668  1.00  0.00     0.049 A 
ATOM     46  C   UNL A   1      41.262  28.752  31.075  1.00  0.00     0.074 A 
ATOM     47  C   UNL A   1      41.680  31.596  36.724  1.00  0.00     0.029 A 
ATOM     48  N   UNL A   1      41.140  31.039  34.639  1.00  0.00    -0.354 N 
ATOM     49  N   UNL A   1      41.270  29.385  32.223  1.00  0.00    -0.248 NA
ATOM     50  C   UNL A   1      42.304  27.723  30.951  1.00  0.00     0.031 C 
ATOM     51  C   UNL A   1      42.517  30.555  36.316  1.00  0.00     0.029 A 
ATOM     52  C   UNL A   1      42.169  30.193  35.024  1.00  0.00     0.049 A 
ATOM     53  H   UNL A   1      40.687  31.016  33.766  1.00  0.00     0.167 HD
ATOM     54  C   UNL A   1      42.305  28.827  32.960  1.00  0.00     0.074 A 
ATOM     55  C   UNL A   1      42.887  27.784  32.141  1.00  0.00     0.031 C 
ATOM     56  C   UNL A   1      42.741  29.159  34.199  1.00  0.00     0.037 A 
BRANCH  43  57
ATOM     57  C   UNL A   1      39.694  33.853  36.799  1.00  0.00     0.064 A 
ATOM     58  C   UNL A   1      40.297  35.118  36.862  1.00  0.00     0.173 A 
ATOM     59  C   UNL A   1      38.864  33.470  37.865  1.00  0.00     0.173 A 
ATOM     60  F   UNL A   1      41.108  35.529  35.875  1.00  0.00    -0.203 F 
ATOM     61  C   UNL A   1      40.086  35.960  37.951  1.00  0.00     0.198 A 
ATOM     62  C   UNL A   1      38.630  34.326  38.937  1.00  0.00     0.198 A 
ATOM     63  F   UNL A   1      38.257  32.273  37.853  1.00  0.00    -0.203 F 
ATOM     64  F   UNL A   1      40.701  37.149  38.006  1.00  0.00    -0.200 F 
ATOM     65  C   UNL A   1      39.245  35.568  38.982  1.00  0.00     0.200 A 
ATOM     66  F   UNL A   1      37.804  33.952  39.924  1.00  0.00    -0.200 F 
ATOM     67  F   UNL A   1      39.028  36.387  40.020  1.00  0.00    -0.200 F 
ENDBRANCH  43  57
BRANCH  44  68
ATOM     68  C   UNL A   1      40.448  28.062  28.700  1.00  0.00     0.064 A 
ATOM     69  C   UNL A   1      39.760  26.842  28.638  1.00  0.00     0.173 A 
ATOM     70  C   UNL A   1      41.214  28.436  27.585  1.00  0.00     0.173 A 
ATOM     71  F   UNL A   1      39.034  26.429  29.686  1.00  0.00    -0.203 F 
ATOM     72  C   UNL A   1      39.842  26.027  27.510  1.00  0.00     0.198 A 
ATOM     73  C   UNL A   1      41.267  27.637  26.445  1.00  0.00     0.198 A 
ATOM     74  F   UNL A   1      41.891  29.593  27.592  1.00  0.00    -0.203 F 
ATOM     75  F   UNL A   1      39.204  24.849  27.490  1.00  0.00    -0.200 F 
ATOM     76  C   UNL A   1      40.585  26.431  26.411  1.00  0.00     0.200 A 
ATOM     77  F   UNL A   1      41.972  28.040  25.379  1.00  0.00    -0.200 F 
ATOM     78  F   UNL A   1      40.649  25.654  25.321  1.00  0.00    -0.200 F 
ENDBRANCH  44  68
BRANCH  56  79
ATOM     79  C   UNL A   1      43.906  28.394  34.758  1.00  0.00     0.064 A 
ATOM     80  C   UNL A   1      43.720  27.186  35.446  1.00  0.00     0.173 A 
ATOM     81  C   UNL A   1      45.222  28.822  34.524  1.00  0.00     0.173 A 
ATOM     82  F   UNL A   1      42.482  26.741  35.706  1.00  0.00    -0.203 F 
ATOM     83  C   UNL A   1      44.809  26.440  35.888  1.00  0.00     0.198 A 
ATOM     84  C   UNL A   1      46.307  28.057  34.940  1.00  0.00     0.198 A 
ATOM     85  F   UNL A   1      45.454  29.966  33.863  1.00  0.00    -0.203 F 
ATOM     86  F   UNL A   1      44.606  25.304  36.571  1.00  0.00    -0.200 F 
ATOM     87  C   UNL A   1      46.100  26.869  35.624  1.00  0.00     0.200 A 
ATOM     88  F   UNL A   1      47.556  28.464  34.667  1.00  0.00    -0.200 F 
ATOM     89  F   UNL A   1      47.147  26.137  36.030  1.00  0.00    -0.200 F 
ENDBRANCH  56  79
ENDBRANCH  30  31
ENDBRANCH  22  25
ENDBRANCH  20  21
ENDBRANCH  19  20
ENDBRANCH   1  19
TORSDOF 14
ENDMDL
MODEL 3
REMARK VINA RESULT:     -11.6      1.177      7.546
REMARK SMILES CCCSc1nc(=O)cc(CC(=O)NCCCNC(=O)c2ccc(-c3c4nc(c(-c5c(F)c(F)c(F)c(F)c5F)c5ccc([nH]5)c(-c5c(F)c(F)c(F)c(F)c5F)c5nc(c(-c6c(F)c(F)c(F)c(F)c6F)c6ccc3[nH]6)C=C5)C=C4)cc2)[nH]1
REMARK SMILES IDX 15 1 14 2 12 3 13 4 11 6 10 7 5 8 6 9 84 10 7 11 8 13 9 14
REMARK SMILES IDX 4 15 3 16 2 17 1 18 16 19 17 20 18 21 19 22 20 24 21 25
REMARK SMILES IDX 22 26 83 27 23 28 82 29 24 30 25 31 26 32 76 33 27 34 81 35
REMARK SMILES IDX 75 36 77 37 28 38 80 39 74 40 73 41 29 43 61 44 41 45 60 46
REMARK SMILES IDX 42 47 45 48 59 49 78 50 43 51 44 52 58 54 79 55 46 56 30 57
REMARK SMILES IDX 31 58 39 59 32 60 33 61 37 62 40 63 34 64 35 65 38 66 36 67
REMARK SMILES IDX 62 68 63 69 71 70 64 71 65 72 69 73 72 74 66 75 67 76 70 77
REMARK SMILES IDX 68 78 47 79 48 80 56 81 49 82 50 83 54 84 57 85 51 86 52 87
REMARK SMILES IDX 55 88 53 89
REMARK H PARENT 14 5 84 12 18 23 77 42 45 53
REMARK Flexibility Score: inf
ROOT
ATOM      1  C   UNL A   1      31.867  30.499  26.781  1.00  0.00     0.117 C 
ENDROOT
BRANCH   1   2
ATOM      2  N   UNL A   1      33.284  30.183  26.846  1.00  0.00    -0.356 N 
ATOM      3  C   UNL A   1      33.907  28.971  26.758  1.00  0.00     0.225 C 
ATOM      4  O   UNL A   1      35.128  28.922  26.908  1.00  0.00    -0.275 OA
ATOM      5  H   UNL A   1      33.881  30.956  26.972  1.00  0.00     0.163 HD
BRANCH   3   6
ATOM      6  C   UNL A   1      33.091  27.712  26.489  1.00  0.00     0.154 C 
BRANCH   6   7
ATOM      7  C   UNL A   1      32.814  27.545  25.020  1.00  0.00     0.032 A 
ATOM      8  C   UNL A   1      31.236  27.697  23.246  1.00  0.00     0.169 A 
ATOM      9  N   UNL A   1      31.951  27.038  22.400  1.00  0.00    -0.185 NA
ATOM     10  N   UNL A   1      31.615  27.990  24.519  1.00  0.00    -0.337 N 
ATOM     11  C   UNL A   1      33.229  26.682  22.771  1.00  0.00     0.273 A 
ATOM     12  H   UNL A   1      31.021  28.530  25.090  1.00  0.00     0.168 HD
ATOM     13  O   UNL A   1      34.028  26.158  22.002  1.00  0.00    -0.267 OA
ATOM     14  C   UNL A   1      33.653  26.916  24.181  1.00  0.00     0.095 A 
BRANCH   8  15
ATOM     15  S   UNL A   1      29.643  28.270  22.832  1.00  0.00    -0.088 SA
BRANCH  15  16
ATOM     16  C   UNL A   1      29.672  29.962  23.499  1.00  0.00     0.078 C 
BRANCH  16  17
ATOM     17  C   UNL A   1      28.520  30.851  23.024  1.00  0.00     0.008 C 
ATOM     18  C   UNL A   1      28.029  30.572  21.611  1.00  0.00     0.005 C 
ENDBRANCH  16  17
ENDBRANCH  15  16
ENDBRANCH   8  15
ENDBRANCH   6   7
ENDBRANCH   3   6
ENDBRANCH   1   2
BRANCH   1  19
ATOM     19  C   UNL A   1      31.599  31.999  26.870  1.00  0.00     0.042 C 
BRANCH  19  20
ATOM     20  C   UNL A   1      32.817  32.828  27.261  1.00  0.00     0.118 C 
BRANCH  20  21
ATOM     21  N   UNL A   1      32.482  34.198  27.632  1.00  0.00    -0.352 N 
ATOM     22  C   UNL A   1      33.018  35.014  28.602  1.00  0.00     0.251 C 
ATOM     23  H   UNL A   1      31.756  34.604  27.105  1.00  0.00     0.163 HD
ATOM     24  O   UNL A   1      32.484  36.089  28.855  1.00  0.00    -0.269 OA
BRANCH  22  25
ATOM     25  C   UNL A   1      34.209  34.584  29.367  1.00  0.00     0.039 A 
ATOM     26  C   UNL A   1      35.491  34.720  28.835  1.00  0.00     0.014 A 
ATOM     27  C   UNL A   1      34.036  34.011  30.631  1.00  0.00     0.014 A 
ATOM     28  C   UNL A   1      36.565  34.097  29.460  1.00  0.00     0.010 A 
ATOM     29  C   UNL A   1      35.136  33.474  31.308  1.00  0.00     0.010 A 
ATOM     30  C   UNL A   1      36.399  33.450  30.696  1.00  0.00    -0.014 A 
BRANCH  30  31
ATOM     31  C   UNL A   1      37.545  32.716  31.297  1.00  0.00     0.031 A 
ATOM     32  C   UNL A   1      38.008  33.034  32.696  1.00  0.00     0.074 A 
ATOM     33  C   UNL A   1      38.124  31.711  30.613  1.00  0.00     0.049 A 
ATOM     34  N   UNL A   1      38.971  32.482  33.394  1.00  0.00    -0.248 NA
ATOM     35  C   UNL A   1      37.305  34.115  33.405  1.00  0.00     0.031 C 
ATOM     36  C   UNL A   1      37.756  31.294  29.259  1.00  0.00     0.029 A 
ATOM     37  N   UNL A   1      39.124  30.839  30.968  1.00  0.00    -0.354 N 
ATOM     38  C   UNL A   1      38.994  33.155  34.609  1.00  0.00     0.074 A 
ATOM     39  C   UNL A   1      37.983  34.186  34.542  1.00  0.00     0.031 C 
ATOM     40  C   UNL A   1      38.477  30.216  28.920  1.00  0.00     0.029 A 
ATOM     41  C   UNL A   1      39.406  29.905  30.002  1.00  0.00     0.049 A 
ATOM     42  H   UNL A   1      39.592  30.880  31.832  1.00  0.00     0.167 HD
ATOM     43  C   UNL A   1      39.771  32.918  35.693  1.00  0.00     0.037 A 
ATOM     44  C   UNL A   1      40.321  28.916  29.980  1.00  0.00     0.037 A 
ATOM     45  C   UNL A   1      40.755  31.869  35.772  1.00  0.00     0.049 A 
ATOM     46  C   UNL A   1      41.215  28.716  31.172  1.00  0.00     0.074 A 
ATOM     47  C   UNL A   1      41.567  31.531  36.840  1.00  0.00     0.029 A 
ATOM     48  N   UNL A   1      41.056  30.988  34.744  1.00  0.00    -0.354 N 
ATOM     49  N   UNL A   1      41.210  29.344  32.322  1.00  0.00    -0.248 NA
ATOM     50  C   UNL A   1      42.249  27.679  31.060  1.00  0.00     0.031 C 
ATOM     51  C   UNL A   1      42.401  30.484  36.441  1.00  0.00     0.029 A 
ATOM     52  C   UNL A   1      42.071  30.131  35.141  1.00  0.00     0.049 A 
ATOM     53  H   UNL A   1      40.617  30.974  33.864  1.00  0.00     0.167 HD
ATOM     54  C   UNL A   1      42.228  28.773  33.073  1.00  0.00     0.074 A 
ATOM     55  C   UNL A   1      42.813  27.729  32.259  1.00  0.00     0.031 C 
ATOM     56  C   UNL A   1      42.647  29.095  34.322  1.00  0.00     0.037 A 
BRANCH  43  57
ATOM     57  C   UNL A   1      39.601  33.805  36.894  1.00  0.00     0.064 A 
ATOM     58  C   UNL A   1      40.185  35.079  36.957  1.00  0.00     0.173 A 
ATOM     59  C   UNL A   1      38.779  33.409  37.961  1.00  0.00     0.173 A 
ATOM     60  F   UNL A   1      40.988  35.504  35.969  1.00  0.00    -0.203 F 
ATOM     61  C   UNL A   1      39.963  35.916  38.048  1.00  0.00     0.198 A 
ATOM     62  C   UNL A   1      38.534  34.260  39.035  1.00  0.00     0.198 A 
ATOM     63  F   UNL A   1      38.190  32.202  37.948  1.00  0.00    -0.203 F 
ATOM     64  F   UNL A   1      40.560  37.115  38.103  1.00  0.00    -0.200 F 
ATOM     65  C   UNL A   1      39.130  35.511  39.080  1.00  0.00     0.200 A 
ATOM     66  F   UNL A   1      37.716  33.872  40.022  1.00  0.00    -0.200 F 
ATOM     67  F   UNL A   1      38.902  36.325  40.119  1.00  0.00    -0.200 F 
ENDBRANCH  43  57
BRANCH  44  68
ATOM     68  C   UNL A   1      40.433  28.045  28.781  1.00  0.00     0.064 A 
ATOM     69  C   UNL A   1      39.759  26.818  28.714  1.00  0.00     0.173 A 
ATOM     70  C   UNL A   1      41.197  28.430  27.668  1.00  0.00     0.173 A 
ATOM     71  F   UNL A   1      39.034  26.395  29.759  1.00  0.00    -0.203 F 
ATOM     72  C   UNL A   1      39.850  26.008  27.584  1.00  0.00     0.198 A 
ATOM     73  C   UNL A   1      41.261  27.635  26.526  1.00  0.00     0.198 A 
ATOM     74  F   UNL A   1      41.862  29.594  27.680  1.00  0.00    -0.203 F 
ATOM     75  F   UNL A   1      39.225  24.823  27.559  1.00  0.00    -0.200 F 
ATOM     76  C   UNL A   1      40.592  26.422  26.487  1.00  0.00     0.200 A 
ATOM     77  F   UNL A   1      41.964  28.048  25.463  1.00  0.00    -0.200 F 
ATOM     78  F   UNL A   1      40.666  25.650  25.395  1.00  0.00    -0.200 F 
ENDBRANCH  44  68
BRANCH  56  79
ATOM     79  C   UNL A   1      43.795  28.317  34.895  1.00  0.00     0.064 A 
ATOM     80  C   UNL A   1      45.113  28.787  34.795  1.00  0.00     0.173 A 
ATOM     81  C   UNL A   1      43.570  27.143  35.630  1.00  0.00     0.173 A 
ATOM     82  F   UNL A   1      45.383  29.898  34.093  1.00  0.00    -0.203 F 
ATOM     83  C   UNL A   1      46.163  28.104  35.401  1.00  0.00     0.198 A 
ATOM     84  C   UNL A   1      44.619  26.481  36.260  1.00  0.00     0.198 A 
ATOM     85  F   UNL A   1      42.326  26.657  35.763  1.00  0.00    -0.203 F 
ATOM     86  F   UNL A   1      47.419  28.554  35.266  1.00  0.00    -0.200 F 
ATOM     87  C   UNL A   1      45.914  26.959  36.143  1.00  0.00     0.200 A 
ATOM     88  F   UNL A   1      44.373  25.385  36.993  1.00  0.00    -0.200 F 
ATOM     89  F   UNL A   1      46.924  26.317  36.746  1.00  0.00    -0.200 F 
ENDBRANCH  56  79
ENDBRANCH  30  31
ENDBRANCH  22  25
ENDBRANCH  20  21
ENDBRANCH  19  20
ENDBRANCH   1  19
TORSDOF 14
ENDMDL
