MODEL 1
REMARK VINA RESULT:     -13.3      0.000      0.000
REMARK SMILES O=C(CCCN1C(=O)/C(=C/c2ccccc2Cl)SC1=S)Nc1cccc(C(=O)NCCCNC(=O)c2ccc(-c3c4nc(c(-c5c(F)c(F)c(F)c(F)c5F)c5ccc([nH]5)c(-c5c(F)c(F)c(F)c(F)c5F)c5nc(c(-c6c(F)c(F)c(F)c(F)c6F)c6ccc3[nH]6)C=C5)C=C4)cc2)c1
REMARK SMILES IDX 27 1 28 2 29 3 26 5 22 6 23 7 99 8 24 9 25 10 21 11 1 12
REMARK SMILES IDX 2 13 3 15 4 16 5 17 6 18 7 19 19 20 8 21 9 22 18 23 20 24
REMARK SMILES IDX 10 25 11 26 12 27 16 28 13 29 15 30 17 31 14 32 30 33 31 34
REMARK SMILES IDX 32 35 33 36 34 37 35 39 36 40 37 41 98 42 38 43 97 44 39 45
REMARK SMILES IDX 40 46 41 47 91 48 42 49 96 50 90 51 92 52 43 53 95 54 89 55
REMARK SMILES IDX 88 56 44 58 76 59 56 60 75 61 57 62 60 63 74 64 93 65 58 66
REMARK SMILES IDX 59 67 73 69 94 70 61 71 45 72 46 73 54 74 47 75 48 76 52 77
REMARK SMILES IDX 55 78 49 79 50 80 53 81 51 82 77 83 78 84 86 85 79 86 80 87
REMARK SMILES IDX 84 88 87 89 81 90 82 91 85 92 83 93 62 94 63 95 71 96 64 97
REMARK SMILES IDX 65 98 69 99 72 100 66 101 67 102 70 103 68 104
REMARK H PARENT 29 4 21 14 33 38 92 57 60 68
REMARK Flexibility Score: inf
ROOT
ATOM      1  C   UNL A   1      32.844  29.152  24.928  1.00  0.00     0.251 C 
ATOM      2  O   UNL A   1      33.937  28.978  24.390  1.00  0.00    -0.269 OA
ATOM      3  N   UNL A   1      32.653  30.271  25.708  1.00  0.00    -0.352 N 
ATOM      4  H   UNL A   1      33.423  30.885  25.738  1.00  0.00     0.163 HD
ENDROOT
BRANCH   1   5
ATOM      5  C   UNL A   1      31.792  28.116  24.796  1.00  0.00     0.041 A 
ATOM      6  C   UNL A   1      31.158  25.797  24.915  1.00  0.00     0.041 A 
ATOM      7  C   UNL A   1      30.065  26.068  24.079  1.00  0.00     0.026 A 
ATOM      8  C   UNL A   1      31.937  26.852  25.370  1.00  0.00     0.040 A 
ATOM      9  C   UNL A   1      29.798  27.372  23.658  1.00  0.00     0.003 A 
ATOM     10  C   UNL A   1      30.684  28.394  23.988  1.00  0.00     0.014 A 
BRANCH   6  11
ATOM     11  N   UNL A   1      31.519  24.443  25.093  1.00  0.00    -0.326 N 
ATOM     12  O   UNL A   1      30.882  23.996  27.268  1.00  0.00    -0.275 OA
ATOM     13  C   UNL A   1      31.533  23.716  26.263  1.00  0.00     0.224 C 
ATOM     14  H   UNL A   1      31.792  23.959  24.280  1.00  0.00     0.169 HD
BRANCH  13  15
ATOM     15  C   UNL A   1      32.543  22.559  26.328  1.00  0.00     0.102 C 
BRANCH  15  16
ATOM     16  C   UNL A   1      34.047  22.824  26.418  1.00  0.00     0.032 C 
BRANCH  16  17
ATOM     17  C   UNL A   1      34.948  22.835  25.165  1.00  0.00     0.128 C 
BRANCH  17  18
ATOM     18  N   UNL A   1      36.203  22.080  25.200  1.00  0.00    -0.293 N 
ATOM     19  C   UNL A   1      37.328  22.728  25.702  1.00  0.00     0.266 C 
ATOM     20  C   UNL A   1      36.346  20.713  25.048  1.00  0.00     0.148 C 
ATOM     21  O   UNL A   1      37.371  23.877  26.134  1.00  0.00    -0.268 OA
ATOM     22  C   UNL A   1      38.487  21.808  25.752  1.00  0.00     0.081 C 
ATOM     23  S   UNL A   1      38.036  20.266  25.151  1.00  0.00    -0.054 SA
ATOM     24  S   UNL A   1      35.188  19.530  24.879  1.00  0.00    -0.052 S 
ATOM     25  C   UNL A   1      39.690  22.166  26.224  1.00  0.00     0.031 C 
BRANCH  25  26
ATOM     26  C   UNL A   1      40.847  21.263  26.180  1.00  0.00    -0.006 A 
ATOM     27  C   UNL A   1      40.637  19.884  26.318  1.00  0.00     0.010 A 
ATOM     28  C   UNL A   1      42.144  21.734  25.901  1.00  0.00     0.048 A 
ATOM     29  C   UNL A   1      41.698  18.991  26.148  1.00  0.00     0.001 A 
ATOM     30  C   UNL A   1      43.197  20.837  25.723  1.00  0.00     0.021 A 
ATOM     31  Cl  UNL A   1      42.490  23.424  25.741  1.00  0.00    -0.084 Cl
ATOM     32  C   UNL A   1      42.972  19.466  25.840  1.00  0.00     0.002 A 
ENDBRANCH  25  26
ENDBRANCH  17  18
ENDBRANCH  16  17
ENDBRANCH  15  16
ENDBRANCH  13  15
ENDBRANCH   6  11
ENDBRANCH   1   5
BRANCH   3  33
ATOM     33  C   UNL A   1      31.504  30.704  26.498  1.00  0.00     0.118 C 
BRANCH  33  34
ATOM     34  C   UNL A   1      31.392  32.209  26.659  1.00  0.00     0.042 C 
BRANCH  34  35
ATOM     35  C   UNL A   1      32.612  32.874  27.267  1.00  0.00     0.118 C 
BRANCH  35  36
ATOM     36  N   UNL A   1      32.373  34.253  27.673  1.00  0.00    -0.352 N 
ATOM     37  C   UNL A   1      32.957  35.016  28.656  1.00  0.00     0.251 C 
ATOM     38  H   UNL A   1      31.676  34.717  27.155  1.00  0.00     0.163 HD
ATOM     39  O   UNL A   1      32.487  36.116  28.932  1.00  0.00    -0.269 OA
BRANCH  37  40
ATOM     40  C   UNL A   1      34.128  34.515  29.409  1.00  0.00     0.039 A 
ATOM     41  C   UNL A   1      33.930  33.950  30.673  1.00  0.00     0.014 A 
ATOM     42  C   UNL A   1      35.421  34.613  28.891  1.00  0.00     0.014 A 
ATOM     43  C   UNL A   1      35.014  33.413  31.373  1.00  0.00     0.010 A 
ATOM     44  C   UNL A   1      36.477  33.978  29.534  1.00  0.00     0.010 A 
ATOM     45  C   UNL A   1      36.289  33.380  30.788  1.00  0.00    -0.014 A 
BRANCH  45  46
ATOM     46  C   UNL A   1      37.443  32.738  31.469  1.00  0.00     0.031 A 
ATOM     47  C   UNL A   1      38.138  31.565  30.833  1.00  0.00     0.074 A 
ATOM     48  C   UNL A   1      37.814  33.159  32.695  1.00  0.00     0.049 A 
ATOM     49  N   UNL A   1      39.102  30.814  31.306  1.00  0.00    -0.248 NA
ATOM     50  C   UNL A   1      37.664  31.157  29.501  1.00  0.00     0.031 C 
ATOM     51  C   UNL A   1      37.183  34.248  33.442  1.00  0.00     0.029 A 
ATOM     52  N   UNL A   1      38.803  32.713  33.535  1.00  0.00    -0.354 N 
ATOM     53  C   UNL A   1      39.329  29.840  30.343  1.00  0.00     0.074 A 
ATOM     54  C   UNL A   1      38.364  30.054  29.288  1.00  0.00     0.031 C 
ATOM     55  C   UNL A   1      37.815  34.401  34.615  1.00  0.00     0.029 A 
ATOM     56  C   UNL A   1      38.864  33.393  34.727  1.00  0.00     0.049 A 
ATOM     57  H   UNL A   1      39.412  31.974  33.306  1.00  0.00     0.167 HD
ATOM     58  C   UNL A   1      40.274  28.870  30.328  1.00  0.00     0.037 A 
ATOM     59  C   UNL A   1      39.667  33.218  35.794  1.00  0.00     0.037 A 
ATOM     60  C   UNL A   1      41.249  28.680  31.369  1.00  0.00     0.049 A 
ATOM     61  C   UNL A   1      40.710  32.134  35.752  1.00  0.00     0.074 A 
ATOM     62  C   UNL A   1      42.294  27.774  31.418  1.00  0.00     0.029 A 
ATOM     63  N   UNL A   1      41.295  29.407  32.550  1.00  0.00    -0.354 N 
ATOM     64  N   UNL A   1      40.967  31.267  34.802  1.00  0.00    -0.248 NA
ATOM     65  C   UNL A   1      41.580  32.007  36.929  1.00  0.00     0.031 C 
ATOM     66  C   UNL A   1      42.934  27.911  32.653  1.00  0.00     0.029 A 
ATOM     67  C   UNL A   1      42.332  28.949  33.347  1.00  0.00     0.049 A 
ATOM     68  H   UNL A   1      40.682  30.141  32.786  1.00  0.00     0.167 HD
ATOM     69  C   UNL A   1      42.044  30.514  35.251  1.00  0.00     0.074 A 
ATOM     70  C   UNL A   1      42.401  31.037  36.554  1.00  0.00     0.031 C 
ATOM     71  C   UNL A   1      42.679  29.484  34.640  1.00  0.00     0.037 A 
BRANCH  58  72
ATOM     72  C   UNL A   1      40.298  27.937  29.148  1.00  0.00     0.064 A 
ATOM     73  C   UNL A   1      39.595  26.722  29.150  1.00  0.00     0.173 A 
ATOM     74  C   UNL A   1      41.008  28.279  27.987  1.00  0.00     0.173 A 
ATOM     75  F   UNL A   1      38.907  26.342  30.237  1.00  0.00    -0.203 F 
ATOM     76  C   UNL A   1      39.633  25.869  28.050  1.00  0.00     0.198 A 
ATOM     77  C   UNL A   1      41.013  27.440  26.875  1.00  0.00     0.198 A 
ATOM     78  F   UNL A   1      41.692  29.432  27.925  1.00  0.00    -0.203 F 
ATOM     79  F   UNL A   1      39.002  24.688  28.099  1.00  0.00    -0.200 F 
ATOM     80  C   UNL A   1      40.335  26.232  26.912  1.00  0.00     0.200 A 
ATOM     81  F   UNL A   1      41.679  27.801  25.770  1.00  0.00    -0.200 F 
ATOM     82  F   UNL A   1      40.364  25.413  25.851  1.00  0.00    -0.200 F 
ENDBRANCH  58  72
BRANCH  59  83
ATOM     83  C   UNL A   1      39.527  34.103  36.981  1.00  0.00     0.064 A 
ATOM     84  C   UNL A   1      40.136  35.366  37.015  1.00  0.00     0.173 A 
ATOM     85  C   UNL A   1      38.783  33.710  38.104  1.00  0.00     0.173 A 
ATOM     86  F   UNL A   1      40.875  35.780  35.976  1.00  0.00    -0.203 F 
ATOM     87  C   UNL A   1      40.023  36.191  38.133  1.00  0.00     0.198 A 
ATOM     88  C   UNL A   1      38.644  34.548  39.207  1.00  0.00     0.198 A 
ATOM     89  F   UNL A   1      38.176  32.514  38.122  1.00  0.00    -0.203 F 
ATOM     90  F   UNL A   1      40.657  37.372  38.158  1.00  0.00    -0.200 F 
ATOM     91  C   UNL A   1      39.272  35.784  39.225  1.00  0.00     0.200 A 
ATOM     92  F   UNL A   1      37.905  34.160  40.256  1.00  0.00    -0.200 F 
ATOM     93  F   UNL A   1      39.157  36.580  40.298  1.00  0.00    -0.200 F 
ENDBRANCH  59  83
BRANCH  71  94
ATOM     94  C   UNL A   1      43.853  28.876  35.353  1.00  0.00     0.064 A 
ATOM     95  C   UNL A   1      45.164  29.326  35.140  1.00  0.00     0.173 A 
ATOM     96  C   UNL A   1      43.656  27.858  36.300  1.00  0.00     0.173 A 
ATOM     97  F   UNL A   1      45.409  30.287  34.236  1.00  0.00    -0.203 F 
ATOM     98  C   UNL A   1      46.236  28.759  35.824  1.00  0.00     0.198 A 
ATOM     99  C   UNL A   1      44.726  27.319  37.008  1.00  0.00     0.198 A 
ATOM    100  F   UNL A   1      42.421  27.395  36.549  1.00  0.00    -0.203 F 
ATOM    101  F   UNL A   1      47.485  29.169  35.565  1.00  0.00    -0.200 F 
ATOM    102  C   UNL A   1      46.015  27.764  36.764  1.00  0.00     0.200 A 
ATOM    103  F   UNL A   1      44.507  26.369  37.928  1.00  0.00    -0.200 F 
ATOM    104  F   UNL A   1      47.048  27.227  37.428  1.00  0.00    -0.200 F 
ENDBRANCH  71  94
ENDBRANCH  45  46
ENDBRANCH  37  40
ENDBRANCH  35  36
ENDBRANCH  34  35
ENDBRANCH  33  34
ENDBRANCH   3  33
TORSDOF 16
ENDMDL
MODEL 2
REMARK VINA RESULT:     -13.1      3.318      9.823
REMARK SMILES O=C(CCCN1C(=O)/C(=C/c2ccccc2Cl)SC1=S)Nc1cccc(C(=O)NCCCNC(=O)c2ccc(-c3c4nc(c(-c5c(F)c(F)c(F)c(F)c5F)c5ccc([nH]5)c(-c5c(F)c(F)c(F)c(F)c5F)c5nc(c(-c6c(F)c(F)c(F)c(F)c6F)c6ccc3[nH]6)C=C5)C=C4)cc2)c1
REMARK SMILES IDX 27 1 28 2 29 3 26 5 22 6 23 7 99 8 24 9 25 10 21 11 1 12
REMARK SMILES IDX 2 13 3 15 4 16 5 17 6 18 7 19 19 20 8 21 9 22 18 23 20 24
REMARK SMILES IDX 10 25 11 26 12 27 16 28 13 29 15 30 17 31 14 32 30 33 31 34
REMARK SMILES IDX 32 35 33 36 34 37 35 39 36 40 37 41 98 42 38 43 97 44 39 45
REMARK SMILES IDX 40 46 41 47 91 48 42 49 96 50 90 51 92 52 43 53 95 54 89 55
REMARK SMILES IDX 88 56 44 58 76 59 56 60 75 61 57 62 60 63 74 64 93 65 58 66
REMARK SMILES IDX 59 67 73 69 94 70 61 71 45 72 46 73 54 74 47 75 48 76 52 77
REMARK SMILES IDX 55 78 49 79 50 80 53 81 51 82 77 83 78 84 86 85 79 86 80 87
REMARK SMILES IDX 84 88 87 89 81 90 82 91 85 92 83 93 62 94 63 95 71 96 64 97
REMARK SMILES IDX 65 98 69 99 72 100 66 101 67 102 70 103 68 104
REMARK H PARENT 29 4 21 14 33 38 92 57 60 68
REMARK Flexibility Score: inf
ROOT
ATOM      1  C   UNL A   1      42.598  22.634  28.207  1.00  0.00     0.251 C 
ATOM      2  O   UNL A   1      42.993  22.647  29.371  1.00  0.00    -0.269 OA
ATOM      3  N   UNL A   1      43.408  22.096  27.231  1.00  0.00    -0.352 N 
ATOM      4  H   UNL A   1      44.252  21.714  27.566  1.00  0.00     0.163 HD
ENDROOT
BRANCH   1   5
ATOM      5  C   UNL A   1      41.302  23.271  27.868  1.00  0.00     0.041 A 
ATOM      6  C   UNL A   1      39.261  23.234  26.594  1.00  0.00     0.041 A 
ATOM      7  C   UNL A   1      39.135  24.618  26.783  1.00  0.00     0.026 A 
ATOM      8  C   UNL A   1      40.276  22.554  27.250  1.00  0.00     0.040 A 
ATOM      9  C   UNL A   1      40.055  25.315  27.569  1.00  0.00     0.003 A 
ATOM     10  C   UNL A   1      41.162  24.646  28.084  1.00  0.00     0.014 A 
BRANCH   6  11
ATOM     11  N   UNL A   1      38.459  22.641  25.594  1.00  0.00    -0.326 N 
ATOM     12  O   UNL A   1      36.319  23.313  26.149  1.00  0.00    -0.275 OA
ATOM     13  C   UNL A   1      37.084  22.563  25.546  1.00  0.00     0.224 C 
ATOM     14  H   UNL A   1      38.942  22.235  24.839  1.00  0.00     0.169 HD
BRANCH  13  15
ATOM     15  C   UNL A   1      36.502  21.363  24.782  1.00  0.00     0.102 C 
BRANCH  15  16
ATOM     16  C   UNL A   1      35.017  21.009  24.875  1.00  0.00     0.032 C 
BRANCH  16  17
ATOM     17  C   UNL A   1      33.967  21.655  23.945  1.00  0.00     0.128 C 
BRANCH  17  18
ATOM     18  N   UNL A   1      33.376  22.936  24.340  1.00  0.00    -0.293 N 
ATOM     19  C   UNL A   1      33.801  24.074  23.664  1.00  0.00     0.266 C 
ATOM     20  C   UNL A   1      32.248  23.116  25.119  1.00  0.00     0.148 C 
ATOM     21  O   UNL A   1      34.622  24.112  22.750  1.00  0.00    -0.268 OA
ATOM     22  C   UNL A   1      33.051  25.268  24.117  1.00  0.00     0.081 C 
ATOM     23  S   UNL A   1      31.930  24.824  25.338  1.00  0.00    -0.054 SA
ATOM     24  S   UNL A   1      31.194  21.994  25.749  1.00  0.00    -0.052 S 
ATOM     25  C   UNL A   1      33.239  26.493  23.606  1.00  0.00     0.031 C 
BRANCH  25  26
ATOM     26  C   UNL A   1      32.547  27.676  24.134  1.00  0.00    -0.006 A 
ATOM     27  C   UNL A   1      33.179  28.446  25.120  1.00  0.00     0.010 A 
ATOM     28  C   UNL A   1      31.317  28.112  23.606  1.00  0.00     0.048 A 
ATOM     29  C   UNL A   1      32.608  29.648  25.546  1.00  0.00     0.001 A 
ATOM     30  C   UNL A   1      30.757  29.318  24.028  1.00  0.00     0.021 A 
ATOM     31  Cl  UNL A   1      30.462  27.204  22.405  1.00  0.00    -0.084 Cl
ATOM     32  C   UNL A   1      31.406  30.088  24.993  1.00  0.00     0.002 A 
ENDBRANCH  25  26
ENDBRANCH  17  18
ENDBRANCH  16  17
ENDBRANCH  15  16
ENDBRANCH  13  15
ENDBRANCH   6  11
ENDBRANCH   1   5
BRANCH   3  33
ATOM     33  C   UNL A   1      43.230  21.995  25.785  1.00  0.00     0.118 C 
BRANCH  33  34
ATOM     34  C   UNL A   1      44.097  22.950  24.985  1.00  0.00     0.042 C 
BRANCH  34  35
ATOM     35  C   UNL A   1      45.299  23.494  25.733  1.00  0.00     0.118 C 
BRANCH  35  36
ATOM     36  N   UNL A   1      46.010  24.534  25.002  1.00  0.00    -0.352 N 
ATOM     37  C   UNL A   1      45.931  25.905  25.083  1.00  0.00     0.251 C 
ATOM     38  H   UNL A   1      46.655  24.200  24.338  1.00  0.00     0.163 HD
ATOM     39  O   UNL A   1      46.512  26.597  24.253  1.00  0.00    -0.269 OA
BRANCH  37  40
ATOM     40  C   UNL A   1      45.131  26.557  26.143  1.00  0.00     0.039 A 
ATOM     41  C   UNL A   1      44.578  25.767  27.156  1.00  0.00     0.014 A 
ATOM     42  C   UNL A   1      44.905  27.934  26.140  1.00  0.00     0.014 A 
ATOM     43  C   UNL A   1      43.873  26.369  28.202  1.00  0.00     0.010 A 
ATOM     44  C   UNL A   1      44.304  28.543  27.236  1.00  0.00     0.010 A 
ATOM     45  C   UNL A   1      43.771  27.767  28.275  1.00  0.00    -0.014 A 
BRANCH  45  46
ATOM     46  C   UNL A   1      43.104  28.441  29.419  1.00  0.00     0.031 A 
ATOM     47  C   UNL A   1      43.772  28.480  30.766  1.00  0.00     0.074 A 
ATOM     48  C   UNL A   1      41.864  28.948  29.266  1.00  0.00     0.049 A 
ATOM     49  N   UNL A   1      43.319  28.940  31.906  1.00  0.00    -0.248 NA
ATOM     50  C   UNL A   1      45.120  27.893  30.855  1.00  0.00     0.031 C 
ATOM     51  C   UNL A   1      41.087  28.920  28.026  1.00  0.00     0.029 A 
ATOM     52  N   UNL A   1      41.033  29.572  30.162  1.00  0.00    -0.354 N 
ATOM     53  C   UNL A   1      44.310  28.676  32.841  1.00  0.00     0.074 A 
ATOM     54  C   UNL A   1      45.363  27.963  32.154  1.00  0.00     0.031 C 
ATOM     55  C   UNL A   1      39.906  29.523  28.232  1.00  0.00     0.029 A 
ATOM     56  C   UNL A   1      39.821  29.937  29.629  1.00  0.00     0.049 A 
ATOM     57  H   UNL A   1      41.282  29.742  31.099  1.00  0.00     0.167 HD
ATOM     58  C   UNL A   1      44.350  29.021  34.151  1.00  0.00     0.037 A 
ATOM     59  C   UNL A   1      38.755  30.528  30.204  1.00  0.00     0.037 A 
ATOM     60  C   UNL A   1      43.310  29.755  34.822  1.00  0.00     0.049 A 
ATOM     61  C   UNL A   1      38.826  30.902  31.660  1.00  0.00     0.074 A 
ATOM     62  C   UNL A   1      43.284  30.217  36.127  1.00  0.00     0.029 A 
ATOM     63  N   UNL A   1      42.107  30.130  34.241  1.00  0.00    -0.354 N 
ATOM     64  N   UNL A   1      39.801  30.717  32.517  1.00  0.00    -0.248 NA
ATOM     65  C   UNL A   1      37.649  31.573  32.228  1.00  0.00     0.031 C 
ATOM     66  C   UNL A   1      42.042  30.816  36.353  1.00  0.00     0.029 A 
ATOM     67  C   UNL A   1      41.320  30.791  35.171  1.00  0.00     0.049 A 
ATOM     68  H   UNL A   1      41.852  29.954  33.307  1.00  0.00     0.167 HD
ATOM     69  C   UNL A   1      39.370  31.274  33.714  1.00  0.00     0.074 A 
ATOM     70  C   UNL A   1      38.050  31.817  33.467  1.00  0.00     0.031 C 
ATOM     71  C   UNL A   1      40.009  31.331  34.908  1.00  0.00     0.037 A 
BRANCH  58  72
ATOM     72  C   UNL A   1      45.558  28.605  34.945  1.00  0.00     0.064 A 
ATOM     73  C   UNL A   1      45.640  27.348  35.565  1.00  0.00     0.173 A 
ATOM     74  C   UNL A   1      46.662  29.464  35.060  1.00  0.00     0.173 A 
ATOM     75  F   UNL A   1      44.610  26.492  35.495  1.00  0.00    -0.203 F 
ATOM     76  C   UNL A   1      46.765  26.983  36.300  1.00  0.00     0.198 A 
ATOM     77  C   UNL A   1      47.800  29.079  35.765  1.00  0.00     0.198 A 
ATOM     78  F   UNL A   1      46.643  30.674  34.481  1.00  0.00    -0.203 F 
ATOM     79  F   UNL A   1      46.794  25.801  36.932  1.00  0.00    -0.200 F 
ATOM     80  C   UNL A   1      47.846  27.845  36.394  1.00  0.00     0.200 A 
ATOM     81  F   UNL A   1      48.851  29.908  35.840  1.00  0.00    -0.200 F 
ATOM     82  F   UNL A   1      48.931  27.488  37.095  1.00  0.00    -0.200 F 
ENDBRANCH  58  72
BRANCH  59  83
ATOM     83  C   UNL A   1      37.542  30.819  29.394  1.00  0.00     0.064 A 
ATOM     84  C   UNL A   1      37.312  32.102  28.874  1.00  0.00     0.173 A 
ATOM     85  C   UNL A   1      36.590  29.826  29.119  1.00  0.00     0.173 A 
ATOM     86  F   UNL A   1      38.181  33.091  29.126  1.00  0.00    -0.203 F 
ATOM     87  C   UNL A   1      36.167  32.384  28.131  1.00  0.00     0.198 A 
ATOM     88  C   UNL A   1      35.463  30.101  28.349  1.00  0.00     0.198 A 
ATOM     89  F   UNL A   1      36.763  28.581  29.588  1.00  0.00    -0.203 F 
ATOM     90  F   UNL A   1      35.949  33.630  27.690  1.00  0.00    -0.200 F 
ATOM     91  C   UNL A   1      35.247  31.382  27.863  1.00  0.00     0.200 A 
ATOM     92  F   UNL A   1      34.581  29.128  28.079  1.00  0.00    -0.200 F 
ATOM     93  F   UNL A   1      34.150  31.650  27.143  1.00  0.00    -0.200 F 
ENDBRANCH  59  83
BRANCH  71  94
ATOM     94  C   UNL A   1      39.309  32.039  36.033  1.00  0.00     0.064 A 
ATOM     95  C   UNL A   1      38.391  31.382  36.865  1.00  0.00     0.173 A 
ATOM     96  C   UNL A   1      39.598  33.386  36.309  1.00  0.00     0.173 A 
ATOM     97  F   UNL A   1      38.069  30.101  36.635  1.00  0.00    -0.203 F 
ATOM     98  C   UNL A   1      37.766  32.055  37.912  1.00  0.00     0.198 A 
ATOM     99  C   UNL A   1      38.998  34.043  37.379  1.00  0.00     0.198 A 
ATOM    100  F   UNL A   1      40.475  34.060  35.550  1.00  0.00    -0.203 F 
ATOM    101  F   UNL A   1      36.852  31.421  38.660  1.00  0.00    -0.200 F 
ATOM    102  C   UNL A   1      38.077  33.380  38.174  1.00  0.00     0.200 A 
ATOM    103  F   UNL A   1      39.314  35.319  37.640  1.00  0.00    -0.200 F 
ATOM    104  F   UNL A   1      37.481  34.021  39.189  1.00  0.00    -0.200 F 
ENDBRANCH  71  94
ENDBRANCH  45  46
ENDBRANCH  37  40
ENDBRANCH  35  36
ENDBRANCH  34  35
ENDBRANCH  33  34
ENDBRANCH   3  33
TORSDOF 16
ENDMDL
MODEL 3
REMARK VINA RESULT:     -13.0      3.315      9.821
REMARK SMILES O=C(CCCN1C(=O)/C(=C/c2ccccc2Cl)SC1=S)Nc1cccc(C(=O)NCCCNC(=O)c2ccc(-c3c4nc(c(-c5c(F)c(F)c(F)c(F)c5F)c5ccc([nH]5)c(-c5c(F)c(F)c(F)c(F)c5F)c5nc(c(-c6c(F)c(F)c(F)c(F)c6F)c6ccc3[nH]6)C=C5)C=C4)cc2)c1
REMARK SMILES IDX 27 1 28 2 29 3 26 5 22 6 23 7 99 8 24 9 25 10 21 11 1 12
REMARK SMILES IDX 2 13 3 15 4 16 5 17 6 18 7 19 19 20 8 21 9 22 18 23 20 24
REMARK SMILES IDX 10 25 11 26 12 27 16 28 13 29 15 30 17 31 14 32 30 33 31 34
REMARK SMILES IDX 32 35 33 36 34 37 35 39 36 40 37 41 98 42 38 43 97 44 39 45
REMARK SMILES IDX 40 46 41 47 91 48 42 49 96 50 90 51 92 52 43 53 95 54 89 55
REMARK SMILES IDX 88 56 44 58 76 59 56 60 75 61 57 62 60 63 74 64 93 65 58 66
REMARK SMILES IDX 59 67 73 69 94 70 61 71 45 72 46 73 54 74 47 75 48 76 52 77
REMARK SMILES IDX 55 78 49 79 50 80 53 81 51 82 77 83 78 84 86 85 79 86 80 87
REMARK SMILES IDX 84 88 87 89 81 90 82 91 85 92 83 93 62 94 63 95 71 96 64 97
REMARK SMILES IDX 65 98 69 99 72 100 66 101 67 102 70 103 68 104
REMARK H PARENT 29 4 21 14 33 38 92 57 60 68
REMARK Flexibility Score: inf
ROOT
ATOM      1  C   UNL A   1      42.574  22.548  28.305  1.00  0.00     0.251 C 
ATOM      2  O   UNL A   1      43.016  22.865  29.408  1.00  0.00    -0.269 OA
ATOM      3  N   UNL A   1      43.379  21.840  27.440  1.00  0.00    -0.352 N 
ATOM      4  H   UNL A   1      44.261  21.600  27.807  1.00  0.00     0.163 HD
ENDROOT
BRANCH   1   5
ATOM      5  C   UNL A   1      41.224  23.008  27.899  1.00  0.00     0.041 A 
ATOM      6  C   UNL A   1      39.285  22.721  26.503  1.00  0.00     0.041 A 
ATOM      7  C   UNL A   1      38.956  24.069  26.708  1.00  0.00     0.026 A 
ATOM      8  C   UNL A   1      40.347  22.172  27.207  1.00  0.00     0.040 A 
ATOM      9  C   UNL A   1      39.722  24.866  27.561  1.00  0.00     0.003 A 
ATOM     10  C   UNL A   1      40.880  24.345  28.131  1.00  0.00     0.014 A 
BRANCH   6  11
ATOM     11  N   UNL A   1      38.634  22.048  25.445  1.00  0.00    -0.326 N 
ATOM     12  O   UNL A   1      36.851  23.430  24.945  1.00  0.00    -0.275 OA
ATOM     13  C   UNL A   1      37.407  22.335  24.887  1.00  0.00     0.224 C 
ATOM     14  H   UNL A   1      39.116  21.282  25.060  1.00  0.00     0.169 HD
BRANCH  13  15
ATOM     15  C   UNL A   1      36.650  21.147  24.272  1.00  0.00     0.102 C 
BRANCH  15  16
ATOM     16  C   UNL A   1      35.457  20.512  24.987  1.00  0.00     0.032 C 
BRANCH  16  17
ATOM     17  C   UNL A   1      34.017  21.031  24.786  1.00  0.00     0.128 C 
BRANCH  17  18
ATOM     18  N   UNL A   1      33.731  22.435  25.088  1.00  0.00    -0.293 N 
ATOM     19  C   UNL A   1      33.443  23.276  24.018  1.00  0.00     0.266 C 
ATOM     20  C   UNL A   1      33.446  22.968  26.332  1.00  0.00     0.148 C 
ATOM     21  O   UNL A   1      33.391  22.952  22.834  1.00  0.00    -0.268 OA
ATOM     22  C   UNL A   1      33.092  24.634  24.494  1.00  0.00     0.081 C 
ATOM     23  S   UNL A   1      33.186  24.695  26.205  1.00  0.00    -0.054 SA
ATOM     24  S   UNL A   1      33.252  22.210  27.800  1.00  0.00    -0.052 S 
ATOM     25  C   UNL A   1      32.740  25.633  23.672  1.00  0.00     0.031 C 
BRANCH  25  26
ATOM     26  C   UNL A   1      32.484  26.994  24.161  1.00  0.00    -0.006 A 
ATOM     27  C   UNL A   1      33.568  27.868  24.329  1.00  0.00     0.010 A 
ATOM     28  C   UNL A   1      31.177  27.475  24.364  1.00  0.00     0.048 A 
ATOM     29  C   UNL A   1      33.346  29.206  24.663  1.00  0.00     0.001 A 
ATOM     30  C   UNL A   1      30.961  28.815  24.688  1.00  0.00     0.021 A 
ATOM     31  Cl  UNL A   1      29.789  26.453  24.201  1.00  0.00    -0.084 Cl
ATOM     32  C   UNL A   1      32.045  29.681  24.831  1.00  0.00     0.002 A 
ENDBRANCH  25  26
ENDBRANCH  17  18
ENDBRANCH  16  17
ENDBRANCH  15  16
ENDBRANCH  13  15
ENDBRANCH   6  11
ENDBRANCH   1   5
BRANCH   3  33
ATOM     33  C   UNL A   1      43.149  21.383  26.072  1.00  0.00     0.118 C 
BRANCH  33  34
ATOM     34  C   UNL A   1      43.968  22.117  25.026  1.00  0.00     0.042 C 
BRANCH  34  35
ATOM     35  C   UNL A   1      43.821  23.626  25.050  1.00  0.00     0.118 C 
BRANCH  35  36
ATOM     36  N   UNL A   1      45.019  24.328  24.609  1.00  0.00    -0.352 N 
ATOM     37  C   UNL A   1      45.578  25.510  25.034  1.00  0.00     0.251 C 
ATOM     38  H   UNL A   1      45.511  23.881  23.883  1.00  0.00     0.163 HD
ATOM     39  O   UNL A   1      46.513  26.001  24.408  1.00  0.00    -0.269 OA
BRANCH  37  40
ATOM     40  C   UNL A   1      45.049  26.214  26.223  1.00  0.00     0.039 A 
ATOM     41  C   UNL A   1      45.058  27.613  26.242  1.00  0.00     0.014 A 
ATOM     42  C   UNL A   1      44.560  25.512  27.326  1.00  0.00     0.014 A 
ATOM     43  C   UNL A   1      44.504  28.299  27.326  1.00  0.00     0.010 A 
ATOM     44  C   UNL A   1      43.909  26.191  28.350  1.00  0.00     0.010 A 
ATOM     45  C   UNL A   1      43.882  27.593  28.367  1.00  0.00    -0.014 A 
BRANCH  45  46
ATOM     46  C   UNL A   1      43.208  28.295  29.490  1.00  0.00     0.031 A 
ATOM     47  C   UNL A   1      43.864  28.358  30.843  1.00  0.00     0.074 A 
ATOM     48  C   UNL A   1      41.973  28.805  29.315  1.00  0.00     0.049 A 
ATOM     49  N   UNL A   1      43.402  28.843  31.968  1.00  0.00    -0.248 NA
ATOM     50  C   UNL A   1      45.206  27.765  30.957  1.00  0.00     0.031 C 
ATOM     51  C   UNL A   1      41.208  28.756  28.068  1.00  0.00     0.029 A 
ATOM     52  N   UNL A   1      41.137  29.452  30.190  1.00  0.00    -0.354 N 
ATOM     53  C   UNL A   1      44.382  28.593  32.919  1.00  0.00     0.074 A 
ATOM     54  C   UNL A   1      45.438  27.859  32.257  1.00  0.00     0.031 C 
ATOM     55  C   UNL A   1      40.028  29.370  28.251  1.00  0.00     0.029 A 
ATOM     56  C   UNL A   1      39.932  29.813  29.638  1.00  0.00     0.049 A 
ATOM     57  H   UNL A   1      41.378  29.640  31.126  1.00  0.00     0.167 HD
ATOM     58  C   UNL A   1      44.412  28.965  34.222  1.00  0.00     0.037 A 
ATOM     59  C   UNL A   1      38.864  30.422  30.190  1.00  0.00     0.037 A 
ATOM     60  C   UNL A   1      43.370  29.718  34.868  1.00  0.00     0.049 A 
ATOM     61  C   UNL A   1      38.923  30.825  31.639  1.00  0.00     0.074 A 
ATOM     62  C   UNL A   1      43.334  30.207  36.162  1.00  0.00     0.029 A 
ATOM     63  N   UNL A   1      42.175  30.088  34.267  1.00  0.00    -0.354 N 
ATOM     64  N   UNL A   1      39.889  30.652  32.509  1.00  0.00    -0.248 NA
ATOM     65  C   UNL A   1      37.745  31.515  32.181  1.00  0.00     0.031 C 
ATOM     66  C   UNL A   1      42.094  30.818  36.363  1.00  0.00     0.029 A 
ATOM     67  C   UNL A   1      41.383  30.773  35.175  1.00  0.00     0.049 A 
ATOM     68  H   UNL A   1      41.928  29.894  33.334  1.00  0.00     0.167 HD
ATOM     69  C   UNL A   1      39.450  31.237  33.690  1.00  0.00     0.074 A 
ATOM     70  C   UNL A   1      38.135  31.782  33.419  1.00  0.00     0.031 C 
ATOM     71  C   UNL A   1      40.077  31.315  34.889  1.00  0.00     0.037 A 
BRANCH  58  72
ATOM     72  C   UNL A   1      45.609  28.558  35.035  1.00  0.00     0.064 A 
ATOM     73  C   UNL A   1      45.633  27.364  35.774  1.00  0.00     0.173 A 
ATOM     74  C   UNL A   1      46.762  29.359  35.051  1.00  0.00     0.173 A 
ATOM     75  F   UNL A   1      44.555  26.566  35.801  1.00  0.00    -0.203 F 
ATOM     76  C   UNL A   1      46.749  27.007  36.525  1.00  0.00     0.198 A 
ATOM     77  C   UNL A   1      47.890  28.980  35.775  1.00  0.00     0.198 A 
ATOM     78  F   UNL A   1      46.799  30.507  34.358  1.00  0.00    -0.203 F 
ATOM     79  F   UNL A   1      46.725  25.892  37.269  1.00  0.00    -0.200 F 
ATOM     80  C   UNL A   1      47.879  27.811  36.520  1.00  0.00     0.200 A 
ATOM     81  F   UNL A   1      48.987  29.750  35.755  1.00  0.00    -0.200 F 
ATOM     82  F   UNL A   1      48.956  27.461  37.237  1.00  0.00    -0.200 F 
ENDBRANCH  58  72
BRANCH  59  83
ATOM     83  C   UNL A   1      37.661  30.703  29.363  1.00  0.00     0.064 A 
ATOM     84  C   UNL A   1      36.724  29.697  29.086  1.00  0.00     0.173 A 
ATOM     85  C   UNL A   1      37.419  31.980  28.834  1.00  0.00     0.173 A 
ATOM     86  F   UNL A   1      36.920  28.455  29.550  1.00  0.00    -0.203 F 
ATOM     87  C   UNL A   1      35.604  29.952  28.295  1.00  0.00     0.198 A 
ATOM     88  C   UNL A   1      36.283  32.242  28.071  1.00  0.00     0.198 A 
ATOM     89  F   UNL A   1      38.280  32.980  29.072  1.00  0.00    -0.203 F 
ATOM     90  F   UNL A   1      34.752  28.959  28.005  1.00  0.00    -0.200 F 
ATOM     91  C   UNL A   1      35.381  31.225  27.795  1.00  0.00     0.200 A 
ATOM     92  F   UNL A   1      36.061  33.477  27.600  1.00  0.00    -0.200 F 
ATOM     93  F   UNL A   1      34.302  31.473  27.040  1.00  0.00    -0.200 F 
ENDBRANCH  59  83
BRANCH  71  94
ATOM     94  C   UNL A   1      39.371  32.050  35.992  1.00  0.00     0.064 A 
ATOM     95  C   UNL A   1      39.579  33.417  36.223  1.00  0.00     0.173 A 
ATOM     96  C   UNL A   1      38.436  31.383  36.800  1.00  0.00     0.173 A 
ATOM     97  F   UNL A   1      40.472  34.098  35.489  1.00  0.00    -0.203 F 
ATOM     98  C   UNL A   1      38.901  34.082  37.242  1.00  0.00     0.198 A 
ATOM     99  C   UNL A   1      37.734  32.059  37.793  1.00  0.00     0.198 A 
ATOM    100  F   UNL A   1      38.192  30.076  36.617  1.00  0.00    -0.203 F 
ATOM    101  F   UNL A   1      39.156  35.377  37.478  1.00  0.00    -0.200 F 
ATOM    102  C   UNL A   1      37.973  33.406  38.018  1.00  0.00     0.200 A 
ATOM    103  F   UNL A   1      36.825  31.407  38.531  1.00  0.00    -0.200 F 
ATOM    104  F   UNL A   1      37.314  34.051  38.991  1.00  0.00    -0.200 F 
ENDBRANCH  71  94
ENDBRANCH  45  46
ENDBRANCH  37  40
ENDBRANCH  35  36
ENDBRANCH  34  35
ENDBRANCH  33  34
ENDBRANCH   3  33
TORSDOF 16
ENDMDL
