MODEL 1
REMARK VINA RESULT:     -13.4      0.000      0.000
REMARK SMILES Cc1ccccc1NC(=O)C[NH+]1CCC(CC(=O)NCCCNC(=O)c2ccc(-c3c4nc(c(-c5c(F)c(F)c(F)c(F)c5F)c5ccc([nH]5)c(-c5c(F)c(F)c(F)c(F)c5F)c5nc(c(-c6c(F)c(F)c(F)c(F)c6F)c6ccc3[nH]6)C=C5)C=C4)cc2)CC1
REMARK SMILES IDX 20 1 19 2 17 3 18 4 16 6 15 7 12 8 13 9 90 10 14 12 89 13
REMARK SMILES IDX 11 14 9 15 8 16 10 18 7 19 1 20 2 21 3 22 4 23 6 24 5 25
REMARK SMILES IDX 21 26 22 27 23 28 24 29 25 31 26 32 27 33 88 34 28 35 87 36
REMARK SMILES IDX 29 37 30 38 31 39 81 40 32 41 86 42 80 43 82 44 33 45 85 46
REMARK SMILES IDX 79 47 78 48 34 50 66 51 46 52 65 53 47 54 50 55 64 56 83 57
REMARK SMILES IDX 48 58 49 59 63 61 84 62 51 63 35 64 36 65 44 66 37 67 38 68
REMARK SMILES IDX 42 69 45 70 39 71 40 72 43 73 41 74 67 75 68 76 76 77 69 78
REMARK SMILES IDX 70 79 74 80 77 81 71 82 72 83 75 84 73 85 52 86 53 87 61 88
REMARK SMILES IDX 54 89 55 90 59 91 62 92 56 93 57 94 60 95 58 96
REMARK H PARENT 19 5 12 11 8 17 23 30 82 49 50 60
REMARK Flexibility Score: inf
ROOT
ATOM      1  C   UNL A   1      32.173  29.851  25.901  1.00  0.00     0.117 C 
ENDROOT
BRANCH   1   2
ATOM      2  N   UNL A   1      32.967  29.647  24.700  1.00  0.00    -0.356 N 
ATOM      3  C   UNL A   1      33.574  28.512  24.232  1.00  0.00     0.220 C 
ATOM      4  O   UNL A   1      34.094  28.542  23.116  1.00  0.00    -0.275 OA
ATOM      5  H   UNL A   1      33.085  30.446  24.136  1.00  0.00     0.163 HD
BRANCH   3   6
ATOM      6  C   UNL A   1      33.658  27.269  25.100  1.00  0.00     0.104 C 
BRANCH   6   7
ATOM      7  C   UNL A   1      33.036  26.027  24.437  1.00  0.00     0.009 C 
ATOM      8  N   UNL A   1      32.898  23.101  24.176  1.00  0.00    -0.327 N 
ATOM      9  C   UNL A   1      33.480  23.898  23.100  1.00  0.00     0.262 C 
ATOM     10  C   UNL A   1      31.853  23.835  24.888  1.00  0.00     0.262 C 
ATOM     11  H   UNL A   1      33.629  22.938  24.868  1.00  0.00     0.348 HD
ATOM     12  C   UNL A   1      34.062  25.172  23.696  1.00  0.00     0.066 C 
ATOM     13  C   UNL A   1      32.362  25.144  25.497  1.00  0.00     0.066 C 
BRANCH   8  14
ATOM     14  C   UNL A   1      32.521  21.734  23.746  1.00  0.00     0.363 C 
BRANCH  14  15
ATOM     15  C   UNL A   1      32.917  20.591  24.696  1.00  0.00     0.279 C 
ATOM     16  N   UNL A   1      34.073  20.589  25.425  1.00  0.00    -0.321 N 
ATOM     17  H   UNL A   1      34.189  19.810  26.017  1.00  0.00     0.170 HD
ATOM     18  O   UNL A   1      32.135  19.650  24.888  1.00  0.00    -0.268 OA
BRANCH  16  19
ATOM     19  C   UNL A   1      35.119  21.520  25.463  1.00  0.00     0.044 A 
ATOM     20  C   UNL A   1      34.153  22.546  27.617  1.00  0.00     0.046 C 
ATOM     21  C   UNL A   1      35.128  22.505  26.471  1.00  0.00    -0.027 A 
ATOM     22  C   UNL A   1      36.070  23.545  26.386  1.00  0.00     0.005 A 
ATOM     23  C   UNL A   1      36.995  23.596  25.344  1.00  0.00     0.000 A 
ATOM     24  C   UNL A   1      36.114  21.526  24.479  1.00  0.00     0.026 A 
ATOM     25  C   UNL A   1      37.036  22.571  24.407  1.00  0.00     0.002 A 
ENDBRANCH  16  19
ENDBRANCH  14  15
ENDBRANCH   8  14
ENDBRANCH   6   7
ENDBRANCH   3   6
ENDBRANCH   1   2
BRANCH   1  26
ATOM     26  C   UNL A   1      32.834  30.711  26.979  1.00  0.00     0.042 C 
BRANCH  26  27
ATOM     27  C   UNL A   1      34.190  30.216  27.454  1.00  0.00     0.118 C 
BRANCH  27  28
ATOM     28  N   UNL A   1      34.702  31.070  28.525  1.00  0.00    -0.352 N 
ATOM     29  C   UNL A   1      35.926  31.032  29.186  1.00  0.00     0.251 C 
ATOM     30  H   UNL A   1      34.087  31.779  28.825  1.00  0.00     0.163 HD
ATOM     31  O   UNL A   1      36.282  31.908  29.928  1.00  0.00    -0.269 OA
BRANCH  29  32
ATOM     32  C   UNL A   1      36.807  29.900  28.848  1.00  0.00     0.039 A 
ATOM     33  C   UNL A   1      37.076  28.976  29.858  1.00  0.00     0.014 A 
ATOM     34  C   UNL A   1      37.582  29.989  27.696  1.00  0.00     0.014 A 
ATOM     35  C   UNL A   1      38.283  28.287  29.821  1.00  0.00     0.010 A 
ATOM     36  C   UNL A   1      38.813  29.361  27.699  1.00  0.00     0.010 A 
ATOM     37  C   UNL A   1      39.190  28.574  28.796  1.00  0.00    -0.014 A 
BRANCH  37  38
ATOM     38  C   UNL A   1      40.589  28.178  28.869  1.00  0.00     0.031 A 
ATOM     39  C   UNL A   1      41.011  26.865  28.346  1.00  0.00     0.074 A 
ATOM     40  C   UNL A   1      41.518  28.982  29.435  1.00  0.00     0.049 A 
ATOM     41  N   UNL A   1      41.965  26.169  28.869  1.00  0.00    -0.248 NA
ATOM     42  C   UNL A   1      40.363  26.211  27.213  1.00  0.00     0.031 C 
ATOM     43  C   UNL A   1      42.967  28.796  29.398  1.00  0.00     0.029 A 
ATOM     44  N   UNL A   1      41.325  30.043  30.340  1.00  0.00    -0.354 N 
ATOM     45  C   UNL A   1      42.232  25.137  28.006  1.00  0.00     0.074 A 
ATOM     46  C   UNL A   1      41.164  25.156  27.034  1.00  0.00     0.031 C 
ATOM     47  C   UNL A   1      43.515  29.453  30.430  1.00  0.00     0.029 A 
ATOM     48  C   UNL A   1      42.429  29.994  31.224  1.00  0.00     0.049 A 
ATOM     49  H   UNL A   1      40.579  30.685  30.354  1.00  0.00     0.167 HD
ATOM     50  C   UNL A   1      43.405  24.454  28.103  1.00  0.00     0.037 A 
ATOM     51  C   UNL A   1      42.293  29.852  32.572  1.00  0.00     0.037 A 
ATOM     52  C   UNL A   1      44.261  24.970  29.160  1.00  0.00     0.049 A 
ATOM     53  C   UNL A   1      43.047  28.682  33.149  1.00  0.00     0.074 A 
ATOM     54  C   UNL A   1      45.323  25.861  29.145  1.00  0.00     0.029 A 
ATOM     55  N   UNL A   1      43.886  24.830  30.490  1.00  0.00    -0.354 N 
ATOM     56  N   UNL A   1      43.448  27.665  32.441  1.00  0.00    -0.248 NA
ATOM     57  C   UNL A   1      43.382  28.543  34.562  1.00  0.00     0.031 C 
ATOM     58  C   UNL A   1      45.597  26.249  30.476  1.00  0.00     0.029 A 
ATOM     59  C   UNL A   1      44.704  25.592  31.301  1.00  0.00     0.049 A 
ATOM     60  H   UNL A   1      43.142  24.268  30.809  1.00  0.00     0.167 HD
ATOM     61  C   UNL A   1      44.067  26.750  33.256  1.00  0.00     0.074 A 
ATOM     62  C   UNL A   1      44.012  27.354  34.573  1.00  0.00     0.031 C 
ATOM     63  C   UNL A   1      44.564  25.581  32.750  1.00  0.00     0.037 A 
BRANCH  50  64
ATOM     64  C   UNL A   1      43.858  23.531  27.009  1.00  0.00     0.064 A 
ATOM     65  C   UNL A   1      44.753  23.954  26.009  1.00  0.00     0.173 A 
ATOM     66  C   UNL A   1      43.374  22.216  26.878  1.00  0.00     0.173 A 
ATOM     67  F   UNL A   1      45.339  25.156  26.052  1.00  0.00    -0.203 F 
ATOM     68  C   UNL A   1      45.058  23.159  24.903  1.00  0.00     0.198 A 
ATOM     69  C   UNL A   1      43.640  21.441  25.748  1.00  0.00     0.198 A 
ATOM     70  F   UNL A   1      42.623  21.665  27.843  1.00  0.00    -0.203 F 
ATOM     71  F   UNL A   1      45.902  23.619  23.967  1.00  0.00    -0.200 F 
ATOM     72  C   UNL A   1      44.474  21.917  24.754  1.00  0.00     0.200 A 
ATOM     73  F   UNL A   1      43.066  20.236  25.616  1.00  0.00    -0.200 F 
ATOM     74  F   UNL A   1      44.719  21.182  23.662  1.00  0.00    -0.200 F 
ENDBRANCH  50  64
BRANCH  51  75
ATOM     75  C   UNL A   1      41.018  30.397  33.095  1.00  0.00     0.064 A 
ATOM     76  C   UNL A   1      40.877  31.796  33.160  1.00  0.00     0.173 A 
ATOM     77  C   UNL A   1      39.854  29.621  33.127  1.00  0.00     0.173 A 
ATOM     78  F   UNL A   1      41.965  32.581  33.128  1.00  0.00    -0.203 F 
ATOM     79  C   UNL A   1      39.621  32.396  33.127  1.00  0.00     0.198 A 
ATOM     80  C   UNL A   1      38.597  30.227  33.108  1.00  0.00     0.198 A 
ATOM     81  F   UNL A   1      39.928  28.285  33.052  1.00  0.00    -0.203 F 
ATOM     82  F   UNL A   1      39.520  33.732  33.062  1.00  0.00    -0.200 F 
ATOM     83  C   UNL A   1      38.482  31.610  33.069  1.00  0.00     0.200 A 
ATOM     84  F   UNL A   1      37.493  29.470  33.029  1.00  0.00    -0.200 F 
ATOM     85  F   UNL A   1      37.280  32.184  32.931  1.00  0.00    -0.200 F 
ENDBRANCH  51  75
BRANCH  63  86
ATOM     86  C   UNL A   1      45.079  24.369  33.505  1.00  0.00     0.064 A 
ATOM     87  C   UNL A   1      44.346  23.194  33.731  1.00  0.00     0.173 A 
ATOM     88  C   UNL A   1      46.437  24.314  33.926  1.00  0.00     0.173 A 
ATOM     89  F   UNL A   1      43.091  23.053  33.290  1.00  0.00    -0.203 F 
ATOM     90  C   UNL A   1      44.903  22.080  34.374  1.00  0.00     0.198 A 
ATOM     91  C   UNL A   1      47.004  23.184  34.513  1.00  0.00     0.198 A 
ATOM     92  F   UNL A   1      47.273  25.348  33.758  1.00  0.00    -0.203 F 
ATOM     93  F   UNL A   1      44.144  20.998  34.598  1.00  0.00    -0.200 F 
ATOM     94  C   UNL A   1      46.233  22.070  34.752  1.00  0.00     0.200 A 
ATOM     95  F   UNL A   1      48.308  23.180  34.824  1.00  0.00    -0.200 F 
ATOM     96  F   UNL A   1      46.772  20.985  35.321  1.00  0.00    -0.200 F 
ENDBRANCH  63  86
ENDBRANCH  37  38
ENDBRANCH  29  32
ENDBRANCH  27  28
ENDBRANCH  26  27
ENDBRANCH   1  26
TORSDOF 14
ENDMDL
MODEL 2
REMARK VINA RESULT:     -13.4      3.686     10.144
REMARK SMILES Cc1ccccc1NC(=O)C[NH+]1CCC(CC(=O)NCCCNC(=O)c2ccc(-c3c4nc(c(-c5c(F)c(F)c(F)c(F)c5F)c5ccc([nH]5)c(-c5c(F)c(F)c(F)c(F)c5F)c5nc(c(-c6c(F)c(F)c(F)c(F)c6F)c6ccc3[nH]6)C=C5)C=C4)cc2)CC1
REMARK SMILES IDX 20 1 19 2 17 3 18 4 16 6 15 7 12 8 13 9 90 10 14 12 89 13
REMARK SMILES IDX 11 14 9 15 8 16 10 18 7 19 1 20 2 21 3 22 4 23 6 24 5 25
REMARK SMILES IDX 21 26 22 27 23 28 24 29 25 31 26 32 27 33 88 34 28 35 87 36
REMARK SMILES IDX 29 37 30 38 31 39 81 40 32 41 86 42 80 43 82 44 33 45 85 46
REMARK SMILES IDX 79 47 78 48 34 50 66 51 46 52 65 53 47 54 50 55 64 56 83 57
REMARK SMILES IDX 48 58 49 59 63 61 84 62 51 63 35 64 36 65 44 66 37 67 38 68
REMARK SMILES IDX 42 69 45 70 39 71 40 72 43 73 41 74 67 75 68 76 76 77 69 78
REMARK SMILES IDX 70 79 74 80 77 81 71 82 72 83 75 84 73 85 52 86 53 87 61 88
REMARK SMILES IDX 54 89 55 90 59 91 62 92 56 93 57 94 60 95 58 96
REMARK H PARENT 19 5 12 11 8 17 23 30 82 49 50 60
REMARK Flexibility Score: inf
ROOT
ATOM      1  C   UNL A   1      36.517  21.525  25.217  1.00  0.00     0.117 C 
ENDROOT
BRANCH   1   2
ATOM      2  N   UNL A   1      35.625  21.677  26.356  1.00  0.00    -0.356 N 
ATOM      3  C   UNL A   1      34.744  22.683  26.652  1.00  0.00     0.220 C 
ATOM      4  O   UNL A   1      33.993  22.540  27.617  1.00  0.00    -0.275 OA
ATOM      5  H   UNL A   1      35.660  20.946  27.015  1.00  0.00     0.163 HD
BRANCH   3   6
ATOM      6  C   UNL A   1      34.742  23.969  25.844  1.00  0.00     0.104 C 
BRANCH   6   7
ATOM      7  C   UNL A   1      33.354  24.325  25.281  1.00  0.00     0.009 C 
ATOM      8  N   UNL A   1      31.497  26.346  24.225  1.00  0.00    -0.327 N 
ATOM      9  C   UNL A   1      31.273  25.779  25.552  1.00  0.00     0.262 C 
ATOM     10  C   UNL A   1      32.142  25.388  23.330  1.00  0.00     0.262 C 
ATOM     11  H   UNL A   1      32.166  27.109  24.326  1.00  0.00     0.348 HD
ATOM     12  C   UNL A   1      32.614  25.354  26.134  1.00  0.00     0.066 C 
ATOM     13  C   UNL A   1      33.491  24.897  23.863  1.00  0.00     0.066 C 
BRANCH   8  14
ATOM     14  C   UNL A   1      30.296  27.012  23.669  1.00  0.00     0.363 C 
BRANCH  14  15
ATOM     15  C   UNL A   1      30.520  28.393  23.033  1.00  0.00     0.279 C 
ATOM     16  N   UNL A   1      31.363  29.333  23.557  1.00  0.00    -0.321 N 
ATOM     17  H   UNL A   1      31.436  30.164  23.032  1.00  0.00     0.170 HD
ATOM     18  O   UNL A   1      29.983  28.668  21.951  1.00  0.00    -0.268 OA
BRANCH  16  19
ATOM     19  C   UNL A   1      32.138  29.301  24.723  1.00  0.00     0.044 A 
ATOM     20  C   UNL A   1      34.196  28.575  23.359  1.00  0.00     0.046 C 
ATOM     21  C   UNL A   1      33.478  28.873  24.648  1.00  0.00    -0.027 A 
ATOM     22  C   UNL A   1      34.184  28.662  25.846  1.00  0.00     0.005 A 
ATOM     23  C   UNL A   1      33.587  28.891  27.085  1.00  0.00     0.000 A 
ATOM     24  C   UNL A   1      31.581  29.623  25.967  1.00  0.00     0.026 A 
ATOM     25  C   UNL A   1      32.295  29.399  27.144  1.00  0.00     0.002 A 
ENDBRANCH  16  19
ENDBRANCH  14  15
ENDBRANCH   8  14
ENDBRANCH   6   7
ENDBRANCH   3   6
ENDBRANCH   1   2
BRANCH   1  26
ATOM     26  C   UNL A   1      38.008  21.614  25.541  1.00  0.00     0.042 C 
BRANCH  26  27
ATOM     27  C   UNL A   1      38.492  22.991  25.963  1.00  0.00     0.118 C 
BRANCH  27  28
ATOM     28  N   UNL A   1      39.950  23.010  26.079  1.00  0.00    -0.352 N 
ATOM     29  C   UNL A   1      40.788  23.980  26.619  1.00  0.00     0.251 C 
ATOM     30  H   UNL A   1      40.408  22.216  25.720  1.00  0.00     0.163 HD
ATOM     31  O   UNL A   1      41.959  23.785  26.807  1.00  0.00    -0.269 OA
BRANCH  29  32
ATOM     32  C   UNL A   1      40.137  25.234  27.040  1.00  0.00     0.039 A 
ATOM     33  C   UNL A   1      40.532  26.407  26.397  1.00  0.00     0.014 A 
ATOM     34  C   UNL A   1      39.447  25.245  28.249  1.00  0.00     0.014 A 
ATOM     35  C   UNL A   1      40.441  27.606  27.093  1.00  0.00     0.010 A 
ATOM     36  C   UNL A   1      39.427  26.424  28.967  1.00  0.00     0.010 A 
ATOM     37  C   UNL A   1      39.993  27.584  28.417  1.00  0.00    -0.014 A 
BRANCH  37  38
ATOM     38  C   UNL A   1      40.194  28.707  29.321  1.00  0.00     0.031 A 
ATOM     39  C   UNL A   1      39.147  29.736  29.464  1.00  0.00     0.074 A 
ATOM     40  C   UNL A   1      41.343  28.846  30.023  1.00  0.00     0.049 A 
ATOM     41  N   UNL A   1      39.405  30.982  29.680  1.00  0.00    -0.248 NA
ATOM     42  C   UNL A   1      37.722  29.447  29.332  1.00  0.00     0.031 C 
ATOM     43  C   UNL A   1      41.595  29.805  31.097  1.00  0.00     0.029 A 
ATOM     44  N   UNL A   1      42.602  28.270  29.767  1.00  0.00    -0.354 N 
ATOM     45  C   UNL A   1      38.216  31.595  29.981  1.00  0.00     0.074 A 
ATOM     46  C   UNL A   1      37.190  30.625  29.676  1.00  0.00     0.031 C 
ATOM     47  C   UNL A   1      42.917  29.998  31.205  1.00  0.00     0.029 A 
ATOM     48  C   UNL A   1      43.552  29.252  30.136  1.00  0.00     0.049 A 
ATOM     49  H   UNL A   1      42.783  27.372  29.408  1.00  0.00     0.167 HD
ATOM     50  C   UNL A   1      38.211  32.809  30.597  1.00  0.00     0.037 A 
ATOM     51  C   UNL A   1      44.475  29.752  29.268  1.00  0.00     0.037 A 
ATOM     52  C   UNL A   1      39.553  33.292  30.881  1.00  0.00     0.049 A 
ATOM     53  C   UNL A   1      44.449  31.253  29.136  1.00  0.00     0.074 A 
ATOM     54  C   UNL A   1      40.338  33.239  32.022  1.00  0.00     0.029 A 
ATOM     55  N   UNL A   1      40.400  33.646  29.838  1.00  0.00    -0.354 N 
ATOM     56  N   UNL A   1      43.423  31.985  29.463  1.00  0.00    -0.248 NA
ATOM     57  C   UNL A   1      45.551  32.044  28.599  1.00  0.00     0.031 C 
ATOM     58  C   UNL A   1      41.663  33.578  31.666  1.00  0.00     0.029 A 
ATOM     59  C   UNL A   1      41.685  33.839  30.309  1.00  0.00     0.049 A 
ATOM     60  H   UNL A   1      40.125  33.745  28.898  1.00  0.00     0.167 HD
ATOM     61  C   UNL A   1      43.692  33.304  29.190  1.00  0.00     0.074 A 
ATOM     62  C   UNL A   1      45.043  33.289  28.663  1.00  0.00     0.031 C 
ATOM     63  C   UNL A   1      42.760  34.276  29.431  1.00  0.00     0.037 A 
BRANCH  50  64
ATOM     64  C   UNL A   1      36.956  33.367  31.201  1.00  0.00     0.064 A 
ATOM     65  C   UNL A   1      36.662  33.213  32.569  1.00  0.00     0.173 A 
ATOM     66  C   UNL A   1      35.970  34.018  30.436  1.00  0.00     0.173 A 
ATOM     67  F   UNL A   1      37.542  32.672  33.420  1.00  0.00    -0.203 F 
ATOM     68  C   UNL A   1      35.431  33.587  33.110  1.00  0.00     0.198 A 
ATOM     69  C   UNL A   1      34.721  34.347  30.966  1.00  0.00     0.198 A 
ATOM     70  F   UNL A   1      36.201  34.336  29.153  1.00  0.00    -0.203 F 
ATOM     71  F   UNL A   1      35.195  33.400  34.417  1.00  0.00    -0.200 F 
ATOM     72  C   UNL A   1      34.448  34.121  32.302  1.00  0.00     0.200 A 
ATOM     73  F   UNL A   1      33.775  34.865  30.170  1.00  0.00    -0.200 F 
ATOM     74  F   UNL A   1      33.245  34.422  32.809  1.00  0.00    -0.200 F 
ENDBRANCH  50  64
BRANCH  51  75
ATOM     75  C   UNL A   1      44.852  28.800  28.198  1.00  0.00     0.064 A 
ATOM     76  C   UNL A   1      45.661  27.702  28.547  1.00  0.00     0.173 A 
ATOM     77  C   UNL A   1      44.126  28.722  27.004  1.00  0.00     0.173 A 
ATOM     78  F   UNL A   1      46.372  27.729  29.685  1.00  0.00    -0.203 F 
ATOM     79  C   UNL A   1      45.642  26.526  27.802  1.00  0.00     0.198 A 
ATOM     80  C   UNL A   1      44.121  27.546  26.252  1.00  0.00     0.198 A 
ATOM     81  F   UNL A   1      43.328  29.731  26.630  1.00  0.00    -0.203 F 
ATOM     82  F   UNL A   1      46.324  25.453  28.228  1.00  0.00    -0.200 F 
ATOM     83  C   UNL A   1      44.847  26.439  26.671  1.00  0.00     0.200 A 
ATOM     84  F   UNL A   1      43.335  27.450  25.170  1.00  0.00    -0.200 F 
ATOM     85  F   UNL A   1      44.745  25.276  26.013  1.00  0.00    -0.200 F 
ENDBRANCH  51  75
BRANCH  63  86
ATOM     86  C   UNL A   1      42.783  35.732  29.005  1.00  0.00     0.064 A 
ATOM     87  C   UNL A   1      42.091  36.257  27.903  1.00  0.00     0.173 A 
ATOM     88  C   UNL A   1      43.434  36.703  29.816  1.00  0.00     0.173 A 
ATOM     89  F   UNL A   1      41.340  35.483  27.112  1.00  0.00    -0.203 F 
ATOM     90  C   UNL A   1      42.095  37.626  27.603  1.00  0.00     0.198 A 
ATOM     91  C   UNL A   1      43.387  38.070  29.548  1.00  0.00     0.198 A 
ATOM     92  F   UNL A   1      44.117  36.363  30.919  1.00  0.00    -0.203 F 
ATOM     93  F   UNL A   1      41.448  38.065  26.514  1.00  0.00    -0.200 F 
ATOM     94  C   UNL A   1      42.730  38.532  28.431  1.00  0.00     0.200 A 
ATOM     95  F   UNL A   1      43.967  38.934  30.392  1.00  0.00    -0.200 F 
ATOM     96  F   UNL A   1      42.689  39.844  28.165  1.00  0.00    -0.200 F 
ENDBRANCH  63  86
ENDBRANCH  37  38
ENDBRANCH  29  32
ENDBRANCH  27  28
ENDBRANCH  26  27
ENDBRANCH   1  26
TORSDOF 14
ENDMDL
MODEL 3
REMARK VINA RESULT:     -13.2      3.734     10.134
REMARK SMILES Cc1ccccc1NC(=O)C[NH+]1CCC(CC(=O)NCCCNC(=O)c2ccc(-c3c4nc(c(-c5c(F)c(F)c(F)c(F)c5F)c5ccc([nH]5)c(-c5c(F)c(F)c(F)c(F)c5F)c5nc(c(-c6c(F)c(F)c(F)c(F)c6F)c6ccc3[nH]6)C=C5)C=C4)cc2)CC1
REMARK SMILES IDX 20 1 19 2 17 3 18 4 16 6 15 7 12 8 13 9 90 10 14 12 89 13
REMARK SMILES IDX 11 14 9 15 8 16 10 18 7 19 1 20 2 21 3 22 4 23 6 24 5 25
REMARK SMILES IDX 21 26 22 27 23 28 24 29 25 31 26 32 27 33 88 34 28 35 87 36
REMARK SMILES IDX 29 37 30 38 31 39 81 40 32 41 86 42 80 43 82 44 33 45 85 46
REMARK SMILES IDX 79 47 78 48 34 50 66 51 46 52 65 53 47 54 50 55 64 56 83 57
REMARK SMILES IDX 48 58 49 59 63 61 84 62 51 63 35 64 36 65 44 66 37 67 38 68
REMARK SMILES IDX 42 69 45 70 39 71 40 72 43 73 41 74 67 75 68 76 76 77 69 78
REMARK SMILES IDX 70 79 74 80 77 81 71 82 72 83 75 84 73 85 52 86 53 87 61 88
REMARK SMILES IDX 54 89 55 90 59 91 62 92 56 93 57 94 60 95 58 96
REMARK H PARENT 19 5 12 11 8 17 23 30 82 49 50 60
REMARK Flexibility Score: inf
ROOT
ATOM      1  C   UNL A   1      36.549  21.384  25.198  1.00  0.00     0.117 C 
ENDROOT
BRANCH   1   2
ATOM      2  N   UNL A   1      35.661  21.577  26.334  1.00  0.00    -0.356 N 
ATOM      3  C   UNL A   1      34.764  22.580  26.585  1.00  0.00     0.220 C 
ATOM      4  O   UNL A   1      34.020  22.472  27.561  1.00  0.00    -0.275 OA
ATOM      5  H   UNL A   1      35.713  20.880  27.027  1.00  0.00     0.163 HD
BRANCH   3   6
ATOM      6  C   UNL A   1      34.734  23.824  25.714  1.00  0.00     0.104 C 
BRANCH   6   7
ATOM      7  C   UNL A   1      33.309  24.236  25.300  1.00  0.00     0.009 C 
ATOM      8  N   UNL A   1      31.466  26.289  24.281  1.00  0.00    -0.327 N 
ATOM      9  C   UNL A   1      31.388  25.873  25.679  1.00  0.00     0.262 C 
ATOM     10  C   UNL A   1      31.917  25.199  23.418  1.00  0.00     0.262 C 
ATOM     11  H   UNL A   1      32.193  27.002  24.214  1.00  0.00     0.348 HD
ATOM     12  C   UNL A   1      32.763  25.399  26.126  1.00  0.00     0.066 C 
ATOM     13  C   UNL A   1      33.290  24.654  23.823  1.00  0.00     0.066 C 
BRANCH   8  14
ATOM     14  C   UNL A   1      30.248  26.993  23.817  1.00  0.00     0.363 C 
BRANCH  14  15
ATOM     15  C   UNL A   1      30.473  28.337  23.105  1.00  0.00     0.279 C 
ATOM     16  N   UNL A   1      31.322  29.301  23.573  1.00  0.00    -0.321 N 
ATOM     17  H   UNL A   1      31.394  30.102  23.003  1.00  0.00     0.170 HD
ATOM     18  O   UNL A   1      29.930  28.555  22.013  1.00  0.00    -0.268 OA
BRANCH  16  19
ATOM     19  C   UNL A   1      32.104  29.330  24.734  1.00  0.00     0.044 A 
ATOM     20  C   UNL A   1      34.153  28.531  23.397  1.00  0.00     0.046 C 
ATOM     21  C   UNL A   1      33.444  28.898  24.673  1.00  0.00    -0.027 A 
ATOM     22  C   UNL A   1      34.157  28.749  25.876  1.00  0.00     0.005 A 
ATOM     23  C   UNL A   1      33.568  29.044  27.105  1.00  0.00     0.000 A 
ATOM     24  C   UNL A   1      31.555  29.717  25.962  1.00  0.00     0.026 A 
ATOM     25  C   UNL A   1      32.276  29.555  27.145  1.00  0.00     0.002 A 
ENDBRANCH  16  19
ENDBRANCH  14  15
ENDBRANCH   8  14
ENDBRANCH   6   7
ENDBRANCH   3   6
ENDBRANCH   1   2
BRANCH   1  26
ATOM     26  C   UNL A   1      38.041  21.489  25.513  1.00  0.00     0.042 C 
BRANCH  26  27
ATOM     27  C   UNL A   1      38.500  22.854  25.998  1.00  0.00     0.118 C 
BRANCH  27  28
ATOM     28  N   UNL A   1      39.957  22.890  26.126  1.00  0.00    -0.352 N 
ATOM     29  C   UNL A   1      40.790  23.930  26.525  1.00  0.00     0.251 C 
ATOM     30  H   UNL A   1      40.418  22.052  25.893  1.00  0.00     0.163 HD
ATOM     31  O   UNL A   1      41.959  23.766  26.753  1.00  0.00    -0.269 OA
BRANCH  29  32
ATOM     32  C   UNL A   1      40.136  25.232  26.749  1.00  0.00     0.039 A 
ATOM     33  C   UNL A   1      40.775  26.364  26.243  1.00  0.00     0.014 A 
ATOM     34  C   UNL A   1      39.139  25.312  27.716  1.00  0.00     0.014 A 
ATOM     35  C   UNL A   1      40.577  27.580  26.887  1.00  0.00     0.010 A 
ATOM     36  C   UNL A   1      39.002  26.503  28.401  1.00  0.00     0.010 A 
ATOM     37  C   UNL A   1      39.777  27.611  28.033  1.00  0.00    -0.014 A 
BRANCH  37  38
ATOM     38  C   UNL A   1      39.796  28.735  28.958  1.00  0.00     0.031 A 
ATOM     39  C   UNL A   1      38.765  29.785  28.864  1.00  0.00     0.074 A 
ATOM     40  C   UNL A   1      40.763  28.855  29.897  1.00  0.00     0.049 A 
ATOM     41  N   UNL A   1      38.994  31.028  29.132  1.00  0.00    -0.248 NA
ATOM     42  C   UNL A   1      37.399  29.525  28.420  1.00  0.00     0.031 C 
ATOM     43  C   UNL A   1      40.790  29.815  30.999  1.00  0.00     0.029 A 
ATOM     44  N   UNL A   1      42.035  28.253  29.928  1.00  0.00    -0.354 N 
ATOM     45  C   UNL A   1      37.781  31.666  29.160  1.00  0.00     0.074 A 
ATOM     46  C   UNL A   1      36.828  30.714  28.636  1.00  0.00     0.031 C 
ATOM     47  C   UNL A   1      42.059  29.981  31.398  1.00  0.00     0.029 A 
ATOM     48  C   UNL A   1      42.899  29.217  30.498  1.00  0.00     0.049 A 
ATOM     49  H   UNL A   1      42.273  27.349  29.618  1.00  0.00     0.167 HD
ATOM     50  C   UNL A   1      37.664  32.882  29.759  1.00  0.00     0.037 A 
ATOM     51  C   UNL A   1      44.003  29.694  29.856  1.00  0.00     0.037 A 
ATOM     52  C   UNL A   1      38.919  33.340  30.333  1.00  0.00     0.049 A 
ATOM     53  C   UNL A   1      44.037  31.195  29.720  1.00  0.00     0.074 A 
ATOM     54  C   UNL A   1      39.430  33.277  31.620  1.00  0.00     0.029 A 
ATOM     55  N   UNL A   1      39.983  33.672  29.504  1.00  0.00    -0.354 N 
ATOM     56  N   UNL A   1      42.980  31.949  29.811  1.00  0.00    -0.248 NA
ATOM     57  C   UNL A   1      45.246  31.962  29.440  1.00  0.00     0.031 C 
ATOM     58  C   UNL A   1      40.808  33.588  31.568  1.00  0.00     0.029 A 
ATOM     59  C   UNL A   1      41.135  33.842  30.248  1.00  0.00     0.049 A 
ATOM     60  H   UNL A   1      39.926  33.771  28.526  1.00  0.00     0.167 HD
ATOM     61  C   UNL A   1      43.329  33.261  29.603  1.00  0.00     0.074 A 
ATOM     62  C   UNL A   1      44.763  33.217  29.390  1.00  0.00     0.031 C 
ATOM     63  C   UNL A   1      42.387  34.252  29.631  1.00  0.00     0.037 A 
BRANCH  50  64
ATOM     64  C   UNL A   1      36.317  33.468  30.069  1.00  0.00     0.064 A 
ATOM     65  C   UNL A   1      35.513  34.045  29.068  1.00  0.00     0.173 A 
ATOM     66  C   UNL A   1      35.803  33.536  31.378  1.00  0.00     0.173 A 
ATOM     67  F   UNL A   1      35.853  33.989  27.775  1.00  0.00    -0.203 F 
ATOM     68  C   UNL A   1      34.335  34.731  29.367  1.00  0.00     0.198 A 
ATOM     69  C   UNL A   1      34.651  34.264  31.682  1.00  0.00     0.198 A 
ATOM     70  F   UNL A   1      36.420  32.903  32.388  1.00  0.00    -0.203 F 
ATOM     71  F   UNL A   1      33.617  35.280  28.376  1.00  0.00    -0.200 F 
ATOM     72  C   UNL A   1      33.923  34.871  30.677  1.00  0.00     0.200 A 
ATOM     73  F   UNL A   1      34.262  34.392  32.959  1.00  0.00    -0.200 F 
ATOM     74  F   UNL A   1      32.827  35.583  30.968  1.00  0.00    -0.200 F 
ENDBRANCH  50  64
BRANCH  51  75
ATOM     75  C   UNL A   1      44.588  28.730  28.897  1.00  0.00     0.064 A 
ATOM     76  C   UNL A   1      45.261  27.608  29.417  1.00  0.00     0.173 A 
ATOM     77  C   UNL A   1      44.155  28.671  27.568  1.00  0.00     0.173 A 
ATOM     78  F   UNL A   1      45.692  27.616  30.689  1.00  0.00    -0.203 F 
ATOM     79  C   UNL A   1      45.380  26.432  28.682  1.00  0.00     0.198 A 
ATOM     80  C   UNL A   1      44.289  27.494  26.828  1.00  0.00     0.198 A 
ATOM     81  F   UNL A   1      43.494  29.703  27.024  1.00  0.00    -0.203 F 
ATOM     82  F   UNL A   1      45.914  25.341  29.249  1.00  0.00    -0.200 F 
ATOM     83  C   UNL A   1      44.865  26.367  27.398  1.00  0.00     0.200 A 
ATOM     84  F   UNL A   1      43.771  27.420  25.594  1.00  0.00    -0.200 F 
ATOM     85  F   UNL A   1      44.884  25.207  26.728  1.00  0.00    -0.200 F 
ENDBRANCH  51  75
BRANCH  63  86
ATOM     86  C   UNL A   1      42.534  35.706  29.220  1.00  0.00     0.064 A 
ATOM     87  C   UNL A   1      43.238  36.677  29.948  1.00  0.00     0.173 A 
ATOM     88  C   UNL A   1      42.054  36.143  27.954  1.00  0.00     0.173 A 
ATOM     89  F   UNL A   1      43.846  36.386  31.104  1.00  0.00    -0.203 F 
ATOM     90  C   UNL A   1      43.400  37.988  29.480  1.00  0.00     0.198 A 
ATOM     91  C   UNL A   1      42.267  37.431  27.465  1.00  0.00     0.198 A 
ATOM     92  F   UNL A   1      41.383  35.326  27.130  1.00  0.00    -0.203 F 
ATOM     93  F   UNL A   1      44.049  38.885  30.236  1.00  0.00    -0.200 F 
ATOM     94  C   UNL A   1      42.928  38.361  28.235  1.00  0.00     0.200 A 
ATOM     95  F   UNL A   1      41.844  37.754  26.236  1.00  0.00    -0.200 F 
ATOM     96  F   UNL A   1      43.128  39.601  27.773  1.00  0.00    -0.200 F 
ENDBRANCH  63  86
ENDBRANCH  37  38
ENDBRANCH  29  32
ENDBRANCH  27  28
ENDBRANCH  26  27
ENDBRANCH   1  26
TORSDOF 14
ENDMDL
