MODEL 1
REMARK VINA RESULT:     -11.0      0.000      0.000
REMARK SMILES CC[C@@H](C)C[C@H](CC)[C@](C)(O)C(=O)NCCCNC(=O)c1ccc(-c2c3nc(c(-c4c(F)c(F)c(F)c(F)c4F)c4ccc([nH]4)c(-c4c(F)c(F)c(F)c(F)c4F)c4nc(c(-c5c(F)c(F)c(F)c(F)c5F)c5ccc2[nH]5)C=C4)C=C3)cc1
REMARK SMILES IDX 15 1 14 2 12 3 13 4 9 6 10 7 6 8 5 9 3 10 4 11 2 12 1 13
REMARK SMILES IDX 7 14 8 15 11 16 16 18 17 19 18 20 19 21 20 23 21 24 22 25
REMARK SMILES IDX 83 26 23 27 82 28 24 29 25 30 26 31 76 32 27 33 81 34 75 35
REMARK SMILES IDX 77 36 28 37 80 38 74 39 73 40 29 42 61 43 41 44 60 45 42 46
REMARK SMILES IDX 45 47 59 48 78 49 43 50 44 51 58 53 79 54 46 55 30 56 31 57
REMARK SMILES IDX 39 58 32 59 33 60 37 61 40 62 34 63 35 64 38 65 36 66 62 67
REMARK SMILES IDX 63 68 71 69 64 70 65 71 69 72 72 73 66 74 67 75 70 76 68 77
REMARK SMILES IDX 47 78 48 79 56 80 49 81 50 82 54 83 57 84 51 85 52 86 55 87
REMARK SMILES IDX 53 88
REMARK H PARENT 14 5 11 17 18 22 77 41 45 52
REMARK Flexibility Score: inf
ROOT
ATOM      1  C   UNL A   1      31.699  30.678  26.333  1.00  0.00     0.117 C 
ENDROOT
BRANCH   1   2
ATOM      2  N   UNL A   1      31.207  30.295  25.020  1.00  0.00    -0.354 N 
ATOM      3  C   UNL A   1      31.653  29.349  24.146  1.00  0.00     0.251 C 
ATOM      4  O   UNL A   1      30.977  29.197  23.122  1.00  0.00    -0.272 OA
ATOM      5  H   UNL A   1      30.423  30.804  24.712  1.00  0.00     0.163 HD
BRANCH   3   6
ATOM      6  C   UNL A   1      32.916  28.479  24.435  1.00  0.00     0.143 C 
ATOM      7  C   UNL A   1      33.680  28.396  23.101  1.00  0.00     0.053 C 
BRANCH   6   8
ATOM      8  C   UNL A   1      32.646  27.088  25.138  1.00  0.00     0.030 C 
BRANCH   8   9
ATOM      9  C   UNL A   1      31.371  26.893  26.008  1.00  0.00     0.010 C 
BRANCH   9  10
ATOM     10  C   UNL A   1      30.303  25.857  25.594  1.00  0.00    -0.014 C 
ATOM     11  C   UNL A   1      30.629  24.475  26.183  1.00  0.00     0.007 C 
BRANCH  10  12
ATOM     12  C   UNL A   1      30.277  25.743  24.048  1.00  0.00    -0.000 C 
ATOM     13  C   UNL A   1      30.662  24.369  23.525  1.00  0.00     0.004 C 
ENDBRANCH  10  12
ENDBRANCH   9  10
ENDBRANCH   8   9
BRANCH   8  14
ATOM     14  C   UNL A   1      33.859  26.331  25.738  1.00  0.00     0.004 C 
ATOM     15  C   UNL A   1      34.385  25.105  25.009  1.00  0.00     0.004 C 
ENDBRANCH   8  14
ENDBRANCH   6   8
BRANCH   6  16
ATOM     16  O   UNL A   1      33.806  29.209  25.315  1.00  0.00    -0.380 OA
ATOM     17  H   UNL A   1      33.282  29.704  25.964  1.00  0.00     0.212 HD
ENDBRANCH   6  16
ENDBRANCH   3   6
ENDBRANCH   1   2
BRANCH   1  18
ATOM     18  C   UNL A   1      31.472  32.146  26.633  1.00  0.00     0.042 C 
BRANCH  18  19
ATOM     19  C   UNL A   1      32.693  32.825  27.234  1.00  0.00     0.118 C 
BRANCH  19  20
ATOM     20  N   UNL A   1      32.447  34.214  27.616  1.00  0.00    -0.352 N 
ATOM     21  C   UNL A   1      33.003  34.970  28.624  1.00  0.00     0.251 C 
ATOM     22  H   UNL A   1      31.780  34.683  27.066  1.00  0.00     0.163 HD
ATOM     23  O   UNL A   1      32.544  36.063  28.906  1.00  0.00    -0.269 OA
BRANCH  21  24
ATOM     24  C   UNL A   1      34.149  34.425  29.379  1.00  0.00     0.039 A 
ATOM     25  C   UNL A   1      33.918  33.759  30.584  1.00  0.00     0.014 A 
ATOM     26  C   UNL A   1      35.442  34.536  28.868  1.00  0.00     0.014 A 
ATOM     27  C   UNL A   1      34.979  33.118  31.225  1.00  0.00     0.010 A 
ATOM     28  C   UNL A   1      36.469  33.802  29.440  1.00  0.00     0.010 A 
ATOM     29  C   UNL A   1      36.250  33.089  30.629  1.00  0.00    -0.014 A 
BRANCH  29  30
ATOM     30  C   UNL A   1      37.376  32.327  31.224  1.00  0.00     0.031 A 
ATOM     31  C   UNL A   1      37.874  32.684  32.597  1.00  0.00     0.074 A 
ATOM     32  C   UNL A   1      38.010  31.390  30.492  1.00  0.00     0.049 A 
ATOM     33  N   UNL A   1      38.914  32.226  33.247  1.00  0.00    -0.248 NA
ATOM     34  C   UNL A   1      37.128  33.727  33.320  1.00  0.00     0.031 C 
ATOM     35  C   UNL A   1      37.665  31.006  29.121  1.00  0.00     0.029 A 
ATOM     36  N   UNL A   1      39.088  30.598  30.796  1.00  0.00    -0.354 N 
ATOM     37  C   UNL A   1      38.960  32.946  34.434  1.00  0.00     0.074 A 
ATOM     38  C   UNL A   1      37.887  33.913  34.388  1.00  0.00     0.031 C 
ATOM     39  C   UNL A   1      38.493  30.031  28.715  1.00  0.00     0.029 A 
ATOM     40  C   UNL A   1      39.453  29.750  29.778  1.00  0.00     0.049 A 
ATOM     41  H   UNL A   1      39.555  30.633  31.661  1.00  0.00     0.167 HD
ATOM     42  C   UNL A   1      39.805  32.793  35.480  1.00  0.00     0.037 A 
ATOM     43  C   UNL A   1      40.452  28.850  29.713  1.00  0.00     0.037 A 
ATOM     44  C   UNL A   1      40.839  31.796  35.539  1.00  0.00     0.049 A 
ATOM     45  C   UNL A   1      41.356  28.676  30.902  1.00  0.00     0.074 A 
ATOM     46  C   UNL A   1      41.697  31.503  36.583  1.00  0.00     0.029 A 
ATOM     47  N   UNL A   1      41.150  30.924  34.505  1.00  0.00    -0.354 N 
ATOM     48  N   UNL A   1      41.345  29.311  32.049  1.00  0.00    -0.248 NA
ATOM     49  C   UNL A   1      42.408  27.657  30.790  1.00  0.00     0.031 C 
ATOM     50  C   UNL A   1      42.553  30.478  36.168  1.00  0.00     0.029 A 
ATOM     51  C   UNL A   1      42.198  30.102  34.881  1.00  0.00     0.049 A 
ATOM     52  H   UNL A   1      40.693  30.895  33.633  1.00  0.00     0.167 HD
ATOM     53  C   UNL A   1      42.368  28.753  32.804  1.00  0.00     0.074 A 
ATOM     54  C   UNL A   1      42.968  27.716  31.989  1.00  0.00     0.031 C 
ATOM     55  C   UNL A   1      42.774  29.071  34.057  1.00  0.00     0.037 A 
BRANCH  42  56
ATOM     56  C   UNL A   1      39.629  33.717  36.650  1.00  0.00     0.064 A 
ATOM     57  C   UNL A   1      38.828  33.370  37.749  1.00  0.00     0.173 A 
ATOM     58  C   UNL A   1      40.287  34.956  36.685  1.00  0.00     0.173 A 
ATOM     59  F   UNL A   1      38.166  32.203  37.759  1.00  0.00    -0.203 F 
ATOM     60  C   UNL A   1      38.662  34.244  38.821  1.00  0.00     0.198 A 
ATOM     61  C   UNL A   1      40.145  35.813  37.773  1.00  0.00     0.198 A 
ATOM     62  F   UNL A   1      41.069  35.336  35.663  1.00  0.00    -0.203 F 
ATOM     63  F   UNL A   1      37.845  33.913  39.831  1.00  0.00    -0.200 F 
ATOM     64  C   UNL A   1      39.326  35.460  38.836  1.00  0.00     0.200 A 
ATOM     65  F   UNL A   1      40.796  36.984  37.792  1.00  0.00    -0.200 F 
ATOM     66  F   UNL A   1      39.170  36.297  39.870  1.00  0.00    -0.200 F 
ENDBRANCH  42  56
BRANCH  43  67
ATOM     67  C   UNL A   1      40.623  28.019  28.493  1.00  0.00     0.064 A 
ATOM     68  C   UNL A   1      41.407  28.472  27.422  1.00  0.00     0.173 A 
ATOM     69  C   UNL A   1      40.015  26.762  28.370  1.00  0.00     0.173 A 
ATOM     70  F   UNL A   1      41.994  29.676  27.487  1.00  0.00    -0.203 F 
ATOM     71  C   UNL A   1      41.560  27.709  26.267  1.00  0.00     0.198 A 
ATOM     72  C   UNL A   1      40.191  25.987  27.224  1.00  0.00     0.198 A 
ATOM     73  F   UNL A   1      39.261  26.279  29.368  1.00  0.00    -0.203 F 
ATOM     74  F   UNL A   1      42.280  28.186  25.242  1.00  0.00    -0.200 F 
ATOM     75  C   UNL A   1      40.956  26.464  26.171  1.00  0.00     0.200 A 
ATOM     76  F   UNL A   1      39.617  24.779  27.140  1.00  0.00    -0.200 F 
ATOM     77  F   UNL A   1      41.106  25.729  25.062  1.00  0.00    -0.200 F 
ENDBRANCH  43  67
BRANCH  55  78
ATOM     78  C   UNL A   1      43.900  28.268  34.637  1.00  0.00     0.064 A 
ATOM     79  C   UNL A   1      43.671  27.051  35.296  1.00  0.00     0.173 A 
ATOM     80  C   UNL A   1      45.228  28.700  34.492  1.00  0.00     0.173 A 
ATOM     81  F   UNL A   1      42.419  26.604  35.472  1.00  0.00    -0.203 F 
ATOM     82  C   UNL A   1      44.729  26.307  35.809  1.00  0.00     0.198 A 
ATOM     83  C   UNL A   1      46.285  27.939  34.981  1.00  0.00     0.198 A 
ATOM     84  F   UNL A   1      45.498  29.853  33.864  1.00  0.00    -0.203 F 
ATOM     85  F   UNL A   1      44.486  25.170  36.474  1.00  0.00    -0.200 F 
ATOM     86  C   UNL A   1      46.035  26.747  35.644  1.00  0.00     0.200 A 
ATOM     87  F   UNL A   1      47.546  28.359  34.810  1.00  0.00    -0.200 F 
ATOM     88  F   UNL A   1      47.053  26.025  36.131  1.00  0.00    -0.200 F 
ENDBRANCH  55  78
ENDBRANCH  29  30
ENDBRANCH  21  24
ENDBRANCH  19  20
ENDBRANCH  18  19
ENDBRANCH   1  18
TORSDOF 16
ENDMDL
MODEL 2
REMARK VINA RESULT:     -10.9      0.727      7.701
REMARK SMILES CC[C@@H](C)C[C@H](CC)[C@](C)(O)C(=O)NCCCNC(=O)c1ccc(-c2c3nc(c(-c4c(F)c(F)c(F)c(F)c4F)c4ccc([nH]4)c(-c4c(F)c(F)c(F)c(F)c4F)c4nc(c(-c5c(F)c(F)c(F)c(F)c5F)c5ccc2[nH]5)C=C4)C=C3)cc1
REMARK SMILES IDX 15 1 14 2 12 3 13 4 9 6 10 7 6 8 5 9 3 10 4 11 2 12 1 13
REMARK SMILES IDX 7 14 8 15 11 16 16 18 17 19 18 20 19 21 20 23 21 24 22 25
REMARK SMILES IDX 83 26 23 27 82 28 24 29 25 30 26 31 76 32 27 33 81 34 75 35
REMARK SMILES IDX 77 36 28 37 80 38 74 39 73 40 29 42 61 43 41 44 60 45 42 46
REMARK SMILES IDX 45 47 59 48 78 49 43 50 44 51 58 53 79 54 46 55 30 56 31 57
REMARK SMILES IDX 39 58 32 59 33 60 37 61 40 62 34 63 35 64 38 65 36 66 62 67
REMARK SMILES IDX 63 68 71 69 64 70 65 71 69 72 72 73 66 74 67 75 70 76 68 77
REMARK SMILES IDX 47 78 48 79 56 80 49 81 50 82 54 83 57 84 51 85 52 86 55 87
REMARK SMILES IDX 53 88
REMARK H PARENT 14 5 11 17 18 22 77 41 45 52
REMARK Flexibility Score: inf
ROOT
ATOM      1  C   UNL A   1      32.094  30.641  26.164  1.00  0.00     0.117 C 
ENDROOT
BRANCH   1   2
ATOM      2  N   UNL A   1      31.355  30.291  24.964  1.00  0.00    -0.354 N 
ATOM      3  C   UNL A   1      31.545  29.283  24.065  1.00  0.00     0.251 C 
ATOM      4  O   UNL A   1      30.698  29.188  23.170  1.00  0.00    -0.272 OA
ATOM      5  H   UNL A   1      30.591  30.880  24.766  1.00  0.00     0.163 HD
BRANCH   3   6
ATOM      6  C   UNL A   1      32.736  28.280  24.181  1.00  0.00     0.143 C 
ATOM      7  C   UNL A   1      33.134  27.936  22.735  1.00  0.00     0.053 C 
BRANCH   6   8
ATOM      8  C   UNL A   1      32.494  27.033  25.123  1.00  0.00     0.030 C 
BRANCH   8   9
ATOM      9  C   UNL A   1      31.228  26.975  26.025  1.00  0.00     0.010 C 
BRANCH   9  10
ATOM     10  C   UNL A   1      30.158  25.887  25.788  1.00  0.00    -0.014 C 
ATOM     11  C   UNL A   1      30.671  24.511  26.241  1.00  0.00     0.007 C 
BRANCH  10  12
ATOM     12  C   UNL A   1      29.830  25.819  24.274  1.00  0.00    -0.000 C 
ATOM     13  C   UNL A   1      28.578  26.585  23.880  1.00  0.00     0.004 C 
ENDBRANCH  10  12
ENDBRANCH   9  10
ENDBRANCH   8   9
BRANCH   8  14
ATOM     14  C   UNL A   1      33.725  26.415  25.837  1.00  0.00     0.004 C 
ATOM     15  C   UNL A   1      34.394  25.201  25.214  1.00  0.00     0.004 C 
ENDBRANCH   8  14
ENDBRANCH   6   8
BRANCH   6  16
ATOM     16  O   UNL A   1      33.891  28.972  24.717  1.00  0.00    -0.380 OA
ATOM     17  H   UNL A   1      33.910  28.867  25.681  1.00  0.00     0.212 HD
ENDBRANCH   6  16
ENDBRANCH   3   6
ENDBRANCH   1   2
BRANCH   1  18
ATOM     18  C   UNL A   1      31.641  31.959  26.762  1.00  0.00     0.042 C 
BRANCH  18  19
ATOM     19  C   UNL A   1      32.754  32.692  27.495  1.00  0.00     0.118 C 
BRANCH  19  20
ATOM     20  N   UNL A   1      32.461  34.106  27.716  1.00  0.00    -0.352 N 
ATOM     21  C   UNL A   1      32.992  34.992  28.627  1.00  0.00     0.251 C 
ATOM     22  H   UNL A   1      31.776  34.485  27.120  1.00  0.00     0.163 HD
ATOM     23  O   UNL A   1      32.495  36.093  28.785  1.00  0.00    -0.269 OA
BRANCH  21  24
ATOM     24  C   UNL A   1      34.158  34.577  29.433  1.00  0.00     0.039 A 
ATOM     25  C   UNL A   1      33.958  34.105  30.731  1.00  0.00     0.014 A 
ATOM     26  C   UNL A   1      35.439  34.614  28.883  1.00  0.00     0.014 A 
ATOM     27  C   UNL A   1      35.037  33.576  31.440  1.00  0.00     0.010 A 
ATOM     28  C   UNL A   1      36.484  33.984  29.540  1.00  0.00     0.010 A 
ATOM     29  C   UNL A   1      36.296  33.462  30.829  1.00  0.00    -0.014 A 
BRANCH  29  30
ATOM     30  C   UNL A   1      37.441  32.809  31.510  1.00  0.00     0.031 A 
ATOM     31  C   UNL A   1      38.138  31.651  30.850  1.00  0.00     0.074 A 
ATOM     32  C   UNL A   1      37.783  33.190  32.756  1.00  0.00     0.049 A 
ATOM     33  N   UNL A   1      39.076  30.870  31.323  1.00  0.00    -0.248 NA
ATOM     34  C   UNL A   1      37.692  31.297  29.493  1.00  0.00     0.031 C 
ATOM     35  C   UNL A   1      37.134  34.252  33.528  1.00  0.00     0.029 A 
ATOM     36  N   UNL A   1      38.756  32.716  33.599  1.00  0.00    -0.354 N 
ATOM     37  C   UNL A   1      39.304  29.920  30.336  1.00  0.00     0.074 A 
ATOM     38  C   UNL A   1      38.366  30.181  29.268  1.00  0.00     0.031 C 
ATOM     39  C   UNL A   1      37.747  34.370  34.716  1.00  0.00     0.029 A 
ATOM     40  C   UNL A   1      38.803  33.367  34.808  1.00  0.00     0.049 A 
ATOM     41  H   UNL A   1      39.365  31.980  33.360  1.00  0.00     0.167 HD
ATOM     42  C   UNL A   1      40.234  28.936  30.311  1.00  0.00     0.037 A 
ATOM     43  C   UNL A   1      39.607  33.171  35.870  1.00  0.00     0.037 A 
ATOM     44  C   UNL A   1      41.196  28.714  31.356  1.00  0.00     0.049 A 
ATOM     45  C   UNL A   1      40.653  32.093  35.804  1.00  0.00     0.074 A 
ATOM     46  C   UNL A   1      42.231  27.798  31.395  1.00  0.00     0.029 A 
ATOM     47  N   UNL A   1      41.241  29.423  32.547  1.00  0.00    -0.354 N 
ATOM     48  N   UNL A   1      40.911  31.248  34.836  1.00  0.00    -0.248 NA
ATOM     49  C   UNL A   1      41.526  31.946  36.976  1.00  0.00     0.031 C 
ATOM     50  C   UNL A   1      42.880  27.927  32.627  1.00  0.00     0.029 A 
ATOM     51  C   UNL A   1      42.277  28.955  33.337  1.00  0.00     0.049 A 
ATOM     52  H   UNL A   1      40.626  30.151  32.795  1.00  0.00     0.167 HD
ATOM     53  C   UNL A   1      41.988  30.487  35.269  1.00  0.00     0.074 A 
ATOM     54  C   UNL A   1      42.346  30.982  36.582  1.00  0.00     0.031 C 
ATOM     55  C   UNL A   1      42.621  29.469  34.637  1.00  0.00     0.037 A 
BRANCH  42  56
ATOM     56  C   UNL A   1      40.261  28.041  29.106  1.00  0.00     0.064 A 
ATOM     57  C   UNL A   1      39.540  26.838  29.067  1.00  0.00     0.173 A 
ATOM     58  C   UNL A   1      40.998  28.401  27.968  1.00  0.00     0.173 A 
ATOM     59  F   UNL A   1      38.830  26.441  30.134  1.00  0.00    -0.203 F 
ATOM     60  C   UNL A   1      39.586  26.010  27.948  1.00  0.00     0.198 A 
ATOM     61  C   UNL A   1      41.016  27.586  26.839  1.00  0.00     0.198 A 
ATOM     62  F   UNL A   1      41.702  29.543  27.950  1.00  0.00    -0.203 F 
ATOM     63  F   UNL A   1      38.936  24.838  27.958  1.00  0.00    -0.200 F 
ATOM     64  C   UNL A   1      40.317  26.388  26.833  1.00  0.00     0.200 A 
ATOM     65  F   UNL A   1      41.713  27.958  25.757  1.00  0.00    -0.200 F 
ATOM     66  F   UNL A   1      40.356  25.592  25.755  1.00  0.00    -0.200 F 
ENDBRANCH  42  56
BRANCH  43  67
ATOM     67  C   UNL A   1      39.478  34.041  37.068  1.00  0.00     0.064 A 
ATOM     68  C   UNL A   1      38.732  33.622  38.180  1.00  0.00     0.173 A 
ATOM     69  C   UNL A   1      40.093  35.299  37.132  1.00  0.00     0.173 A 
ATOM     70  F   UNL A   1      38.110  32.434  38.158  1.00  0.00    -0.203 F 
ATOM     71  C   UNL A   1      38.590  34.437  39.301  1.00  0.00     0.198 A 
ATOM     72  C   UNL A   1      39.973  36.102  38.265  1.00  0.00     0.198 A 
ATOM     73  F   UNL A   1      40.824  35.743  36.099  1.00  0.00    -0.203 F 
ATOM     74  F   UNL A   1      37.836  34.029  40.331  1.00  0.00    -0.200 F 
ATOM     75  C   UNL A   1      39.215  35.674  39.345  1.00  0.00     0.200 A 
ATOM     76  F   UNL A   1      40.589  37.290  38.310  1.00  0.00    -0.200 F 
ATOM     77  F   UNL A   1      39.082  36.456  40.424  1.00  0.00    -0.200 F 
ENDBRANCH  43  67
BRANCH  55  78
ATOM     78  C   UNL A   1      43.787  28.844  35.344  1.00  0.00     0.064 A 
ATOM     79  C   UNL A   1      45.100  29.290  35.131  1.00  0.00     0.173 A 
ATOM     80  C   UNL A   1      43.583  27.817  36.278  1.00  0.00     0.173 A 
ATOM     81  F   UNL A   1      45.346  30.259  34.237  1.00  0.00    -0.203 F 
ATOM     82  C   UNL A   1      46.169  28.715  35.811  1.00  0.00     0.198 A 
ATOM     83  C   UNL A   1      44.651  27.264  36.978  1.00  0.00     0.198 A 
ATOM     84  F   UNL A   1      42.346  27.361  36.521  1.00  0.00    -0.203 F 
ATOM     85  F   UNL A   1      47.419  29.125  35.560  1.00  0.00    -0.200 F 
ATOM     86  C   UNL A   1      45.943  27.708  36.739  1.00  0.00     0.200 A 
ATOM     87  F   UNL A   1      44.430  26.301  37.883  1.00  0.00    -0.200 F 
ATOM     88  F   UNL A   1      46.973  27.161  37.400  1.00  0.00    -0.200 F 
ENDBRANCH  55  78
ENDBRANCH  29  30
ENDBRANCH  21  24
ENDBRANCH  19  20
ENDBRANCH  18  19
ENDBRANCH   1  18
TORSDOF 16
ENDMDL
MODEL 3
REMARK VINA RESULT:     -10.8      6.065     11.341
REMARK SMILES CC[C@@H](C)C[C@H](CC)[C@](C)(O)C(=O)NCCCNC(=O)c1ccc(-c2c3nc(c(-c4c(F)c(F)c(F)c(F)c4F)c4ccc([nH]4)c(-c4c(F)c(F)c(F)c(F)c4F)c4nc(c(-c5c(F)c(F)c(F)c(F)c5F)c5ccc2[nH]5)C=C4)C=C3)cc1
REMARK SMILES IDX 15 1 14 2 12 3 13 4 9 6 10 7 6 8 5 9 3 10 4 11 2 12 1 13
REMARK SMILES IDX 7 14 8 15 11 16 16 18 17 19 18 20 19 21 20 23 21 24 22 25
REMARK SMILES IDX 83 26 23 27 82 28 24 29 25 30 26 31 76 32 27 33 81 34 75 35
REMARK SMILES IDX 77 36 28 37 80 38 74 39 73 40 29 42 61 43 41 44 60 45 42 46
REMARK SMILES IDX 45 47 59 48 78 49 43 50 44 51 58 53 79 54 46 55 30 56 31 57
REMARK SMILES IDX 39 58 32 59 33 60 37 61 40 62 34 63 35 64 38 65 36 66 62 67
REMARK SMILES IDX 63 68 71 69 64 70 65 71 69 72 72 73 66 74 67 75 70 76 68 77
REMARK SMILES IDX 47 78 48 79 56 80 49 81 50 82 54 83 57 84 51 85 52 86 55 87
REMARK SMILES IDX 53 88
REMARK H PARENT 14 5 11 17 18 22 77 41 45 52
REMARK Flexibility Score: inf
ROOT
ATOM      1  C   UNL A   1      36.726  20.356  25.225  1.00  0.00     0.117 C 
ENDROOT
BRANCH   1   2
ATOM      2  N   UNL A   1      35.672  19.422  24.869  1.00  0.00    -0.354 N 
ATOM      3  C   UNL A   1      34.325  19.603  24.756  1.00  0.00     0.251 C 
ATOM      4  O   UNL A   1      33.679  18.627  24.357  1.00  0.00    -0.272 OA
ATOM      5  H   UNL A   1      35.981  18.507  24.678  1.00  0.00     0.163 HD
BRANCH   3   6
ATOM      6  C   UNL A   1      33.641  20.971  25.070  1.00  0.00     0.143 C 
ATOM      7  C   UNL A   1      32.131  20.677  25.134  1.00  0.00     0.053 C 
BRANCH   6   8
ATOM      8  C   UNL A   1      34.048  22.174  24.129  1.00  0.00     0.030 C 
BRANCH   8   9
ATOM      9  C   UNL A   1      34.452  23.543  24.749  1.00  0.00     0.010 C 
BRANCH   9  10
ATOM     10  C   UNL A   1      35.924  24.009  24.701  1.00  0.00    -0.014 C 
ATOM     11  C   UNL A   1      36.702  23.245  23.618  1.00  0.00     0.007 C 
BRANCH  10  12
ATOM     12  C   UNL A   1      36.588  23.735  26.075  1.00  0.00    -0.000 C 
ATOM     13  C   UNL A   1      38.106  23.819  26.052  1.00  0.00     0.004 C 
ENDBRANCH  10  12
ENDBRANCH   9  10
ENDBRANCH   8   9
BRANCH   8  14
ATOM     14  C   UNL A   1      33.252  22.365  22.811  1.00  0.00     0.004 C 
ATOM     15  C   UNL A   1      33.131  23.764  22.230  1.00  0.00     0.004 C 
ENDBRANCH   8  14
ENDBRANCH   6   8
BRANCH   6  16
ATOM     16  O   UNL A   1      33.986  21.377  26.417  1.00  0.00    -0.380 OA
ATOM     17  H   UNL A   1      33.415  22.113  26.688  1.00  0.00     0.212 HD
ENDBRANCH   6  16
ENDBRANCH   3   6
ENDBRANCH   1   2
BRANCH   1  18
ATOM     18  C   UNL A   1      38.099  19.868  24.807  1.00  0.00     0.042 C 
BRANCH  18  19
ATOM     19  C   UNL A   1      39.184  20.215  25.815  1.00  0.00     0.118 C 
BRANCH  19  20
ATOM     20  N   UNL A   1      40.204  19.176  25.939  1.00  0.00    -0.352 N 
ATOM     21  C   UNL A   1      41.567  19.285  26.107  1.00  0.00     0.251 C 
ATOM     22  H   UNL A   1      39.864  18.254  25.897  1.00  0.00     0.163 HD
ATOM     23  O   UNL A   1      42.285  18.305  26.012  1.00  0.00    -0.269 OA
BRANCH  21  24
ATOM     24  C   UNL A   1      42.151  20.614  26.376  1.00  0.00     0.039 A 
ATOM     25  C   UNL A   1      42.562  21.409  25.304  1.00  0.00     0.014 A 
ATOM     26  C   UNL A   1      42.248  21.086  27.685  1.00  0.00     0.014 A 
ATOM     27  C   UNL A   1      42.978  22.719  25.545  1.00  0.00     0.010 A 
ATOM     28  C   UNL A   1      42.548  22.420  27.911  1.00  0.00     0.010 A 
ATOM     29  C   UNL A   1      42.921  23.251  26.844  1.00  0.00    -0.014 A 
BRANCH  29  30
ATOM     30  C   UNL A   1      43.251  24.670  27.124  1.00  0.00     0.031 A 
ATOM     31  C   UNL A   1      44.647  25.173  26.877  1.00  0.00     0.074 A 
ATOM     32  C   UNL A   1      42.328  25.471  27.691  1.00  0.00     0.049 A 
ATOM     33  N   UNL A   1      45.171  26.338  27.164  1.00  0.00    -0.248 NA
ATOM     34  C   UNL A   1      45.592  24.226  26.265  1.00  0.00     0.031 C 
ATOM     35  C   UNL A   1      40.963  25.078  28.043  1.00  0.00     0.029 A 
ATOM     36  N   UNL A   1      42.405  26.784  28.082  1.00  0.00    -0.354 N 
ATOM     37  C   UNL A   1      46.507  26.247  26.797  1.00  0.00     0.074 A 
ATOM     38  C   UNL A   1      46.730  24.898  26.328  1.00  0.00     0.031 C 
ATOM     39  C   UNL A   1      40.322  26.133  28.569  1.00  0.00     0.029 A 
ATOM     40  C   UNL A   1      41.241  27.265  28.629  1.00  0.00     0.049 A 
ATOM     41  H   UNL A   1      43.218  27.330  27.979  1.00  0.00     0.167 HD
ATOM     42  C   UNL A   1      47.456  27.213  26.821  1.00  0.00     0.037 A 
ATOM     43  C   UNL A   1      40.951  28.483  29.124  1.00  0.00     0.037 A 
ATOM     44  C   UNL A   1      47.214  28.565  27.243  1.00  0.00     0.049 A 
ATOM     45  C   UNL A   1      42.013  29.548  29.110  1.00  0.00     0.074 A 
ATOM     46  C   UNL A   1      48.083  29.641  27.232  1.00  0.00     0.029 A 
ATOM     47  N   UNL A   1      46.008  29.028  27.749  1.00  0.00    -0.354 N 
ATOM     48  N   UNL A   1      43.253  29.474  28.692  1.00  0.00    -0.248 NA
ATOM     49  C   UNL A   1      41.634  30.868  29.631  1.00  0.00     0.031 C 
ATOM     50  C   UNL A   1      47.413  30.747  27.766  1.00  0.00     0.029 A 
ATOM     51  C   UNL A   1      46.113  30.371  28.069  1.00  0.00     0.049 A 
ATOM     52  H   UNL A   1      45.197  28.481  27.865  1.00  0.00     0.167 HD
ATOM     53  C   UNL A   1      43.794  30.739  28.874  1.00  0.00     0.074 A 
ATOM     54  C   UNL A   1      42.741  31.566  29.426  1.00  0.00     0.031 C 
ATOM     55  C   UNL A   1      45.049  31.176  28.610  1.00  0.00     0.037 A 
BRANCH  42  56
ATOM     56  C   UNL A   1      48.835  26.838  26.362  1.00  0.00     0.064 A 
ATOM     57  C   UNL A   1      49.780  26.290  27.243  1.00  0.00     0.173 A 
ATOM     58  C   UNL A   1      49.210  27.007  25.021  1.00  0.00     0.173 A 
ATOM     59  F   UNL A   1      49.477  26.121  28.539  1.00  0.00    -0.203 F 
ATOM     60  C   UNL A   1      51.062  25.961  26.806  1.00  0.00     0.198 A 
ATOM     61  C   UNL A   1      50.481  26.647  24.581  1.00  0.00     0.198 A 
ATOM     62  F   UNL A   1      48.344  27.523  24.135  1.00  0.00    -0.203 F 
ATOM     63  F   UNL A   1      51.964  25.495  27.680  1.00  0.00    -0.200 F 
ATOM     64  C   UNL A   1      51.408  26.133  25.475  1.00  0.00     0.200 A 
ATOM     65  F   UNL A   1      50.811  26.802  23.292  1.00  0.00    -0.200 F 
ATOM     66  F   UNL A   1      52.639  25.811  25.056  1.00  0.00    -0.200 F 
ENDBRANCH  42  56
BRANCH  43  67
ATOM     67  C   UNL A   1      39.587  28.770  29.639  1.00  0.00     0.064 A 
ATOM     68  C   UNL A   1      38.607  29.323  28.803  1.00  0.00     0.173 A 
ATOM     69  C   UNL A   1      39.232  28.499  30.968  1.00  0.00     0.173 A 
ATOM     70  F   UNL A   1      38.905  29.617  27.528  1.00  0.00    -0.203 F 
ATOM     71  C   UNL A   1      37.331  29.613  29.280  1.00  0.00     0.198 A 
ATOM     72  C   UNL A   1      37.947  28.764  31.438  1.00  0.00     0.198 A 
ATOM     73  F   UNL A   1      40.130  27.963  31.807  1.00  0.00    -0.203 F 
ATOM     74  F   UNL A   1      36.428  30.181  28.469  1.00  0.00    -0.200 F 
ATOM     75  C   UNL A   1      37.000  29.327  30.597  1.00  0.00     0.200 A 
ATOM     76  F   UNL A   1      37.626  28.474  32.706  1.00  0.00    -0.200 F 
ATOM     77  F   UNL A   1      35.772  29.602  31.055  1.00  0.00    -0.200 F 
ENDBRANCH  43  67
BRANCH  55  78
ATOM     78  C   UNL A   1      45.344  32.621  28.884  1.00  0.00     0.064 A 
ATOM     79  C   UNL A   1      45.917  33.038  30.094  1.00  0.00     0.173 A 
ATOM     80  C   UNL A   1      45.089  33.595  27.905  1.00  0.00     0.173 A 
ATOM     81  F   UNL A   1      46.163  32.146  31.065  1.00  0.00    -0.203 F 
ATOM     82  C   UNL A   1      46.204  34.380  30.323  1.00  0.00     0.198 A 
ATOM     83  C   UNL A   1      45.405  34.931  28.127  1.00  0.00     0.198 A 
ATOM     84  F   UNL A   1      44.548  33.245  26.729  1.00  0.00    -0.203 F 
ATOM     85  F   UNL A   1      46.710  34.762  31.504  1.00  0.00    -0.200 F 
ATOM     86  C   UNL A   1      45.955  35.324  29.338  1.00  0.00     0.200 A 
ATOM     87  F   UNL A   1      45.176  35.839  27.169  1.00  0.00    -0.200 F 
ATOM     88  F   UNL A   1      46.241  36.614  29.557  1.00  0.00    -0.200 F 
ENDBRANCH  55  78
ENDBRANCH  29  30
ENDBRANCH  21  24
ENDBRANCH  19  20
ENDBRANCH  18  19
ENDBRANCH   1  18
TORSDOF 16
ENDMDL
