MODEL 1
REMARK VINA RESULT:     -12.6      0.000      0.000
REMARK SMILES Cc1cc(SCC(=O)NCCCNC(=O)c2ccc(-c3c4nc(c(-c5c(F)c(F)c(F)c(F)c5F)c5ccc([nH]5)c(-c5c(F)c(F)c(F)c(F)c5F)c5nc(c(-c6c(F)c(F)c(F)c(F)c6F)c6ccc3[nH]6)C=C5)C=C4)cc2)c2cc(I)ccc2n1
REMARK SMILES IDX 11 1 10 2 9 3 7 4 8 5 6 7 5 8 4 9 1 10 2 11 3 12 86 13 85 14
REMARK SMILES IDX 79 15 84 16 80 17 83 18 81 19 82 20 12 21 13 22 14 23 15 25
REMARK SMILES IDX 16 26 17 27 78 28 18 29 77 30 19 31 20 32 21 33 71 34 22 35
REMARK SMILES IDX 76 36 70 37 72 38 23 39 75 40 69 41 68 42 24 44 56 45 36 46
REMARK SMILES IDX 55 47 37 48 40 49 54 50 73 51 38 52 39 53 53 55 74 56 41 57
REMARK SMILES IDX 25 58 26 59 34 60 27 61 28 62 32 63 35 64 29 65 30 66 33 67
REMARK SMILES IDX 31 68 57 69 58 70 66 71 59 72 60 73 64 74 67 75 61 76 62 77
REMARK SMILES IDX 65 78 63 79 42 80 43 81 51 82 44 83 45 84 49 85 52 86 46 87
REMARK SMILES IDX 47 88 50 89 48 90
REMARK H PARENT 9 6 13 24 72 43 40 54
REMARK Flexibility Score: inf
ROOT
ATOM      1  C   UNL A   1      31.563  32.063  26.521  1.00  0.00     0.042 C 
ENDROOT
BRANCH   1   2
ATOM      2  C   UNL A   1      31.707  30.548  26.416  1.00  0.00     0.117 C 
BRANCH   2   3
ATOM      3  N   UNL A   1      31.946  30.119  25.052  1.00  0.00    -0.355 N 
ATOM      4  C   UNL A   1      32.926  29.322  24.544  1.00  0.00     0.230 C 
ATOM      5  O   UNL A   1      32.938  29.140  23.323  1.00  0.00    -0.274 OA
ATOM      6  H   UNL A   1      31.299  30.456  24.391  1.00  0.00     0.163 HD
BRANCH   4   7
ATOM      7  C   UNL A   1      33.917  28.613  25.448  1.00  0.00     0.174 C 
BRANCH   7   8
ATOM      8  S   UNL A   1      33.232  27.193  26.359  1.00  0.00    -0.115 SA
BRANCH   8   9
ATOM      9  C   UNL A   1      32.136  26.330  25.211  1.00  0.00     0.019 A 
ATOM     10  C   UNL A   1      28.570  26.401  23.959  1.00  0.00     0.067 C 
ATOM     11  C   UNL A   1      30.007  26.018  24.147  1.00  0.00     0.039 A 
ATOM     12  C   UNL A   1      30.791  26.676  25.082  1.00  0.00     0.039 A 
ATOM     13  N   UNL A   1      30.473  24.997  23.400  1.00  0.00    -0.253 NA
ATOM     14  C   UNL A   1      31.746  24.613  23.548  1.00  0.00     0.072 A 
ATOM     15  C   UNL A   1      32.646  25.247  24.433  1.00  0.00     0.015 A 
ATOM     16  C   UNL A   1      32.182  23.539  22.783  1.00  0.00     0.030 A 
ATOM     17  C   UNL A   1      33.980  24.753  24.489  1.00  0.00     0.026 A 
ATOM     18  C   UNL A   1      33.491  23.059  22.852  1.00  0.00     0.017 A 
ATOM     19  C   UNL A   1      34.392  23.676  23.706  1.00  0.00     0.014 A 
ATOM     20  I   UNL A   1      36.351  22.994  23.817  1.00  0.00    -0.044 I 
ENDBRANCH   8   9
ENDBRANCH   7   8
ENDBRANCH   4   7
ENDBRANCH   2   3
ENDBRANCH   1   2
BRANCH   1  21
ATOM     21  C   UNL A   1      32.686  32.751  27.294  1.00  0.00     0.118 C 
BRANCH  21  22
ATOM     22  N   UNL A   1      32.375  34.126  27.667  1.00  0.00    -0.352 N 
ATOM     23  C   UNL A   1      32.969  34.945  28.598  1.00  0.00     0.251 C 
ATOM     24  H   UNL A   1      31.624  34.530  27.176  1.00  0.00     0.163 HD
ATOM     25  O   UNL A   1      32.472  36.039  28.854  1.00  0.00    -0.269 OA
BRANCH  23  26
ATOM     26  C   UNL A   1      34.180  34.501  29.323  1.00  0.00     0.039 A 
ATOM     27  C   UNL A   1      35.453  34.688  28.783  1.00  0.00     0.014 A 
ATOM     28  C   UNL A   1      34.034  33.873  30.565  1.00  0.00     0.014 A 
ATOM     29  C   UNL A   1      36.553  34.089  29.388  1.00  0.00     0.010 A 
ATOM     30  C   UNL A   1      35.155  33.344  31.215  1.00  0.00     0.010 A 
ATOM     31  C   UNL A   1      36.416  33.396  30.602  1.00  0.00    -0.014 A 
BRANCH  31  32
ATOM     32  C   UNL A   1      37.598  32.709  31.186  1.00  0.00     0.031 A 
ATOM     33  C   UNL A   1      38.066  33.037  32.580  1.00  0.00     0.074 A 
ATOM     34  C   UNL A   1      38.206  31.729  30.489  1.00  0.00     0.049 A 
ATOM     35  N   UNL A   1      39.038  32.497  33.273  1.00  0.00    -0.248 NA
ATOM     36  C   UNL A   1      37.355  34.112  33.290  1.00  0.00     0.031 C 
ATOM     37  C   UNL A   1      37.842  31.314  29.134  1.00  0.00     0.029 A 
ATOM     38  N   UNL A   1      39.231  30.883  30.832  1.00  0.00    -0.354 N 
ATOM     39  C   UNL A   1      39.061  33.170  34.488  1.00  0.00     0.074 A 
ATOM     40  C   UNL A   1      38.030  34.182  34.429  1.00  0.00     0.031 C 
ATOM     41  C   UNL A   1      38.586  30.254  28.785  1.00  0.00     0.029 A 
ATOM     42  C   UNL A   1      39.516  29.947  29.868  1.00  0.00     0.049 A 
ATOM     43  H   UNL A   1      39.714  30.941  31.688  1.00  0.00     0.167 HD
ATOM     44  C   UNL A   1      39.857  32.951  35.561  1.00  0.00     0.037 A 
ATOM     45  C   UNL A   1      40.425  28.954  29.856  1.00  0.00     0.037 A 
ATOM     46  C   UNL A   1      40.863  31.924  35.635  1.00  0.00     0.049 A 
ATOM     47  C   UNL A   1      41.317  28.756  31.049  1.00  0.00     0.074 A 
ATOM     48  C   UNL A   1      41.700  31.613  36.692  1.00  0.00     0.029 A 
ATOM     49  N   UNL A   1      41.163  31.038  34.612  1.00  0.00    -0.354 N 
ATOM     50  N   UNL A   1      41.320  29.396  32.193  1.00  0.00    -0.248 NA
ATOM     51  C   UNL A   1      42.339  27.706  30.945  1.00  0.00     0.031 C 
ATOM     52  C   UNL A   1      42.534  30.562  36.296  1.00  0.00     0.029 A 
ATOM     53  C   UNL A   1      42.187  30.192  35.007  1.00  0.00     0.049 A 
ATOM     54  H   UNL A   1      40.716  31.012  33.735  1.00  0.00     0.167 HD
ATOM     55  C   UNL A   1      42.333  28.821  32.947  1.00  0.00     0.074 A 
ATOM     56  C   UNL A   1      42.910  27.766  32.141  1.00  0.00     0.031 C 
ATOM     57  C   UNL A   1      42.752  29.147  34.193  1.00  0.00     0.037 A 
BRANCH  44  58
ATOM     58  C   UNL A   1      39.678  33.836  36.760  1.00  0.00     0.064 A 
ATOM     59  C   UNL A   1      40.248  35.116  36.817  1.00  0.00     0.173 A 
ATOM     60  C   UNL A   1      38.861  33.431  37.826  1.00  0.00     0.173 A 
ATOM     61  F   UNL A   1      41.045  35.544  35.826  1.00  0.00    -0.203 F 
ATOM     62  C   UNL A   1      40.015  35.955  37.904  1.00  0.00     0.198 A 
ATOM     63  C   UNL A   1      38.610  34.282  38.900  1.00  0.00     0.198 A 
ATOM     64  F   UNL A   1      38.286  32.219  37.816  1.00  0.00    -0.203 F 
ATOM     65  F   UNL A   1      40.590  37.165  37.950  1.00  0.00    -0.200 F 
ATOM     66  C   UNL A   1      39.189  35.541  38.939  1.00  0.00     0.200 A 
ATOM     67  F   UNL A   1      37.801  33.886  39.893  1.00  0.00    -0.200 F 
ATOM     68  F   UNL A   1      38.951  36.357  39.975  1.00  0.00    -0.200 F 
ENDBRANCH  44  58
BRANCH  45  69
ATOM     69  C   UNL A   1      40.523  28.064  28.672  1.00  0.00     0.064 A 
ATOM     70  C   UNL A   1      39.831  26.846  28.629  1.00  0.00     0.173 A 
ATOM     71  C   UNL A   1      41.289  28.420  27.553  1.00  0.00     0.173 A 
ATOM     72  F   UNL A   1      39.102  26.453  29.683  1.00  0.00    -0.203 F 
ATOM     73  C   UNL A   1      39.906  26.016  27.512  1.00  0.00     0.198 A 
ATOM     74  C   UNL A   1      41.342  27.603  26.426  1.00  0.00     0.198 A 
ATOM     75  F   UNL A   1      41.970  29.576  27.546  1.00  0.00    -0.203 F 
ATOM     76  F   UNL A   1      39.259  24.843  27.508  1.00  0.00    -0.200 F 
ATOM     77  C   UNL A   1      40.654  26.399  26.409  1.00  0.00     0.200 A 
ATOM     78  F   UNL A   1      42.055  27.983  25.357  1.00  0.00    -0.200 F 
ATOM     79  F   UNL A   1      40.716  25.607  25.330  1.00  0.00    -0.200 F 
ENDBRANCH  45  69
BRANCH  57  80
ATOM     80  C   UNL A   1      43.887  28.355  34.770  1.00  0.00     0.064 A 
ATOM     81  C   UNL A   1      45.214  28.793  34.652  1.00  0.00     0.173 A 
ATOM     82  C   UNL A   1      43.641  27.187  35.506  1.00  0.00     0.173 A 
ATOM     83  F   UNL A   1      45.499  29.897  33.946  1.00  0.00    -0.203 F 
ATOM     84  C   UNL A   1      46.255  28.081  35.240  1.00  0.00     0.198 A 
ATOM     85  C   UNL A   1      44.682  26.491  36.114  1.00  0.00     0.198 A 
ATOM     86  F   UNL A   1      42.387  26.731  35.653  1.00  0.00    -0.203 F 
ATOM     87  F   UNL A   1      47.520  28.500  35.089  1.00  0.00    -0.200 F 
ATOM     88  C   UNL A   1      45.989  26.937  35.978  1.00  0.00     0.200 A 
ATOM     89  F   UNL A   1      44.422  25.393  36.836  1.00  0.00    -0.200 F 
ATOM     90  F   UNL A   1      46.992  26.262  36.555  1.00  0.00    -0.200 F 
ENDBRANCH  57  80
ENDBRANCH  31  32
ENDBRANCH  23  26
ENDBRANCH  21  22
ENDBRANCH   1  21
TORSDOF 12
ENDMDL
MODEL 2
REMARK VINA RESULT:     -12.6      0.984      1.702
REMARK SMILES Cc1cc(SCC(=O)NCCCNC(=O)c2ccc(-c3c4nc(c(-c5c(F)c(F)c(F)c(F)c5F)c5ccc([nH]5)c(-c5c(F)c(F)c(F)c(F)c5F)c5nc(c(-c6c(F)c(F)c(F)c(F)c6F)c6ccc3[nH]6)C=C5)C=C4)cc2)c2cc(I)ccc2n1
REMARK SMILES IDX 11 1 10 2 9 3 7 4 8 5 6 7 5 8 4 9 1 10 2 11 3 12 86 13 85 14
REMARK SMILES IDX 79 15 84 16 80 17 83 18 81 19 82 20 12 21 13 22 14 23 15 25
REMARK SMILES IDX 16 26 17 27 78 28 18 29 77 30 19 31 20 32 21 33 71 34 22 35
REMARK SMILES IDX 76 36 70 37 72 38 23 39 75 40 69 41 68 42 24 44 56 45 36 46
REMARK SMILES IDX 55 47 37 48 40 49 54 50 73 51 38 52 39 53 53 55 74 56 41 57
REMARK SMILES IDX 25 58 26 59 34 60 27 61 28 62 32 63 35 64 29 65 30 66 33 67
REMARK SMILES IDX 31 68 57 69 58 70 66 71 59 72 60 73 64 74 67 75 61 76 62 77
REMARK SMILES IDX 65 78 63 79 42 80 43 81 51 82 44 83 45 84 49 85 52 86 46 87
REMARK SMILES IDX 47 88 50 89 48 90
REMARK H PARENT 9 6 13 24 72 43 40 54
REMARK Flexibility Score: inf
ROOT
ATOM      1  C   UNL A   1      31.484  32.050  26.788  1.00  0.00     0.042 C 
ENDROOT
BRANCH   1   2
ATOM      2  C   UNL A   1      31.792  30.626  26.335  1.00  0.00     0.117 C 
BRANCH   2   3
ATOM      3  N   UNL A   1      31.276  30.357  25.007  1.00  0.00    -0.355 N 
ATOM      4  C   UNL A   1      31.206  29.186  24.316  1.00  0.00     0.230 C 
ATOM      5  O   UNL A   1      30.758  29.227  23.166  1.00  0.00    -0.274 OA
ATOM      6  H   UNL A   1      30.922  31.143  24.531  1.00  0.00     0.163 HD
BRANCH   4   7
ATOM      7  C   UNL A   1      31.583  27.864  24.958  1.00  0.00     0.174 C 
BRANCH   7   8
ATOM      8  S   UNL A   1      33.286  27.316  24.620  1.00  0.00    -0.115 SA
BRANCH   8   9
ATOM      9  C   UNL A   1      33.166  26.014  23.374  1.00  0.00     0.019 A 
ATOM     10  C   UNL A   1      32.634  25.562  19.658  1.00  0.00     0.067 C 
ATOM     11  C   UNL A   1      32.874  25.272  21.110  1.00  0.00     0.039 A 
ATOM     12  C   UNL A   1      32.901  26.304  22.035  1.00  0.00     0.039 A 
ATOM     13  N   UNL A   1      33.020  23.978  21.461  1.00  0.00    -0.253 NA
ATOM     14  C   UNL A   1      33.220  23.675  22.749  1.00  0.00     0.072 A 
ATOM     15  C   UNL A   1      33.317  24.649  23.766  1.00  0.00     0.015 A 
ATOM     16  C   UNL A   1      33.336  22.330  23.077  1.00  0.00     0.030 A 
ATOM     17  C   UNL A   1      33.546  24.199  25.097  1.00  0.00     0.026 A 
ATOM     18  C   UNL A   1      33.554  21.900  24.387  1.00  0.00     0.017 A 
ATOM     19  C   UNL A   1      33.664  22.842  25.397  1.00  0.00     0.014 A 
ATOM     20  I   UNL A   1      34.004  22.233  27.353  1.00  0.00    -0.044 I 
ENDBRANCH   8   9
ENDBRANCH   7   8
ENDBRANCH   4   7
ENDBRANCH   2   3
ENDBRANCH   1   2
BRANCH   1  21
ATOM     21  C   UNL A   1      32.699  32.833  27.279  1.00  0.00     0.118 C 
BRANCH  21  22
ATOM     22  N   UNL A   1      32.386  34.199  27.679  1.00  0.00    -0.352 N 
ATOM     23  C   UNL A   1      32.976  35.000  28.629  1.00  0.00     0.251 C 
ATOM     24  H   UNL A   1      31.636  34.613  27.194  1.00  0.00     0.163 HD
ATOM     25  O   UNL A   1      32.476  36.087  28.906  1.00  0.00    -0.269 OA
BRANCH  23  26
ATOM     26  C   UNL A   1      34.184  34.542  29.349  1.00  0.00     0.039 A 
ATOM     27  C   UNL A   1      35.460  34.753  28.825  1.00  0.00     0.014 A 
ATOM     28  C   UNL A   1      34.034  33.876  30.571  1.00  0.00     0.014 A 
ATOM     29  C   UNL A   1      36.560  34.143  29.419  1.00  0.00     0.010 A 
ATOM     30  C   UNL A   1      35.153  33.335  31.213  1.00  0.00     0.010 A 
ATOM     31  C   UNL A   1      36.418  33.413  30.611  1.00  0.00    -0.014 A 
BRANCH  31  32
ATOM     32  C   UNL A   1      37.601  32.717  31.182  1.00  0.00     0.031 A 
ATOM     33  C   UNL A   1      38.082  33.036  32.574  1.00  0.00     0.074 A 
ATOM     34  C   UNL A   1      38.197  31.736  30.477  1.00  0.00     0.049 A 
ATOM     35  N   UNL A   1      39.056  32.487  33.257  1.00  0.00    -0.248 NA
ATOM     36  C   UNL A   1      37.383  34.112  33.294  1.00  0.00     0.031 C 
ATOM     37  C   UNL A   1      37.820  31.329  29.122  1.00  0.00     0.029 A 
ATOM     38  N   UNL A   1      39.220  30.882  30.809  1.00  0.00    -0.354 N 
ATOM     39  C   UNL A   1      39.093  33.155  34.475  1.00  0.00     0.074 A 
ATOM     40  C   UNL A   1      38.067  34.174  34.429  1.00  0.00     0.031 C 
ATOM     41  C   UNL A   1      38.555  30.266  28.764  1.00  0.00     0.029 A 
ATOM     42  C   UNL A   1      39.492  29.950  29.838  1.00  0.00     0.049 A 
ATOM     43  H   UNL A   1      39.710  30.934  31.661  1.00  0.00     0.167 HD
ATOM     44  C   UNL A   1      39.896  32.926  35.541  1.00  0.00     0.037 A 
ATOM     45  C   UNL A   1      40.395  28.951  29.815  1.00  0.00     0.037 A 
ATOM     46  C   UNL A   1      40.896  31.893  35.602  1.00  0.00     0.049 A 
ATOM     47  C   UNL A   1      41.294  28.742  31.000  1.00  0.00     0.074 A 
ATOM     48  C   UNL A   1      41.739  31.572  36.651  1.00  0.00     0.029 A 
ATOM     49  N   UNL A   1      41.182  31.010  34.573  1.00  0.00    -0.354 N 
ATOM     50  N   UNL A   1      41.310  29.377  32.146  1.00  0.00    -0.248 NA
ATOM     51  C   UNL A   1      42.309  27.686  30.883  1.00  0.00     0.031 C 
ATOM     52  C   UNL A   1      42.564  30.519  36.245  1.00  0.00     0.029 A 
ATOM     53  C   UNL A   1      42.205  30.156  34.957  1.00  0.00     0.049 A 
ATOM     54  H   UNL A   1      40.728  30.990  33.700  1.00  0.00     0.167 HD
ATOM     55  C   UNL A   1      42.326  28.793  32.890  1.00  0.00     0.074 A 
ATOM     56  C   UNL A   1      42.890  27.738  32.075  1.00  0.00     0.031 C 
ATOM     57  C   UNL A   1      42.757  29.111  34.134  1.00  0.00     0.037 A 
BRANCH  44  58
ATOM     58  C   UNL A   1      39.731  33.807  36.745  1.00  0.00     0.064 A 
ATOM     59  C   UNL A   1      40.332  35.073  36.814  1.00  0.00     0.173 A 
ATOM     60  C   UNL A   1      38.898  33.416  37.803  1.00  0.00     0.173 A 
ATOM     61  F   UNL A   1      41.145  35.488  35.831  1.00  0.00    -0.203 F 
ATOM     62  C   UNL A   1      40.113  35.910  37.906  1.00  0.00     0.198 A 
ATOM     63  C   UNL A   1      38.662  34.265  38.882  1.00  0.00     0.198 A 
ATOM     64  F   UNL A   1      38.294  32.218  37.782  1.00  0.00    -0.203 F 
ATOM     65  F   UNL A   1      40.718  37.104  37.964  1.00  0.00    -0.200 F 
ATOM     66  C   UNL A   1      39.272  35.509  38.933  1.00  0.00     0.200 A 
ATOM     67  F   UNL A   1      37.838  33.882  39.867  1.00  0.00    -0.200 F 
ATOM     68  F   UNL A   1      39.047  36.323  39.974  1.00  0.00    -0.200 F 
ENDBRANCH  44  58
BRANCH  45  69
ATOM     69  C   UNL A   1      40.478  28.065  28.626  1.00  0.00     0.064 A 
ATOM     70  C   UNL A   1      41.251  28.424  27.514  1.00  0.00     0.173 A 
ATOM     71  C   UNL A   1      39.807  26.834  28.586  1.00  0.00     0.173 A 
ATOM     72  F   UNL A   1      41.893  29.601  27.498  1.00  0.00    -0.203 F 
ATOM     73  C   UNL A   1      41.345  27.587  26.404  1.00  0.00     0.198 A 
ATOM     74  C   UNL A   1      39.924  25.985  27.488  1.00  0.00     0.198 A 
ATOM     75  F   UNL A   1      39.055  26.445  29.627  1.00  0.00    -0.203 F 
ATOM     76  F   UNL A   1      42.066  27.967  25.341  1.00  0.00    -0.200 F 
ATOM     77  C   UNL A   1      40.689  26.365  26.396  1.00  0.00     0.200 A 
ATOM     78  F   UNL A   1      39.299  24.800  27.490  1.00  0.00    -0.200 F 
ATOM     79  F   UNL A   1      40.790  25.555  25.334  1.00  0.00    -0.200 F 
ENDBRANCH  45  69
BRANCH  57  80
ATOM     80  C   UNL A   1      43.891  28.310  34.699  1.00  0.00     0.064 A 
ATOM     81  C   UNL A   1      45.219  28.742  34.575  1.00  0.00     0.173 A 
ATOM     82  C   UNL A   1      43.644  27.138  35.429  1.00  0.00     0.173 A 
ATOM     83  F   UNL A   1      45.506  29.849  33.874  1.00  0.00    -0.203 F 
ATOM     84  C   UNL A   1      46.261  28.022  35.152  1.00  0.00     0.198 A 
ATOM     85  C   UNL A   1      44.686  26.433  36.025  1.00  0.00     0.198 A 
ATOM     86  F   UNL A   1      42.389  26.688  35.582  1.00  0.00    -0.203 F 
ATOM     87  F   UNL A   1      47.527  28.435  34.995  1.00  0.00    -0.200 F 
ATOM     88  C   UNL A   1      45.994  26.874  35.884  1.00  0.00     0.200 A 
ATOM     89  F   UNL A   1      44.425  25.332  36.743  1.00  0.00    -0.200 F 
ATOM     90  F   UNL A   1      46.997  26.190  36.450  1.00  0.00    -0.200 F 
ENDBRANCH  57  80
ENDBRANCH  31  32
ENDBRANCH  23  26
ENDBRANCH  21  22
ENDBRANCH   1  21
TORSDOF 12
ENDMDL
MODEL 3
REMARK VINA RESULT:     -12.6      1.615      2.526
REMARK SMILES Cc1cc(SCC(=O)NCCCNC(=O)c2ccc(-c3c4nc(c(-c5c(F)c(F)c(F)c(F)c5F)c5ccc([nH]5)c(-c5c(F)c(F)c(F)c(F)c5F)c5nc(c(-c6c(F)c(F)c(F)c(F)c6F)c6ccc3[nH]6)C=C5)C=C4)cc2)c2cc(I)ccc2n1
REMARK SMILES IDX 11 1 10 2 9 3 7 4 8 5 6 7 5 8 4 9 1 10 2 11 3 12 86 13 85 14
REMARK SMILES IDX 79 15 84 16 80 17 83 18 81 19 82 20 12 21 13 22 14 23 15 25
REMARK SMILES IDX 16 26 17 27 78 28 18 29 77 30 19 31 20 32 21 33 71 34 22 35
REMARK SMILES IDX 76 36 70 37 72 38 23 39 75 40 69 41 68 42 24 44 56 45 36 46
REMARK SMILES IDX 55 47 37 48 40 49 54 50 73 51 38 52 39 53 53 55 74 56 41 57
REMARK SMILES IDX 25 58 26 59 34 60 27 61 28 62 32 63 35 64 29 65 30 66 33 67
REMARK SMILES IDX 31 68 57 69 58 70 66 71 59 72 60 73 64 74 67 75 61 76 62 77
REMARK SMILES IDX 65 78 63 79 42 80 43 81 51 82 44 83 45 84 49 85 52 86 46 87
REMARK SMILES IDX 47 88 50 89 48 90
REMARK H PARENT 9 6 13 24 72 43 40 54
REMARK Flexibility Score: inf
ROOT
ATOM      1  C   UNL A   1      31.429  31.955  26.901  1.00  0.00     0.042 C 
ENDROOT
BRANCH   1   2
ATOM      2  C   UNL A   1      31.697  30.830  25.905  1.00  0.00     0.117 C 
BRANCH   2   3
ATOM      3  N   UNL A   1      31.932  29.563  26.570  1.00  0.00    -0.355 N 
ATOM      4  C   UNL A   1      32.802  28.561  26.262  1.00  0.00     0.230 C 
ATOM      5  O   UNL A   1      32.779  27.549  26.968  1.00  0.00    -0.274 OA
ATOM      6  H   UNL A   1      31.377  29.402  27.366  1.00  0.00     0.163 HD
BRANCH   4   7
ATOM      7  C   UNL A   1      33.820  28.712  25.148  1.00  0.00     0.174 C 
BRANCH   7   8
ATOM      8  S   UNL A   1      33.129  28.596  23.467  1.00  0.00    -0.115 SA
BRANCH   8   9
ATOM      9  C   UNL A   1      31.699  27.497  23.577  1.00  0.00     0.019 A 
ATOM     10  C   UNL A   1      30.843  23.862  24.167  1.00  0.00     0.067 C 
ATOM     11  C   UNL A   1      30.714  25.334  23.909  1.00  0.00     0.039 A 
ATOM     12  C   UNL A   1      31.845  26.124  23.777  1.00  0.00     0.039 A 
ATOM     13  N   UNL A   1      29.466  25.826  23.778  1.00  0.00    -0.253 NA
ATOM     14  C   UNL A   1      29.306  27.131  23.531  1.00  0.00     0.072 A 
ATOM     15  C   UNL A   1      30.386  28.036  23.429  1.00  0.00     0.015 A 
ATOM     16  C   UNL A   1      28.007  27.597  23.373  1.00  0.00     0.030 A 
ATOM     17  C   UNL A   1      30.084  29.405  23.178  1.00  0.00     0.026 A 
ATOM     18  C   UNL A   1      27.724  28.940  23.120  1.00  0.00     0.017 A 
ATOM     19  C   UNL A   1      28.769  29.845  23.028  1.00  0.00     0.014 A 
ATOM     20  I   UNL A   1      28.377  31.852  22.670  1.00  0.00    -0.044 I 
ENDBRANCH   8   9
ENDBRANCH   7   8
ENDBRANCH   4   7
ENDBRANCH   2   3
ENDBRANCH   1   2
BRANCH   1  21
ATOM     21  C   UNL A   1      32.666  32.760  27.290  1.00  0.00     0.118 C 
BRANCH  21  22
ATOM     22  N   UNL A   1      32.366  34.136  27.668  1.00  0.00    -0.352 N 
ATOM     23  C   UNL A   1      32.970  34.950  28.598  1.00  0.00     0.251 C 
ATOM     24  H   UNL A   1      31.614  34.546  27.182  1.00  0.00     0.163 HD
ATOM     25  O   UNL A   1      32.481  36.045  28.859  1.00  0.00    -0.269 OA
BRANCH  23  26
ATOM     26  C   UNL A   1      34.183  34.496  29.315  1.00  0.00     0.039 A 
ATOM     27  C   UNL A   1      35.454  34.688  28.774  1.00  0.00     0.014 A 
ATOM     28  C   UNL A   1      34.039  33.854  30.550  1.00  0.00     0.014 A 
ATOM     29  C   UNL A   1      36.556  34.081  29.369  1.00  0.00     0.010 A 
ATOM     30  C   UNL A   1      35.161  33.316  31.190  1.00  0.00     0.010 A 
ATOM     31  C   UNL A   1      36.421  33.374  30.575  1.00  0.00    -0.014 A 
BRANCH  31  32
ATOM     32  C   UNL A   1      37.604  32.680  31.148  1.00  0.00     0.031 A 
ATOM     33  C   UNL A   1      38.081  32.999  32.541  1.00  0.00     0.074 A 
ATOM     34  C   UNL A   1      38.203  31.701  30.443  1.00  0.00     0.049 A 
ATOM     35  N   UNL A   1      39.056  32.452  33.226  1.00  0.00    -0.248 NA
ATOM     36  C   UNL A   1      37.379  34.073  33.261  1.00  0.00     0.031 C 
ATOM     37  C   UNL A   1      37.829  31.294  29.088  1.00  0.00     0.029 A 
ATOM     38  N   UNL A   1      39.226  30.849  30.776  1.00  0.00    -0.354 N 
ATOM     39  C   UNL A   1      39.089  33.118  34.443  1.00  0.00     0.074 A 
ATOM     40  C   UNL A   1      38.061  34.135  34.397  1.00  0.00     0.031 C 
ATOM     41  C   UNL A   1      38.566  30.233  28.730  1.00  0.00     0.029 A 
ATOM     42  C   UNL A   1      39.502  29.917  29.805  1.00  0.00     0.049 A 
ATOM     43  H   UNL A   1      39.715  30.901  31.629  1.00  0.00     0.167 HD
ATOM     44  C   UNL A   1      39.890  32.890  35.511  1.00  0.00     0.037 A 
ATOM     45  C   UNL A   1      40.407  28.921  29.783  1.00  0.00     0.037 A 
ATOM     46  C   UNL A   1      40.892  31.859  35.573  1.00  0.00     0.049 A 
ATOM     47  C   UNL A   1      41.305  28.713  30.969  1.00  0.00     0.074 A 
ATOM     48  C   UNL A   1      41.735  31.539  36.623  1.00  0.00     0.029 A 
ATOM     49  N   UNL A   1      41.182  30.977  34.544  1.00  0.00    -0.354 N 
ATOM     50  N   UNL A   1      41.318  29.346  32.116  1.00  0.00    -0.248 NA
ATOM     51  C   UNL A   1      42.323  27.659  30.853  1.00  0.00     0.031 C 
ATOM     52  C   UNL A   1      42.562  30.487  36.217  1.00  0.00     0.029 A 
ATOM     53  C   UNL A   1      42.206  30.125  34.929  1.00  0.00     0.049 A 
ATOM     54  H   UNL A   1      40.730  30.958  33.670  1.00  0.00     0.167 HD
ATOM     55  C   UNL A   1      42.333  28.765  32.861  1.00  0.00     0.074 A 
ATOM     56  C   UNL A   1      42.901  27.711  32.046  1.00  0.00     0.031 C 
ATOM     57  C   UNL A   1      42.761  29.082  34.106  1.00  0.00     0.037 A 
BRANCH  44  58
ATOM     58  C   UNL A   1      39.722  33.770  36.715  1.00  0.00     0.064 A 
ATOM     59  C   UNL A   1      40.323  35.035  36.788  1.00  0.00     0.173 A 
ATOM     60  C   UNL A   1      38.885  33.378  37.770  1.00  0.00     0.173 A 
ATOM     61  F   UNL A   1      41.140  35.451  35.808  1.00  0.00    -0.203 F 
ATOM     62  C   UNL A   1      40.101  35.871  37.880  1.00  0.00     0.198 A 
ATOM     63  C   UNL A   1      38.646  34.226  38.849  1.00  0.00     0.198 A 
ATOM     64  F   UNL A   1      38.281  32.180  37.746  1.00  0.00    -0.203 F 
ATOM     65  F   UNL A   1      40.706  37.065  37.941  1.00  0.00    -0.200 F 
ATOM     66  C   UNL A   1      39.256  35.470  38.904  1.00  0.00     0.200 A 
ATOM     67  F   UNL A   1      37.818  33.842  39.831  1.00  0.00    -0.200 F 
ATOM     68  F   UNL A   1      39.028  36.283  39.944  1.00  0.00    -0.200 F 
ENDBRANCH  44  58
BRANCH  45  69
ATOM     69  C   UNL A   1      40.494  28.036  28.593  1.00  0.00     0.064 A 
ATOM     70  C   UNL A   1      41.265  28.399  27.482  1.00  0.00     0.173 A 
ATOM     71  C   UNL A   1      39.829  26.802  28.553  1.00  0.00     0.173 A 
ATOM     72  F   UNL A   1      41.902  29.578  27.466  1.00  0.00    -0.203 F 
ATOM     73  C   UNL A   1      41.363  27.563  26.371  1.00  0.00     0.198 A 
ATOM     74  C   UNL A   1      39.949  25.954  27.454  1.00  0.00     0.198 A 
ATOM     75  F   UNL A   1      39.078  26.409  29.593  1.00  0.00    -0.203 F 
ATOM     76  F   UNL A   1      42.083  27.947  25.308  1.00  0.00    -0.200 F 
ATOM     77  C   UNL A   1      40.712  26.338  26.362  1.00  0.00     0.200 A 
ATOM     78  F   UNL A   1      39.330  24.766  27.455  1.00  0.00    -0.200 F 
ATOM     79  F   UNL A   1      40.817  25.529  25.299  1.00  0.00    -0.200 F 
ENDBRANCH  45  69
BRANCH  57  80
ATOM     80  C   UNL A   1      43.897  28.283  34.672  1.00  0.00     0.064 A 
ATOM     81  C   UNL A   1      45.224  28.717  34.551  1.00  0.00     0.173 A 
ATOM     82  C   UNL A   1      43.650  27.110  35.400  1.00  0.00     0.173 A 
ATOM     83  F   UNL A   1      45.510  29.826  33.852  1.00  0.00    -0.203 F 
ATOM     84  C   UNL A   1      46.266  27.999  35.129  1.00  0.00     0.198 A 
ATOM     85  C   UNL A   1      44.693  26.406  35.998  1.00  0.00     0.198 A 
ATOM     86  F   UNL A   1      42.396  26.657  35.550  1.00  0.00    -0.203 F 
ATOM     87  F   UNL A   1      47.531  28.415  34.976  1.00  0.00    -0.200 F 
ATOM     88  C   UNL A   1      46.000  26.850  35.860  1.00  0.00     0.200 A 
ATOM     89  F   UNL A   1      44.432  25.304  36.714  1.00  0.00    -0.200 F 
ATOM     90  F   UNL A   1      47.003  26.167  36.427  1.00  0.00    -0.200 F 
ENDBRANCH  57  80
ENDBRANCH  31  32
ENDBRANCH  23  26
ENDBRANCH  21  22
ENDBRANCH   1  21
TORSDOF 12
ENDMDL
