MODEL 1
REMARK VINA RESULT:     -13.0      0.000      0.000
REMARK SMILES CC(C)[NH2+][C@@]1(C(=O)NCCCNC(=O)c2ccc(-c3c4nc(c(-c5c(F)c(F)c(F)c(F)c5F)c5ccc([nH]5)c(-c5c(F)c(F)c(F)c(F)c5F)c5nc(c(-c6c(F)c(F)c(F)c(F)c6F)c6ccc3[nH]6)C=C5)C=C4)cc2)CCC[C@@H]1CCOC1CCOCC1
REMARK SMILES IDX 9 1 8 2 6 3 7 4 5 6 78 7 81 8 79 9 80 10 4 11 2 14 1 15 3 16
REMARK SMILES IDX 82 17 83 18 84 19 85 20 86 21 90 22 87 23 89 24 88 25 10 26
REMARK SMILES IDX 11 27 12 28 13 29 14 31 15 32 16 33 77 34 17 35 76 36 18 37
REMARK SMILES IDX 19 38 20 39 70 40 21 41 75 42 69 43 71 44 22 45 74 46 68 47
REMARK SMILES IDX 67 48 23 50 55 51 35 52 54 53 36 54 39 55 53 56 72 57 37 58
REMARK SMILES IDX 38 59 52 61 73 62 40 63 24 64 25 65 33 66 26 67 27 68 31 69
REMARK SMILES IDX 34 70 28 71 29 72 32 73 30 74 56 75 57 76 65 77 58 78 59 79
REMARK SMILES IDX 63 80 66 81 60 82 61 83 64 84 62 85 41 86 42 87 50 88 43 89
REMARK SMILES IDX 44 90 48 91 51 92 45 93 46 94 49 95 47 96
REMARK H PARENT 8 5 4 12 4 13 12 30 71 49 39 60
REMARK Flexibility Score: inf
ROOT
ATOM      1  C   UNL A   1      31.797  27.592  27.012  1.00  0.00     0.118 C 
ENDROOT
BRANCH   1   2
ATOM      2  N   UNL A   1      31.335  26.112  26.878  1.00  0.00    -0.351 N 
ATOM      3  C   UNL A   1      31.664  24.814  26.496  1.00  0.00     0.281 C 
ATOM      4  O   UNL A   1      30.802  24.075  27.044  1.00  0.00    -0.268 OA
ATOM      5  H   UNL A   1      30.408  26.078  27.207  1.00  0.00     0.163 HD
BRANCH   3   6
ATOM      6  C   UNL A   1      33.016  23.883  25.496  1.00  0.00     0.178 C 
ATOM      7  C   UNL A   1      35.089  23.536  26.099  1.00  0.00     0.079 C 
ATOM      8  C   UNL A   1      33.190  24.282  23.567  1.00  0.00     0.063 C 
ATOM      9  C   UNL A   1      36.206  23.535  24.428  1.00  0.00     0.008 C 
ATOM     10  C   UNL A   1      35.006  23.911  22.971  1.00  0.00     0.011 C 
BRANCH   6  11
ATOM     11  N   UNL A   1      31.904  22.639  25.306  1.00  0.00    -0.331 N 
ATOM     12  H   UNL A   1      31.236  22.789  26.064  1.00  0.00     0.347 HD
ATOM     13  H   UNL A   1      31.741  22.764  24.307  1.00  0.00     0.347 HD
BRANCH  11  14
ATOM     14  C   UNL A   1      32.092  21.191  25.283  1.00  0.00     0.176 C 
ATOM     15  C   UNL A   1      32.211  20.820  23.791  1.00  0.00     0.075 C 
ATOM     16  C   UNL A   1      33.318  20.649  26.011  1.00  0.00     0.075 C 
ENDBRANCH  11  14
ENDBRANCH   6  11
BRANCH   8  17
ATOM     17  C   UNL A   1      32.716  25.692  23.188  1.00  0.00     0.039 C 
BRANCH  17  18
ATOM     18  C   UNL A   1      31.798  25.645  21.995  1.00  0.00     0.161 C 
BRANCH  18  19
ATOM     19  O   UNL A   1      30.852  26.716  21.808  1.00  0.00    -0.378 OA
BRANCH  19  20
ATOM     20  C   UNL A   1      30.540  27.910  22.563  1.00  0.00     0.122 C 
ATOM     21  C   UNL A   1      29.373  27.276  23.499  1.00  0.00     0.060 C 
ATOM     22  C   UNL A   1      30.235  29.695  22.043  1.00  0.00     0.060 C 
ATOM     23  C   UNL A   1      27.376  28.120  23.412  1.00  0.00     0.163 C 
ATOM     24  C   UNL A   1      28.601  30.433  22.016  1.00  0.00     0.163 C 
ATOM     25  O   UNL A   1      27.297  29.774  22.727  1.00  0.00    -0.381 OA
ENDBRANCH  19  20
ENDBRANCH  18  19
ENDBRANCH  17  18
ENDBRANCH   8  17
ENDBRANCH   3   6
ENDBRANCH   1   2
BRANCH   1  26
ATOM     26  C   UNL A   1      31.912  28.432  25.723  1.00  0.00     0.042 C 
BRANCH  26  27
ATOM     27  C   UNL A   1      32.912  29.550  25.515  1.00  0.00     0.118 C 
BRANCH  27  28
ATOM     28  N   UNL A   1      32.541  30.845  26.069  1.00  0.00    -0.352 N 
ATOM     29  C   UNL A   1      33.144  31.620  27.045  1.00  0.00     0.251 C 
ATOM     30  H   UNL A   1      31.724  31.236  25.682  1.00  0.00     0.163 HD
ATOM     31  O   UNL A   1      32.574  32.653  27.398  1.00  0.00    -0.269 OA
BRANCH  29  32
ATOM     32  C   UNL A   1      34.436  31.254  27.706  1.00  0.00     0.039 A 
ATOM     33  C   UNL A   1      34.637  29.923  28.108  1.00  0.00     0.014 A 
ATOM     34  C   UNL A   1      35.441  32.178  27.990  1.00  0.00     0.014 A 
ATOM     35  C   UNL A   1      35.823  29.540  28.753  1.00  0.00     0.010 A 
ATOM     36  C   UNL A   1      36.676  31.772  28.490  1.00  0.00     0.010 A 
ATOM     37  C   UNL A   1      36.865  30.461  28.933  1.00  0.00    -0.014 A 
BRANCH  37  38
ATOM     38  C   UNL A   1      38.117  30.097  29.650  1.00  0.00     0.031 A 
ATOM     39  C   UNL A   1      38.355  30.591  31.057  1.00  0.00     0.074 A 
ATOM     40  C   UNL A   1      39.054  29.356  29.028  1.00  0.00     0.049 A 
ATOM     41  N   UNL A   1      39.365  30.365  31.860  1.00  0.00    -0.248 NA
ATOM     42  C   UNL A   1      37.340  31.492  31.626  1.00  0.00     0.031 C 
ATOM     43  C   UNL A   1      38.977  28.891  27.644  1.00  0.00     0.029 A 
ATOM     44  N   UNL A   1      40.248  28.854  29.482  1.00  0.00    -0.354 N 
ATOM     45  C   UNL A   1      39.110  31.106  33.010  1.00  0.00     0.074 A 
ATOM     46  C   UNL A   1      37.899  31.854  32.770  1.00  0.00     0.031 C 
ATOM     47  C   UNL A   1      40.045  28.121  27.378  1.00  0.00     0.029 A 
ATOM     48  C   UNL A   1      40.894  28.062  28.563  1.00  0.00     0.049 A 
ATOM     49  H   UNL A   1      40.607  29.042  30.379  1.00  0.00     0.167 HD
ATOM     50  C   UNL A   1      39.800  31.132  34.176  1.00  0.00     0.037 A 
ATOM     51  C   UNL A   1      42.031  27.351  28.677  1.00  0.00     0.037 A 
ATOM     52  C   UNL A   1      40.990  30.359  34.415  1.00  0.00     0.049 A 
ATOM     53  C   UNL A   1      42.763  27.362  29.992  1.00  0.00     0.074 A 
ATOM     54  C   UNL A   1      41.738  30.251  35.574  1.00  0.00     0.029 A 
ATOM     55  N   UNL A   1      41.606  29.556  33.465  1.00  0.00    -0.354 N 
ATOM     56  N   UNL A   1      42.466  27.997  31.101  1.00  0.00    -0.248 NA
ATOM     57  C   UNL A   1      43.980  26.546  30.074  1.00  0.00     0.031 C 
ATOM     58  C   UNL A   1      42.833  29.421  35.309  1.00  0.00     0.029 A 
ATOM     59  C   UNL A   1      42.739  28.967  34.003  1.00  0.00     0.049 A 
ATOM     60  H   UNL A   1      41.285  29.425  32.543  1.00  0.00     0.167 HD
ATOM     61  C   UNL A   1      43.448  27.647  32.017  1.00  0.00     0.074 A 
ATOM     62  C   UNL A   1      44.332  26.718  31.340  1.00  0.00     0.031 C 
ATOM     63  C   UNL A   1      43.611  28.060  33.299  1.00  0.00     0.037 A 
BRANCH  50  64
ATOM     64  C   UNL A   1      39.274  32.021  35.272  1.00  0.00     0.064 A 
ATOM     65  C   UNL A   1      39.600  33.388  35.337  1.00  0.00     0.173 A 
ATOM     66  C   UNL A   1      38.443  31.504  36.277  1.00  0.00     0.173 A 
ATOM     67  F   UNL A   1      40.401  33.935  34.411  1.00  0.00    -0.203 F 
ATOM     68  C   UNL A   1      39.158  34.185  36.391  1.00  0.00     0.198 A 
ATOM     69  C   UNL A   1      37.973  32.313  37.310  1.00  0.00     0.198 A 
ATOM     70  F   UNL A   1      38.093  30.209  36.265  1.00  0.00    -0.203 F 
ATOM     71  F   UNL A   1      39.547  35.464  36.469  1.00  0.00    -0.200 F 
ATOM     72  C   UNL A   1      38.341  33.649  37.374  1.00  0.00     0.200 A 
ATOM     73  F   UNL A   1      37.172  31.796  38.252  1.00  0.00    -0.200 F 
ATOM     74  F   UNL A   1      37.921  34.415  38.389  1.00  0.00    -0.200 F 
ENDBRANCH  50  64
BRANCH  51  75
ATOM     75  C   UNL A   1      42.497  26.516  27.538  1.00  0.00     0.064 A 
ATOM     76  C   UNL A   1      43.477  26.991  26.654  1.00  0.00     0.173 A 
ATOM     77  C   UNL A   1      42.005  25.220  27.328  1.00  0.00     0.173 A 
ATOM     78  F   UNL A   1      43.966  28.231  26.801  1.00  0.00    -0.203 F 
ATOM     79  C   UNL A   1      43.938  26.207  25.599  1.00  0.00     0.198 A 
ATOM     80  C   UNL A   1      42.488  24.425  26.289  1.00  0.00     0.198 A 
ATOM     81  F   UNL A   1      41.073  24.713  28.149  1.00  0.00    -0.203 F 
ATOM     82  F   UNL A   1      44.851  26.699  24.750  1.00  0.00    -0.200 F 
ATOM     83  C   UNL A   1      43.450  24.921  25.423  1.00  0.00     0.200 A 
ATOM     84  F   UNL A   1      42.027  23.176  26.134  1.00  0.00    -0.200 F 
ATOM     85  F   UNL A   1      43.906  24.161  24.418  1.00  0.00    -0.200 F 
ENDBRANCH  51  75
BRANCH  63  86
ATOM     86  C   UNL A   1      44.788  27.500  34.043  1.00  0.00     0.064 A 
ATOM     87  C   UNL A   1      46.025  28.163  34.066  1.00  0.00     0.173 A 
ATOM     88  C   UNL A   1      44.677  26.291  34.747  1.00  0.00     0.173 A 
ATOM     89  F   UNL A   1      46.185  29.315  33.397  1.00  0.00    -0.203 F 
ATOM     90  C   UNL A   1      47.119  27.614  34.728  1.00  0.00     0.198 A 
ATOM     91  C   UNL A   1      45.764  25.763  35.438  1.00  0.00     0.198 A 
ATOM     92  F   UNL A   1      43.514  25.623  34.766  1.00  0.00    -0.203 F 
ATOM     93  F   UNL A   1      48.307  28.231  34.679  1.00  0.00    -0.200 F 
ATOM     94  C   UNL A   1      46.986  26.417  35.417  1.00  0.00     0.200 A 
ATOM     95  F   UNL A   1      45.631  24.615  36.116  1.00  0.00    -0.200 F 
ATOM     96  F   UNL A   1      48.041  25.888  36.052  1.00  0.00    -0.200 F 
ENDBRANCH  63  86
ENDBRANCH  37  38
ENDBRANCH  29  32
ENDBRANCH  27  28
ENDBRANCH  26  27
ENDBRANCH   1  26
TORSDOF 16
ENDMDL
MODEL 2
REMARK VINA RESULT:     -12.7      0.992      1.917
REMARK SMILES CC(C)[NH2+][C@@]1(C(=O)NCCCNC(=O)c2ccc(-c3c4nc(c(-c5c(F)c(F)c(F)c(F)c5F)c5ccc([nH]5)c(-c5c(F)c(F)c(F)c(F)c5F)c5nc(c(-c6c(F)c(F)c(F)c(F)c6F)c6ccc3[nH]6)C=C5)C=C4)cc2)CCC[C@@H]1CCOC1CCOCC1
REMARK SMILES IDX 9 1 8 2 6 3 7 4 5 6 78 7 81 8 79 9 80 10 4 11 2 14 1 15 3 16
REMARK SMILES IDX 82 17 83 18 84 19 85 20 86 21 90 22 87 23 89 24 88 25 10 26
REMARK SMILES IDX 11 27 12 28 13 29 14 31 15 32 16 33 77 34 17 35 76 36 18 37
REMARK SMILES IDX 19 38 20 39 70 40 21 41 75 42 69 43 71 44 22 45 74 46 68 47
REMARK SMILES IDX 67 48 23 50 55 51 35 52 54 53 36 54 39 55 53 56 72 57 37 58
REMARK SMILES IDX 38 59 52 61 73 62 40 63 24 64 25 65 33 66 26 67 27 68 31 69
REMARK SMILES IDX 34 70 28 71 29 72 32 73 30 74 56 75 57 76 65 77 58 78 59 79
REMARK SMILES IDX 63 80 66 81 60 82 61 83 64 84 62 85 41 86 42 87 50 88 43 89
REMARK SMILES IDX 44 90 48 91 51 92 45 93 46 94 49 95 47 96
REMARK H PARENT 8 5 4 12 4 13 12 30 71 49 39 60
REMARK Flexibility Score: inf
ROOT
ATOM      1  C   UNL A   1      32.559  27.297  26.644  1.00  0.00     0.118 C 
ENDROOT
BRANCH   1   2
ATOM      2  N   UNL A   1      33.456  26.815  25.468  1.00  0.00    -0.351 N 
ATOM      3  C   UNL A   1      33.902  25.741  24.701  1.00  0.00     0.281 C 
ATOM      4  O   UNL A   1      34.395  26.255  23.661  1.00  0.00    -0.268 OA
ATOM      5  H   UNL A   1      33.902  27.616  25.109  1.00  0.00     0.163 HD
BRANCH   3   6
ATOM      6  C   UNL A   1      33.908  23.820  24.740  1.00  0.00     0.178 C 
ATOM      7  C   UNL A   1      33.445  22.471  23.082  1.00  0.00     0.079 C 
ATOM      8  C   UNL A   1      33.060  22.915  26.281  1.00  0.00     0.063 C 
ATOM      9  C   UNL A   1      32.594  20.828  23.868  1.00  0.00     0.008 C 
ATOM     10  C   UNL A   1      32.465  21.135  25.763  1.00  0.00     0.011 C 
BRANCH   6  11
ATOM     11  N   UNL A   1      35.436  23.920  25.431  1.00  0.00    -0.331 N 
ATOM     12  H   UNL A   1      35.727  24.881  25.245  1.00  0.00     0.347 HD
ATOM     13  H   UNL A   1      35.195  23.513  26.334  1.00  0.00     0.347 HD
BRANCH  11  14
ATOM     14  C   UNL A   1      36.642  23.134  25.189  1.00  0.00     0.176 C 
ATOM     15  C   UNL A   1      37.740  23.797  26.044  1.00  0.00     0.075 C 
ATOM     16  C   UNL A   1      36.578  21.654  25.554  1.00  0.00     0.075 C 
ENDBRANCH  11  14
ENDBRANCH   6  11
BRANCH   8  17
ATOM     17  C   UNL A   1      31.950  23.745  26.942  1.00  0.00     0.039 C 
BRANCH  17  18
ATOM     18  C   UNL A   1      30.764  23.881  26.023  1.00  0.00     0.161 C 
BRANCH  18  19
ATOM     19  O   UNL A   1      30.620  25.091  25.255  1.00  0.00    -0.378 OA
BRANCH  19  20
ATOM     20  C   UNL A   1      29.806  25.455  24.116  1.00  0.00     0.122 C 
ATOM     21  C   UNL A   1      31.000  25.561  23.020  1.00  0.00     0.060 C 
ATOM     22  C   UNL A   1      28.433  26.726  23.893  1.00  0.00     0.060 C 
ATOM     23  C   UNL A   1      31.339  27.449  22.006  1.00  0.00     0.163 C 
ATOM     24  C   UNL A   1      28.671  28.270  23.012  1.00  0.00     0.163 C 
ATOM     25  O   UNL A   1      29.950  28.580  22.060  1.00  0.00    -0.381 OA
ENDBRANCH  19  20
ENDBRANCH  18  19
ENDBRANCH  17  18
ENDBRANCH   8  17
ENDBRANCH   3   6
ENDBRANCH   1   2
BRANCH   1  26
ATOM     26  C   UNL A   1      32.106  28.772  26.650  1.00  0.00     0.042 C 
BRANCH  26  27
ATOM     27  C   UNL A   1      32.803  29.885  25.898  1.00  0.00     0.118 C 
BRANCH  27  28
ATOM     28  N   UNL A   1      32.559  31.234  26.390  1.00  0.00    -0.352 N 
ATOM     29  C   UNL A   1      33.257  32.006  27.303  1.00  0.00     0.251 C 
ATOM     30  H   UNL A   1      31.763  31.670  26.009  1.00  0.00     0.163 HD
ATOM     31  O   UNL A   1      32.785  33.100  27.616  1.00  0.00    -0.269 OA
BRANCH  29  32
ATOM     32  C   UNL A   1      34.538  31.569  27.942  1.00  0.00     0.039 A 
ATOM     33  C   UNL A   1      34.655  30.241  28.382  1.00  0.00     0.014 A 
ATOM     34  C   UNL A   1      35.613  32.428  28.171  1.00  0.00     0.014 A 
ATOM     35  C   UNL A   1      35.829  29.793  29.008  1.00  0.00     0.010 A 
ATOM     36  C   UNL A   1      36.830  31.950  28.652  1.00  0.00     0.010 A 
ATOM     37  C   UNL A   1      36.939  30.643  29.132  1.00  0.00    -0.014 A 
BRANCH  37  38
ATOM     38  C   UNL A   1      38.181  30.213  29.828  1.00  0.00     0.031 A 
ATOM     39  C   UNL A   1      38.451  30.664  31.244  1.00  0.00     0.074 A 
ATOM     40  C   UNL A   1      39.081  29.450  29.180  1.00  0.00     0.049 A 
ATOM     41  N   UNL A   1      39.458  30.379  32.031  1.00  0.00    -0.248 NA
ATOM     42  C   UNL A   1      37.478  31.592  31.843  1.00  0.00     0.031 C 
ATOM     43  C   UNL A   1      38.974  29.020  27.786  1.00  0.00     0.029 A 
ATOM     44  N   UNL A   1      40.258  28.890  29.610  1.00  0.00    -0.354 N 
ATOM     45  C   UNL A   1      39.244  31.103  33.200  1.00  0.00     0.074 A 
ATOM     46  C   UNL A   1      38.061  31.904  32.989  1.00  0.00     0.031 C 
ATOM     47  C   UNL A   1      40.008  28.215  27.493  1.00  0.00     0.029 A 
ATOM     48  C   UNL A   1      40.865  28.094  28.668  1.00  0.00     0.049 A 
ATOM     49  H   UNL A   1      40.632  29.043  30.508  1.00  0.00     0.167 HD
ATOM     50  C   UNL A   1      39.944  31.075  34.360  1.00  0.00     0.037 A 
ATOM     51  C   UNL A   1      41.973  27.336  28.754  1.00  0.00     0.037 A 
ATOM     52  C   UNL A   1      41.104  30.249  34.570  1.00  0.00     0.049 A 
ATOM     53  C   UNL A   1      42.716  27.287  30.061  1.00  0.00     0.074 A 
ATOM     54  C   UNL A   1      41.857  30.085  35.718  1.00  0.00     0.029 A 
ATOM     55  N   UNL A   1      41.679  29.445  33.595  1.00  0.00    -0.354 N 
ATOM     56  N   UNL A   1      42.454  27.907  31.188  1.00  0.00    -0.248 NA
ATOM     57  C   UNL A   1      43.900  26.422  30.113  1.00  0.00     0.031 C 
ATOM     58  C   UNL A   1      42.916  29.218  35.423  1.00  0.00     0.029 A 
ATOM     59  C   UNL A   1      42.793  28.799  34.108  1.00  0.00     0.049 A 
ATOM     60  H   UNL A   1      41.345  29.347  32.674  1.00  0.00     0.167 HD
ATOM     61  C   UNL A   1      43.430  27.498  32.086  1.00  0.00     0.074 A 
ATOM     62  C   UNL A   1      44.270  26.550  31.379  1.00  0.00     0.031 C 
ATOM     63  C   UNL A   1      43.621  27.874  33.376  1.00  0.00     0.037 A 
BRANCH  50  64
ATOM     64  C   UNL A   1      39.465  31.958  35.481  1.00  0.00     0.064 A 
ATOM     65  C   UNL A   1      39.930  33.276  35.635  1.00  0.00     0.173 A 
ATOM     66  C   UNL A   1      38.537  31.483  36.420  1.00  0.00     0.173 A 
ATOM     67  F   UNL A   1      40.827  33.781  34.775  1.00  0.00    -0.203 F 
ATOM     68  C   UNL A   1      39.525  34.062  36.713  1.00  0.00     0.198 A 
ATOM     69  C   UNL A   1      38.106  32.285  37.476  1.00  0.00     0.198 A 
ATOM     70  F   UNL A   1      38.052  30.236  36.322  1.00  0.00    -0.203 F 
ATOM     71  F   UNL A   1      40.043  35.286  36.879  1.00  0.00    -0.200 F 
ATOM     72  C   UNL A   1      38.611  33.568  37.630  1.00  0.00     0.200 A 
ATOM     73  F   UNL A   1      37.212  31.810  38.354  1.00  0.00    -0.200 F 
ATOM     74  F   UNL A   1      38.226  34.322  38.668  1.00  0.00    -0.200 F 
ENDBRANCH  50  64
BRANCH  51  75
ATOM     75  C   UNL A   1      42.394  26.510  27.592  1.00  0.00     0.064 A 
ATOM     76  C   UNL A   1      43.403  26.954  26.724  1.00  0.00     0.173 A 
ATOM     77  C   UNL A   1      41.830  25.251  27.342  1.00  0.00     0.173 A 
ATOM     78  F   UNL A   1      43.962  28.159  26.909  1.00  0.00    -0.203 F 
ATOM     79  C   UNL A   1      43.823  26.176  25.648  1.00  0.00     0.198 A 
ATOM     80  C   UNL A   1      42.271  24.461  26.281  1.00  0.00     0.198 A 
ATOM     81  F   UNL A   1      40.868  24.774  28.146  1.00  0.00    -0.203 F 
ATOM     82  F   UNL A   1      44.766  26.640  24.816  1.00  0.00    -0.200 F 
ATOM     83  C   UNL A   1      43.263  24.926  25.433  1.00  0.00     0.200 A 
ATOM     84  F   UNL A   1      41.740  23.246  26.088  1.00  0.00    -0.200 F 
ATOM     85  F   UNL A   1      43.679  24.172  24.406  1.00  0.00    -0.200 F 
ENDBRANCH  51  75
BRANCH  63  86
ATOM     86  C   UNL A   1      44.781  27.250  34.095  1.00  0.00     0.064 A 
ATOM     87  C   UNL A   1      46.045  27.862  34.119  1.00  0.00     0.173 A 
ATOM     88  C   UNL A   1      44.628  26.031  34.773  1.00  0.00     0.173 A 
ATOM     89  F   UNL A   1      46.245  29.021  33.474  1.00  0.00    -0.203 F 
ATOM     90  C   UNL A   1      47.121  27.254  34.758  1.00  0.00     0.198 A 
ATOM     91  C   UNL A   1      45.698  25.445  35.441  1.00  0.00     0.198 A 
ATOM     92  F   UNL A   1      43.439  25.410  34.790  1.00  0.00    -0.203 F 
ATOM     93  F   UNL A   1      48.333  27.824  34.711  1.00  0.00    -0.200 F 
ATOM     94  C   UNL A   1      46.946  26.049  35.422  1.00  0.00     0.200 A 
ATOM     95  F   UNL A   1      45.525  24.287  36.095  1.00  0.00    -0.200 F 
ATOM     96  F   UNL A   1      47.984  25.463  36.034  1.00  0.00    -0.200 F 
ENDBRANCH  63  86
ENDBRANCH  37  38
ENDBRANCH  29  32
ENDBRANCH  27  28
ENDBRANCH  26  27
ENDBRANCH   1  26
TORSDOF 16
ENDMDL
MODEL 3
REMARK VINA RESULT:     -12.7      4.837     10.312
REMARK SMILES CC(C)[NH2+][C@@]1(C(=O)NCCCNC(=O)c2ccc(-c3c4nc(c(-c5c(F)c(F)c(F)c(F)c5F)c5ccc([nH]5)c(-c5c(F)c(F)c(F)c(F)c5F)c5nc(c(-c6c(F)c(F)c(F)c(F)c6F)c6ccc3[nH]6)C=C5)C=C4)cc2)CCC[C@@H]1CCOC1CCOCC1
REMARK SMILES IDX 9 1 8 2 6 3 7 4 5 6 78 7 81 8 79 9 80 10 4 11 2 14 1 15 3 16
REMARK SMILES IDX 82 17 83 18 84 19 85 20 86 21 90 22 87 23 89 24 88 25 10 26
REMARK SMILES IDX 11 27 12 28 13 29 14 31 15 32 16 33 77 34 17 35 76 36 18 37
REMARK SMILES IDX 19 38 20 39 70 40 21 41 75 42 69 43 71 44 22 45 74 46 68 47
REMARK SMILES IDX 67 48 23 50 55 51 35 52 54 53 36 54 39 55 53 56 72 57 37 58
REMARK SMILES IDX 38 59 52 61 73 62 40 63 24 64 25 65 33 66 26 67 27 68 31 69
REMARK SMILES IDX 34 70 28 71 29 72 32 73 30 74 56 75 57 76 65 77 58 78 59 79
REMARK SMILES IDX 63 80 66 81 60 82 61 83 64 84 62 85 41 86 42 87 50 88 43 89
REMARK SMILES IDX 44 90 48 91 51 92 45 93 46 94 49 95 47 96
REMARK H PARENT 8 5 4 12 4 13 12 30 71 49 39 60
REMARK Flexibility Score: inf
ROOT
ATOM      1  C   UNL A   1      36.809  20.738  24.700  1.00  0.00     0.118 C 
ENDROOT
BRANCH   1   2
ATOM      2  N   UNL A   1      36.938  22.215  25.173  1.00  0.00    -0.351 N 
ATOM      3  C   UNL A   1      36.284  23.400  25.499  1.00  0.00     0.281 C 
ATOM      4  O   UNL A   1      37.126  24.079  26.149  1.00  0.00    -0.268 OA
ATOM      5  H   UNL A   1      37.900  22.385  25.297  1.00  0.00     0.163 HD
BRANCH   3   6
ATOM      6  C   UNL A   1      34.552  24.211  25.318  1.00  0.00     0.178 C 
ATOM      7  C   UNL A   1      34.064  26.330  25.546  1.00  0.00     0.079 C 
ATOM      8  C   UNL A   1      33.010  23.320  26.179  1.00  0.00     0.063 C 
ATOM      9  C   UNL A   1      32.200  26.439  26.291  1.00  0.00     0.008 C 
ATOM     10  C   UNL A   1      31.620  24.626  26.572  1.00  0.00     0.011 C 
BRANCH   6  11
ATOM     11  N   UNL A   1      34.414  23.398  23.855  1.00  0.00    -0.331 N 
ATOM     12  H   UNL A   1      35.381  23.235  23.572  1.00  0.00     0.347 HD
ATOM     13  H   UNL A   1      33.735  22.701  24.159  1.00  0.00     0.347 HD
BRANCH  11  14
ATOM     14  C   UNL A   1      33.744  23.780  22.615  1.00  0.00     0.176 C 
ATOM     15  C   UNL A   1      32.667  22.701  22.385  1.00  0.00     0.075 C 
ATOM     16  C   UNL A   1      33.066  25.146  22.597  1.00  0.00     0.075 C 
ENDBRANCH  11  14
ENDBRANCH   6  11
BRANCH   8  17
ATOM     17  C   UNL A   1      33.396  22.475  27.401  1.00  0.00     0.039 C 
BRANCH  17  18
ATOM     18  C   UNL A   1      33.730  21.065  26.993  1.00  0.00     0.161 C 
BRANCH  18  19
ATOM     19  O   UNL A   1      33.498  20.667  25.627  1.00  0.00    -0.378 OA
BRANCH  19  20
ATOM     20  C   UNL A   1      32.577  19.742  25.004  1.00  0.00     0.122 C 
ATOM     21  C   UNL A   1      32.942  18.436  25.898  1.00  0.00     0.060 C 
ATOM     22  C   UNL A   1      32.186  19.365  23.200  1.00  0.00     0.060 C 
ATOM     23  C   UNL A   1      33.696  16.658  24.908  1.00  0.00     0.163 C 
ATOM     24  C   UNL A   1      32.750  17.876  22.375  1.00  0.00     0.163 C 
ATOM     25  O   UNL A   1      33.353  16.583  23.152  1.00  0.00    -0.381 OA
ENDBRANCH  19  20
ENDBRANCH  18  19
ENDBRANCH  17  18
ENDBRANCH   8  17
ENDBRANCH   3   6
ENDBRANCH   1   2
BRANCH   1  26
ATOM     26  C   UNL A   1      37.989  19.784  24.976  1.00  0.00     0.042 C 
BRANCH  26  27
ATOM     27  C   UNL A   1      39.056  20.022  26.023  1.00  0.00     0.118 C 
BRANCH  27  28
ATOM     28  N   UNL A   1      40.263  19.217  25.895  1.00  0.00    -0.352 N 
ATOM     29  C   UNL A   1      41.600  19.565  25.982  1.00  0.00     0.251 C 
ATOM     30  H   UNL A   1      40.100  18.262  25.717  1.00  0.00     0.163 HD
ATOM     31  O   UNL A   1      42.441  18.698  25.745  1.00  0.00    -0.269 OA
BRANCH  29  32
ATOM     32  C   UNL A   1      42.070  20.945  26.324  1.00  0.00     0.039 A 
ATOM     33  C   UNL A   1      42.393  21.237  27.660  1.00  0.00     0.014 A 
ATOM     34  C   UNL A   1      42.160  21.978  25.392  1.00  0.00     0.014 A 
ATOM     35  C   UNL A   1      42.815  22.522  28.031  1.00  0.00     0.010 A 
ATOM     36  C   UNL A   1      42.722  23.208  25.729  1.00  0.00     0.010 A 
ATOM     37  C   UNL A   1      43.002  23.518  27.061  1.00  0.00    -0.014 A 
BRANCH  37  38
ATOM     38  C   UNL A   1      43.407  24.902  27.427  1.00  0.00     0.031 A 
ATOM     39  C   UNL A   1      44.814  25.379  27.151  1.00  0.00     0.074 A 
ATOM     40  C   UNL A   1      42.527  25.718  28.037  1.00  0.00     0.049 A 
ATOM     41  N   UNL A   1      45.355  26.551  27.371  1.00  0.00    -0.248 NA
ATOM     42  C   UNL A   1      45.752  24.392  26.590  1.00  0.00     0.031 C 
ATOM     43  C   UNL A   1      41.168  25.347  28.431  1.00  0.00     0.029 A 
ATOM     44  N   UNL A   1      42.638  27.031  28.423  1.00  0.00    -0.354 N 
ATOM     45  C   UNL A   1      46.688  26.432  26.991  1.00  0.00     0.074 A 
ATOM     46  C   UNL A   1      46.896  25.055  26.609  1.00  0.00     0.031 C 
ATOM     47  C   UNL A   1      40.550  26.422  28.946  1.00  0.00     0.029 A 
ATOM     48  C   UNL A   1      41.478  27.549  28.945  1.00  0.00     0.049 A 
ATOM     49  H   UNL A   1      43.469  27.551  28.333  1.00  0.00     0.167 HD
ATOM     50  C   UNL A   1      47.644  27.390  26.926  1.00  0.00     0.037 A 
ATOM     51  C   UNL A   1      41.191  28.799  29.353  1.00  0.00     0.037 A 
ATOM     52  C   UNL A   1      47.417  28.767  27.280  1.00  0.00     0.049 A 
ATOM     53  C   UNL A   1      42.253  29.859  29.239  1.00  0.00     0.074 A 
ATOM     54  C   UNL A   1      48.285  29.840  27.195  1.00  0.00     0.029 A 
ATOM     55  N   UNL A   1      46.222  29.257  27.792  1.00  0.00    -0.354 N 
ATOM     56  N   UNL A   1      43.483  29.755  28.796  1.00  0.00    -0.248 NA
ATOM     57  C   UNL A   1      41.881  31.212  29.668  1.00  0.00     0.031 C 
ATOM     58  C   UNL A   1      47.630  30.969  27.700  1.00  0.00     0.029 A 
ATOM     59  C   UNL A   1      46.337  30.614  28.050  1.00  0.00     0.049 A 
ATOM     60  H   UNL A   1      45.413  28.719  27.948  1.00  0.00     0.167 HD
ATOM     61  C   UNL A   1      44.029  31.028  28.879  1.00  0.00     0.074 A 
ATOM     62  C   UNL A   1      42.981  31.894  29.384  1.00  0.00     0.031 C 
ATOM     63  C   UNL A   1      45.282  31.447  28.571  1.00  0.00     0.037 A 
BRANCH  50  64
ATOM     64  C   UNL A   1      49.011  26.975  26.452  1.00  0.00     0.064 A 
ATOM     65  C   UNL A   1      49.396  27.095  25.105  1.00  0.00     0.173 A 
ATOM     66  C   UNL A   1      49.948  26.441  27.349  1.00  0.00     0.173 A 
ATOM     67  F   UNL A   1      48.537  27.588  24.199  1.00  0.00    -0.203 F 
ATOM     68  C   UNL A   1      50.641  26.649  24.668  1.00  0.00     0.198 A 
ATOM     69  C   UNL A   1      51.208  26.029  26.914  1.00  0.00     0.198 A 
ATOM     70  F   UNL A   1      49.642  26.307  28.648  1.00  0.00    -0.203 F 
ATOM     71  F   UNL A   1      50.952  26.704  23.366  1.00  0.00    -0.200 F 
ATOM     72  C   UNL A   1      51.548  26.121  25.573  1.00  0.00     0.200 A 
ATOM     73  F   UNL A   1      52.088  25.531  27.793  1.00  0.00    -0.200 F 
ATOM     74  F   UNL A   1      52.743  25.688  25.151  1.00  0.00    -0.200 F 
ENDBRANCH  50  64
BRANCH  51  75
ATOM     75  C   UNL A   1      39.821  29.124  29.833  1.00  0.00     0.064 A 
ATOM     76  C   UNL A   1      38.825  29.535  28.935  1.00  0.00     0.173 A 
ATOM     77  C   UNL A   1      39.467  28.998  31.184  1.00  0.00     0.173 A 
ATOM     78  F   UNL A   1      39.117  29.688  27.636  1.00  0.00    -0.203 F 
ATOM     79  C   UNL A   1      37.532  29.816  29.371  1.00  0.00     0.198 A 
ATOM     80  C   UNL A   1      38.166  29.252  31.614  1.00  0.00     0.198 A 
ATOM     81  F   UNL A   1      40.379  28.601  32.083  1.00  0.00    -0.203 F 
ATOM     82  F   UNL A   1      36.609  30.238  28.496  1.00  0.00    -0.200 F 
ATOM     83  C   UNL A   1      37.201  29.666  30.709  1.00  0.00     0.200 A 
ATOM     84  F   UNL A   1      37.846  29.088  32.906  1.00  0.00    -0.200 F 
ATOM     85  F   UNL A   1      35.953  29.921  31.125  1.00  0.00    -0.200 F 
ENDBRANCH  51  75
BRANCH  63  86
ATOM     86  C   UNL A   1      45.576  32.905  28.774  1.00  0.00     0.064 A 
ATOM     87  C   UNL A   1      46.113  33.385  29.978  1.00  0.00     0.173 A 
ATOM     88  C   UNL A   1      45.323  33.831  27.750  1.00  0.00     0.173 A 
ATOM     89  F   UNL A   1      46.358  32.540  30.991  1.00  0.00    -0.203 F 
ATOM     90  C   UNL A   1      46.345  34.744  30.166  1.00  0.00     0.198 A 
ATOM     91  C   UNL A   1      45.590  35.185  27.930  1.00  0.00     0.198 A 
ATOM     92  F   UNL A   1      44.820  33.423  26.576  1.00  0.00    -0.203 F 
ATOM     93  F   UNL A   1      46.795  35.187  31.348  1.00  0.00    -0.200 F 
ATOM     94  C   UNL A   1      46.088  35.642  29.141  1.00  0.00     0.200 A 
ATOM     95  F   UNL A   1      45.356  36.050  26.933  1.00  0.00    -0.200 F 
ATOM     96  F   UNL A   1      46.309  36.951  29.325  1.00  0.00    -0.200 F 
ENDBRANCH  63  86
ENDBRANCH  37  38
ENDBRANCH  29  32
ENDBRANCH  27  28
ENDBRANCH  26  27
ENDBRANCH   1  26
TORSDOF 16
ENDMDL
