MODEL 1
REMARK VINA RESULT:     -14.2      0.000      0.000
REMARK SMILES Cc1cc(C)n(C)c(=O)c1C(=O)N1CCC2(CC1)C[NH2+][C@@H](C(=O)NCCCNC(=O)c1ccc(-c3c4nc(c(-c5c(F)c(F)c(F)c(F)c5F)c5ccc([nH]5)c(-c5c(F)c(F)c(F)c(F)c5F)c5nc(c(-c6c(F)c(F)c(F)c(F)c6F)c6ccc3[nH]6)C=C5)C=C4)cc1)C2
REMARK SMILES IDX 26 1 25 2 24 3 22 4 23 5 21 7 11 8 12 9 13 10 14 11 18 12
REMARK SMILES IDX 15 13 17 14 16 15 19 16 94 17 20 18 10 21 1 22 2 23 3 24
REMARK SMILES IDX 4 25 8 26 5 27 6 28 9 29 7 30 27 31 28 32 29 33 30 35 31 36
REMARK SMILES IDX 32 37 93 38 33 39 92 40 34 41 35 42 36 43 86 44 37 45 91 46
REMARK SMILES IDX 85 47 87 48 38 49 90 50 84 51 83 52 39 54 71 55 51 56 70 57
REMARK SMILES IDX 52 58 55 59 69 60 88 61 53 62 54 63 68 65 89 66 56 67 40 68
REMARK SMILES IDX 41 69 49 70 42 71 43 72 47 73 50 74 44 75 45 76 48 77 46 78
REMARK SMILES IDX 72 79 73 80 81 81 74 82 75 83 79 84 82 85 76 86 77 87 80 88
REMARK SMILES IDX 78 89 57 90 58 91 66 92 59 93 60 94 64 95 67 96 61 97 62 98
REMARK SMILES IDX 65 99 63 100
REMARK H PARENT 24 6 20 19 20 20 28 34 87 53 55 64
REMARK Flexibility Score: inf
ROOT
ATOM      1  C   UNL A   1      31.353  32.174  26.779  1.00  0.00     0.042 C 
ENDROOT
BRANCH   1   2
ATOM      2  C   UNL A   1      31.565  31.007  25.826  1.00  0.00     0.118 C 
BRANCH   2   3
ATOM      3  N   UNL A   1      30.455  30.846  24.903  1.00  0.00    -0.351 N 
ATOM      4  C   UNL A   1      30.281  29.966  23.876  1.00  0.00     0.278 C 
ATOM      5  O   UNL A   1      29.224  30.032  23.242  1.00  0.00    -0.268 OA
ATOM      6  H   UNL A   1      29.708  31.474  25.041  1.00  0.00     0.163 HD
BRANCH   4   7
ATOM      7  C   UNL A   1      31.362  28.953  23.485  1.00  0.00     0.273 C 
ATOM      8  C   UNL A   1      33.377  22.950  25.293  1.00  0.00     0.259 C 
ATOM      9  O   UNL A   1      34.477  22.900  25.853  1.00  0.00    -0.269 OA
ATOM     10  N   UNL A   1      32.736  24.176  25.141  1.00  0.00    -0.338 N 
ATOM     11  C   UNL A   1      33.554  25.376  25.238  1.00  0.00     0.120 C 
ATOM     12  C   UNL A   1      31.303  24.435  25.076  1.00  0.00     0.120 C 
ATOM     13  C   UNL A   1      33.396  26.168  23.952  1.00  0.00     0.034 C 
ATOM     14  C   UNL A   1      30.921  25.433  23.965  1.00  0.00     0.034 C 
ATOM     15  C   UNL A   1      31.935  26.586  23.685  1.00  0.00     0.029 C 
ATOM     16  C   UNL A   1      31.846  27.066  22.213  1.00  0.00     0.268 C 
ATOM     17  C   UNL A   1      31.567  27.842  24.509  1.00  0.00     0.088 C 
ATOM     18  N   UNL A   1      31.028  28.265  22.228  1.00  0.00    -0.336 N 
ATOM     19  H   UNL A   1      30.037  28.021  22.208  1.00  0.00     0.346 HD
ATOM     20  H   UNL A   1      31.204  28.855  21.415  1.00  0.00     0.346 HD
BRANCH   8  21
ATOM     21  C   UNL A   1      32.848  21.690  24.658  1.00  0.00     0.108 A 
ATOM     22  C   UNL A   1      32.755  22.578  22.255  1.00  0.00     0.045 C 
ATOM     23  C   UNL A   1      32.633  21.545  23.331  1.00  0.00    -0.031 A 
ATOM     24  C   UNL A   1      32.358  20.240  22.764  1.00  0.00     0.026 A 
ATOM     25  C   UNL A   1      32.528  19.113  23.462  1.00  0.00     0.018 A 
ATOM     26  C   UNL A   1      32.868  20.425  25.499  1.00  0.00     0.263 A 
ATOM     27  C   UNL A   1      32.367  17.796  22.751  1.00  0.00     0.064 C 
ATOM     28  N   UNL A   1      32.835  19.193  24.814  1.00  0.00    -0.315 N 
ATOM     29  O   UNL A   1      32.911  20.488  26.727  1.00  0.00    -0.268 OA
ATOM     30  C   UNL A   1      33.094  17.983  25.585  1.00  0.00     0.153 C 
ENDBRANCH   8  21
ENDBRANCH   4   7
ENDBRANCH   2   3
ENDBRANCH   1   2
BRANCH   1  31
ATOM     31  C   UNL A   1      32.646  32.836  27.224  1.00  0.00     0.118 C 
BRANCH  31  32
ATOM     32  N   UNL A   1      32.449  34.222  27.627  1.00  0.00    -0.352 N 
ATOM     33  C   UNL A   1      33.018  34.931  28.654  1.00  0.00     0.251 C 
ATOM     34  H   UNL A   1      31.808  34.728  27.077  1.00  0.00     0.163 HD
ATOM     35  O   UNL A   1      32.573  36.030  28.960  1.00  0.00    -0.269 OA
BRANCH  33  36
ATOM     36  C   UNL A   1      34.155  34.360  29.406  1.00  0.00     0.039 A 
ATOM     37  C   UNL A   1      33.899  33.692  30.606  1.00  0.00     0.014 A 
ATOM     38  C   UNL A   1      35.466  34.494  28.943  1.00  0.00     0.014 A 
ATOM     39  C   UNL A   1      34.954  33.108  31.309  1.00  0.00     0.010 A 
ATOM     40  C   UNL A   1      36.503  33.837  29.596  1.00  0.00     0.010 A 
ATOM     41  C   UNL A   1      36.259  33.148  30.792  1.00  0.00    -0.014 A 
BRANCH  41  42
ATOM     42  C   UNL A   1      37.384  32.496  31.503  1.00  0.00     0.031 A 
ATOM     43  C   UNL A   1      38.108  31.343  30.865  1.00  0.00     0.074 A 
ATOM     44  C   UNL A   1      37.729  32.916  32.734  1.00  0.00     0.049 A 
ATOM     45  N   UNL A   1      39.089  30.618  31.341  1.00  0.00    -0.248 NA
ATOM     46  C   UNL A   1      37.656  30.935  29.524  1.00  0.00     0.031 C 
ATOM     47  C   UNL A   1      37.079  34.005  33.466  1.00  0.00     0.029 A 
ATOM     48  N   UNL A   1      38.711  32.482  33.589  1.00  0.00    -0.354 N 
ATOM     49  C   UNL A   1      39.369  29.676  30.361  1.00  0.00     0.074 A 
ATOM     50  C   UNL A   1      38.414  29.873  29.294  1.00  0.00     0.031 C 
ATOM     51  C   UNL A   1      37.703  34.176  34.643  1.00  0.00     0.029 A 
ATOM     52  C   UNL A   1      38.767  33.184  34.767  1.00  0.00     0.049 A 
ATOM     53  H   UNL A   1      39.319  31.737  33.376  1.00  0.00     0.167 HD
ATOM     54  C   UNL A   1      40.357  28.751  30.340  1.00  0.00     0.037 A 
ATOM     55  C   UNL A   1      39.585  33.043  35.828  1.00  0.00     0.037 A 
ATOM     56  C   UNL A   1      41.316  28.570  31.397  1.00  0.00     0.049 A 
ATOM     57  C   UNL A   1      40.646  31.977  35.798  1.00  0.00     0.074 A 
ATOM     58  C   UNL A   1      42.378  27.686  31.453  1.00  0.00     0.029 A 
ATOM     59  N   UNL A   1      41.328  29.288  32.585  1.00  0.00    -0.354 N 
ATOM     60  N   UNL A   1      40.939  31.128  34.842  1.00  0.00    -0.248 NA
ATOM     61  C   UNL A   1      41.493  31.850  36.992  1.00  0.00     0.031 C 
ATOM     62  C   UNL A   1      43.000  27.831  32.696  1.00  0.00     0.029 A 
ATOM     63  C   UNL A   1      42.362  28.846  33.392  1.00  0.00     0.049 A 
ATOM     64  H   UNL A   1      40.694  30.005  32.818  1.00  0.00     0.167 HD
ATOM     65  C   UNL A   1      42.015  30.384  35.307  1.00  0.00     0.074 A 
ATOM     66  C   UNL A   1      42.335  30.894  36.624  1.00  0.00     0.031 C 
ATOM     67  C   UNL A   1      42.674  29.368  34.699  1.00  0.00     0.037 A 
BRANCH  54  68
ATOM     68  C   UNL A   1      40.466  27.872  29.127  1.00  0.00     0.064 A 
ATOM     69  C   UNL A   1      39.702  26.702  29.000  1.00  0.00     0.173 A 
ATOM     70  C   UNL A   1      41.293  28.234  28.053  1.00  0.00     0.173 A 
ATOM     71  F   UNL A   1      38.903  26.304  30.004  1.00  0.00    -0.203 F 
ATOM     72  C   UNL A   1      39.776  25.917  27.853  1.00  0.00     0.198 A 
ATOM     73  C   UNL A   1      41.341  27.463  26.895  1.00  0.00     0.198 A 
ATOM     74  F   UNL A   1      42.041  29.346  28.120  1.00  0.00    -0.203 F 
ATOM     75  F   UNL A   1      39.067  24.782  27.773  1.00  0.00    -0.200 F 
ATOM     76  C   UNL A   1      40.587  26.303  26.797  1.00  0.00     0.200 A 
ATOM     77  F   UNL A   1      42.114  27.847  25.868  1.00  0.00    -0.200 F 
ATOM     78  F   UNL A   1      40.644  25.557  25.686  1.00  0.00    -0.200 F 
ENDBRANCH  54  68
BRANCH  55  79
ATOM     79  C   UNL A   1      39.452  33.962  36.990  1.00  0.00     0.064 A 
ATOM     80  C   UNL A   1      38.683  33.600  38.105  1.00  0.00     0.173 A 
ATOM     81  C   UNL A   1      40.103  35.204  37.022  1.00  0.00     0.173 A 
ATOM     82  F   UNL A   1      38.026  32.432  38.113  1.00  0.00    -0.203 F 
ATOM     83  C   UNL A   1      38.563  34.448  39.203  1.00  0.00     0.198 A 
ATOM     84  C   UNL A   1      40.007  36.039  38.134  1.00  0.00     0.198 A 
ATOM     85  F   UNL A   1      40.855  35.596  35.983  1.00  0.00    -0.203 F 
ATOM     86  F   UNL A   1      37.795  34.091  40.241  1.00  0.00    -0.200 F 
ATOM     87  C   UNL A   1      39.233  35.663  39.221  1.00  0.00     0.200 A 
ATOM     88  F   UNL A   1      40.669  37.203  38.155  1.00  0.00    -0.200 F 
ATOM     89  F   UNL A   1      39.129  36.471  40.285  1.00  0.00    -0.200 F 
ENDBRANCH  55  79
BRANCH  67  90
ATOM     90  C   UNL A   1      43.823  28.742  35.434  1.00  0.00     0.064 A 
ATOM     91  C   UNL A   1      45.138  29.195  35.262  1.00  0.00     0.173 A 
ATOM     92  C   UNL A   1      43.595  27.734  36.385  1.00  0.00     0.173 A 
ATOM     93  F   UNL A   1      45.410  30.148  34.357  1.00  0.00    -0.203 F 
ATOM     94  C   UNL A   1      46.185  28.654  36.003  1.00  0.00     0.198 A 
ATOM     95  C   UNL A   1      44.638  27.219  37.148  1.00  0.00     0.198 A 
ATOM     96  F   UNL A   1      42.354  27.271  36.596  1.00  0.00    -0.203 F 
ATOM     97  F   UNL A   1      47.439  29.079  35.796  1.00  0.00    -0.200 F 
ATOM     98  C   UNL A   1      45.934  27.676  36.954  1.00  0.00     0.200 A 
ATOM     99  F   UNL A   1      44.390  26.287  38.079  1.00  0.00    -0.200 F 
ATOM    100  F   UNL A   1      46.939  27.173  37.682  1.00  0.00    -0.200 F 
ENDBRANCH  67  90
ENDBRANCH  41  42
ENDBRANCH  33  36
ENDBRANCH  31  32
ENDBRANCH   1  31
TORSDOF 11
ENDMDL
MODEL 2
REMARK VINA RESULT:     -14.2      5.376     11.320
REMARK SMILES Cc1cc(C)n(C)c(=O)c1C(=O)N1CCC2(CC1)C[NH2+][C@@H](C(=O)NCCCNC(=O)c1ccc(-c3c4nc(c(-c5c(F)c(F)c(F)c(F)c5F)c5ccc([nH]5)c(-c5c(F)c(F)c(F)c(F)c5F)c5nc(c(-c6c(F)c(F)c(F)c(F)c6F)c6ccc3[nH]6)C=C5)C=C4)cc1)C2
REMARK SMILES IDX 26 1 25 2 24 3 22 4 23 5 21 7 11 8 12 9 13 10 14 11 18 12
REMARK SMILES IDX 15 13 17 14 16 15 19 16 94 17 20 18 10 21 1 22 2 23 3 24
REMARK SMILES IDX 4 25 8 26 5 27 6 28 9 29 7 30 27 31 28 32 29 33 30 35 31 36
REMARK SMILES IDX 32 37 93 38 33 39 92 40 34 41 35 42 36 43 86 44 37 45 91 46
REMARK SMILES IDX 85 47 87 48 38 49 90 50 84 51 83 52 39 54 71 55 51 56 70 57
REMARK SMILES IDX 52 58 55 59 69 60 88 61 53 62 54 63 68 65 89 66 56 67 40 68
REMARK SMILES IDX 41 69 49 70 42 71 43 72 47 73 50 74 44 75 45 76 48 77 46 78
REMARK SMILES IDX 72 79 73 80 81 81 74 82 75 83 79 84 82 85 76 86 77 87 80 88
REMARK SMILES IDX 78 89 57 90 58 91 66 92 59 93 60 94 64 95 67 96 61 97 62 98
REMARK SMILES IDX 65 99 63 100
REMARK H PARENT 24 6 20 19 20 20 28 34 87 53 55 64
REMARK Flexibility Score: inf
ROOT
ATOM      1  C   UNL A   1      38.169  19.528  24.807  1.00  0.00     0.042 C 
ENDROOT
BRANCH   1   2
ATOM      2  C   UNL A   1      36.812  20.181  25.018  1.00  0.00     0.118 C 
BRANCH   2   3
ATOM      3  N   UNL A   1      35.718  19.308  24.626  1.00  0.00    -0.351 N 
ATOM      4  C   UNL A   1      34.370  19.464  24.764  1.00  0.00     0.278 C 
ATOM      5  O   UNL A   1      33.644  18.565  24.329  1.00  0.00    -0.268 OA
ATOM      6  H   UNL A   1      35.995  18.469  24.191  1.00  0.00     0.163 HD
BRANCH   4   7
ATOM      7  C   UNL A   1      33.764  20.684  25.465  1.00  0.00     0.273 C 
ATOM      8  C   UNL A   1      32.279  26.943  24.059  1.00  0.00     0.259 C 
ATOM      9  O   UNL A   1      32.968  27.798  24.625  1.00  0.00    -0.269 OA
ATOM     10  N   UNL A   1      32.693  25.615  24.055  1.00  0.00    -0.338 N 
ATOM     11  C   UNL A   1      33.659  25.212  25.067  1.00  0.00     0.120 C 
ATOM     12  C   UNL A   1      32.426  24.597  23.048  1.00  0.00     0.120 C 
ATOM     13  C   UNL A   1      33.063  24.069  25.868  1.00  0.00     0.034 C 
ATOM     14  C   UNL A   1      32.026  23.238  23.656  1.00  0.00     0.034 C 
ATOM     15  C   UNL A   1      32.720  22.844  24.997  1.00  0.00     0.029 C 
ATOM     16  C   UNL A   1      31.819  21.905  25.840  1.00  0.00     0.268 C 
ATOM     17  C   UNL A   1      33.986  21.997  24.723  1.00  0.00     0.088 C 
ATOM     18  N   UNL A   1      32.304  20.558  25.602  1.00  0.00    -0.336 N 
ATOM     19  H   UNL A   1      31.898  20.179  24.746  1.00  0.00     0.346 HD
ATOM     20  H   UNL A   1      32.048  19.923  26.358  1.00  0.00     0.346 HD
BRANCH   8  21
ATOM     21  C   UNL A   1      30.931  27.360  23.529  1.00  0.00     0.108 A 
ATOM     22  C   UNL A   1      29.528  25.828  25.032  1.00  0.00     0.045 C 
ATOM     23  C   UNL A   1      29.754  26.892  24.004  1.00  0.00    -0.031 A 
ATOM     24  C   UNL A   1      28.502  27.510  23.618  1.00  0.00     0.026 A 
ATOM     25  C   UNL A   1      28.457  28.684  22.979  1.00  0.00     0.018 A 
ATOM     26  C   UNL A   1      30.880  28.597  22.650  1.00  0.00     0.263 A 
ATOM     27  C   UNL A   1      27.116  29.328  22.751  1.00  0.00     0.064 C 
ATOM     28  N   UNL A   1      29.641  29.261  22.539  1.00  0.00    -0.315 N 
ATOM     29  O   UNL A   1      31.887  28.993  22.064  1.00  0.00    -0.268 OA
ATOM     30  C   UNL A   1      29.631  30.572  21.901  1.00  0.00     0.153 C 
ENDBRANCH   8  21
ENDBRANCH   4   7
ENDBRANCH   2   3
ENDBRANCH   1   2
BRANCH   1  31
ATOM     31  C   UNL A   1      39.224  19.988  25.799  1.00  0.00     0.118 C 
BRANCH  31  32
ATOM     32  N   UNL A   1      40.299  19.018  25.956  1.00  0.00    -0.352 N 
ATOM     33  C   UNL A   1      41.646  19.215  26.126  1.00  0.00     0.251 C 
ATOM     34  H   UNL A   1      40.015  18.076  25.934  1.00  0.00     0.163 HD
ATOM     35  O   UNL A   1      42.420  18.270  26.035  1.00  0.00    -0.269 OA
BRANCH  33  36
ATOM     36  C   UNL A   1      42.167  20.570  26.400  1.00  0.00     0.039 A 
ATOM     37  C   UNL A   1      42.564  21.368  25.325  1.00  0.00     0.014 A 
ATOM     38  C   UNL A   1      42.278  21.049  27.709  1.00  0.00     0.014 A 
ATOM     39  C   UNL A   1      43.018  22.667  25.560  1.00  0.00     0.010 A 
ATOM     40  C   UNL A   1      42.645  22.371  27.934  1.00  0.00     0.010 A 
ATOM     41  C   UNL A   1      43.030  23.189  26.863  1.00  0.00    -0.014 A 
BRANCH  41  42
ATOM     42  C   UNL A   1      43.467  24.581  27.125  1.00  0.00     0.031 A 
ATOM     43  C   UNL A   1      42.491  25.583  27.675  1.00  0.00     0.074 A 
ATOM     44  C   UNL A   1      44.729  24.950  26.835  1.00  0.00     0.049 A 
ATOM     45  N   UNL A   1      42.670  26.854  27.936  1.00  0.00    -0.248 NA
ATOM     46  C   UNL A   1      41.127  25.101  27.948  1.00  0.00     0.031 C 
ATOM     47  C   UNL A   1      45.756  24.072  26.270  1.00  0.00     0.029 A 
ATOM     48  N   UNL A   1      45.366  26.157  26.977  1.00  0.00    -0.354 N 
ATOM     49  C   UNL A   1      41.448  27.317  28.401  1.00  0.00     0.074 A 
ATOM     50  C   UNL A   1      40.516  26.214  28.325  1.00  0.00     0.031 C 
ATOM     51  C   UNL A   1      46.901  24.761  26.146  1.00  0.00     0.029 A 
ATOM     52  C   UNL A   1      46.681  26.137  26.583  1.00  0.00     0.049 A 
ATOM     53  H   UNL A   1      44.921  26.963  27.328  1.00  0.00     0.167 HD
ATOM     54  C   UNL A   1      41.140  28.544  28.881  1.00  0.00     0.037 A 
ATOM     55  C   UNL A   1      47.604  27.118  26.575  1.00  0.00     0.037 A 
ATOM     56  C   UNL A   1      42.075  29.634  28.971  1.00  0.00     0.049 A 
ATOM     57  C   UNL A   1      47.223  28.486  27.072  1.00  0.00     0.074 A 
ATOM     58  C   UNL A   1      41.870  30.904  29.479  1.00  0.00     0.029 A 
ATOM     59  N   UNL A   1      43.394  29.580  28.543  1.00  0.00    -0.354 N 
ATOM     60  N   UNL A   1      46.079  28.898  27.563  1.00  0.00    -0.248 NA
ATOM     61  C   UNL A   1      48.261  29.525  27.016  1.00  0.00     0.031 C 
ATOM     62  C   UNL A   1      43.049  31.636  29.308  1.00  0.00     0.029 A 
ATOM     63  C   UNL A   1      44.007  30.805  28.749  1.00  0.00     0.049 A 
ATOM     64  H   UNL A   1      43.830  28.788  28.151  1.00  0.00     0.167 HD
ATOM     65  C   UNL A   1      46.265  30.233  27.897  1.00  0.00     0.074 A 
ATOM     66  C   UNL A   1      47.638  30.557  27.568  1.00  0.00     0.031 C 
ATOM     67  C   UNL A   1      45.377  31.111  28.423  1.00  0.00     0.037 A 
BRANCH  54  68
ATOM     68  C   UNL A   1      39.738  28.774  29.366  1.00  0.00     0.064 A 
ATOM     69  C   UNL A   1      39.372  28.522  30.697  1.00  0.00     0.173 A 
ATOM     70  C   UNL A   1      38.764  29.312  28.510  1.00  0.00     0.173 A 
ATOM     71  F   UNL A   1      40.261  27.996  31.553  1.00  0.00    -0.203 F 
ATOM     72  C   UNL A   1      38.081  28.780  31.148  1.00  0.00     0.198 A 
ATOM     73  C   UNL A   1      37.483  29.599  28.973  1.00  0.00     0.198 A 
ATOM     74  F   UNL A   1      39.062  29.577  27.229  1.00  0.00    -0.203 F 
ATOM     75  F   UNL A   1      37.744  28.492  32.413  1.00  0.00    -0.200 F 
ATOM     76  C   UNL A   1      37.140  29.328  30.289  1.00  0.00     0.200 A 
ATOM     77  F   UNL A   1      36.579  30.143  28.145  1.00  0.00    -0.200 F 
ATOM     78  F   UNL A   1      35.903  29.593  30.729  1.00  0.00    -0.200 F 
ENDBRANCH  54  68
BRANCH  55  79
ATOM     79  C   UNL A   1      48.987  26.825  26.113  1.00  0.00     0.064 A 
ATOM     80  C   UNL A   1      49.946  26.318  27.001  1.00  0.00     0.173 A 
ATOM     81  C   UNL A   1      49.373  27.022  24.779  1.00  0.00     0.173 A 
ATOM     82  F   UNL A   1      49.632  26.131  28.291  1.00  0.00    -0.203 F 
ATOM     83  C   UNL A   1      51.240  26.029  26.575  1.00  0.00     0.198 A 
ATOM     84  C   UNL A   1      50.659  26.703  24.347  1.00  0.00     0.198 A 
ATOM     85  F   UNL A   1      48.492  27.500  23.888  1.00  0.00    -0.203 F 
ATOM     86  F   UNL A   1      52.146  25.576  27.452  1.00  0.00    -0.200 F 
ATOM     87  C   UNL A   1      51.593  26.212  25.246  1.00  0.00     0.200 A 
ATOM     88  F   UNL A   1      50.991  26.866  23.059  1.00  0.00    -0.200 F 
ATOM     89  F   UNL A   1      52.834  25.919  24.834  1.00  0.00    -0.200 F 
ENDBRANCH  55  79
BRANCH  67  90
ATOM     90  C   UNL A   1      45.855  32.507  28.698  1.00  0.00     0.064 A 
ATOM     91  C   UNL A   1      45.705  33.533  27.755  1.00  0.00     0.173 A 
ATOM     92  C   UNL A   1      46.391  32.841  29.952  1.00  0.00     0.173 A 
ATOM     93  F   UNL A   1      45.209  33.263  26.538  1.00  0.00    -0.203 F 
ATOM     94  C   UNL A   1      46.086  34.839  28.050  1.00  0.00     0.198 A 
ATOM     95  C   UNL A   1      46.740  34.153  30.256  1.00  0.00     0.198 A 
ATOM     96  F   UNL A   1      46.546  31.899  30.894  1.00  0.00    -0.203 F 
ATOM     97  F   UNL A   1      45.965  35.797  27.120  1.00  0.00    -0.200 F 
ATOM     98  C   UNL A   1      46.592  35.151  29.304  1.00  0.00     0.200 A 
ATOM     99  F   UNL A   1      47.210  34.456  31.475  1.00  0.00    -0.200 F 
ATOM    100  F   UNL A   1      46.937  36.412  29.593  1.00  0.00    -0.200 F 
ENDBRANCH  67  90
ENDBRANCH  41  42
ENDBRANCH  33  36
ENDBRANCH  31  32
ENDBRANCH   1  31
TORSDOF 11
ENDMDL
MODEL 3
REMARK VINA RESULT:     -14.2      0.731      7.150
REMARK SMILES Cc1cc(C)n(C)c(=O)c1C(=O)N1CCC2(CC1)C[NH2+][C@@H](C(=O)NCCCNC(=O)c1ccc(-c3c4nc(c(-c5c(F)c(F)c(F)c(F)c5F)c5ccc([nH]5)c(-c5c(F)c(F)c(F)c(F)c5F)c5nc(c(-c6c(F)c(F)c(F)c(F)c6F)c6ccc3[nH]6)C=C5)C=C4)cc1)C2
REMARK SMILES IDX 26 1 25 2 24 3 22 4 23 5 21 7 11 8 12 9 13 10 14 11 18 12
REMARK SMILES IDX 15 13 17 14 16 15 19 16 94 17 20 18 10 21 1 22 2 23 3 24
REMARK SMILES IDX 4 25 8 26 5 27 6 28 9 29 7 30 27 31 28 32 29 33 30 35 31 36
REMARK SMILES IDX 32 37 93 38 33 39 92 40 34 41 35 42 36 43 86 44 37 45 91 46
REMARK SMILES IDX 85 47 87 48 38 49 90 50 84 51 83 52 39 54 71 55 51 56 70 57
REMARK SMILES IDX 52 58 55 59 69 60 88 61 53 62 54 63 68 65 89 66 56 67 40 68
REMARK SMILES IDX 41 69 49 70 42 71 43 72 47 73 50 74 44 75 45 76 48 77 46 78
REMARK SMILES IDX 72 79 73 80 81 81 74 82 75 83 79 84 82 85 76 86 77 87 80 88
REMARK SMILES IDX 78 89 57 90 58 91 66 92 59 93 60 94 64 95 67 96 61 97 62 98
REMARK SMILES IDX 65 99 63 100
REMARK H PARENT 24 6 20 19 20 20 28 34 87 53 55 64
REMARK Flexibility Score: inf
ROOT
ATOM      1  C   UNL A   1      31.244  32.288  26.589  1.00  0.00     0.042 C 
ENDROOT
BRANCH   1   2
ATOM      2  C   UNL A   1      31.412  31.036  25.742  1.00  0.00     0.118 C 
BRANCH   2   3
ATOM      3  N   UNL A   1      30.297  30.839  24.830  1.00  0.00    -0.351 N 
ATOM      4  C   UNL A   1      30.131  29.939  23.820  1.00  0.00     0.278 C 
ATOM      5  O   UNL A   1      29.068  29.974  23.193  1.00  0.00    -0.268 OA
ATOM      6  H   UNL A   1      29.540  31.455  24.964  1.00  0.00     0.163 HD
BRANCH   4   7
ATOM      7  C   UNL A   1      31.228  28.939  23.436  1.00  0.00     0.273 C 
ATOM      8  C   UNL A   1      33.319  22.972  25.274  1.00  0.00     0.259 C 
ATOM      9  O   UNL A   1      34.417  22.939  25.838  1.00  0.00    -0.269 OA
ATOM     10  N   UNL A   1      32.661  24.188  25.114  1.00  0.00    -0.338 N 
ATOM     11  C   UNL A   1      33.463  25.399  25.210  1.00  0.00     0.120 C 
ATOM     12  C   UNL A   1      31.226  24.427  25.043  1.00  0.00     0.120 C 
ATOM     13  C   UNL A   1      33.298  26.184  23.921  1.00  0.00     0.034 C 
ATOM     14  C   UNL A   1      30.834  25.416  23.927  1.00  0.00     0.034 C 
ATOM     15  C   UNL A   1      31.833  26.581  23.647  1.00  0.00     0.029 C 
ATOM     16  C   UNL A   1      31.743  27.055  22.173  1.00  0.00     0.268 C 
ATOM     17  C   UNL A   1      31.445  27.835  24.465  1.00  0.00     0.088 C 
ATOM     18  N   UNL A   1      30.908  28.243  22.181  1.00  0.00    -0.336 N 
ATOM     19  H   UNL A   1      29.921  27.984  22.158  1.00  0.00     0.346 HD
ATOM     20  H   UNL A   1      31.080  28.832  21.366  1.00  0.00     0.346 HD
BRANCH   8  21
ATOM     21  C   UNL A   1      32.810  21.702  24.641  1.00  0.00     0.108 A 
ATOM     22  C   UNL A   1      32.693  22.587  22.237  1.00  0.00     0.045 C 
ATOM     23  C   UNL A   1      32.593  21.552  23.314  1.00  0.00    -0.031 A 
ATOM     24  C   UNL A   1      32.339  20.243  22.749  1.00  0.00     0.026 A 
ATOM     25  C   UNL A   1      32.531  19.119  23.447  1.00  0.00     0.018 A 
ATOM     26  C   UNL A   1      32.855  20.438  25.482  1.00  0.00     0.263 A 
ATOM     27  C   UNL A   1      32.390  17.799  22.737  1.00  0.00     0.064 C 
ATOM     28  N   UNL A   1      32.842  19.206  24.798  1.00  0.00    -0.315 N 
ATOM     29  O   UNL A   1      32.901  20.502  26.710  1.00  0.00    -0.268 OA
ATOM     30  C   UNL A   1      33.125  18.000  25.569  1.00  0.00     0.153 C 
ENDBRANCH   8  21
ENDBRANCH   4   7
ENDBRANCH   2   3
ENDBRANCH   1   2
BRANCH   1  31
ATOM     31  C   UNL A   1      32.549  32.807  27.169  1.00  0.00     0.118 C 
BRANCH  31  32
ATOM     32  N   UNL A   1      32.442  34.184  27.631  1.00  0.00    -0.352 N 
ATOM     33  C   UNL A   1      33.110  34.829  28.641  1.00  0.00     0.251 C 
ATOM     34  H   UNL A   1      31.788  34.736  27.145  1.00  0.00     0.163 HD
ATOM     35  O   UNL A   1      32.737  35.934  29.015  1.00  0.00    -0.269 OA
BRANCH  33  36
ATOM     36  C   UNL A   1      34.268  34.183  29.293  1.00  0.00     0.039 A 
ATOM     37  C   UNL A   1      34.035  33.226  30.283  1.00  0.00     0.014 A 
ATOM     38  C   UNL A   1      35.577  34.527  28.944  1.00  0.00     0.014 A 
ATOM     39  C   UNL A   1      35.114  32.573  30.880  1.00  0.00     0.010 A 
ATOM     40  C   UNL A   1      36.646  33.814  29.473  1.00  0.00     0.010 A 
ATOM     41  C   UNL A   1      36.426  32.839  30.456  1.00  0.00    -0.014 A 
BRANCH  41  42
ATOM     42  C   UNL A   1      37.581  32.123  31.048  1.00  0.00     0.031 A 
ATOM     43  C   UNL A   1      38.062  32.485  32.426  1.00  0.00     0.074 A 
ATOM     44  C   UNL A   1      38.217  31.176  30.334  1.00  0.00     0.049 A 
ATOM     45  N   UNL A   1      39.075  32.003  33.101  1.00  0.00    -0.248 NA
ATOM     46  C   UNL A   1      37.321  33.544  33.131  1.00  0.00     0.031 C 
ATOM     47  C   UNL A   1      37.860  30.761  28.976  1.00  0.00     0.029 A 
ATOM     48  N   UNL A   1      39.296  30.388  30.648  1.00  0.00    -0.354 N 
ATOM     49  C   UNL A   1      39.090  32.697  34.302  1.00  0.00     0.074 A 
ATOM     50  C   UNL A   1      38.031  33.679  34.241  1.00  0.00     0.031 C 
ATOM     51  C   UNL A   1      38.681  29.772  28.589  1.00  0.00     0.029 A 
ATOM     52  C   UNL A   1      39.647  29.511  29.652  1.00  0.00     0.049 A 
ATOM     53  H   UNL A   1      39.772  30.445  31.509  1.00  0.00     0.167 HD
ATOM     54  C   UNL A   1      39.894  32.507  35.374  1.00  0.00     0.037 A 
ATOM     55  C   UNL A   1      40.638  28.600  29.602  1.00  0.00     0.037 A 
ATOM     56  C   UNL A   1      40.936  31.517  35.437  1.00  0.00     0.049 A 
ATOM     57  C   UNL A   1      41.547  28.441  30.791  1.00  0.00     0.074 A 
ATOM     58  C   UNL A   1      41.779  31.221  36.492  1.00  0.00     0.029 A 
ATOM     59  N   UNL A   1      41.275  30.660  34.399  1.00  0.00    -0.354 N 
ATOM     60  N   UNL A   1      41.517  29.063  31.944  1.00  0.00    -0.248 NA
ATOM     61  C   UNL A   1      42.628  27.451  30.672  1.00  0.00     0.031 C 
ATOM     62  C   UNL A   1      42.665  30.223  36.075  1.00  0.00     0.029 A 
ATOM     63  C   UNL A   1      42.336  29.855  34.780  1.00  0.00     0.049 A 
ATOM     64  H   UNL A   1      40.828  30.630  33.521  1.00  0.00     0.167 HD
ATOM     65  C   UNL A   1      42.553  28.526  32.696  1.00  0.00     0.074 A 
ATOM     66  C   UNL A   1      43.183  27.515  31.874  1.00  0.00     0.031 C 
ATOM     67  C   UNL A   1      42.949  28.847  33.952  1.00  0.00     0.037 A 
BRANCH  54  68
ATOM     68  C   UNL A   1      39.670  33.376  36.578  1.00  0.00     0.064 A 
ATOM     69  C   UNL A   1      40.306  34.620  36.712  1.00  0.00     0.173 A 
ATOM     70  C   UNL A   1      38.765  32.993  37.579  1.00  0.00     0.173 A 
ATOM     71  F   UNL A   1      41.191  35.029  35.789  1.00  0.00    -0.203 F 
ATOM     72  C   UNL A   1      40.058  35.439  37.810  1.00  0.00     0.198 A 
ATOM     73  C   UNL A   1      38.496  33.828  38.660  1.00  0.00     0.198 A 
ATOM     74  F   UNL A   1      38.126  31.815  37.499  1.00  0.00    -0.203 F 
ATOM     75  F   UNL A   1      40.708  36.604  37.935  1.00  0.00    -0.200 F 
ATOM     76  C   UNL A   1      39.146  35.047  38.778  1.00  0.00     0.200 A 
ATOM     77  F   UNL A   1      37.601  33.455  39.587  1.00  0.00    -0.200 F 
ATOM     78  F   UNL A   1      38.895  35.844  39.825  1.00  0.00    -0.200 F 
ENDBRANCH  54  68
BRANCH  55  79
ATOM     79  C   UNL A   1      40.794  27.745  28.395  1.00  0.00     0.064 A 
ATOM     80  C   UNL A   1      40.136  26.510  28.303  1.00  0.00     0.173 A 
ATOM     81  C   UNL A   1      41.579  28.149  27.305  1.00  0.00     0.173 A 
ATOM     82  F   UNL A   1      39.390  26.071  29.326  1.00  0.00    -0.203 F 
ATOM     83  C   UNL A   1      40.265  25.709  27.171  1.00  0.00     0.198 A 
ATOM     84  C   UNL A   1      41.683  27.360  26.161  1.00  0.00     0.198 A 
ATOM     85  F   UNL A   1      42.225  29.323  27.341  1.00  0.00    -0.203 F 
ATOM     86  F   UNL A   1      39.652  24.519  27.122  1.00  0.00    -0.200 F 
ATOM     87  C   UNL A   1      41.031  26.138  26.097  1.00  0.00     0.200 A 
ATOM     88  F   UNL A   1      42.410  27.786  25.120  1.00  0.00    -0.200 F 
ATOM     89  F   UNL A   1      41.141  25.373  25.002  1.00  0.00    -0.200 F 
ENDBRANCH  55  79
BRANCH  67  90
ATOM     90  C   UNL A   1      44.107  28.090  34.534  1.00  0.00     0.064 A 
ATOM     91  C   UNL A   1      45.415  28.588  34.469  1.00  0.00     0.173 A 
ATOM     92  C   UNL A   1      43.893  26.894  35.239  1.00  0.00     0.173 A 
ATOM     93  F   UNL A   1      45.674  29.720  33.797  1.00  0.00    -0.203 F 
ATOM     94  C   UNL A   1      46.470  27.912  35.076  1.00  0.00     0.198 A 
ATOM     95  C   UNL A   1      44.944  26.239  35.872  1.00  0.00     0.198 A 
ATOM     96  F   UNL A   1      42.659  26.379  35.339  1.00  0.00    -0.203 F 
ATOM     97  F   UNL A   1      47.718  28.389  34.971  1.00  0.00    -0.200 F 
ATOM     98  C   UNL A   1      46.233  26.745  35.787  1.00  0.00     0.200 A 
ATOM     99  F   UNL A   1      44.709  25.121  36.575  1.00  0.00    -0.200 F 
ATOM    100  F   UNL A   1      47.246  26.108  36.389  1.00  0.00    -0.200 F 
ENDBRANCH  67  90
ENDBRANCH  41  42
ENDBRANCH  33  36
ENDBRANCH  31  32
ENDBRANCH   1  31
TORSDOF 11
ENDMDL
