MODEL 1
REMARK VINA RESULT:     -11.7      0.000      0.000
REMARK SMILES O=C(CCC(=O)Nc1ccc2nc(-c3ccccc3)oc2c1)NCCCNC(=O)c1ccc(-c2c3nc(c(-c4c(F)c(F)c(F)c(F)c4F)c4ccc([nH]4)c(-c4c(F)c(F)c(F)c(F)c4F)c4nc(c(-c5c(F)c(F)c(F)c(F)c5F)c5ccc2[nH]5)C=C4)C=C3)cc1
REMARK SMILES IDX 24 1 23 2 1 3 2 4 3 6 4 7 5 8 6 9 7 10 8 12 9 13 22 14 10 15
REMARK SMILES IDX 21 16 11 17 20 18 12 19 13 20 14 21 15 22 19 23 16 24 18 25
REMARK SMILES IDX 17 26 25 27 26 28 27 29 28 30 29 32 30 33 31 34 92 35 32 36
REMARK SMILES IDX 91 37 33 38 34 39 35 40 85 41 36 42 90 43 84 44 86 45 37 46
REMARK SMILES IDX 89 47 83 48 82 49 38 51 70 52 50 53 69 54 51 55 54 56 68 57
REMARK SMILES IDX 87 58 52 59 53 60 67 62 88 63 55 64 39 65 40 66 48 67 41 68
REMARK SMILES IDX 42 69 46 70 49 71 43 72 44 73 47 74 45 75 71 76 72 77 80 78
REMARK SMILES IDX 73 79 74 80 78 81 81 82 75 83 76 84 79 85 77 86 56 87 57 88
REMARK SMILES IDX 65 89 58 90 59 91 63 92 66 93 60 94 61 95 64 96 62 97
REMARK H PARENT 23 5 7 11 27 31 86 50 54 61
REMARK Flexibility Score: inf
ROOT
ATOM      1  C   UNL A   1      41.697  20.394  27.958  1.00  0.00     0.117 C 
ENDROOT
BRANCH   1   2
ATOM      2  N   UNL A   1      42.522  19.331  27.416  1.00  0.00    -0.356 N 
ATOM      3  O   UNL A   1      41.493  19.216  25.362  1.00  0.00    -0.275 OA
ATOM      4  C   UNL A   1      42.412  18.907  26.111  1.00  0.00     0.220 C 
ATOM      5  H   UNL A   1      43.183  18.897  28.003  1.00  0.00     0.163 HD
BRANCH   4   6
ATOM      6  C   UNL A   1      43.591  18.090  25.633  1.00  0.00     0.110 C 
BRANCH   6   7
ATOM      7  C   UNL A   1      44.813  18.945  25.296  1.00  0.00     0.110 C 
BRANCH   7   8
ATOM      8  C   UNL A   1      44.785  19.496  23.891  1.00  0.00     0.224 C 
ATOM      9  O   UNL A   1      44.779  18.698  22.943  1.00  0.00    -0.275 OA
ATOM     10  N   UNL A   1      44.821  20.819  23.566  1.00  0.00    -0.326 N 
ATOM     11  H   UNL A   1      44.586  20.978  22.623  1.00  0.00     0.169 HD
BRANCH  10  12
ATOM     12  C   UNL A   1      45.114  22.015  24.255  1.00  0.00     0.045 A 
ATOM     13  C   UNL A   1      46.359  22.334  24.808  1.00  0.00     0.028 A 
ATOM     14  C   UNL A   1      44.088  22.988  24.259  1.00  0.00     0.075 A 
ATOM     15  C   UNL A   1      46.679  23.632  25.235  1.00  0.00     0.034 A 
ATOM     16  C   UNL A   1      44.432  24.259  24.719  1.00  0.00     0.157 A 
ATOM     17  C   UNL A   1      45.696  24.611  25.157  1.00  0.00     0.110 A 
ATOM     18  O   UNL A   1      43.637  25.369  24.822  1.00  0.00    -0.436 OA
ATOM     19  N   UNL A   1      45.742  25.936  25.463  1.00  0.00    -0.209 NA
ATOM     20  C   UNL A   1      44.495  26.331  25.300  1.00  0.00     0.227 A 
BRANCH  20  21
ATOM     21  C   UNL A   1      43.926  27.603  25.705  1.00  0.00     0.037 A 
ATOM     22  C   UNL A   1      44.603  28.421  26.619  1.00  0.00     0.014 A 
ATOM     23  C   UNL A   1      42.617  27.928  25.330  1.00  0.00     0.014 A 
ATOM     24  C   UNL A   1      43.969  29.537  27.167  1.00  0.00     0.001 A 
ATOM     25  C   UNL A   1      41.978  29.033  25.894  1.00  0.00     0.001 A 
ATOM     26  C   UNL A   1      42.653  29.832  26.816  1.00  0.00     0.000 A 
ENDBRANCH  20  21
ENDBRANCH  10  12
ENDBRANCH   7   8
ENDBRANCH   6   7
ENDBRANCH   4   6
ENDBRANCH   1   2
BRANCH   1  27
ATOM     27  C   UNL A   1      42.263  21.782  27.741  1.00  0.00     0.042 C 
BRANCH  27  28
ATOM     28  C   UNL A   1      41.705  22.511  26.530  1.00  0.00     0.118 C 
BRANCH  28  29
ATOM     29  N   UNL A   1      40.374  22.085  26.103  1.00  0.00    -0.352 N 
ATOM     30  C   UNL A   1      39.191  22.790  26.189  1.00  0.00     0.251 C 
ATOM     31  H   UNL A   1      40.315  21.185  25.707  1.00  0.00     0.163 HD
ATOM     32  O   UNL A   1      38.132  22.296  25.818  1.00  0.00    -0.269 OA
BRANCH  30  33
ATOM     33  C   UNL A   1      39.215  24.134  26.805  1.00  0.00     0.039 A 
ATOM     34  C   UNL A   1      38.813  24.280  28.134  1.00  0.00     0.014 A 
ATOM     35  C   UNL A   1      39.786  25.205  26.116  1.00  0.00     0.014 A 
ATOM     36  C   UNL A   1      39.108  25.464  28.815  1.00  0.00     0.010 A 
ATOM     37  C   UNL A   1      40.170  26.336  26.822  1.00  0.00     0.010 A 
ATOM     38  C   UNL A   1      39.858  26.471  28.186  1.00  0.00    -0.014 A 
BRANCH  38  39
ATOM     39  C   UNL A   1      40.364  27.664  28.916  1.00  0.00     0.031 A 
ATOM     40  C   UNL A   1      41.758  27.652  29.477  1.00  0.00     0.074 A 
ATOM     41  C   UNL A   1      39.538  28.694  29.193  1.00  0.00     0.049 A 
ATOM     42  N   UNL A   1      42.318  28.469  30.332  1.00  0.00    -0.248 NA
ATOM     43  C   UNL A   1      42.623  26.537  29.056  1.00  0.00     0.031 C 
ATOM     44  C   UNL A   1      38.146  28.812  28.756  1.00  0.00     0.029 A 
ATOM     45  N   UNL A   1      39.745  29.829  29.938  1.00  0.00    -0.354 N 
ATOM     46  C   UNL A   1      43.575  27.938  30.589  1.00  0.00     0.074 A 
ATOM     47  C   UNL A   1      43.682  26.711  29.831  1.00  0.00     0.031 C 
ATOM     48  C   UNL A   1      37.631  29.962  29.222  1.00  0.00     0.029 A 
ATOM     49  C   UNL A   1      38.638  30.639  30.032  1.00  0.00     0.049 A 
ATOM     50  H   UNL A   1      40.606  30.044  30.364  1.00  0.00     0.167 HD
ATOM     51  C   UNL A   1      44.559  28.439  31.373  1.00  0.00     0.037 A 
ATOM     52  C   UNL A   1      38.451  31.788  30.711  1.00  0.00     0.037 A 
ATOM     53  C   UNL A   1      44.477  29.693  32.071  1.00  0.00     0.049 A 
ATOM     54  C   UNL A   1      39.577  32.350  31.535  1.00  0.00     0.074 A 
ATOM     55  C   UNL A   1      45.445  30.321  32.834  1.00  0.00     0.029 A 
ATOM     56  N   UNL A   1      43.362  30.518  32.079  1.00  0.00    -0.354 N 
ATOM     57  N   UNL A   1      40.775  31.860  31.740  1.00  0.00    -0.248 NA
ATOM     58  C   UNL A   1      39.326  33.627  32.220  1.00  0.00     0.031 C 
ATOM     59  C   UNL A   1      44.910  31.518  33.322  1.00  0.00     0.029 A 
ATOM     60  C   UNL A   1      43.620  31.651  32.832  1.00  0.00     0.049 A 
ATOM     61  H   UNL A   1      42.514  30.327  31.617  1.00  0.00     0.167 HD
ATOM     62  C   UNL A   1      41.431  32.780  32.547  1.00  0.00     0.074 A 
ATOM     63  C   UNL A   1      40.499  33.861  32.793  1.00  0.00     0.031 C 
ATOM     64  C   UNL A   1      42.692  32.732  33.038  1.00  0.00     0.037 A 
BRANCH  51  65
ATOM     65  C   UNL A   1      45.816  27.632  31.505  1.00  0.00     0.064 A 
ATOM     66  C   UNL A   1      45.957  26.647  32.494  1.00  0.00     0.173 A 
ATOM     67  C   UNL A   1      46.885  27.831  30.618  1.00  0.00     0.173 A 
ATOM     68  F   UNL A   1      44.970  26.429  33.375  1.00  0.00    -0.203 F 
ATOM     69  C   UNL A   1      47.135  25.914  32.611  1.00  0.00     0.198 A 
ATOM     70  C   UNL A   1      48.050  27.075  30.720  1.00  0.00     0.198 A 
ATOM     71  F   UNL A   1      46.799  28.757  29.651  1.00  0.00    -0.203 F 
ATOM     72  F   UNL A   1      47.267  25.018  33.599  1.00  0.00    -0.200 F 
ATOM     73  C   UNL A   1      48.178  26.124  31.721  1.00  0.00     0.200 A 
ATOM     74  F   UNL A   1      49.052  27.270  29.851  1.00  0.00    -0.200 F 
ATOM     75  F   UNL A   1      49.309  25.415  31.833  1.00  0.00    -0.200 F 
ENDBRANCH  51  65
BRANCH  52  76
ATOM     76  C   UNL A   1      37.151  32.502  30.620  1.00  0.00     0.064 A 
ATOM     77  C   UNL A   1      36.179  32.344  31.617  1.00  0.00     0.173 A 
ATOM     78  C   UNL A   1      36.850  33.348  29.543  1.00  0.00     0.173 A 
ATOM     79  F   UNL A   1      36.412  31.528  32.656  1.00  0.00    -0.203 F 
ATOM     80  C   UNL A   1      34.946  32.989  31.532  1.00  0.00     0.198 A 
ATOM     81  C   UNL A   1      35.626  34.012  29.470  1.00  0.00     0.198 A 
ATOM     82  F   UNL A   1      37.747  33.536  28.564  1.00  0.00    -0.203 F 
ATOM     83  F   UNL A   1      34.019  32.786  32.477  1.00  0.00    -0.200 F 
ATOM     84  C   UNL A   1      34.673  33.826  30.461  1.00  0.00     0.200 A 
ATOM     85  F   UNL A   1      35.369  34.829  28.441  1.00  0.00    -0.200 F 
ATOM     86  F   UNL A   1      33.489  34.448  30.380  1.00  0.00    -0.200 F 
ENDBRANCH  52  76
BRANCH  64  87
ATOM     87  C   UNL A   1      43.168  33.906  33.839  1.00  0.00     0.064 A 
ATOM     88  C   UNL A   1      43.743  35.029  33.229  1.00  0.00     0.173 A 
ATOM     89  C   UNL A   1      42.985  33.930  35.231  1.00  0.00     0.173 A 
ATOM     90  F   UNL A   1      43.951  35.046  31.904  1.00  0.00    -0.203 F 
ATOM     91  C   UNL A   1      44.126  36.132  33.987  1.00  0.00     0.198 A 
ATOM     92  C   UNL A   1      43.350  35.043  35.981  1.00  0.00     0.198 A 
ATOM     93  F   UNL A   1      42.435  32.878  35.857  1.00  0.00    -0.203 F 
ATOM     94  F   UNL A   1      44.700  37.186  33.388  1.00  0.00    -0.200 F 
ATOM     95  C   UNL A   1      43.923  36.142  35.359  1.00  0.00     0.200 A 
ATOM     96  F   UNL A   1      43.140  35.055  37.304  1.00  0.00    -0.200 F 
ATOM     97  F   UNL A   1      44.280  37.211  36.083  1.00  0.00    -0.200 F 
ENDBRANCH  64  87
ENDBRANCH  38  39
ENDBRANCH  30  33
ENDBRANCH  28  29
ENDBRANCH  27  28
ENDBRANCH   1  27
TORSDOF 14
ENDMDL
MODEL 2
REMARK VINA RESULT:     -11.7      5.761      9.413
REMARK SMILES O=C(CCC(=O)Nc1ccc2nc(-c3ccccc3)oc2c1)NCCCNC(=O)c1ccc(-c2c3nc(c(-c4c(F)c(F)c(F)c(F)c4F)c4ccc([nH]4)c(-c4c(F)c(F)c(F)c(F)c4F)c4nc(c(-c5c(F)c(F)c(F)c(F)c5F)c5ccc2[nH]5)C=C4)C=C3)cc1
REMARK SMILES IDX 24 1 23 2 1 3 2 4 3 6 4 7 5 8 6 9 7 10 8 12 9 13 22 14 10 15
REMARK SMILES IDX 21 16 11 17 20 18 12 19 13 20 14 21 15 22 19 23 16 24 18 25
REMARK SMILES IDX 17 26 25 27 26 28 27 29 28 30 29 32 30 33 31 34 92 35 32 36
REMARK SMILES IDX 91 37 33 38 34 39 35 40 85 41 36 42 90 43 84 44 86 45 37 46
REMARK SMILES IDX 89 47 83 48 82 49 38 51 70 52 50 53 69 54 51 55 54 56 68 57
REMARK SMILES IDX 87 58 52 59 53 60 67 62 88 63 55 64 39 65 40 66 48 67 41 68
REMARK SMILES IDX 42 69 46 70 49 71 43 72 44 73 47 74 45 75 71 76 72 77 80 78
REMARK SMILES IDX 73 79 74 80 78 81 81 82 75 83 76 84 79 85 77 86 56 87 57 88
REMARK SMILES IDX 65 89 58 90 59 91 63 92 66 93 60 94 61 95 64 96 62 97
REMARK H PARENT 23 5 7 11 27 31 86 50 54 61
REMARK Flexibility Score: inf
ROOT
ATOM      1  C   UNL A   1      31.414  27.141  26.464  1.00  0.00     0.117 C 
ENDROOT
BRANCH   1   2
ATOM      2  N   UNL A   1      32.480  26.192  26.204  1.00  0.00    -0.356 N 
ATOM      3  O   UNL A   1      31.478  24.384  27.214  1.00  0.00    -0.275 OA
ATOM      4  C   UNL A   1      32.365  24.855  26.514  1.00  0.00     0.220 C 
ATOM      5  H   UNL A   1      33.314  26.515  25.794  1.00  0.00     0.163 HD
BRANCH   4   6
ATOM      6  C   UNL A   1      33.390  23.979  25.827  1.00  0.00     0.110 C 
BRANCH   6   7
ATOM      7  C   UNL A   1      34.239  24.740  24.809  1.00  0.00     0.110 C 
BRANCH   7   8
ATOM      8  C   UNL A   1      34.064  24.240  23.395  1.00  0.00     0.224 C 
ATOM      9  O   UNL A   1      35.030  23.702  22.835  1.00  0.00    -0.275 OA
ATOM     10  N   UNL A   1      32.933  24.378  22.647  1.00  0.00    -0.326 N 
ATOM     11  H   UNL A   1      32.946  23.811  21.843  1.00  0.00     0.169 HD
BRANCH  10  12
ATOM     12  C   UNL A   1      31.749  25.140  22.749  1.00  0.00     0.045 A 
ATOM     13  C   UNL A   1      30.589  24.728  23.414  1.00  0.00     0.028 A 
ATOM     14  C   UNL A   1      31.821  26.455  22.237  1.00  0.00     0.075 A 
ATOM     15  C   UNL A   1      29.548  25.615  23.724  1.00  0.00     0.034 A 
ATOM     16  C   UNL A   1      30.754  27.303  22.538  1.00  0.00     0.157 A 
ATOM     17  C   UNL A   1      29.658  26.933  23.296  1.00  0.00     0.110 A 
ATOM     18  O   UNL A   1      30.578  28.610  22.172  1.00  0.00    -0.436 OA
ATOM     19  N   UNL A   1      28.829  27.996  23.485  1.00  0.00    -0.209 NA
ATOM     20  C   UNL A   1      29.384  28.948  22.763  1.00  0.00     0.227 A 
BRANCH  20  21
ATOM     21  C   UNL A   1      28.800  30.231  22.420  1.00  0.00     0.037 A 
ATOM     22  C   UNL A   1      28.423  30.506  21.100  1.00  0.00     0.014 A 
ATOM     23  C   UNL A   1      28.786  31.263  23.367  1.00  0.00     0.014 A 
ATOM     24  C   UNL A   1      28.057  31.801  20.728  1.00  0.00     0.001 A 
ATOM     25  C   UNL A   1      28.440  32.560  22.990  1.00  0.00     0.001 A 
ATOM     26  C   UNL A   1      28.082  32.829  21.669  1.00  0.00     0.000 A 
ENDBRANCH  20  21
ENDBRANCH  10  12
ENDBRANCH   7   8
ENDBRANCH   6   7
ENDBRANCH   4   6
ENDBRANCH   1   2
BRANCH   1  27
ATOM     27  C   UNL A   1      31.843  28.335  27.289  1.00  0.00     0.042 C 
BRANCH  27  28
ATOM     28  C   UNL A   1      32.665  29.365  26.530  1.00  0.00     0.118 C 
BRANCH  28  29
ATOM     29  N   UNL A   1      32.355  30.759  26.836  1.00  0.00    -0.352 N 
ATOM     30  C   UNL A   1      33.198  31.722  27.353  1.00  0.00     0.251 C 
ATOM     31  H   UNL A   1      31.431  31.047  26.651  1.00  0.00     0.163 HD
ATOM     32  O   UNL A   1      32.795  32.854  27.592  1.00  0.00    -0.269 OA
BRANCH  30  33
ATOM     33  C   UNL A   1      34.588  31.336  27.681  1.00  0.00     0.039 A 
ATOM     34  C   UNL A   1      35.565  32.330  27.771  1.00  0.00     0.014 A 
ATOM     35  C   UNL A   1      34.876  30.022  28.052  1.00  0.00     0.014 A 
ATOM     36  C   UNL A   1      36.795  32.031  28.364  1.00  0.00     0.010 A 
ATOM     37  C   UNL A   1      36.057  29.755  28.732  1.00  0.00     0.010 A 
ATOM     38  C   UNL A   1      37.020  30.760  28.918  1.00  0.00    -0.014 A 
BRANCH  38  39
ATOM     39  C   UNL A   1      38.229  30.444  29.725  1.00  0.00     0.031 A 
ATOM     40  C   UNL A   1      39.250  29.483  29.184  1.00  0.00     0.074 A 
ATOM     41  C   UNL A   1      38.345  30.907  30.987  1.00  0.00     0.049 A 
ATOM     42  N   UNL A   1      40.243  28.892  29.797  1.00  0.00    -0.248 NA
ATOM     43  C   UNL A   1      39.098  29.095  27.772  1.00  0.00     0.031 C 
ATOM     44  C   UNL A   1      37.403  31.805  31.657  1.00  0.00     0.029 A 
ATOM     45  N   UNL A   1      39.299  30.657  31.945  1.00  0.00    -0.354 N 
ATOM     46  C   UNL A   1      40.798  28.027  28.863  1.00  0.00     0.074 A 
ATOM     47  C   UNL A   1      40.009  28.142  27.656  1.00  0.00     0.031 C 
ATOM     48  C   UNL A   1      37.835  32.047  32.906  1.00  0.00     0.029 A 
ATOM     49  C   UNL A   1      39.055  31.284  33.144  1.00  0.00     0.049 A 
ATOM     50  H   UNL A   1      40.084  30.085  31.788  1.00  0.00     0.167 HD
ATOM     51  C   UNL A   1      41.880  27.223  28.994  1.00  0.00     0.037 A 
ATOM     52  C   UNL A   1      39.728  31.233  34.310  1.00  0.00     0.037 A 
ATOM     53  C   UNL A   1      42.702  27.161  30.171  1.00  0.00     0.049 A 
ATOM     54  C   UNL A   1      40.957  30.370  34.415  1.00  0.00     0.074 A 
ATOM     55  C   UNL A   1      43.859  26.431  30.378  1.00  0.00     0.029 A 
ATOM     56  N   UNL A   1      42.461  27.870  31.339  1.00  0.00    -0.354 N 
ATOM     57  N   UNL A   1      41.496  29.587  33.514  1.00  0.00    -0.248 NA
ATOM     58  C   UNL A   1      41.673  30.387  35.699  1.00  0.00     0.031 C 
ATOM     59  C   UNL A   1      44.308  26.681  31.679  1.00  0.00     0.029 A 
ATOM     60  C   UNL A   1      43.449  27.595  32.269  1.00  0.00     0.049 A 
ATOM     61  H   UNL A   1      41.701  28.478  31.484  1.00  0.00     0.167 HD
ATOM     62  C   UNL A   1      42.628  29.045  34.106  1.00  0.00     0.074 A 
ATOM     63  C   UNL A   1      42.703  29.590  35.445  1.00  0.00     0.031 C 
ATOM     64  C   UNL A   1      43.525  28.174  33.586  1.00  0.00     0.037 A 
BRANCH  51  65
ATOM     65  C   UNL A   1      42.241  26.354  27.827  1.00  0.00     0.064 A 
ATOM     66  C   UNL A   1      41.629  25.109  27.619  1.00  0.00     0.173 A 
ATOM     67  C   UNL A   1      43.196  26.781  26.892  1.00  0.00     0.173 A 
ATOM     68  F   UNL A   1      40.720  24.650  28.492  1.00  0.00    -0.203 F 
ATOM     69  C   UNL A   1      41.984  24.309  26.537  1.00  0.00     0.198 A 
ATOM     70  C   UNL A   1      43.526  25.991  25.794  1.00  0.00     0.198 A 
ATOM     71  F   UNL A   1      43.807  27.966  27.041  1.00  0.00    -0.203 F 
ATOM     72  F   UNL A   1      41.425  23.099  26.390  1.00  0.00    -0.200 F 
ATOM     73  C   UNL A   1      42.927  24.752  25.622  1.00  0.00     0.200 A 
ATOM     74  F   UNL A   1      44.429  26.426  24.904  1.00  0.00    -0.200 F 
ATOM     75  F   UNL A   1      43.265  23.982  24.579  1.00  0.00    -0.200 F 
ENDBRANCH  51  65
BRANCH  52  76
ATOM     76  C   UNL A   1      39.274  32.045  35.469  1.00  0.00     0.064 A 
ATOM     77  C   UNL A   1      38.449  31.483  36.453  1.00  0.00     0.173 A 
ATOM     78  C   UNL A   1      39.644  33.389  35.616  1.00  0.00     0.173 A 
ATOM     79  F   UNL A   1      38.050  30.207  36.344  1.00  0.00    -0.203 F 
ATOM     80  C   UNL A   1      37.995  32.240  37.532  1.00  0.00     0.198 A 
ATOM     81  C   UNL A   1      39.210  34.138  36.708  1.00  0.00     0.198 A 
ATOM     82  F   UNL A   1      40.435  33.972  34.704  1.00  0.00    -0.203 F 
ATOM     83  F   UNL A   1      37.173  31.690  38.435  1.00  0.00    -0.200 F 
ATOM     84  C   UNL A   1      38.380  33.565  37.662  1.00  0.00     0.200 A 
ATOM     85  F   UNL A   1      39.592  35.416  36.837  1.00  0.00    -0.200 F 
ATOM     86  F   UNL A   1      37.946  34.293  38.699  1.00  0.00    -0.200 F 
ENDBRANCH  52  76
BRANCH  64  87
ATOM     87  C   UNL A   1      44.701  27.800  34.435  1.00  0.00     0.064 A 
ATOM     88  C   UNL A   1      45.862  28.584  34.472  1.00  0.00     0.173 A 
ATOM     89  C   UNL A   1      44.635  26.676  35.274  1.00  0.00     0.173 A 
ATOM     90  F   UNL A   1      45.977  29.659  33.678  1.00  0.00    -0.203 F 
ATOM     91  C   UNL A   1      46.921  28.249  35.312  1.00  0.00     0.198 A 
ATOM     92  C   UNL A   1      45.687  26.358  36.127  1.00  0.00     0.198 A 
ATOM     93  F   UNL A   1      43.541  25.899  35.276  1.00  0.00    -0.203 F 
ATOM     94  F   UNL A   1      48.035  28.996  35.311  1.00  0.00    -0.200 F 
ATOM     95  C   UNL A   1      46.830  27.143  36.144  1.00  0.00     0.200 A 
ATOM     96  F   UNL A   1      45.591  25.296  36.939  1.00  0.00    -0.200 F 
ATOM     97  F   UNL A   1      47.845  26.832  36.961  1.00  0.00    -0.200 F 
ENDBRANCH  64  87
ENDBRANCH  38  39
ENDBRANCH  30  33
ENDBRANCH  28  29
ENDBRANCH  27  28
ENDBRANCH   1  27
TORSDOF 14
ENDMDL
MODEL 3
REMARK VINA RESULT:     -11.6      4.705     10.483
REMARK SMILES O=C(CCC(=O)Nc1ccc2nc(-c3ccccc3)oc2c1)NCCCNC(=O)c1ccc(-c2c3nc(c(-c4c(F)c(F)c(F)c(F)c4F)c4ccc([nH]4)c(-c4c(F)c(F)c(F)c(F)c4F)c4nc(c(-c5c(F)c(F)c(F)c(F)c5F)c5ccc2[nH]5)C=C4)C=C3)cc1
REMARK SMILES IDX 24 1 23 2 1 3 2 4 3 6 4 7 5 8 6 9 7 10 8 12 9 13 22 14 10 15
REMARK SMILES IDX 21 16 11 17 20 18 12 19 13 20 14 21 15 22 19 23 16 24 18 25
REMARK SMILES IDX 17 26 25 27 26 28 27 29 28 30 29 32 30 33 31 34 92 35 32 36
REMARK SMILES IDX 91 37 33 38 34 39 35 40 85 41 36 42 90 43 84 44 86 45 37 46
REMARK SMILES IDX 89 47 83 48 82 49 38 51 70 52 50 53 69 54 51 55 54 56 68 57
REMARK SMILES IDX 87 58 52 59 53 60 67 62 88 63 55 64 39 65 40 66 48 67 41 68
REMARK SMILES IDX 42 69 46 70 49 71 43 72 44 73 47 74 45 75 71 76 72 77 80 78
REMARK SMILES IDX 73 79 74 80 78 81 81 82 75 83 76 84 79 85 77 86 56 87 57 88
REMARK SMILES IDX 65 89 58 90 59 91 63 92 66 93 60 94 61 95 64 96 62 97
REMARK H PARENT 23 5 7 11 27 31 86 50 54 61
REMARK Flexibility Score: inf
ROOT
ATOM      1  C   UNL A   1      34.922  23.844  23.609  1.00  0.00     0.117 C 
ENDROOT
BRANCH   1   2
ATOM      2  N   UNL A   1      34.828  24.843  24.656  1.00  0.00    -0.356 N 
ATOM      3  O   UNL A   1      33.576  26.362  23.464  1.00  0.00    -0.275 OA
ATOM      4  C   UNL A   1      34.062  25.980  24.522  1.00  0.00     0.220 C 
ATOM      5  H   UNL A   1      35.330  24.705  25.492  1.00  0.00     0.163 HD
BRANCH   4   6
ATOM      6  C   UNL A   1      33.781  26.684  25.831  1.00  0.00     0.110 C 
BRANCH   6   7
ATOM      7  C   UNL A   1      32.504  27.524  25.794  1.00  0.00     0.110 C 
BRANCH   7   8
ATOM      8  C   UNL A   1      31.404  26.975  26.671  1.00  0.00     0.224 C 
ATOM      9  O   UNL A   1      31.160  27.550  27.741  1.00  0.00    -0.275 OA
ATOM     10  N   UNL A   1      30.679  25.851  26.409  1.00  0.00    -0.326 N 
ATOM     11  H   UNL A   1      29.883  25.779  26.984  1.00  0.00     0.169 HD
BRANCH  10  12
ATOM     12  C   UNL A   1      30.796  24.766  25.514  1.00  0.00     0.045 A 
ATOM     13  C   UNL A   1      30.436  24.803  24.163  1.00  0.00     0.028 A 
ATOM     14  C   UNL A   1      31.441  23.617  26.025  1.00  0.00     0.075 A 
ATOM     15  C   UNL A   1      30.822  23.804  23.257  1.00  0.00     0.034 A 
ATOM     16  C   UNL A   1      31.783  22.629  25.102  1.00  0.00     0.157 A 
ATOM     17  C   UNL A   1      31.534  22.714  23.745  1.00  0.00     0.110 A 
ATOM     18  O   UNL A   1      32.410  21.433  25.331  1.00  0.00    -0.436 OA
ATOM     19  N   UNL A   1      32.055  21.637  23.096  1.00  0.00    -0.209 NA
ATOM     20  C   UNL A   1      32.516  20.885  24.074  1.00  0.00     0.227 A 
BRANCH  20  21
ATOM     21  C   UNL A   1      32.976  19.512  23.973  1.00  0.00     0.037 A 
ATOM     22  C   UNL A   1      34.150  19.110  24.622  1.00  0.00     0.014 A 
ATOM     23  C   UNL A   1      32.353  18.637  23.075  1.00  0.00     0.014 A 
ATOM     24  C   UNL A   1      34.704  17.856  24.360  1.00  0.00     0.001 A 
ATOM     25  C   UNL A   1      32.919  17.392  22.799  1.00  0.00     0.001 A 
ATOM     26  C   UNL A   1      34.097  17.006  23.437  1.00  0.00     0.000 A 
ENDBRANCH  20  21
ENDBRANCH  10  12
ENDBRANCH   7   8
ENDBRANCH   6   7
ENDBRANCH   4   6
ENDBRANCH   1   2
BRANCH   1  27
ATOM     27  C   UNL A   1      35.626  22.573  24.034  1.00  0.00     0.042 C 
BRANCH  27  28
ATOM     28  C   UNL A   1      36.949  22.792  24.749  1.00  0.00     0.118 C 
BRANCH  28  29
ATOM     29  N   UNL A   1      37.758  21.593  24.946  1.00  0.00    -0.352 N 
ATOM     30  C   UNL A   1      38.851  21.434  25.774  1.00  0.00     0.251 C 
ATOM     31  H   UNL A   1      37.492  20.801  24.425  1.00  0.00     0.163 HD
ATOM     32  O   UNL A   1      39.462  20.372  25.820  1.00  0.00    -0.269 OA
BRANCH  30  33
ATOM     33  C   UNL A   1      39.316  22.600  26.557  1.00  0.00     0.039 A 
ATOM     34  C   UNL A   1      40.352  22.431  27.477  1.00  0.00     0.014 A 
ATOM     35  C   UNL A   1      38.835  23.875  26.257  1.00  0.00     0.014 A 
ATOM     36  C   UNL A   1      40.999  23.555  27.999  1.00  0.00     0.010 A 
ATOM     37  C   UNL A   1      39.544  24.986  26.694  1.00  0.00     0.010 A 
ATOM     38  C   UNL A   1      40.649  24.839  27.550  1.00  0.00    -0.014 A 
BRANCH  38  39
ATOM     39  C   UNL A   1      41.424  26.053  27.922  1.00  0.00     0.031 A 
ATOM     40  C   UNL A   1      40.744  27.165  28.671  1.00  0.00     0.074 A 
ATOM     41  C   UNL A   1      42.686  26.219  27.475  1.00  0.00     0.049 A 
ATOM     42  N   UNL A   1      41.150  28.389  28.892  1.00  0.00    -0.248 NA
ATOM     43  C   UNL A   1      39.402  26.871  29.200  1.00  0.00     0.031 C 
ATOM     44  C   UNL A   1      43.449  25.244  26.693  1.00  0.00     0.029 A 
ATOM     45  N   UNL A   1      43.542  27.288  27.592  1.00  0.00    -0.354 N 
ATOM     46  C   UNL A   1      40.094  29.023  29.535  1.00  0.00     0.074 A 
ATOM     47  C   UNL A   1      39.019  28.061  29.635  1.00  0.00     0.031 C 
ATOM     48  C   UNL A   1      44.663  25.750  26.419  1.00  0.00     0.029 A 
ATOM     49  C   UNL A   1      44.748  27.102  26.960  1.00  0.00     0.049 A 
ATOM     50  H   UNL A   1      43.313  28.109  28.083  1.00  0.00     0.167 HD
ATOM     51  C   UNL A   1      40.036  30.287  30.015  1.00  0.00     0.037 A 
ATOM     52  C   UNL A   1      45.797  27.935  26.816  1.00  0.00     0.037 A 
ATOM     53  C   UNL A   1      41.129  31.219  29.975  1.00  0.00     0.049 A 
ATOM     54  C   UNL A   1      45.726  29.319  27.404  1.00  0.00     0.074 A 
ATOM     55  C   UNL A   1      41.193  32.499  30.497  1.00  0.00     0.029 A 
ATOM     56  N   UNL A   1      42.361  30.963  29.390  1.00  0.00    -0.354 N 
ATOM     57  N   UNL A   1      44.739  29.895  28.043  1.00  0.00    -0.248 NA
ATOM     58  C   UNL A   1      46.917  30.168  27.250  1.00  0.00     0.031 C 
ATOM     59  C   UNL A   1      42.456  33.027  30.209  1.00  0.00     0.029 A 
ATOM     60  C   UNL A   1      43.191  32.061  29.540  1.00  0.00     0.049 A 
ATOM     61  H   UNL A   1      42.608  30.125  28.937  1.00  0.00     0.167 HD
ATOM     62  C   UNL A   1      45.197  31.156  28.398  1.00  0.00     0.074 A 
ATOM     63  C   UNL A   1      46.554  31.263  27.905  1.00  0.00     0.031 C 
ATOM     64  C   UNL A   1      44.550  32.137  29.072  1.00  0.00     0.037 A 
BRANCH  51  65
ATOM     65  C   UNL A   1      38.745  30.731  30.637  1.00  0.00     0.064 A 
ATOM     66  C   UNL A   1      37.672  31.190  29.857  1.00  0.00     0.173 A 
ATOM     67  C   UNL A   1      38.571  30.677  32.028  1.00  0.00     0.173 A 
ATOM     68  F   UNL A   1      37.795  31.274  28.524  1.00  0.00    -0.203 F 
ATOM     69  C   UNL A   1      36.485  31.609  30.450  1.00  0.00     0.198 A 
ATOM     70  C   UNL A   1      37.370  31.069  32.615  1.00  0.00     0.198 A 
ATOM     71  F   UNL A   1      39.564  30.241  32.818  1.00  0.00    -0.203 F 
ATOM     72  F   UNL A   1      35.495  32.096  29.689  1.00  0.00    -0.200 F 
ATOM     73  C   UNL A   1      36.332  31.543  31.827  1.00  0.00     0.200 A 
ATOM     74  F   UNL A   1      37.220  30.993  33.944  1.00  0.00    -0.200 F 
ATOM     75  F   UNL A   1      35.187  31.944  32.396  1.00  0.00    -0.200 F 
ENDBRANCH  51  65
BRANCH  52  76
ATOM     76  C   UNL A   1      47.021  27.477  26.109  1.00  0.00     0.064 A 
ATOM     77  C   UNL A   1      48.083  26.901  26.820  1.00  0.00     0.173 A 
ATOM     78  C   UNL A   1      47.160  27.607  24.719  1.00  0.00     0.173 A 
ATOM     79  F   UNL A   1      48.005  26.775  28.153  1.00  0.00    -0.203 F 
ATOM     80  C   UNL A   1      49.247  26.490  26.172  1.00  0.00     0.198 A 
ATOM     81  C   UNL A   1      48.314  27.173  24.069  1.00  0.00     0.198 A 
ATOM     82  F   UNL A   1      46.172  28.148  23.993  1.00  0.00    -0.203 F 
ATOM     83  F   UNL A   1      50.263  25.982  26.881  1.00  0.00    -0.200 F 
ATOM     84  C   UNL A   1      49.359  26.622  24.796  1.00  0.00     0.200 A 
ATOM     85  F   UNL A   1      48.416  27.292  22.738  1.00  0.00    -0.200 F 
ATOM     86  F   UNL A   1      50.476  26.225  24.172  1.00  0.00    -0.200 F 
ENDBRANCH  52  76
BRANCH  64  87
ATOM     87  C   UNL A   1      45.315  33.389  29.376  1.00  0.00     0.064 A 
ATOM     88  C   UNL A   1      46.097  33.512  30.532  1.00  0.00     0.173 A 
ATOM     89  C   UNL A   1      45.314  34.454  28.461  1.00  0.00     0.173 A 
ATOM     90  F   UNL A   1      46.118  32.526  31.442  1.00  0.00    -0.203 F 
ATOM     91  C   UNL A   1      46.845  34.662  30.767  1.00  0.00     0.198 A 
ATOM     92  C   UNL A   1      46.080  35.593  28.689  1.00  0.00     0.198 A 
ATOM     93  F   UNL A   1      44.583  34.379  27.338  1.00  0.00    -0.203 F 
ATOM     94  F   UNL A   1      47.565  34.773  31.892  1.00  0.00    -0.200 F 
ATOM     95  C   UNL A   1      46.843  35.697  29.843  1.00  0.00     0.200 A 
ATOM     96  F   UNL A   1      46.086  36.586  27.790  1.00  0.00    -0.200 F 
ATOM     97  F   UNL A   1      47.575  36.798  30.065  1.00  0.00    -0.200 F 
ENDBRANCH  64  87
ENDBRANCH  38  39
ENDBRANCH  30  33
ENDBRANCH  28  29
ENDBRANCH  27  28
ENDBRANCH   1  27
TORSDOF 14
ENDMDL
