MODEL 1
REMARK VINA RESULT:     -12.0      0.000      0.000
REMARK SMILES C[C@H]([C@@H](C)O)[N@H+]1CC[C@@](C)(C(=O)NCCCNC(=O)c2ccc(-c3c4nc(c(-c5c(F)c(F)c(F)c(F)c5F)c5ccc([nH]5)c(-c5c(F)c(F)c(F)c(F)c5F)c5nc(c(-c6c(F)c(F)c(F)c(F)c6F)c6ccc3[nH]6)C=C5)C=C4)cc2)C1
REMARK SMILES IDX 14 1 13 2 11 3 12 4 9 6 6 7 7 8 83 9 8 11 10 12 2 13 1 14
REMARK SMILES IDX 3 15 4 16 5 17 15 19 16 20 17 21 18 22 19 24 20 25 21 26
REMARK SMILES IDX 82 27 22 28 81 29 23 30 24 31 25 32 75 33 26 34 80 35 74 36
REMARK SMILES IDX 76 37 27 38 79 39 73 40 72 41 28 43 60 44 40 45 59 46 41 47
REMARK SMILES IDX 44 48 58 49 77 50 42 51 43 52 57 54 78 55 45 56 29 57 30 58
REMARK SMILES IDX 38 59 31 60 32 61 36 62 39 63 33 64 34 65 37 66 35 67 61 68
REMARK SMILES IDX 62 69 70 70 63 71 64 72 68 73 71 74 65 75 66 76 69 77 67 78
REMARK SMILES IDX 46 79 47 80 55 81 48 82 49 83 53 84 56 85 50 86 51 87 54 88
REMARK SMILES IDX 52 89
REMARK H PARENT 13 5 6 10 5 18 17 23 76 42 44 53
REMARK Flexibility Score: inf
ROOT
ATOM      1  C   UNL A   1      31.878  30.598  26.439  1.00  0.00     0.117 C 
ENDROOT
BRANCH   1   2
ATOM      2  N   UNL A   1      31.334  30.179  25.159  1.00  0.00    -0.355 N 
ATOM      3  C   UNL A   1      31.331  28.969  24.531  1.00  0.00     0.231 C 
ATOM      4  O   UNL A   1      30.829  28.952  23.404  1.00  0.00    -0.274 OA
ATOM      5  H   UNL A   1      30.886  30.897  24.655  1.00  0.00     0.163 HD
BRANCH   3   6
ATOM      6  C   UNL A   1      31.884  27.704  25.219  1.00  0.00     0.100 C 
ATOM      7  N   UNL A   1      32.581  25.857  23.819  1.00  0.00    -0.330 N 
ATOM      8  C   UNL A   1      33.605  26.888  23.754  1.00  0.00     0.263 C 
ATOM      9  C   UNL A   1      31.398  26.429  24.471  1.00  0.00     0.279 C 
ATOM     10  H   UNL A   1      32.884  25.083  24.410  1.00  0.00     0.348 HD
ATOM     11  C   UNL A   1      33.412  27.603  25.075  1.00  0.00     0.084 C 
ATOM     12  C   UNL A   1      31.416  27.689  26.687  1.00  0.00     0.028 C 
BRANCH   7  13
ATOM     13  C   UNL A   1      32.388  25.119  22.561  1.00  0.00     0.209 C 
ATOM     14  C   UNL A   1      33.270  23.866  22.409  1.00  0.00     0.078 C 
BRANCH  13  15
ATOM     15  C   UNL A   1      32.450  26.063  21.317  1.00  0.00     0.169 C 
ATOM     16  C   UNL A   1      32.598  25.380  19.962  1.00  0.00     0.045 C 
BRANCH  15  17
ATOM     17  O   UNL A   1      31.270  26.880  21.267  1.00  0.00    -0.387 OA
ATOM     18  H   UNL A   1      30.503  26.328  21.046  1.00  0.00     0.211 HD
ENDBRANCH  15  17
ENDBRANCH  13  15
ENDBRANCH   7  13
ENDBRANCH   3   6
ENDBRANCH   1   2
BRANCH   1  19
ATOM     19  C   UNL A   1      31.611  32.076  26.695  1.00  0.00     0.042 C 
BRANCH  19  20
ATOM     20  C   UNL A   1      32.816  32.814  27.263  1.00  0.00     0.118 C 
BRANCH  20  21
ATOM     21  N   UNL A   1      32.506  34.195  27.612  1.00  0.00    -0.352 N 
ATOM     22  C   UNL A   1      33.018  34.975  28.618  1.00  0.00     0.251 C 
ATOM     23  H   UNL A   1      31.831  34.631  27.044  1.00  0.00     0.163 HD
ATOM     24  O   UNL A   1      32.488  36.045  28.903  1.00  0.00    -0.269 OA
BRANCH  22  25
ATOM     25  C   UNL A   1      34.200  34.511  29.371  1.00  0.00     0.039 A 
ATOM     26  C   UNL A   1      34.024  33.918  30.624  1.00  0.00     0.014 A 
ATOM     27  C   UNL A   1      35.480  34.649  28.830  1.00  0.00     0.014 A 
ATOM     28  C   UNL A   1      35.128  33.392  31.298  1.00  0.00     0.010 A 
ATOM     29  C   UNL A   1      36.562  34.046  29.458  1.00  0.00     0.010 A 
ATOM     30  C   UNL A   1      36.398  33.413  30.700  1.00  0.00    -0.014 A 
BRANCH  30  31
ATOM     31  C   UNL A   1      37.581  32.791  31.347  1.00  0.00     0.031 A 
ATOM     32  C   UNL A   1      38.280  31.644  30.671  1.00  0.00     0.074 A 
ATOM     33  C   UNL A   1      37.963  33.190  32.575  1.00  0.00     0.049 A 
ATOM     34  N   UNL A   1      39.230  30.867  31.126  1.00  0.00    -0.248 NA
ATOM     35  C   UNL A   1      37.827  31.304  29.313  1.00  0.00     0.031 C 
ATOM     36  C   UNL A   1      37.343  34.269  33.346  1.00  0.00     0.029 A 
ATOM     37  N   UNL A   1      38.953  32.719  33.401  1.00  0.00    -0.354 N 
ATOM     38  C   UNL A   1      39.470  29.938  30.121  1.00  0.00     0.074 A 
ATOM     39  C   UNL A   1      38.530  30.212  29.057  1.00  0.00     0.031 C 
ATOM     40  C   UNL A   1      37.976  34.387  34.524  1.00  0.00     0.029 A 
ATOM     41  C   UNL A   1      39.010  33.361  34.614  1.00  0.00     0.049 A 
ATOM     42  H   UNL A   1      39.564  31.990  33.147  1.00  0.00     0.167 HD
ATOM     43  C   UNL A   1      40.406  28.961  30.082  1.00  0.00     0.037 A 
ATOM     44  C   UNL A   1      39.793  33.131  35.687  1.00  0.00     0.037 A 
ATOM     45  C   UNL A   1      41.353  28.711  31.136  1.00  0.00     0.049 A 
ATOM     46  C   UNL A   1      40.804  32.017  35.629  1.00  0.00     0.074 A 
ATOM     47  C   UNL A   1      42.375  27.780  31.173  1.00  0.00     0.029 A 
ATOM     48  N   UNL A   1      41.390  29.395  32.343  1.00  0.00    -0.354 N 
ATOM     49  N   UNL A   1      41.063  31.182  34.652  1.00  0.00    -0.248 NA
ATOM     50  C   UNL A   1      41.634  31.813  36.825  1.00  0.00     0.031 C 
ATOM     51  C   UNL A   1      42.996  27.862  32.422  1.00  0.00     0.029 A 
ATOM     52  C   UNL A   1      42.403  28.887  33.141  1.00  0.00     0.049 A 
ATOM     53  H   UNL A   1      40.786  30.130  32.595  1.00  0.00     0.167 HD
ATOM     54  C   UNL A   1      42.107  30.383  35.098  1.00  0.00     0.074 A 
ATOM     55  C   UNL A   1      42.439  30.836  36.433  1.00  0.00     0.031 C 
ATOM     56  C   UNL A   1      42.735  29.366  34.459  1.00  0.00     0.037 A 
BRANCH  43  57
ATOM     57  C   UNL A   1      40.453  28.090  28.861  1.00  0.00     0.064 A 
ATOM     58  C   UNL A   1      41.218  28.436  27.736  1.00  0.00     0.173 A 
ATOM     59  C   UNL A   1      39.752  26.874  28.826  1.00  0.00     0.173 A 
ATOM     60  F   UNL A   1      41.898  29.592  27.711  1.00  0.00    -0.203 F 
ATOM     61  C   UNL A   1      41.256  27.614  26.613  1.00  0.00     0.198 A 
ATOM     62  C   UNL A   1      39.819  26.038  27.715  1.00  0.00     0.198 A 
ATOM     63  F   UNL A   1      39.009  26.492  29.875  1.00  0.00    -0.203 F 
ATOM     64  F   UNL A   1      41.950  27.992  25.531  1.00  0.00    -0.200 F 
ATOM     65  C   UNL A   1      40.563  26.413  26.606  1.00  0.00     0.200 A 
ATOM     66  F   UNL A   1      39.162  24.870  27.717  1.00  0.00    -0.200 F 
ATOM     67  F   UNL A   1      40.607  25.618  25.528  1.00  0.00    -0.200 F 
ENDBRANCH  43  57
BRANCH  44  68
ATOM     68  C   UNL A   1      39.662  33.979  36.902  1.00  0.00     0.064 A 
ATOM     69  C   UNL A   1      38.857  33.576  37.976  1.00  0.00     0.173 A 
ATOM     70  C   UNL A   1      40.324  35.210  37.012  1.00  0.00     0.173 A 
ATOM     71  F   UNL A   1      38.187  32.415  37.911  1.00  0.00    -0.203 F 
ATOM     72  C   UNL A   1      38.697  34.384  39.101  1.00  0.00     0.198 A 
ATOM     73  C   UNL A   1      40.190  36.002  38.151  1.00  0.00     0.198 A 
ATOM     74  F   UNL A   1      41.113  35.642  36.016  1.00  0.00    -0.203 F 
ATOM     75  F   UNL A   1      37.878  33.997  40.089  1.00  0.00    -0.200 F 
ATOM     76  C   UNL A   1      39.368  35.593  39.190  1.00  0.00     0.200 A 
ATOM     77  F   UNL A   1      40.854  37.163  38.239  1.00  0.00    -0.200 F 
ATOM     78  F   UNL A   1      39.216  36.368  40.271  1.00  0.00    -0.200 F 
ENDBRANCH  44  68
BRANCH  56  79
ATOM     79  C   UNL A   1      43.883  28.704  35.164  1.00  0.00     0.064 A 
ATOM     80  C   UNL A   1      45.194  29.194  35.067  1.00  0.00     0.173 A 
ATOM     81  C   UNL A   1      43.653  27.605  36.006  1.00  0.00     0.173 A 
ATOM     82  F   UNL A   1      45.467  30.234  34.264  1.00  0.00    -0.203 F 
ATOM     83  C   UNL A   1      46.234  28.597  35.772  1.00  0.00     0.198 A 
ATOM     84  C   UNL A   1      44.690  27.030  36.735  1.00  0.00     0.198 A 
ATOM     85  F   UNL A   1      42.416  27.102  36.140  1.00  0.00    -0.203 F 
ATOM     86  F   UNL A   1      47.486  29.056  35.634  1.00  0.00    -0.200 F 
ATOM     87  C   UNL A   1      45.980  27.523  36.615  1.00  0.00     0.200 A 
ATOM     88  F   UNL A   1      44.439  26.005  37.561  1.00  0.00    -0.200 F 
ATOM     89  F   UNL A   1      46.980  26.961  37.307  1.00  0.00    -0.200 F 
ENDBRANCH  56  79
ENDBRANCH  30  31
ENDBRANCH  22  25
ENDBRANCH  20  21
ENDBRANCH  19  20
ENDBRANCH   1  19
TORSDOF 13
ENDMDL
MODEL 2
REMARK VINA RESULT:     -12.0      1.164      2.701
REMARK SMILES C[C@H]([C@@H](C)O)[N@H+]1CC[C@@](C)(C(=O)NCCCNC(=O)c2ccc(-c3c4nc(c(-c5c(F)c(F)c(F)c(F)c5F)c5ccc([nH]5)c(-c5c(F)c(F)c(F)c(F)c5F)c5nc(c(-c6c(F)c(F)c(F)c(F)c6F)c6ccc3[nH]6)C=C5)C=C4)cc2)C1
REMARK SMILES IDX 14 1 13 2 11 3 12 4 9 6 6 7 7 8 83 9 8 11 10 12 2 13 1 14
REMARK SMILES IDX 3 15 4 16 5 17 15 19 16 20 17 21 18 22 19 24 20 25 21 26
REMARK SMILES IDX 82 27 22 28 81 29 23 30 24 31 25 32 75 33 26 34 80 35 74 36
REMARK SMILES IDX 76 37 27 38 79 39 73 40 72 41 28 43 60 44 40 45 59 46 41 47
REMARK SMILES IDX 44 48 58 49 77 50 42 51 43 52 57 54 78 55 45 56 29 57 30 58
REMARK SMILES IDX 38 59 31 60 32 61 36 62 39 63 33 64 34 65 37 66 35 67 61 68
REMARK SMILES IDX 62 69 70 70 63 71 64 72 68 73 71 74 65 75 66 76 69 77 67 78
REMARK SMILES IDX 46 79 47 80 55 81 48 82 49 83 53 84 56 85 50 86 51 87 54 88
REMARK SMILES IDX 52 89
REMARK H PARENT 13 5 6 10 5 18 17 23 76 42 44 53
REMARK Flexibility Score: inf
ROOT
ATOM      1  C   UNL A   1      31.779  30.398  26.485  1.00  0.00     0.117 C 
ENDROOT
BRANCH   1   2
ATOM      2  N   UNL A   1      32.694  30.096  25.398  1.00  0.00    -0.355 N 
ATOM      3  C   UNL A   1      32.779  29.024  24.560  1.00  0.00     0.231 C 
ATOM      4  O   UNL A   1      33.722  29.039  23.764  1.00  0.00    -0.274 OA
ATOM      5  H   UNL A   1      33.376  30.789  25.238  1.00  0.00     0.163 HD
BRANCH   3   6
ATOM      6  C   UNL A   1      31.727  27.897  24.587  1.00  0.00     0.100 C 
ATOM      7  N   UNL A   1      29.819  28.082  23.110  1.00  0.00    -0.330 N 
ATOM      8  C   UNL A   1      30.970  27.683  22.316  1.00  0.00     0.263 C 
ATOM      9  C   UNL A   1      30.297  28.491  24.435  1.00  0.00     0.279 C 
ATOM     10  H   UNL A   1      29.195  27.290  23.265  1.00  0.00     0.348 HD
ATOM     11  C   UNL A   1      31.836  26.991  23.349  1.00  0.00     0.084 C 
ATOM     12  C   UNL A   1      31.859  27.122  25.913  1.00  0.00     0.028 C 
BRANCH   7  13
ATOM     13  C   UNL A   1      28.882  28.973  22.407  1.00  0.00     0.209 C 
ATOM     14  C   UNL A   1      29.541  30.178  21.711  1.00  0.00     0.078 C 
BRANCH  13  15
ATOM     15  C   UNL A   1      27.673  29.376  23.311  1.00  0.00     0.169 C 
ATOM     16  C   UNL A   1      27.437  30.872  23.489  1.00  0.00     0.045 C 
BRANCH  15  17
ATOM     17  O   UNL A   1      26.463  28.803  22.789  1.00  0.00    -0.387 OA
ATOM     18  H   UNL A   1      26.632  28.438  21.907  1.00  0.00     0.211 HD
ENDBRANCH  15  17
ENDBRANCH  13  15
ENDBRANCH   7  13
ENDBRANCH   3   6
ENDBRANCH   1   2
BRANCH   1  19
ATOM     19  C   UNL A   1      31.569  31.901  26.627  1.00  0.00     0.042 C 
BRANCH  19  20
ATOM     20  C   UNL A   1      32.747  32.613  27.278  1.00  0.00     0.118 C 
BRANCH  20  21
ATOM     21  N   UNL A   1      32.458  34.012  27.567  1.00  0.00    -0.352 N 
ATOM     22  C   UNL A   1      32.987  34.830  28.533  1.00  0.00     0.251 C 
ATOM     23  H   UNL A   1      31.784  34.431  26.984  1.00  0.00     0.163 HD
ATOM     24  O   UNL A   1      32.473  35.919  28.773  1.00  0.00    -0.269 OA
BRANCH  22  25
ATOM     25  C   UNL A   1      34.168  34.384  29.299  1.00  0.00     0.039 A 
ATOM     26  C   UNL A   1      33.985  33.727  30.518  1.00  0.00     0.014 A 
ATOM     27  C   UNL A   1      35.454  34.604  28.802  1.00  0.00     0.014 A 
ATOM     28  C   UNL A   1      35.093  33.219  31.200  1.00  0.00     0.010 A 
ATOM     29  C   UNL A   1      36.545  34.021  29.434  1.00  0.00     0.010 A 
ATOM     30  C   UNL A   1      36.377  33.324  30.640  1.00  0.00    -0.014 A 
BRANCH  30  31
ATOM     31  C   UNL A   1      37.568  32.725  31.293  1.00  0.00     0.031 A 
ATOM     32  C   UNL A   1      38.288  31.587  30.625  1.00  0.00     0.074 A 
ATOM     33  C   UNL A   1      37.941  33.138  32.519  1.00  0.00     0.049 A 
ATOM     34  N   UNL A   1      39.251  30.829  31.086  1.00  0.00    -0.248 NA
ATOM     35  C   UNL A   1      37.844  31.233  29.267  1.00  0.00     0.031 C 
ATOM     36  C   UNL A   1      37.302  34.210  33.284  1.00  0.00     0.029 A 
ATOM     37  N   UNL A   1      38.938  32.687  33.350  1.00  0.00    -0.354 N 
ATOM     38  C   UNL A   1      39.508  29.899  30.086  1.00  0.00     0.074 A 
ATOM     39  C   UNL A   1      38.565  30.151  29.018  1.00  0.00     0.031 C 
ATOM     40  C   UNL A   1      37.930  34.345  34.462  1.00  0.00     0.029 A 
ATOM     41  C   UNL A   1      38.981  33.337  34.560  1.00  0.00     0.049 A 
ATOM     42  H   UNL A   1      39.561  31.967  33.102  1.00  0.00     0.167 HD
ATOM     43  C   UNL A   1      40.461  28.937  30.054  1.00  0.00     0.037 A 
ATOM     44  C   UNL A   1      39.766  33.126  35.635  1.00  0.00     0.037 A 
ATOM     45  C   UNL A   1      41.410  28.709  31.111  1.00  0.00     0.049 A 
ATOM     46  C   UNL A   1      40.796  32.029  35.585  1.00  0.00     0.074 A 
ATOM     47  C   UNL A   1      42.447  27.795  31.155  1.00  0.00     0.029 A 
ATOM     48  N   UNL A   1      41.433  29.400  32.314  1.00  0.00    -0.354 N 
ATOM     49  N   UNL A   1      41.070  31.194  34.614  1.00  0.00    -0.248 NA
ATOM     50  C   UNL A   1      41.627  31.846  36.784  1.00  0.00     0.031 C 
ATOM     51  C   UNL A   1      43.065  27.895  32.405  1.00  0.00     0.029 A 
ATOM     52  C   UNL A   1      42.453  28.914  33.117  1.00  0.00     0.049 A 
ATOM     53  H   UNL A   1      40.816  30.126  32.561  1.00  0.00     0.167 HD
ATOM     54  C   UNL A   1      42.127  30.415  35.066  1.00  0.00     0.074 A 
ATOM     55  C   UNL A   1      42.449  30.880  36.398  1.00  0.00     0.031 C 
ATOM     56  C   UNL A   1      42.774  29.405  34.433  1.00  0.00     0.037 A 
BRANCH  43  57
ATOM     57  C   UNL A   1      40.525  28.061  28.837  1.00  0.00     0.064 A 
ATOM     58  C   UNL A   1      39.810  26.856  28.757  1.00  0.00     0.173 A 
ATOM     59  C   UNL A   1      41.282  28.447  27.721  1.00  0.00     0.173 A 
ATOM     60  F   UNL A   1      39.078  26.433  29.800  1.00  0.00    -0.203 F 
ATOM     61  C   UNL A   1      39.874  26.057  27.618  1.00  0.00     0.198 A 
ATOM     62  C   UNL A   1      41.317  27.664  26.570  1.00  0.00     0.198 A 
ATOM     63  F   UNL A   1      41.981  29.592  27.741  1.00  0.00    -0.203 F 
ATOM     64  F   UNL A   1      39.226  24.885  27.586  1.00  0.00    -0.200 F 
ATOM     65  C   UNL A   1      40.621  26.466  26.524  1.00  0.00     0.200 A 
ATOM     66  F   UNL A   1      42.027  28.068  25.508  1.00  0.00    -0.200 F 
ATOM     67  F   UNL A   1      40.676  25.700  25.425  1.00  0.00    -0.200 F 
ENDBRANCH  43  57
BRANCH  44  68
ATOM     68  C   UNL A   1      39.619  33.978  36.846  1.00  0.00     0.064 A 
ATOM     69  C   UNL A   1      40.293  35.202  36.950  1.00  0.00     0.173 A 
ATOM     70  C   UNL A   1      38.817  33.583  37.927  1.00  0.00     0.173 A 
ATOM     71  F   UNL A   1      41.087  35.615  35.950  1.00  0.00    -0.203 F 
ATOM     72  C   UNL A   1      40.192  35.986  38.098  1.00  0.00     0.198 A 
ATOM     73  C   UNL A   1      38.692  34.383  39.061  1.00  0.00     0.198 A 
ATOM     74  F   UNL A   1      38.144  32.423  37.878  1.00  0.00    -0.203 F 
ATOM     75  F   UNL A   1      40.891  37.126  38.190  1.00  0.00    -0.200 F 
ATOM     76  C   UNL A   1      39.388  35.579  39.150  1.00  0.00     0.200 A 
ATOM     77  F   UNL A   1      37.899  33.993  40.069  1.00  0.00    -0.200 F 
ATOM     78  F   UNL A   1      39.290  36.333  40.253  1.00  0.00    -0.200 F 
ENDBRANCH  44  68
BRANCH  56  79
ATOM     79  C   UNL A   1      43.932  28.767  35.144  1.00  0.00     0.064 A 
ATOM     80  C   UNL A   1      43.768  27.640  35.962  1.00  0.00     0.173 A 
ATOM     81  C   UNL A   1      45.234  29.252  34.945  1.00  0.00     0.173 A 
ATOM     82  F   UNL A   1      42.542  27.147  36.196  1.00  0.00    -0.203 F 
ATOM     83  C   UNL A   1      44.864  27.032  36.569  1.00  0.00     0.198 A 
ATOM     84  C   UNL A   1      46.330  28.622  35.527  1.00  0.00     0.198 A 
ATOM     85  F   UNL A   1      45.446  30.323  34.165  1.00  0.00    -0.203 F 
ATOM     86  F   UNL A   1      44.681  25.980  37.379  1.00  0.00    -0.200 F 
ATOM     87  C   UNL A   1      46.145  27.516  36.342  1.00  0.00     0.200 A 
ATOM     88  F   UNL A   1      47.567  29.081  35.292  1.00  0.00    -0.200 F 
ATOM     89  F   UNL A   1      47.200  26.919  36.912  1.00  0.00    -0.200 F 
ENDBRANCH  56  79
ENDBRANCH  30  31
ENDBRANCH  22  25
ENDBRANCH  20  21
ENDBRANCH  19  20
ENDBRANCH   1  19
TORSDOF 13
ENDMDL
MODEL 3
REMARK VINA RESULT:     -11.9      6.408     11.574
REMARK SMILES C[C@H]([C@@H](C)O)[N@H+]1CC[C@@](C)(C(=O)NCCCNC(=O)c2ccc(-c3c4nc(c(-c5c(F)c(F)c(F)c(F)c5F)c5ccc([nH]5)c(-c5c(F)c(F)c(F)c(F)c5F)c5nc(c(-c6c(F)c(F)c(F)c(F)c6F)c6ccc3[nH]6)C=C5)C=C4)cc2)C1
REMARK SMILES IDX 14 1 13 2 11 3 12 4 9 6 6 7 7 8 83 9 8 11 10 12 2 13 1 14
REMARK SMILES IDX 3 15 4 16 5 17 15 19 16 20 17 21 18 22 19 24 20 25 21 26
REMARK SMILES IDX 82 27 22 28 81 29 23 30 24 31 25 32 75 33 26 34 80 35 74 36
REMARK SMILES IDX 76 37 27 38 79 39 73 40 72 41 28 43 60 44 40 45 59 46 41 47
REMARK SMILES IDX 44 48 58 49 77 50 42 51 43 52 57 54 78 55 45 56 29 57 30 58
REMARK SMILES IDX 38 59 31 60 32 61 36 62 39 63 33 64 34 65 37 66 35 67 61 68
REMARK SMILES IDX 62 69 70 70 63 71 64 72 68 73 71 74 65 75 66 76 69 77 67 78
REMARK SMILES IDX 46 79 47 80 55 81 48 82 49 83 53 84 56 85 50 86 51 87 54 88
REMARK SMILES IDX 52 89
REMARK H PARENT 13 5 6 10 5 18 17 23 76 42 44 53
REMARK Flexibility Score: inf
ROOT
ATOM      1  C   UNL A   1      37.257  21.325  24.855  1.00  0.00     0.117 C 
ENDROOT
BRANCH   1   2
ATOM      2  N   UNL A   1      36.390  21.492  26.009  1.00  0.00    -0.355 N 
ATOM      3  C   UNL A   1      35.078  21.846  26.109  1.00  0.00     0.231 C 
ATOM      4  O   UNL A   1      34.640  21.959  27.257  1.00  0.00    -0.274 OA
ATOM      5  H   UNL A   1      36.829  21.318  26.874  1.00  0.00     0.163 HD
BRANCH   3   6
ATOM      6  C   UNL A   1      34.200  22.045  24.857  1.00  0.00     0.100 C 
ATOM      7  N   UNL A   1      32.672  20.272  24.242  1.00  0.00    -0.330 N 
ATOM      8  C   UNL A   1      32.107  20.985  25.376  1.00  0.00     0.263 C 
ATOM      9  C   UNL A   1      34.064  20.705  24.077  1.00  0.00     0.279 C 
ATOM     10  H   UNL A   1      32.191  20.525  23.379  1.00  0.00     0.348 HD
ATOM     11  C   UNL A   1      32.741  22.353  25.232  1.00  0.00     0.084 C 
ATOM     12  C   UNL A   1      34.835  23.132  23.968  1.00  0.00     0.028 C 
BRANCH   7  13
ATOM     13  C   UNL A   1      32.393  18.827  24.240  1.00  0.00     0.209 C 
ATOM     14  C   UNL A   1      32.824  18.087  25.520  1.00  0.00     0.078 C 
BRANCH  13  15
ATOM     15  C   UNL A   1      32.905  18.137  22.934  1.00  0.00     0.169 C 
ATOM     16  C   UNL A   1      33.832  16.941  23.125  1.00  0.00     0.045 C 
BRANCH  15  17
ATOM     17  O   UNL A   1      31.788  17.702  22.144  1.00  0.00    -0.387 OA
ATOM     18  H   UNL A   1      31.133  17.274  22.717  1.00  0.00     0.211 HD
ENDBRANCH  15  17
ENDBRANCH  13  15
ENDBRANCH   7  13
ENDBRANCH   3   6
ENDBRANCH   1   2
BRANCH   1  19
ATOM     19  C   UNL A   1      38.162  20.110  25.016  1.00  0.00     0.042 C 
BRANCH  19  20
ATOM     20  C   UNL A   1      39.208  20.282  26.110  1.00  0.00     0.118 C 
BRANCH  20  21
ATOM     21  N   UNL A   1      40.202  19.216  26.097  1.00  0.00    -0.352 N 
ATOM     22  C   UNL A   1      41.572  19.302  26.124  1.00  0.00     0.251 C 
ATOM     23  H   UNL A   1      39.839  18.302  26.064  1.00  0.00     0.163 HD
ATOM     24  O   UNL A   1      42.260  18.313  25.890  1.00  0.00    -0.269 OA
BRANCH  22  25
ATOM     25  C   UNL A   1      42.216  20.598  26.417  1.00  0.00     0.039 A 
ATOM     26  C   UNL A   1      42.616  21.419  25.360  1.00  0.00     0.014 A 
ATOM     27  C   UNL A   1      42.409  21.006  27.739  1.00  0.00     0.014 A 
ATOM     28  C   UNL A   1      43.138  22.685  25.629  1.00  0.00     0.010 A 
ATOM     29  C   UNL A   1      42.843  22.299  28.003  1.00  0.00     0.010 A 
ATOM     30  C   UNL A   1      43.214  23.151  26.952  1.00  0.00    -0.014 A 
BRANCH  30  31
ATOM     31  C   UNL A   1      43.685  24.522  27.275  1.00  0.00     0.031 A 
ATOM     32  C   UNL A   1      42.702  25.550  27.763  1.00  0.00     0.074 A 
ATOM     33  C   UNL A   1      44.965  24.865  27.039  1.00  0.00     0.049 A 
ATOM     34  N   UNL A   1      42.872  26.833  27.959  1.00  0.00    -0.248 NA
ATOM     35  C   UNL A   1      41.336  25.076  28.038  1.00  0.00     0.031 C 
ATOM     36  C   UNL A   1      46.005  23.967  26.534  1.00  0.00     0.029 A 
ATOM     37  N   UNL A   1      45.607  26.073  27.172  1.00  0.00    -0.354 N 
ATOM     38  C   UNL A   1      41.633  27.319  28.356  1.00  0.00     0.074 A 
ATOM     39  C   UNL A   1      40.708  26.208  28.320  1.00  0.00     0.031 C 
ATOM     40  C   UNL A   1      47.155  24.648  26.415  1.00  0.00     0.029 A 
ATOM     41  C   UNL A   1      46.924  26.041  26.783  1.00  0.00     0.049 A 
ATOM     42  H   UNL A   1      45.164  26.883  27.513  1.00  0.00     0.167 HD
ATOM     43  C   UNL A   1      41.303  28.576  28.739  1.00  0.00     0.037 A 
ATOM     44  C   UNL A   1      47.836  27.031  26.712  1.00  0.00     0.037 A 
ATOM     45  C   UNL A   1      42.235  29.671  28.794  1.00  0.00     0.049 A 
ATOM     46  C   UNL A   1      47.435  28.425  27.113  1.00  0.00     0.074 A 
ATOM     47  C   UNL A   1      42.014  30.969  29.217  1.00  0.00     0.029 A 
ATOM     48  N   UNL A   1      43.566  29.595  28.410  1.00  0.00    -0.354 N 
ATOM     49  N   UNL A   1      46.277  28.863  27.542  1.00  0.00    -0.248 NA
ATOM     50  C   UNL A   1      48.470  29.466  27.018  1.00  0.00     0.031 C 
ATOM     51  C   UNL A   1      43.196  31.694  29.037  1.00  0.00     0.029 A 
ATOM     52  C   UNL A   1      44.171  30.832  28.562  1.00  0.00     0.049 A 
ATOM     53  H   UNL A   1      44.013  28.784  28.077  1.00  0.00     0.167 HD
ATOM     54  C   UNL A   1      46.452  30.215  27.806  1.00  0.00     0.074 A 
ATOM     55  C   UNL A   1      47.831  30.526  27.493  1.00  0.00     0.031 C 
ATOM     56  C   UNL A   1      45.552  31.118  28.267  1.00  0.00     0.037 A 
BRANCH  43  57
ATOM     57  C   UNL A   1      39.877  28.833  29.128  1.00  0.00     0.064 A 
ATOM     58  C   UNL A   1      38.916  29.235  28.187  1.00  0.00     0.173 A 
ATOM     59  C   UNL A   1      39.454  28.641  30.453  1.00  0.00     0.173 A 
ATOM     60  F   UNL A   1      39.267  29.444  26.909  1.00  0.00    -0.203 F 
ATOM     61  C   UNL A   1      37.594  29.464  28.563  1.00  0.00     0.198 A 
ATOM     62  C   UNL A   1      38.125  28.837  30.819  1.00  0.00     0.198 A 
ATOM     63  F   UNL A   1      40.330  28.252  31.392  1.00  0.00    -0.203 F 
ATOM     64  F   UNL A   1      36.708  29.899  27.658  1.00  0.00    -0.200 F 
ATOM     65  C   UNL A   1      37.199  29.257  29.876  1.00  0.00     0.200 A 
ATOM     66  F   UNL A   1      37.742  28.621  32.085  1.00  0.00    -0.200 F 
ATOM     67  F   UNL A   1      35.925  29.469  30.235  1.00  0.00    -0.200 F 
ENDBRANCH  43  57
BRANCH  44  68
ATOM     68  C   UNL A   1      49.221  26.739  26.254  1.00  0.00     0.064 A 
ATOM     69  C   UNL A   1      49.585  26.908  24.910  1.00  0.00     0.173 A 
ATOM     70  C   UNL A   1      50.204  26.273  27.140  1.00  0.00     0.173 A 
ATOM     71  F   UNL A   1      48.675  27.333  24.020  1.00  0.00    -0.203 F 
ATOM     72  C   UNL A   1      50.868  26.598  24.466  1.00  0.00     0.198 A 
ATOM     73  C   UNL A   1      51.496  25.995  26.700  1.00  0.00     0.198 A 
ATOM     74  F   UNL A   1      49.911  26.099  28.438  1.00  0.00    -0.203 F 
ATOM     75  F   UNL A   1      51.172  26.719  23.167  1.00  0.00    -0.200 F 
ATOM     76  C   UNL A   1      51.824  26.147  25.362  1.00  0.00     0.200 A 
ATOM     77  F   UNL A   1      52.422  25.574  27.574  1.00  0.00    -0.200 F 
ATOM     78  F   UNL A   1      53.059  25.850  24.935  1.00  0.00    -0.200 F 
ENDBRANCH  44  68
BRANCH  56  79
ATOM     79  C   UNL A   1      46.036  32.517  28.518  1.00  0.00     0.064 A 
ATOM     80  C   UNL A   1      45.961  33.514  27.535  1.00  0.00     0.173 A 
ATOM     81  C   UNL A   1      46.517  32.878  29.786  1.00  0.00     0.173 A 
ATOM     82  F   UNL A   1      45.522  33.215  26.303  1.00  0.00    -0.203 F 
ATOM     83  C   UNL A   1      46.366  34.818  27.807  1.00  0.00     0.198 A 
ATOM     84  C   UNL A   1      46.891  34.191  30.064  1.00  0.00     0.198 A 
ATOM     85  F   UNL A   1      46.603  31.964  30.764  1.00  0.00    -0.203 F 
ATOM     86  F   UNL A   1      46.323  35.746  26.842  1.00  0.00    -0.200 F 
ATOM     87  C   UNL A   1      46.819  35.158  29.074  1.00  0.00     0.200 A 
ATOM     88  F   UNL A   1      47.312  34.519  31.294  1.00  0.00    -0.200 F 
ATOM     89  F   UNL A   1      47.192  36.417  29.339  1.00  0.00    -0.200 F 
ENDBRANCH  56  79
ENDBRANCH  30  31
ENDBRANCH  22  25
ENDBRANCH  20  21
ENDBRANCH  19  20
ENDBRANCH   1  19
TORSDOF 13
ENDMDL
