MODEL 1
REMARK VINA RESULT:     -13.1      0.000      0.000
REMARK SMILES O=C(NCCCNC(=O)[C@H]1C[C@@H]2N=CN=C2C[NH2+]1)c1ccc(-c2c3nc(c(-c4c(F)c(F)c(F)c(F)c4F)c4ccc([nH]4)c(-c4c(F)c(F)c(F)c(F)c4F)c4nc(c(-c5c(F)c(F)c(F)c(F)c5F)c5ccc2[nH]5)C=C4)C=C3)cc1
REMARK SMILES IDX 4 1 3 2 1 3 2 4 19 6 20 7 81 8 21 9 80 10 22 11 23 12 24 13
REMARK SMILES IDX 74 14 25 15 79 16 73 17 75 18 26 19 78 20 72 21 71 22 27 24
REMARK SMILES IDX 59 25 39 26 58 27 40 28 43 29 57 30 76 31 41 32 42 33 56 35
REMARK SMILES IDX 77 36 44 37 28 38 29 39 37 40 30 41 31 42 35 43 38 44 32 45
REMARK SMILES IDX 33 46 36 47 34 48 60 49 61 50 69 51 62 52 63 53 67 54 70 55
REMARK SMILES IDX 64 56 65 57 68 58 66 59 45 60 46 61 54 62 47 63 48 64 52 65
REMARK SMILES IDX 55 66 49 67 50 68 53 69 51 70 5 71 6 72 7 73 8 74 9 76 10 77
REMARK SMILES IDX 11 78 18 79 12 80 17 81 13 84 16 85 14 86 15 87
REMARK H PARENT 3 5 75 23 43 34 7 75 18 82 18 83
REMARK Flexibility Score: inf
ROOT
ATOM      1  C   UNL A   1      35.163  34.223  28.820  1.00  0.00     0.118 C 
ENDROOT
BRANCH   1   2
ATOM      2  N   UNL A   1      34.484  33.021  28.394  1.00  0.00    -0.352 N 
ATOM      3  O   UNL A   1      33.957  30.956  27.842  1.00  0.00    -0.269 OA
ATOM      4  C   UNL A   1      34.841  31.709  28.238  1.00  0.00     0.251 C 
ATOM      5  H   UNL A   1      33.541  33.184  28.162  1.00  0.00     0.163 HD
BRANCH   4   6
ATOM      6  C   UNL A   1      36.208  31.155  28.455  1.00  0.00     0.039 A 
ATOM      7  C   UNL A   1      37.287  31.810  29.052  1.00  0.00     0.014 A 
ATOM      8  C   UNL A   1      36.389  29.827  28.022  1.00  0.00     0.014 A 
ATOM      9  C   UNL A   1      38.529  31.178  29.150  1.00  0.00     0.010 A 
ATOM     10  C   UNL A   1      37.616  29.185  28.138  1.00  0.00     0.010 A 
ATOM     11  C   UNL A   1      38.699  29.873  28.674  1.00  0.00    -0.014 A 
BRANCH  11  12
ATOM     12  C   UNL A   1      39.976  29.194  28.903  1.00  0.00     0.031 A 
ATOM     13  C   UNL A   1      40.323  28.967  30.341  1.00  0.00     0.074 A 
ATOM     14  C   UNL A   1      40.719  28.640  27.920  1.00  0.00     0.049 A 
ATOM     15  N   UNL A   1      41.384  29.340  30.984  1.00  0.00    -0.248 NA
ATOM     16  C   UNL A   1      39.320  28.301  31.189  1.00  0.00     0.031 C 
ATOM     17  C   UNL A   1      40.389  28.493  26.501  1.00  0.00     0.029 A 
ATOM     18  N   UNL A   1      41.920  27.999  28.019  1.00  0.00    -0.354 N 
ATOM     19  C   UNL A   1      41.252  28.840  32.282  1.00  0.00     0.074 A 
ATOM     20  C   UNL A   1      39.922  28.298  32.379  1.00  0.00     0.031 C 
ATOM     21  C   UNL A   1      41.259  27.630  25.924  1.00  0.00     0.029 A 
ATOM     22  C   UNL A   1      42.285  27.277  26.890  1.00  0.00     0.049 A 
ATOM     23  H   UNL A   1      42.482  28.045  28.826  1.00  0.00     0.167 HD
ATOM     24  C   UNL A   1      42.308  28.760  33.140  1.00  0.00     0.037 A 
ATOM     25  C   UNL A   1      43.328  26.417  26.775  1.00  0.00     0.037 A 
ATOM     26  C   UNL A   1      43.378  29.634  32.745  1.00  0.00     0.049 A 
ATOM     27  C   UNL A   1      44.282  26.721  27.870  1.00  0.00     0.074 A 
ATOM     28  C   UNL A   1      43.510  31.003  32.617  1.00  0.00     0.029 A 
ATOM     29  N   UNL A   1      44.446  29.101  32.068  1.00  0.00    -0.354 N 
ATOM     30  N   UNL A   1      44.981  27.817  27.941  1.00  0.00    -0.248 NA
ATOM     31  C   UNL A   1      44.124  25.991  29.118  1.00  0.00     0.031 C 
ATOM     32  C   UNL A   1      44.318  31.186  31.457  1.00  0.00     0.029 A 
ATOM     33  C   UNL A   1      44.678  29.920  30.993  1.00  0.00     0.049 A 
ATOM     34  H   UNL A   1      44.948  28.289  32.308  1.00  0.00     0.167 HD
ATOM     35  C   UNL A   1      44.981  28.143  29.288  1.00  0.00     0.074 A 
ATOM     36  C   UNL A   1      44.506  26.942  29.972  1.00  0.00     0.031 C 
ATOM     37  C   UNL A   1      45.097  29.439  29.700  1.00  0.00     0.037 A 
BRANCH  24  38
ATOM     38  C   UNL A   1      42.489  27.680  34.176  1.00  0.00     0.064 A 
ATOM     39  C   UNL A   1      43.079  26.450  33.815  1.00  0.00     0.173 A 
ATOM     40  C   UNL A   1      41.841  27.697  35.429  1.00  0.00     0.173 A 
ATOM     41  F   UNL A   1      43.700  26.311  32.634  1.00  0.00    -0.203 F 
ATOM     42  C   UNL A   1      42.969  25.312  34.620  1.00  0.00     0.198 A 
ATOM     43  C   UNL A   1      41.777  26.574  36.252  1.00  0.00     0.198 A 
ATOM     44  F   UNL A   1      41.153  28.763  35.854  1.00  0.00    -0.203 F 
ATOM     45  F   UNL A   1      43.445  24.138  34.183  1.00  0.00    -0.200 F 
ATOM     46  C   UNL A   1      42.314  25.374  35.837  1.00  0.00     0.200 A 
ATOM     47  F   UNL A   1      41.118  26.648  37.418  1.00  0.00    -0.200 F 
ATOM     48  F   UNL A   1      42.156  24.272  36.582  1.00  0.00    -0.200 F 
ENDBRANCH  24  38
BRANCH  25  49
ATOM     49  C   UNL A   1      43.404  25.153  26.004  1.00  0.00     0.064 A 
ATOM     50  C   UNL A   1      44.490  24.875  25.157  1.00  0.00     0.173 A 
ATOM     51  C   UNL A   1      42.561  24.069  26.315  1.00  0.00     0.173 A 
ATOM     52  F   UNL A   1      45.372  25.839  24.851  1.00  0.00    -0.203 F 
ATOM     53  C   UNL A   1      44.729  23.585  24.667  1.00  0.00     0.198 A 
ATOM     54  C   UNL A   1      42.798  22.784  25.824  1.00  0.00     0.198 A 
ATOM     55  F   UNL A   1      41.549  24.216  27.181  1.00  0.00    -0.203 F 
ATOM     56  F   UNL A   1      45.810  23.345  23.911  1.00  0.00    -0.200 F 
ATOM     57  C   UNL A   1      43.889  22.539  25.011  1.00  0.00     0.200 A 
ATOM     58  F   UNL A   1      42.002  21.773  26.198  1.00  0.00    -0.200 F 
ATOM     59  F   UNL A   1      44.153  21.292  24.596  1.00  0.00    -0.200 F 
ENDBRANCH  25  49
BRANCH  37  60
ATOM     60  C   UNL A   1      45.454  30.472  28.667  1.00  0.00     0.064 A 
ATOM     61  C   UNL A   1      44.513  31.122  27.846  1.00  0.00     0.173 A 
ATOM     62  C   UNL A   1      46.779  30.922  28.602  1.00  0.00     0.173 A 
ATOM     63  F   UNL A   1      43.211  30.827  27.922  1.00  0.00    -0.203 F 
ATOM     64  C   UNL A   1      44.892  32.138  26.971  1.00  0.00     0.198 A 
ATOM     65  C   UNL A   1      47.149  31.963  27.754  1.00  0.00     0.198 A 
ATOM     66  F   UNL A   1      47.711  30.382  29.403  1.00  0.00    -0.203 F 
ATOM     67  F   UNL A   1      43.976  32.732  26.192  1.00  0.00    -0.200 F 
ATOM     68  C   UNL A   1      46.210  32.563  26.931  1.00  0.00     0.200 A 
ATOM     69  F   UNL A   1      48.414  32.406  27.757  1.00  0.00    -0.200 F 
ATOM     70  F   UNL A   1      46.568  33.568  26.122  1.00  0.00    -0.200 F 
ENDBRANCH  37  60
ENDBRANCH  11  12
ENDBRANCH   4   6
ENDBRANCH   1   2
BRANCH   1  71
ATOM     71  C   UNL A   1      34.388  35.503  28.520  1.00  0.00     0.042 C 
BRANCH  71  72
ATOM     72  C   UNL A   1      32.983  35.530  29.127  1.00  0.00     0.118 C 
BRANCH  72  73
ATOM     73  N   UNL A   1      32.858  36.529  30.166  1.00  0.00    -0.351 N 
ATOM     74  C   UNL A   1      33.242  36.557  31.468  1.00  0.00     0.278 C 
ATOM     75  H   UNL A   1      32.404  37.351  29.871  1.00  0.00     0.163 HD
ATOM     76  O   UNL A   1      32.917  37.577  32.090  1.00  0.00    -0.268 OA
BRANCH  74  77
ATOM     77  C   UNL A   1      34.108  35.471  32.158  1.00  0.00     0.275 C 
ATOM     78  C   UNL A   1      34.744  35.762  33.528  1.00  0.00     0.109 C 
ATOM     79  N   UNL A   1      33.389  34.166  32.116  1.00  0.00    -0.331 N 
ATOM     80  C   UNL A   1      35.706  34.663  33.960  1.00  0.00     0.164 C 
ATOM     81  C   UNL A   1      34.028  33.078  32.877  1.00  0.00     0.316 C 
ATOM     82  H   UNL A   1      33.321  33.874  31.141  1.00  0.00     0.347 HD
ATOM     83  H   UNL A   1      32.482  34.326  32.555  1.00  0.00     0.347 HD
ATOM     84  N   UNL A   1      37.110  34.953  33.621  1.00  0.00    -0.264 NA
ATOM     85  C   UNL A   1      35.449  33.463  33.121  1.00  0.00     0.098 C 
ATOM     86  C   UNL A   1      37.468  33.957  32.865  1.00  0.00     0.216 C 
ATOM     87  N   UNL A   1      36.510  33.029  32.531  1.00  0.00    -0.238 NA
ENDBRANCH  74  77
ENDBRANCH  72  73
ENDBRANCH  71  72
ENDBRANCH   1  71
TORSDOF 10
ENDMDL
MODEL 2
REMARK VINA RESULT:     -13.0      3.327      5.221
REMARK SMILES O=C(NCCCNC(=O)[C@H]1C[C@@H]2N=CN=C2C[NH2+]1)c1ccc(-c2c3nc(c(-c4c(F)c(F)c(F)c(F)c4F)c4ccc([nH]4)c(-c4c(F)c(F)c(F)c(F)c4F)c4nc(c(-c5c(F)c(F)c(F)c(F)c5F)c5ccc2[nH]5)C=C4)C=C3)cc1
REMARK SMILES IDX 4 1 3 2 1 3 2 4 19 6 20 7 81 8 21 9 80 10 22 11 23 12 24 13
REMARK SMILES IDX 74 14 25 15 79 16 73 17 75 18 26 19 78 20 72 21 71 22 27 24
REMARK SMILES IDX 59 25 39 26 58 27 40 28 43 29 57 30 76 31 41 32 42 33 56 35
REMARK SMILES IDX 77 36 44 37 28 38 29 39 37 40 30 41 31 42 35 43 38 44 32 45
REMARK SMILES IDX 33 46 36 47 34 48 60 49 61 50 69 51 62 52 63 53 67 54 70 55
REMARK SMILES IDX 64 56 65 57 68 58 66 59 45 60 46 61 54 62 47 63 48 64 52 65
REMARK SMILES IDX 55 66 49 67 50 68 53 69 51 70 5 71 6 72 7 73 8 74 9 76 10 77
REMARK SMILES IDX 11 78 18 79 12 80 17 81 13 84 16 85 14 86 15 87
REMARK H PARENT 3 5 75 23 43 34 7 75 18 82 18 83
REMARK Flexibility Score: inf
ROOT
ATOM      1  C   UNL A   1      33.258  30.118  27.259  1.00  0.00     0.118 C 
ENDROOT
BRANCH   1   2
ATOM      2  N   UNL A   1      33.780  31.426  27.582  1.00  0.00    -0.352 N 
ATOM      3  O   UNL A   1      35.057  33.129  28.144  1.00  0.00    -0.269 OA
ATOM      4  C   UNL A   1      35.003  31.918  27.946  1.00  0.00     0.251 C 
ATOM      5  H   UNL A   1      33.093  32.129  27.527  1.00  0.00     0.163 HD
BRANCH   4   6
ATOM      6  C   UNL A   1      36.231  31.102  28.168  1.00  0.00     0.039 A 
ATOM      7  C   UNL A   1      36.435  29.780  27.771  1.00  0.00     0.014 A 
ATOM      8  C   UNL A   1      37.280  31.770  28.829  1.00  0.00     0.014 A 
ATOM      9  C   UNL A   1      37.627  29.123  28.087  1.00  0.00     0.010 A 
ATOM     10  C   UNL A   1      38.477  31.130  29.126  1.00  0.00     0.010 A 
ATOM     11  C   UNL A   1      38.640  29.793  28.783  1.00  0.00    -0.014 A 
BRANCH  11  12
ATOM     12  C   UNL A   1      39.923  29.119  28.990  1.00  0.00     0.031 A 
ATOM     13  C   UNL A   1      40.292  28.885  30.421  1.00  0.00     0.074 A 
ATOM     14  C   UNL A   1      40.655  28.573  27.993  1.00  0.00     0.049 A 
ATOM     15  N   UNL A   1      41.361  29.259  31.051  1.00  0.00    -0.248 NA
ATOM     16  C   UNL A   1      39.305  28.210  31.280  1.00  0.00     0.031 C 
ATOM     17  C   UNL A   1      40.305  28.433  26.578  1.00  0.00     0.029 A 
ATOM     18  N   UNL A   1      41.860  27.938  28.071  1.00  0.00    -0.354 N 
ATOM     19  C   UNL A   1      41.250  28.751  32.348  1.00  0.00     0.074 A 
ATOM     20  C   UNL A   1      39.923  28.203  32.461  1.00  0.00     0.031 C 
ATOM     21  C   UNL A   1      41.170  27.577  25.983  1.00  0.00     0.029 A 
ATOM     22  C   UNL A   1      42.211  27.224  26.933  1.00  0.00     0.049 A 
ATOM     23  H   UNL A   1      42.434  27.982  28.870  1.00  0.00     0.167 HD
ATOM     24  C   UNL A   1      42.318  28.672  33.190  1.00  0.00     0.037 A 
ATOM     25  C   UNL A   1      43.257  26.369  26.798  1.00  0.00     0.037 A 
ATOM     26  C   UNL A   1      43.378  29.552  32.785  1.00  0.00     0.049 A 
ATOM     27  C   UNL A   1      44.225  26.671  27.881  1.00  0.00     0.074 A 
ATOM     28  C   UNL A   1      43.502  30.923  32.664  1.00  0.00     0.029 A 
ATOM     29  N   UNL A   1      44.438  29.028  32.090  1.00  0.00    -0.354 N 
ATOM     30  N   UNL A   1      44.920  27.771  27.948  1.00  0.00    -0.248 NA
ATOM     31  C   UNL A   1      44.089  25.934  29.127  1.00  0.00     0.031 C 
ATOM     32  C   UNL A   1      44.293  31.116  31.493  1.00  0.00     0.029 A 
ATOM     33  C   UNL A   1      44.651  29.855  31.016  1.00  0.00     0.049 A 
ATOM     34  H   UNL A   1      44.947  28.218  32.318  1.00  0.00     0.167 HD
ATOM     35  C   UNL A   1      44.938  28.089  29.297  1.00  0.00     0.074 A 
ATOM     36  C   UNL A   1      44.479  26.882  29.981  1.00  0.00     0.031 C 
ATOM     37  C   UNL A   1      45.054  29.382  29.714  1.00  0.00     0.037 A 
BRANCH  24  38
ATOM     38  C   UNL A   1      42.519  27.586  34.217  1.00  0.00     0.064 A 
ATOM     39  C   UNL A   1      43.119  26.366  33.843  1.00  0.00     0.173 A 
ATOM     40  C   UNL A   1      41.880  27.588  35.475  1.00  0.00     0.173 A 
ATOM     41  F   UNL A   1      43.733  26.241  32.656  1.00  0.00    -0.203 F 
ATOM     42  C   UNL A   1      43.028  25.221  34.642  1.00  0.00     0.198 A 
ATOM     43  C   UNL A   1      41.834  26.458  36.291  1.00  0.00     0.198 A 
ATOM     44  F   UNL A   1      41.183  28.643  35.913  1.00  0.00    -0.203 F 
ATOM     45  F   UNL A   1      43.514  24.055  34.193  1.00  0.00    -0.200 F 
ATOM     46  C   UNL A   1      42.382  25.267  35.864  1.00  0.00     0.200 A 
ATOM     47  F   UNL A   1      41.184  26.516  37.463  1.00  0.00    -0.200 F 
ATOM     48  F   UNL A   1      42.241  24.158  36.602  1.00  0.00    -0.200 F 
ENDBRANCH  24  38
BRANCH  25  49
ATOM     49  C   UNL A   1      43.328  25.110  26.019  1.00  0.00     0.064 A 
ATOM     50  C   UNL A   1      44.401  24.843  25.152  1.00  0.00     0.173 A 
ATOM     51  C   UNL A   1      42.496  24.020  26.337  1.00  0.00     0.173 A 
ATOM     52  F   UNL A   1      45.272  25.814  24.838  1.00  0.00    -0.203 F 
ATOM     53  C   UNL A   1      44.640  23.558  24.652  1.00  0.00     0.198 A 
ATOM     54  C   UNL A   1      42.733  22.738  25.835  1.00  0.00     0.198 A 
ATOM     55  F   UNL A   1      41.497  24.156  27.220  1.00  0.00    -0.203 F 
ATOM     56  F   UNL A   1      45.710  23.328  23.876  1.00  0.00    -0.200 F 
ATOM     57  C   UNL A   1      43.811  22.505  25.003  1.00  0.00     0.200 A 
ATOM     58  F   UNL A   1      41.948  21.721  26.217  1.00  0.00    -0.200 F 
ATOM     59  F   UNL A   1      44.076  21.261  24.577  1.00  0.00    -0.200 F 
ENDBRANCH  25  49
BRANCH  37  60
ATOM     60  C   UNL A   1      45.392  30.423  28.682  1.00  0.00     0.064 A 
ATOM     61  C   UNL A   1      44.435  31.086  27.892  1.00  0.00     0.173 A 
ATOM     62  C   UNL A   1      46.717  30.866  28.589  1.00  0.00     0.173 A 
ATOM     63  F   UNL A   1      43.133  30.799  27.998  1.00  0.00    -0.203 F 
ATOM     64  C   UNL A   1      44.798  32.108  27.017  1.00  0.00     0.198 A 
ATOM     65  C   UNL A   1      47.072  31.913  27.742  1.00  0.00     0.198 A 
ATOM     66  F   UNL A   1      47.666  30.314  29.361  1.00  0.00    -0.203 F 
ATOM     67  F   UNL A   1      43.866  32.715  26.267  1.00  0.00    -0.200 F 
ATOM     68  C   UNL A   1      46.117  32.526  26.948  1.00  0.00     0.200 A 
ATOM     69  F   UNL A   1      48.340  32.348  27.717  1.00  0.00    -0.200 F 
ATOM     70  F   UNL A   1      46.460  33.537  26.139  1.00  0.00    -0.200 F 
ENDBRANCH  37  60
ENDBRANCH  11  12
ENDBRANCH   4   6
ENDBRANCH   1   2
BRANCH   1  71
ATOM     71  C   UNL A   1      32.477  30.078  25.947  1.00  0.00     0.042 C 
BRANCH  71  72
ATOM     72  C   UNL A   1      31.697  28.778  25.734  1.00  0.00     0.118 C 
BRANCH  72  73
ATOM     73  N   UNL A   1      31.976  28.180  24.446  1.00  0.00    -0.351 N 
ATOM     74  C   UNL A   1      31.282  28.138  23.280  1.00  0.00     0.278 C 
ATOM     75  H   UNL A   1      32.840  27.711  24.408  1.00  0.00     0.163 HD
ATOM     76  O   UNL A   1      31.811  27.477  22.377  1.00  0.00    -0.268 OA
BRANCH  74  77
ATOM     77  C   UNL A   1      29.969  28.917  23.004  1.00  0.00     0.275 C 
ATOM     78  C   UNL A   1      29.814  29.707  21.693  1.00  0.00     0.109 C 
ATOM     79  N   UNL A   1      28.802  28.036  23.293  1.00  0.00    -0.331 N 
ATOM     80  C   UNL A   1      28.549  30.555  21.679  1.00  0.00     0.164 C 
ATOM     81  C   UNL A   1      27.491  28.596  22.922  1.00  0.00     0.316 C 
ATOM     82  H   UNL A   1      28.792  27.843  24.294  1.00  0.00     0.347 HD
ATOM     83  H   UNL A   1      28.928  27.201  22.721  1.00  0.00     0.347 HD
ATOM     84  N   UNL A   1      28.779  31.948  22.100  1.00  0.00    -0.264 NA
ATOM     85  C   UNL A   1      27.653  30.072  22.761  1.00  0.00     0.098 C 
ATOM     86  C   UNL A   1      27.994  32.106  23.125  1.00  0.00     0.216 C 
ATOM     87  N   UNL A   1      27.290  31.010  23.568  1.00  0.00    -0.238 NA
ENDBRANCH  74  77
ENDBRANCH  72  73
ENDBRANCH  71  72
ENDBRANCH   1  71
TORSDOF 10
ENDMDL
MODEL 3
REMARK VINA RESULT:     -12.9      5.507     11.395
REMARK SMILES O=C(NCCCNC(=O)[C@H]1C[C@@H]2N=CN=C2C[NH2+]1)c1ccc(-c2c3nc(c(-c4c(F)c(F)c(F)c(F)c4F)c4ccc([nH]4)c(-c4c(F)c(F)c(F)c(F)c4F)c4nc(c(-c5c(F)c(F)c(F)c(F)c5F)c5ccc2[nH]5)C=C4)C=C3)cc1
REMARK SMILES IDX 4 1 3 2 1 3 2 4 19 6 20 7 81 8 21 9 80 10 22 11 23 12 24 13
REMARK SMILES IDX 74 14 25 15 79 16 73 17 75 18 26 19 78 20 72 21 71 22 27 24
REMARK SMILES IDX 59 25 39 26 58 27 40 28 43 29 57 30 76 31 41 32 42 33 56 35
REMARK SMILES IDX 77 36 44 37 28 38 29 39 37 40 30 41 31 42 35 43 38 44 32 45
REMARK SMILES IDX 33 46 36 47 34 48 60 49 61 50 69 51 62 52 63 53 67 54 70 55
REMARK SMILES IDX 64 56 65 57 68 58 66 59 45 60 46 61 54 62 47 63 48 64 52 65
REMARK SMILES IDX 55 66 49 67 50 68 53 69 51 70 5 71 6 72 7 73 8 74 9 76 10 77
REMARK SMILES IDX 11 78 18 79 12 80 17 81 13 84 16 85 14 86 15 87
REMARK H PARENT 3 5 75 23 43 34 7 75 18 82 18 83
REMARK Flexibility Score: inf
ROOT
ATOM      1  C   UNL A   1      38.399  22.123  25.850  1.00  0.00     0.118 C 
ENDROOT
BRANCH   1   2
ATOM      2  N   UNL A   1      39.817  21.883  25.995  1.00  0.00    -0.352 N 
ATOM      3  O   UNL A   1      41.970  22.046  26.425  1.00  0.00    -0.269 OA
ATOM      4  C   UNL A   1      40.879  22.608  26.462  1.00  0.00     0.251 C 
ATOM      5  H   UNL A   1      40.080  20.986  25.685  1.00  0.00     0.163 HD
BRANCH   4   6
ATOM      6  C   UNL A   1      40.816  24.015  26.950  1.00  0.00     0.039 A 
ATOM      7  C   UNL A   1      39.929  25.005  26.524  1.00  0.00     0.014 A 
ATOM      8  C   UNL A   1      41.745  24.339  27.957  1.00  0.00     0.014 A 
ATOM      9  C   UNL A   1      40.016  26.300  27.041  1.00  0.00     0.010 A 
ATOM     10  C   UNL A   1      41.821  25.619  28.493  1.00  0.00     0.010 A 
ATOM     11  C   UNL A   1      40.975  26.613  28.011  1.00  0.00    -0.014 A 
BRANCH  11  12
ATOM     12  C   UNL A   1      40.959  27.942  28.623  1.00  0.00     0.031 A 
ATOM     13  C   UNL A   1      42.050  28.861  28.169  1.00  0.00     0.074 A 
ATOM     14  C   UNL A   1      39.952  28.401  29.398  1.00  0.00     0.049 A 
ATOM     15  N   UNL A   1      42.933  29.482  28.885  1.00  0.00    -0.248 NA
ATOM     16  C   UNL A   1      42.222  29.053  26.719  1.00  0.00     0.031 C 
ATOM     17  C   UNL A   1      38.668  27.763  29.695  1.00  0.00     0.029 A 
ATOM     18  N   UNL A   1      39.840  29.609  30.023  1.00  0.00    -0.354 N 
ATOM     19  C   UNL A   1      43.688  30.251  27.997  1.00  0.00     0.074 A 
ATOM     20  C   UNL A   1      43.274  29.871  26.671  1.00  0.00     0.031 C 
ATOM     21  C   UNL A   1      37.834  28.669  30.258  1.00  0.00     0.029 A 
ATOM     22  C   UNL A   1      38.566  29.902  30.491  1.00  0.00     0.049 A 
ATOM     23  H   UNL A   1      40.602  30.222  30.133  1.00  0.00     0.167 HD
ATOM     24  C   UNL A   1      44.491  31.269  28.419  1.00  0.00     0.037 A 
ATOM     25  C   UNL A   1      38.135  31.088  30.990  1.00  0.00     0.037 A 
ATOM     26  C   UNL A   1      44.813  31.145  29.813  1.00  0.00     0.049 A 
ATOM     27  C   UNL A   1      39.331  31.866  31.395  1.00  0.00     0.074 A 
ATOM     28  C   UNL A   1      45.500  30.213  30.566  1.00  0.00     0.029 A 
ATOM     29  N   UNL A   1      44.113  31.900  30.720  1.00  0.00    -0.354 N 
ATOM     30  N   UNL A   1      40.106  31.542  32.390  1.00  0.00    -0.248 NA
ATOM     31  C   UNL A   1      39.913  32.762  30.408  1.00  0.00     0.031 C 
ATOM     32  C   UNL A   1      44.774  30.124  31.791  1.00  0.00     0.029 A 
ATOM     33  C   UNL A   1      43.733  31.051  31.728  1.00  0.00     0.049 A 
ATOM     34  H   UNL A   1      43.921  32.863  30.658  1.00  0.00     0.167 HD
ATOM     35  C   UNL A   1      41.386  31.829  31.941  1.00  0.00     0.074 A 
ATOM     36  C   UNL A   1      41.199  32.650  30.748  1.00  0.00     0.031 C 
ATOM     37  C   UNL A   1      42.468  31.146  32.415  1.00  0.00     0.037 A 
BRANCH  24  38
ATOM     38  C   UNL A   1      44.749  32.533  27.640  1.00  0.00     0.064 A 
ATOM     39  C   UNL A   1      45.936  32.668  26.889  1.00  0.00     0.173 A 
ATOM     40  C   UNL A   1      44.019  33.724  27.839  1.00  0.00     0.173 A 
ATOM     41  F   UNL A   1      46.723  31.606  26.658  1.00  0.00    -0.203 F 
ATOM     42  C   UNL A   1      46.385  33.911  26.432  1.00  0.00     0.198 A 
ATOM     43  C   UNL A   1      44.445  34.954  27.339  1.00  0.00     0.198 A 
ATOM     44  F   UNL A   1      42.930  33.764  28.616  1.00  0.00    -0.203 F 
ATOM     45  F   UNL A   1      47.576  34.006  25.824  1.00  0.00    -0.200 F 
ATOM     46  C   UNL A   1      45.642  35.054  26.661  1.00  0.00     0.200 A 
ATOM     47  F   UNL A   1      43.721  36.055  27.591  1.00  0.00    -0.200 F 
ATOM     48  F   UNL A   1      46.099  36.253  26.277  1.00  0.00    -0.200 F 
ENDBRANCH  24  38
BRANCH  25  49
ATOM     49  C   UNL A   1      36.806  31.727  30.839  1.00  0.00     0.064 A 
ATOM     50  C   UNL A   1      35.985  31.984  31.951  1.00  0.00     0.173 A 
ATOM     51  C   UNL A   1      36.446  32.365  29.637  1.00  0.00     0.173 A 
ATOM     52  F   UNL A   1      36.285  31.456  33.147  1.00  0.00    -0.203 F 
ATOM     53  C   UNL A   1      34.884  32.845  31.868  1.00  0.00     0.198 A 
ATOM     54  C   UNL A   1      35.347  33.222  29.555  1.00  0.00     0.198 A 
ATOM     55  F   UNL A   1      37.215  32.249  28.545  1.00  0.00    -0.203 F 
ATOM     56  F   UNL A   1      34.160  33.114  32.964  1.00  0.00    -0.200 F 
ATOM     57  C   UNL A   1      34.573  33.471  30.673  1.00  0.00     0.200 A 
ATOM     58  F   UNL A   1      35.083  33.853  28.403  1.00  0.00    -0.200 F 
ATOM     59  F   UNL A   1      33.559  34.346  30.608  1.00  0.00    -0.200 F 
ENDBRANCH  25  49
BRANCH  37  60
ATOM     60  C   UNL A   1      42.261  30.238  33.596  1.00  0.00     0.064 A 
ATOM     61  C   UNL A   1      41.862  28.892  33.493  1.00  0.00     0.173 A 
ATOM     62  C   UNL A   1      42.614  30.706  34.868  1.00  0.00     0.173 A 
ATOM     63  F   UNL A   1      41.610  28.336  32.304  1.00  0.00    -0.203 F 
ATOM     64  C   UNL A   1      41.776  28.073  34.617  1.00  0.00     0.198 A 
ATOM     65  C   UNL A   1      42.564  29.874  35.985  1.00  0.00     0.198 A 
ATOM     66  F   UNL A   1      43.060  31.962  35.022  1.00  0.00    -0.203 F 
ATOM     67  F   UNL A   1      41.381  26.797  34.492  1.00  0.00    -0.200 F 
ATOM     68  C   UNL A   1      42.134  28.563  35.862  1.00  0.00     0.200 A 
ATOM     69  F   UNL A   1      42.961  30.338  37.178  1.00  0.00    -0.200 F 
ATOM     70  F   UNL A   1      42.093  27.764  36.937  1.00  0.00    -0.200 F 
ENDBRANCH  37  60
ENDBRANCH  11  12
ENDBRANCH   4   6
ENDBRANCH   1   2
BRANCH   1  71
ATOM     71  C   UNL A   1      37.687  21.080  24.991  1.00  0.00     0.042 C 
BRANCH  71  72
ATOM     72  C   UNL A   1      36.296  21.514  24.521  1.00  0.00     0.118 C 
BRANCH  72  73
ATOM     73  N   UNL A   1      35.351  21.591  25.614  1.00  0.00    -0.351 N 
ATOM     74  C   UNL A   1      34.177  20.957  25.863  1.00  0.00     0.278 C 
ATOM     75  H   UNL A   1      35.612  22.230  26.316  1.00  0.00     0.163 HD
ATOM     76  O   UNL A   1      33.594  21.317  26.894  1.00  0.00    -0.268 OA
BRANCH  74  77
ATOM     77  C   UNL A   1      33.602  19.794  25.013  1.00  0.00     0.275 C 
ATOM     78  C   UNL A   1      32.851  18.644  25.706  1.00  0.00     0.109 C 
ATOM     79  N   UNL A   1      32.861  20.354  23.848  1.00  0.00    -0.331 N 
ATOM     80  C   UNL A   1      32.527  17.508  24.744  1.00  0.00     0.164 C 
ATOM     81  C   UNL A   1      32.128  19.363  23.041  1.00  0.00     0.316 C 
ATOM     82  H   UNL A   1      33.534  20.821  23.240  1.00  0.00     0.347 HD
ATOM     83  H   UNL A   1      32.158  20.984  24.233  1.00  0.00     0.347 HD
ATOM     84  N   UNL A   1      33.525  16.424  24.768  1.00  0.00    -0.264 NA
ATOM     85  C   UNL A   1      32.684  18.014  23.356  1.00  0.00     0.098 C 
ATOM     86  C   UNL A   1      33.954  16.359  23.543  1.00  0.00     0.216 C 
ATOM     87  N   UNL A   1      33.483  17.291  22.648  1.00  0.00    -0.238 NA
ENDBRANCH  74  77
ENDBRANCH  72  73
ENDBRANCH  71  72
ENDBRANCH   1  71
TORSDOF 10
ENDMDL
