MODEL 1
REMARK VINA RESULT:     -13.5      0.000      0.000
REMARK SMILES Cn1cc(-c2ccn(Cc3ccc(C(=O)NCCCNC(=O)c4ccc(-c5c6nc(c(-c7c(F)c(F)c(F)c(F)c7F)c7ccc([nH]7)c(-c7c(F)c(F)c(F)c(F)c7F)c7nc(c(-c8c(F)c(F)c(F)c(F)c8F)c8ccc5[nH]8)C=C7)C=C6)cc4)cc3)n2)cn1
REMARK SMILES IDX 17 1 16 2 14 3 15 4 13 6 10 7 11 8 87 9 12 10 86 11 9 12
REMARK SMILES IDX 8 13 5 14 6 15 88 16 7 17 4 18 1 19 2 20 3 21 90 22 89 23
REMARK SMILES IDX 18 24 19 25 20 26 21 27 22 29 23 30 24 31 85 32 25 33 84 34
REMARK SMILES IDX 26 35 27 36 28 37 78 38 29 39 83 40 77 41 79 42 30 43 82 44
REMARK SMILES IDX 76 45 75 46 31 48 63 49 43 50 62 51 44 52 47 53 61 54 80 55
REMARK SMILES IDX 45 56 46 57 60 59 81 60 48 61 32 62 33 63 41 64 34 65 35 66
REMARK SMILES IDX 39 67 42 68 36 69 37 70 40 71 38 72 64 73 65 74 73 75 66 76
REMARK SMILES IDX 67 77 71 78 74 79 68 80 69 81 72 82 70 83 49 84 50 85 58 86
REMARK SMILES IDX 51 87 52 88 56 89 59 90 53 91 54 92 57 93 55 94
REMARK H PARENT 16 5 20 28 79 47 47 58
REMARK Flexibility Score: inf
ROOT
ATOM      1  C   UNL A   1      36.661  20.752  24.806  1.00  0.00     0.118 C 
ENDROOT
BRANCH   1   2
ATOM      2  N   UNL A   1      35.325  20.342  25.228  1.00  0.00    -0.352 N 
ATOM      3  C   UNL A   1      34.126  21.021  25.210  1.00  0.00     0.251 C 
ATOM      4  O   UNL A   1      33.102  20.409  25.510  1.00  0.00    -0.269 OA
ATOM      5  H   UNL A   1      35.271  19.427  25.585  1.00  0.00     0.163 HD
BRANCH   3   6
ATOM      6  C   UNL A   1      34.030  22.445  24.788  1.00  0.00     0.039 A 
ATOM      7  C   UNL A   1      33.652  25.158  24.114  1.00  0.00    -0.026 A 
ATOM      8  C   UNL A   1      33.953  24.790  25.432  1.00  0.00     0.006 A 
ATOM      9  C   UNL A   1      33.636  24.166  23.130  1.00  0.00     0.006 A 
ATOM     10  C   UNL A   1      34.140  23.441  25.766  1.00  0.00     0.014 A 
ATOM     11  C   UNL A   1      33.847  22.832  23.463  1.00  0.00     0.014 A 
BRANCH   7  12
ATOM     12  C   UNL A   1      33.364  26.585  23.725  1.00  0.00     0.179 C 
BRANCH  12  13
ATOM     13  N   UNL A   1      31.938  26.865  23.542  1.00  0.00    -0.268 N 
ATOM     14  C   UNL A   1      30.187  27.986  23.122  1.00  0.00     0.095 A 
ATOM     15  C   UNL A   1      29.757  26.826  23.795  1.00  0.00     0.050 A 
ATOM     16  N   UNL A   1      31.515  28.022  22.977  1.00  0.00    -0.172 NA
ATOM     17  C   UNL A   1      30.907  26.116  24.044  1.00  0.00     0.110 A 
BRANCH  14  18
ATOM     18  C   UNL A   1      29.296  29.030  22.650  1.00  0.00     0.040 A 
ATOM     19  C   UNL A   1      28.185  32.016  20.985  1.00  0.00     0.173 C 
ATOM     20  N   UNL A   1      28.404  30.798  21.726  1.00  0.00    -0.275 N 
ATOM     21  C   UNL A   1      29.575  30.106  21.838  1.00  0.00     0.118 A 
ATOM     22  N   UNL A   1      27.386  30.250  22.420  1.00  0.00    -0.181 NA
ATOM     23  C   UNL A   1      27.934  29.159  22.970  1.00  0.00     0.145 A 
ENDBRANCH  14  18
ENDBRANCH  12  13
ENDBRANCH   7  12
ENDBRANCH   3   6
ENDBRANCH   1   2
BRANCH   1  24
ATOM     24  C   UNL A   1      37.703  19.642  25.011  1.00  0.00     0.042 C 
BRANCH  24  25
ATOM     25  C   UNL A   1      38.999  20.171  25.581  1.00  0.00     0.118 C 
BRANCH  25  26
ATOM     26  N   UNL A   1      40.015  19.126  25.773  1.00  0.00    -0.352 N 
ATOM     27  C   UNL A   1      41.378  19.273  26.007  1.00  0.00     0.251 C 
ATOM     28  H   UNL A   1      39.687  18.199  25.732  1.00  0.00     0.163 HD
ATOM     29  O   UNL A   1      42.159  18.360  25.822  1.00  0.00    -0.269 OA
BRANCH  27  30
ATOM     30  C   UNL A   1      41.850  20.578  26.504  1.00  0.00     0.039 A 
ATOM     31  C   UNL A   1      42.559  21.502  25.731  1.00  0.00     0.014 A 
ATOM     32  C   UNL A   1      41.479  20.886  27.800  1.00  0.00     0.014 A 
ATOM     33  C   UNL A   1      42.853  22.741  26.299  1.00  0.00     0.010 A 
ATOM     34  C   UNL A   1      41.401  22.189  28.158  1.00  0.00     0.010 A 
ATOM     35  C   UNL A   1      42.268  23.058  27.531  1.00  0.00    -0.014 A 
BRANCH  35  36
ATOM     36  C   UNL A   1      42.491  24.290  28.262  1.00  0.00     0.031 A 
ATOM     37  C   UNL A   1      41.406  25.285  28.121  1.00  0.00     0.074 A 
ATOM     38  C   UNL A   1      43.437  24.351  29.230  1.00  0.00     0.049 A 
ATOM     39  N   UNL A   1      41.470  26.446  27.562  1.00  0.00    -0.248 NA
ATOM     40  C   UNL A   1      40.044  24.881  28.505  1.00  0.00     0.031 C 
ATOM     41  C   UNL A   1      44.338  23.295  29.723  1.00  0.00     0.029 A 
ATOM     42  N   UNL A   1      43.712  25.380  30.072  1.00  0.00    -0.354 N 
ATOM     43  C   UNL A   1      40.201  27.002  27.692  1.00  0.00     0.074 A 
ATOM     44  C   UNL A   1      39.332  25.925  28.080  1.00  0.00     0.031 C 
ATOM     45  C   UNL A   1      44.881  23.668  30.904  1.00  0.00     0.029 A 
ATOM     46  C   UNL A   1      44.505  25.042  31.167  1.00  0.00     0.049 A 
ATOM     47  H   UNL A   1      43.377  26.293  29.922  1.00  0.00     0.167 HD
ATOM     48  C   UNL A   1      40.029  28.354  27.701  1.00  0.00     0.037 A 
ATOM     49  C   UNL A   1      44.764  25.850  32.226  1.00  0.00     0.037 A 
ATOM     50  C   UNL A   1      41.222  29.017  27.226  1.00  0.00     0.049 A 
ATOM     51  C   UNL A   1      44.464  27.241  31.781  1.00  0.00     0.074 A 
ATOM     52  C   UNL A   1      41.918  29.010  26.033  1.00  0.00     0.029 A 
ATOM     53  N   UNL A   1      42.103  29.503  28.164  1.00  0.00    -0.354 N 
ATOM     54  N   UNL A   1      45.144  27.858  30.849  1.00  0.00    -0.248 NA
ATOM     55  C   UNL A   1      43.103  27.721  31.982  1.00  0.00     0.031 C 
ATOM     56  C   UNL A   1      43.293  28.994  26.412  1.00  0.00     0.029 A 
ATOM     57  C   UNL A   1      43.359  29.084  27.803  1.00  0.00     0.049 A 
ATOM     58  H   UNL A   1      41.874  30.052  28.949  1.00  0.00     0.167 HD
ATOM     59  C   UNL A   1      44.188  28.506  30.077  1.00  0.00     0.074 A 
ATOM     60  C   UNL A   1      42.950  28.418  30.852  1.00  0.00     0.031 C 
ATOM     61  C   UNL A   1      44.404  28.779  28.755  1.00  0.00     0.037 A 
BRANCH  48  62
ATOM     62  C   UNL A   1      38.957  29.094  28.466  1.00  0.00     0.064 A 
ATOM     63  C   UNL A   1      38.868  28.897  29.861  1.00  0.00     0.173 A 
ATOM     64  C   UNL A   1      37.848  29.742  27.880  1.00  0.00     0.173 A 
ATOM     65  F   UNL A   1      39.866  28.307  30.535  1.00  0.00    -0.203 F 
ATOM     66  C   UNL A   1      37.716  29.215  30.583  1.00  0.00     0.198 A 
ATOM     67  C   UNL A   1      36.721  30.106  28.614  1.00  0.00     0.198 A 
ATOM     68  F   UNL A   1      37.752  29.960  26.564  1.00  0.00    -0.203 F 
ATOM     69  F   UNL A   1      37.629  28.880  31.878  1.00  0.00    -0.200 F 
ATOM     70  C   UNL A   1      36.636  29.807  29.956  1.00  0.00     0.200 A 
ATOM     71  F   UNL A   1      35.682  30.675  27.984  1.00  0.00    -0.200 F 
ATOM     72  F   UNL A   1      35.504  30.047  30.628  1.00  0.00    -0.200 F 
ENDBRANCH  48  62
BRANCH  49  73
ATOM     73  C   UNL A   1      44.869  25.460  33.655  1.00  0.00     0.064 A 
ATOM     74  C   UNL A   1      43.731  25.301  34.461  1.00  0.00     0.173 A 
ATOM     75  C   UNL A   1      46.081  24.976  34.189  1.00  0.00     0.173 A 
ATOM     76  F   UNL A   1      42.528  25.686  34.010  1.00  0.00    -0.203 F 
ATOM     77  C   UNL A   1      43.798  24.682  35.718  1.00  0.00     0.198 A 
ATOM     78  C   UNL A   1      46.149  24.363  35.443  1.00  0.00     0.198 A 
ATOM     79  F   UNL A   1      47.209  25.003  33.465  1.00  0.00    -0.203 F 
ATOM     80  F   UNL A   1      42.682  24.501  36.436  1.00  0.00    -0.200 F 
ATOM     81  C   UNL A   1      45.006  24.207  36.202  1.00  0.00     0.200 A 
ATOM     82  F   UNL A   1      47.317  23.870  35.879  1.00  0.00    -0.200 F 
ATOM     83  F   UNL A   1      45.061  23.562  37.377  1.00  0.00    -0.200 F 
ENDBRANCH  49  73
BRANCH  61  84
ATOM     84  C   UNL A   1      45.776  28.528  28.188  1.00  0.00     0.064 A 
ATOM     85  C   UNL A   1      46.166  27.326  27.569  1.00  0.00     0.173 A 
ATOM     86  C   UNL A   1      46.670  29.603  28.101  1.00  0.00     0.173 A 
ATOM     87  F   UNL A   1      45.334  26.280  27.512  1.00  0.00    -0.203 F 
ATOM     88  C   UNL A   1      47.399  27.198  26.929  1.00  0.00     0.198 A 
ATOM     89  C   UNL A   1      47.886  29.485  27.432  1.00  0.00     0.198 A 
ATOM     90  F   UNL A   1      46.333  30.795  28.618  1.00  0.00    -0.203 F 
ATOM     91  F   UNL A   1      47.738  26.036  26.349  1.00  0.00    -0.200 F 
ATOM     92  C   UNL A   1      48.254  28.281  26.855  1.00  0.00     0.200 A 
ATOM     93  F   UNL A   1      48.687  30.553  27.317  1.00  0.00    -0.200 F 
ATOM     94  F   UNL A   1      49.420  28.176  26.201  1.00  0.00    -0.200 F 
ENDBRANCH  61  84
ENDBRANCH  35  36
ENDBRANCH  27  30
ENDBRANCH  25  26
ENDBRANCH  24  25
ENDBRANCH   1  24
TORSDOF 13
ENDMDL
MODEL 2
REMARK VINA RESULT:     -13.4      3.022      7.549
REMARK SMILES Cn1cc(-c2ccn(Cc3ccc(C(=O)NCCCNC(=O)c4ccc(-c5c6nc(c(-c7c(F)c(F)c(F)c(F)c7F)c7ccc([nH]7)c(-c7c(F)c(F)c(F)c(F)c7F)c7nc(c(-c8c(F)c(F)c(F)c(F)c8F)c8ccc5[nH]8)C=C7)C=C6)cc4)cc3)n2)cn1
REMARK SMILES IDX 17 1 16 2 14 3 15 4 13 6 10 7 11 8 87 9 12 10 86 11 9 12
REMARK SMILES IDX 8 13 5 14 6 15 88 16 7 17 4 18 1 19 2 20 3 21 90 22 89 23
REMARK SMILES IDX 18 24 19 25 20 26 21 27 22 29 23 30 24 31 85 32 25 33 84 34
REMARK SMILES IDX 26 35 27 36 28 37 78 38 29 39 83 40 77 41 79 42 30 43 82 44
REMARK SMILES IDX 76 45 75 46 31 48 63 49 43 50 62 51 44 52 47 53 61 54 80 55
REMARK SMILES IDX 45 56 46 57 60 59 81 60 48 61 32 62 33 63 41 64 34 65 35 66
REMARK SMILES IDX 39 67 42 68 36 69 37 70 40 71 38 72 64 73 65 74 73 75 66 76
REMARK SMILES IDX 67 77 71 78 74 79 68 80 69 81 72 82 70 83 49 84 50 85 58 86
REMARK SMILES IDX 51 87 52 88 56 89 59 90 53 91 54 92 57 93 55 94
REMARK H PARENT 16 5 20 28 79 47 47 58
REMARK Flexibility Score: inf
ROOT
ATOM      1  C   UNL A   1      37.406  22.245  25.327  1.00  0.00     0.118 C 
ENDROOT
BRANCH   1   2
ATOM      2  N   UNL A   1      36.270  21.843  26.150  1.00  0.00    -0.352 N 
ATOM      3  C   UNL A   1      34.922  22.080  26.003  1.00  0.00     0.251 C 
ATOM      4  O   UNL A   1      34.141  21.524  26.774  1.00  0.00    -0.269 OA
ATOM      5  H   UNL A   1      36.507  21.314  26.945  1.00  0.00     0.163 HD
BRANCH   3   6
ATOM      6  C   UNL A   1      34.384  22.938  24.911  1.00  0.00     0.039 A 
ATOM      7  C   UNL A   1      33.218  24.653  22.999  1.00  0.00    -0.026 A 
ATOM      8  C   UNL A   1      33.967  25.178  24.060  1.00  0.00     0.006 A 
ATOM      9  C   UNL A   1      33.142  23.264  22.858  1.00  0.00     0.006 A 
ATOM     10  C   UNL A   1      34.545  24.326  25.011  1.00  0.00     0.014 A 
ATOM     11  C   UNL A   1      33.738  22.423  23.790  1.00  0.00     0.014 A 
BRANCH   7  12
ATOM     12  C   UNL A   1      32.512  25.534  22.001  1.00  0.00     0.179 C 
BRANCH  12  13
ATOM     13  N   UNL A   1      31.291  26.151  22.526  1.00  0.00    -0.268 N 
ATOM     14  C   UNL A   1      29.845  27.657  22.891  1.00  0.00     0.095 A 
ATOM     15  C   UNL A   1      29.614  26.653  23.851  1.00  0.00     0.050 A 
ATOM     16  N   UNL A   1      30.873  27.364  22.091  1.00  0.00    -0.172 NA
ATOM     17  C   UNL A   1      30.555  25.688  23.584  1.00  0.00     0.110 A 
BRANCH  14  18
ATOM     18  C   UNL A   1      29.066  28.879  22.789  1.00  0.00     0.040 A 
ATOM     19  C   UNL A   1      28.309  32.371  22.396  1.00  0.00     0.173 C 
ATOM     20  N   UNL A   1      28.377  30.941  22.581  1.00  0.00    -0.275 N 
ATOM     21  C   UNL A   1      29.498  30.163  22.544  1.00  0.00     0.118 A 
ATOM     22  N   UNL A   1      27.249  30.251  22.843  1.00  0.00    -0.181 NA
ATOM     23  C   UNL A   1      27.675  28.986  22.953  1.00  0.00     0.145 A 
ENDBRANCH  14  18
ENDBRANCH  12  13
ENDBRANCH   7  12
ENDBRANCH   3   6
ENDBRANCH   1   2
BRANCH   1  24
ATOM     24  C   UNL A   1      38.732  21.658  25.836  1.00  0.00     0.042 C 
BRANCH  24  25
ATOM     25  C   UNL A   1      39.626  22.710  26.452  1.00  0.00     0.118 C 
BRANCH  25  26
ATOM     26  N   UNL A   1      41.058  22.412  26.301  1.00  0.00    -0.352 N 
ATOM     27  C   UNL A   1      42.123  23.299  26.201  1.00  0.00     0.251 C 
ATOM     28  H   UNL A   1      41.293  21.456  26.268  1.00  0.00     0.163 HD
ATOM     29  O   UNL A   1      43.200  22.955  25.754  1.00  0.00    -0.269 OA
BRANCH  27  30
ATOM     30  C   UNL A   1      41.909  24.680  26.669  1.00  0.00     0.039 A 
ATOM     31  C   UNL A   1      40.950  25.548  26.139  1.00  0.00     0.014 A 
ATOM     32  C   UNL A   1      42.684  25.066  27.747  1.00  0.00     0.014 A 
ATOM     33  C   UNL A   1      40.787  26.792  26.747  1.00  0.00     0.010 A 
ATOM     34  C   UNL A   1      42.229  26.057  28.549  1.00  0.00     0.010 A 
ATOM     35  C   UNL A   1      41.454  27.029  27.955  1.00  0.00    -0.014 A 
BRANCH  35  36
ATOM     36  C   UNL A   1      41.407  28.274  28.697  1.00  0.00     0.031 A 
ATOM     37  C   UNL A   1      42.458  29.246  28.320  1.00  0.00     0.074 A 
ATOM     38  C   UNL A   1      40.303  28.609  29.405  1.00  0.00     0.049 A 
ATOM     39  N   UNL A   1      43.428  29.679  29.050  1.00  0.00    -0.248 NA
ATOM     40  C   UNL A   1      42.534  29.668  26.912  1.00  0.00     0.031 C 
ATOM     41  C   UNL A   1      39.030  27.881  29.551  1.00  0.00     0.029 A 
ATOM     42  N   UNL A   1      40.049  29.766  30.071  1.00  0.00    -0.354 N 
ATOM     43  C   UNL A   1      44.132  30.578  28.255  1.00  0.00     0.074 A 
ATOM     44  C   UNL A   1      43.670  30.367  26.911  1.00  0.00     0.031 C 
ATOM     45  C   UNL A   1      38.084  28.704  30.057  1.00  0.00     0.029 A 
ATOM     46  C   UNL A   1      38.715  29.954  30.425  1.00  0.00     0.049 A 
ATOM     47  H   UNL A   1      40.752  30.420  30.284  1.00  0.00     0.167 HD
ATOM     48  C   UNL A   1      44.861  31.583  28.817  1.00  0.00     0.037 A 
ATOM     49  C   UNL A   1      38.194  31.099  30.934  1.00  0.00     0.037 A 
ATOM     50  C   UNL A   1      45.051  31.341  30.228  1.00  0.00     0.049 A 
ATOM     51  C   UNL A   1      39.343  31.888  31.465  1.00  0.00     0.074 A 
ATOM     52  C   UNL A   1      45.669  30.345  30.960  1.00  0.00     0.029 A 
ATOM     53  N   UNL A   1      44.205  31.975  31.109  1.00  0.00    -0.354 N 
ATOM     54  N   UNL A   1      40.074  31.498  32.477  1.00  0.00    -0.248 NA
ATOM     55  C   UNL A   1      39.994  32.811  30.543  1.00  0.00     0.031 C 
ATOM     56  C   UNL A   1      44.797  30.108  32.064  1.00  0.00     0.029 A 
ATOM     57  C   UNL A   1      43.750  31.029  31.994  1.00  0.00     0.049 A 
ATOM     58  H   UNL A   1      43.970  32.931  31.105  1.00  0.00     0.167 HD
ATOM     59  C   UNL A   1      41.382  31.785  32.107  1.00  0.00     0.074 A 
ATOM     60  C   UNL A   1      41.263  32.633  30.920  1.00  0.00     0.031 C 
ATOM     61  C   UNL A   1      42.437  31.065  32.596  1.00  0.00     0.037 A 
BRANCH  48  62
ATOM     62  C   UNL A   1      45.088  32.946  28.205  1.00  0.00     0.064 A 
ATOM     63  C   UNL A   1      46.414  33.355  27.950  1.00  0.00     0.173 A 
ATOM     64  C   UNL A   1      44.119  33.970  28.130  1.00  0.00     0.173 A 
ATOM     65  F   UNL A   1      47.422  32.471  27.975  1.00  0.00    -0.203 F 
ATOM     66  C   UNL A   1      46.752  34.697  27.755  1.00  0.00     0.198 A 
ATOM     67  C   UNL A   1      44.454  35.300  27.883  1.00  0.00     0.198 A 
ATOM     68  F   UNL A   1      42.825  33.760  28.393  1.00  0.00    -0.203 F 
ATOM     69  F   UNL A   1      48.041  35.050  27.656  1.00  0.00    -0.200 F 
ATOM     70  C   UNL A   1      45.772  35.671  27.736  1.00  0.00     0.200 A 
ATOM     71  F   UNL A   1      43.487  36.230  27.874  1.00  0.00    -0.200 F 
ATOM     72  F   UNL A   1      46.097  36.965  27.621  1.00  0.00    -0.200 F 
ENDBRANCH  48  62
BRANCH  49  73
ATOM     73  C   UNL A   1      36.867  31.697  30.641  1.00  0.00     0.064 A 
ATOM     74  C   UNL A   1      35.959  32.013  31.664  1.00  0.00     0.173 A 
ATOM     75  C   UNL A   1      36.570  32.218  29.365  1.00  0.00     0.173 A 
ATOM     76  F   UNL A   1      36.191  31.603  32.919  1.00  0.00    -0.203 F 
ATOM     77  C   UNL A   1      34.831  32.812  31.428  1.00  0.00     0.198 A 
ATOM     78  C   UNL A   1      35.444  33.011  29.129  1.00  0.00     0.198 A 
ATOM     79  F   UNL A   1      37.417  32.046  28.340  1.00  0.00    -0.203 F 
ATOM     80  F   UNL A   1      34.015  33.136  32.441  1.00  0.00    -0.200 F 
ATOM     81  C   UNL A   1      34.581  33.317  30.163  1.00  0.00     0.200 A 
ATOM     82  F   UNL A   1      35.239  33.527  27.909  1.00  0.00    -0.200 F 
ATOM     83  F   UNL A   1      33.536  34.129  29.948  1.00  0.00    -0.200 F 
ENDBRANCH  49  73
BRANCH  61  84
ATOM     84  C   UNL A   1      42.173  30.066  33.692  1.00  0.00     0.064 A 
ATOM     85  C   UNL A   1      41.856  28.714  33.467  1.00  0.00     0.173 A 
ATOM     86  C   UNL A   1      42.431  30.445  35.016  1.00  0.00     0.173 A 
ATOM     87  F   UNL A   1      41.696  28.242  32.227  1.00  0.00    -0.203 F 
ATOM     88  C   UNL A   1      41.768  27.799  34.517  1.00  0.00     0.198 A 
ATOM     89  C   UNL A   1      42.377  29.523  36.059  1.00  0.00     0.198 A 
ATOM     90  F   UNL A   1      42.798  31.706  35.291  1.00  0.00    -0.203 F 
ATOM     91  F   UNL A   1      41.464  26.516  34.266  1.00  0.00    -0.200 F 
ATOM     92  C   UNL A   1      42.037  28.203  35.811  1.00  0.00     0.200 A 
ATOM     93  F   UNL A   1      42.691  29.909  37.303  1.00  0.00    -0.200 F 
ATOM     94  F   UNL A   1      41.999  27.317  36.816  1.00  0.00    -0.200 F 
ENDBRANCH  61  84
ENDBRANCH  35  36
ENDBRANCH  27  30
ENDBRANCH  25  26
ENDBRANCH  24  25
ENDBRANCH   1  24
TORSDOF 13
ENDMDL
MODEL 3
REMARK VINA RESULT:     -13.4      3.034      7.687
REMARK SMILES Cn1cc(-c2ccn(Cc3ccc(C(=O)NCCCNC(=O)c4ccc(-c5c6nc(c(-c7c(F)c(F)c(F)c(F)c7F)c7ccc([nH]7)c(-c7c(F)c(F)c(F)c(F)c7F)c7nc(c(-c8c(F)c(F)c(F)c(F)c8F)c8ccc5[nH]8)C=C7)C=C6)cc4)cc3)n2)cn1
REMARK SMILES IDX 17 1 16 2 14 3 15 4 13 6 10 7 11 8 87 9 12 10 86 11 9 12
REMARK SMILES IDX 8 13 5 14 6 15 88 16 7 17 4 18 1 19 2 20 3 21 90 22 89 23
REMARK SMILES IDX 18 24 19 25 20 26 21 27 22 29 23 30 24 31 85 32 25 33 84 34
REMARK SMILES IDX 26 35 27 36 28 37 78 38 29 39 83 40 77 41 79 42 30 43 82 44
REMARK SMILES IDX 76 45 75 46 31 48 63 49 43 50 62 51 44 52 47 53 61 54 80 55
REMARK SMILES IDX 45 56 46 57 60 59 81 60 48 61 32 62 33 63 41 64 34 65 35 66
REMARK SMILES IDX 39 67 42 68 36 69 37 70 40 71 38 72 64 73 65 74 73 75 66 76
REMARK SMILES IDX 67 77 71 78 74 79 68 80 69 81 72 82 70 83 49 84 50 85 58 86
REMARK SMILES IDX 51 87 52 88 56 89 59 90 53 91 54 92 57 93 55 94
REMARK H PARENT 16 5 20 28 79 47 47 58
REMARK Flexibility Score: inf
ROOT
ATOM      1  C   UNL A   1      36.179  21.761  25.715  1.00  0.00     0.118 C 
ENDROOT
BRANCH   1   2
ATOM      2  N   UNL A   1      35.441  20.549  25.377  1.00  0.00    -0.352 N 
ATOM      3  C   UNL A   1      34.196  20.380  24.812  1.00  0.00     0.251 C 
ATOM      4  O   UNL A   1      33.840  19.242  24.509  1.00  0.00    -0.269 OA
ATOM      5  H   UNL A   1      35.911  19.711  25.588  1.00  0.00     0.163 HD
BRANCH   3   6
ATOM      6  C   UNL A   1      33.302  21.531  24.509  1.00  0.00     0.039 A 
ATOM      7  C   UNL A   1      31.432  23.561  23.926  1.00  0.00    -0.026 A 
ATOM      8  C   UNL A   1      31.382  22.880  25.149  1.00  0.00     0.006 A 
ATOM      9  C   UNL A   1      32.480  23.277  23.046  1.00  0.00     0.006 A 
ATOM     10  C   UNL A   1      32.311  21.871  25.438  1.00  0.00     0.014 A 
ATOM     11  C   UNL A   1      33.414  22.292  23.348  1.00  0.00     0.014 A 
BRANCH   7  12
ATOM     12  C   UNL A   1      30.406  24.595  23.540  1.00  0.00     0.179 C 
BRANCH  12  13
ATOM     13  N   UNL A   1      30.884  25.973  23.679  1.00  0.00    -0.268 N 
ATOM     14  C   UNL A   1      31.846  27.646  24.558  1.00  0.00     0.095 A 
ATOM     15  C   UNL A   1      30.993  28.163  23.564  1.00  0.00     0.050 A 
ATOM     16  N   UNL A   1      31.773  26.315  24.643  1.00  0.00    -0.172 NA
ATOM     17  C   UNL A   1      30.394  27.059  23.005  1.00  0.00     0.110 A 
BRANCH  14  18
ATOM     18  C   UNL A   1      32.696  28.463  25.405  1.00  0.00     0.040 A 
ATOM     19  C   UNL A   1      35.336  29.349  27.679  1.00  0.00     0.173 C 
ATOM     20  N   UNL A   1      34.215  29.224  26.778  1.00  0.00    -0.275 N 
ATOM     21  C   UNL A   1      33.804  28.094  26.133  1.00  0.00     0.118 A 
ATOM     22  N   UNL A   1      33.442  30.300  26.526  1.00  0.00    -0.181 NA
ATOM     23  C   UNL A   1      32.523  29.832  25.672  1.00  0.00     0.145 A 
ENDBRANCH  14  18
ENDBRANCH  12  13
ENDBRANCH   7  12
ENDBRANCH   3   6
ENDBRANCH   1   2
BRANCH   1  24
ATOM     24  C   UNL A   1      37.662  21.669  25.323  1.00  0.00     0.042 C 
BRANCH  24  25
ATOM     25  C   UNL A   1      38.533  22.585  26.153  1.00  0.00     0.118 C 
BRANCH  25  26
ATOM     26  N   UNL A   1      39.869  22.033  26.414  1.00  0.00    -0.352 N 
ATOM     27  C   UNL A   1      41.067  22.711  26.609  1.00  0.00     0.251 C 
ATOM     28  H   UNL A   1      39.923  21.050  26.458  1.00  0.00     0.163 HD
ATOM     29  O   UNL A   1      42.142  22.157  26.487  1.00  0.00    -0.269 OA
BRANCH  27  30
ATOM     30  C   UNL A   1      40.992  24.135  26.984  1.00  0.00     0.039 A 
ATOM     31  C   UNL A   1      40.076  25.041  26.442  1.00  0.00     0.014 A 
ATOM     32  C   UNL A   1      41.857  24.529  27.987  1.00  0.00     0.014 A 
ATOM     33  C   UNL A   1      40.049  26.335  26.964  1.00  0.00     0.010 A 
ATOM     34  C   UNL A   1      41.532  25.608  28.737  1.00  0.00     0.010 A 
ATOM     35  C   UNL A   1      40.804  26.598  28.113  1.00  0.00    -0.014 A 
BRANCH  35  36
ATOM     36  C   UNL A   1      40.901  27.891  28.762  1.00  0.00     0.031 A 
ATOM     37  C   UNL A   1      41.978  28.757  28.232  1.00  0.00     0.074 A 
ATOM     38  C   UNL A   1      39.884  28.353  29.528  1.00  0.00     0.049 A 
ATOM     39  N   UNL A   1      43.032  29.169  28.850  1.00  0.00    -0.248 NA
ATOM     40  C   UNL A   1      41.964  29.075  26.796  1.00  0.00     0.031 C 
ATOM     41  C   UNL A   1      38.582  27.729  29.826  1.00  0.00     0.029 A 
ATOM     42  N   UNL A   1      39.763  29.568  30.123  1.00  0.00    -0.354 N 
ATOM     43  C   UNL A   1      43.725  29.958  27.938  1.00  0.00     0.074 A 
ATOM     44  C   UNL A   1      43.139  29.689  26.653  1.00  0.00     0.031 C 
ATOM     45  C   UNL A   1      37.738  28.651  30.342  1.00  0.00     0.029 A 
ATOM     46  C   UNL A   1      38.478  29.875  30.566  1.00  0.00     0.049 A 
ATOM     47  H   UNL A   1      40.523  30.183  30.231  1.00  0.00     0.167 HD
ATOM     48  C   UNL A   1      44.562  30.945  28.364  1.00  0.00     0.037 A 
ATOM     49  C   UNL A   1      38.078  31.087  31.028  1.00  0.00     0.037 A 
ATOM     50  C   UNL A   1      44.854  30.787  29.770  1.00  0.00     0.049 A 
ATOM     51  C   UNL A   1      39.317  31.826  31.406  1.00  0.00     0.074 A 
ATOM     52  C   UNL A   1      45.463  29.803  30.524  1.00  0.00     0.029 A 
ATOM     53  N   UNL A   1      44.128  31.539  30.665  1.00  0.00    -0.354 N 
ATOM     54  N   UNL A   1      40.102  31.455  32.384  1.00  0.00    -0.248 NA
ATOM     55  C   UNL A   1      39.948  32.634  30.370  1.00  0.00     0.031 C 
ATOM     56  C   UNL A   1      44.673  29.706  31.707  1.00  0.00     0.029 A 
ATOM     57  C   UNL A   1      43.686  30.692  31.651  1.00  0.00     0.049 A 
ATOM     58  H   UNL A   1      43.956  32.508  30.609  1.00  0.00     0.167 HD
ATOM     59  C   UNL A   1      41.391  31.621  31.892  1.00  0.00     0.074 A 
ATOM     60  C   UNL A   1      41.230  32.392  30.659  1.00  0.00     0.031 C 
ATOM     61  C   UNL A   1      42.433  30.863  32.349  1.00  0.00     0.037 A 
BRANCH  48  62
ATOM     62  C   UNL A   1      44.827  32.243  27.636  1.00  0.00     0.064 A 
ATOM     63  C   UNL A   1      46.025  32.369  26.902  1.00  0.00     0.173 A 
ATOM     64  C   UNL A   1      44.127  33.450  27.855  1.00  0.00     0.173 A 
ATOM     65  F   UNL A   1      46.771  31.292  26.615  1.00  0.00    -0.203 F 
ATOM     66  C   UNL A   1      46.537  33.613  26.525  1.00  0.00     0.198 A 
ATOM     67  C   UNL A   1      44.615  34.684  27.431  1.00  0.00     0.198 A 
ATOM     68  F   UNL A   1      43.002  33.511  28.575  1.00  0.00    -0.203 F 
ATOM     69  F   UNL A   1      47.746  33.689  25.953  1.00  0.00    -0.200 F 
ATOM     70  C   UNL A   1      45.837  34.772  26.803  1.00  0.00     0.200 A 
ATOM     71  F   UNL A   1      43.922  35.797  27.716  1.00  0.00    -0.200 F 
ATOM     72  F   UNL A   1      46.357  35.971  26.508  1.00  0.00    -0.200 F 
ENDBRANCH  48  62
BRANCH  49  73
ATOM     73  C   UNL A   1      36.773  31.756  30.796  1.00  0.00     0.064 A 
ATOM     74  C   UNL A   1      35.899  32.052  31.853  1.00  0.00     0.173 A 
ATOM     75  C   UNL A   1      36.477  32.362  29.557  1.00  0.00     0.173 A 
ATOM     76  F   UNL A   1      36.135  31.560  33.078  1.00  0.00    -0.203 F 
ATOM     77  C   UNL A   1      34.803  32.910  31.686  1.00  0.00     0.198 A 
ATOM     78  C   UNL A   1      35.383  33.214  29.389  1.00  0.00     0.198 A 
ATOM     79  F   UNL A   1      37.296  32.213  28.507  1.00  0.00    -0.203 F 
ATOM     80  F   UNL A   1      34.020  33.210  32.731  1.00  0.00    -0.200 F 
ATOM     81  C   UNL A   1      34.552  33.497  30.456  1.00  0.00     0.200 A 
ATOM     82  F   UNL A   1      35.179  33.808  28.205  1.00  0.00    -0.200 F 
ATOM     83  F   UNL A   1      33.540  34.364  30.309  1.00  0.00    -0.200 F 
ENDBRANCH  49  73
BRANCH  61  84
ATOM     84  C   UNL A   1      42.196  29.964  33.535  1.00  0.00     0.064 A 
ATOM     85  C   UNL A   1      41.813  28.614  33.435  1.00  0.00     0.173 A 
ATOM     86  C   UNL A   1      42.548  30.431  34.807  1.00  0.00     0.173 A 
ATOM     87  F   UNL A   1      41.561  28.055  32.247  1.00  0.00    -0.203 F 
ATOM     88  C   UNL A   1      41.752  27.786  34.557  1.00  0.00     0.198 A 
ATOM     89  C   UNL A   1      42.520  29.595  35.921  1.00  0.00     0.198 A 
ATOM     90  F   UNL A   1      42.981  31.692  34.961  1.00  0.00    -0.203 F 
ATOM     91  F   UNL A   1      41.383  26.502  34.426  1.00  0.00    -0.200 F 
ATOM     92  C   UNL A   1      42.114  28.276  35.798  1.00  0.00     0.200 A 
ATOM     93  F   UNL A   1      42.924  30.060  37.111  1.00  0.00    -0.200 F 
ATOM     94  F   UNL A   1      42.102  27.472  36.870  1.00  0.00    -0.200 F 
ENDBRANCH  61  84
ENDBRANCH  35  36
ENDBRANCH  27  30
ENDBRANCH  25  26
ENDBRANCH  24  25
ENDBRANCH   1  24
TORSDOF 13
ENDMDL
