MODEL 1
REMARK VINA RESULT:     -13.1      0.000      0.000
REMARK SMILES O=C(NCCCNC(=O)[C@@H]1CN(c2ncccn2)CCN1C(=O)C1CCOCC1)c1ccc(-c2c3nc(c(-c4c(F)c(F)c(F)c(F)c4F)c4ccc([nH]4)c(-c4c(F)c(F)c(F)c(F)c4F)c4nc(c(-c5c(F)c(F)c(F)c(F)c5F)c5ccc2[nH]5)C=C4)C=C3)cc1
REMARK SMILES IDX 5 1 4 2 3 3 1 4 2 5 30 7 31 8 92 9 32 10 91 11 33 12 34 13
REMARK SMILES IDX 35 14 85 15 36 16 90 17 84 18 86 19 37 20 89 21 83 22 82 23
REMARK SMILES IDX 38 25 70 26 50 27 69 28 51 29 54 30 68 31 87 32 52 33 53 34
REMARK SMILES IDX 67 36 88 37 55 38 39 39 40 40 48 41 41 42 42 43 46 44 49 45
REMARK SMILES IDX 43 46 44 47 47 48 45 49 71 50 72 51 80 52 73 53 74 54 78 55
REMARK SMILES IDX 81 56 75 57 76 58 79 59 77 60 56 61 57 62 65 63 58 64 59 65
REMARK SMILES IDX 63 66 66 67 60 68 61 69 64 70 62 71 6 72 7 73 8 74 9 76
REMARK SMILES IDX 10 77 11 78 21 79 12 80 20 81 19 82 22 83 23 84 24 85 25 86
REMARK SMILES IDX 29 87 26 88 28 89 27 90 13 91 14 92 18 93 15 94 17 95 16 96
REMARK H PARENT 3 6 86 24 54 35 7 75
REMARK Flexibility Score: inf
ROOT
ATOM      1  C   UNL A   1      31.497  31.630  26.504  1.00  0.00     0.042 C 
ENDROOT
BRANCH   1   2
ATOM      2  C   UNL A   1      32.667  32.496  26.984  1.00  0.00     0.118 C 
BRANCH   2   3
ATOM      3  N   UNL A   1      32.375  33.828  27.459  1.00  0.00    -0.352 N 
ATOM      4  O   UNL A   1      32.712  35.667  28.732  1.00  0.00    -0.269 OA
ATOM      5  C   UNL A   1      33.062  34.535  28.432  1.00  0.00     0.251 C 
ATOM      6  H   UNL A   1      31.605  34.283  27.046  1.00  0.00     0.163 HD
BRANCH   5   7
ATOM      7  C   UNL A   1      34.214  33.915  29.146  1.00  0.00     0.039 A 
ATOM      8  C   UNL A   1      34.028  32.958  30.146  1.00  0.00     0.014 A 
ATOM      9  C   UNL A   1      35.514  34.255  28.752  1.00  0.00     0.014 A 
ATOM     10  C   UNL A   1      35.138  32.400  30.798  1.00  0.00     0.010 A 
ATOM     11  C   UNL A   1      36.624  33.666  29.379  1.00  0.00     0.010 A 
ATOM     12  C   UNL A   1      36.451  32.738  30.418  1.00  0.00    -0.014 A 
BRANCH  12  13
ATOM     13  C   UNL A   1      37.623  32.059  31.055  1.00  0.00     0.031 A 
ATOM     14  C   UNL A   1      38.106  32.435  32.435  1.00  0.00     0.074 A 
ATOM     15  C   UNL A   1      38.271  31.088  30.379  1.00  0.00     0.049 A 
ATOM     16  N   UNL A   1      39.109  31.943  33.126  1.00  0.00    -0.248 NA
ATOM     17  C   UNL A   1      37.378  33.507  33.126  1.00  0.00     0.031 C 
ATOM     18  C   UNL A   1      37.939  30.647  29.023  1.00  0.00     0.029 A 
ATOM     19  N   UNL A   1      39.339  30.296  30.732  1.00  0.00    -0.354 N 
ATOM     20  C   UNL A   1      39.127  32.638  34.330  1.00  0.00     0.074 A 
ATOM     21  C   UNL A   1      38.062  33.618  34.258  1.00  0.00     0.031 C 
ATOM     22  C   UNL A   1      38.764  29.650  28.670  1.00  0.00     0.029 A 
ATOM     23  C   UNL A   1      39.719  29.413  29.748  1.00  0.00     0.049 A 
ATOM     24  H   UNL A   1      39.789  30.357  31.605  1.00  0.00     0.167 HD
ATOM     25  C   UNL A   1      39.943  32.467  35.402  1.00  0.00     0.037 A 
ATOM     26  C   UNL A   1      40.729  28.523  29.705  1.00  0.00     0.037 A 
ATOM     27  C   UNL A   1      41.011  31.497  35.477  1.00  0.00     0.049 A 
ATOM     28  C   UNL A   1      41.638  28.376  30.897  1.00  0.00     0.074 A 
ATOM     29  C   UNL A   1      41.874  31.241  36.529  1.00  0.00     0.029 A 
ATOM     30  N   UNL A   1      41.365  30.626  34.456  1.00  0.00    -0.354 N 
ATOM     31  N   UNL A   1      41.609  29.009  32.043  1.00  0.00    -0.248 NA
ATOM     32  C   UNL A   1      42.718  27.385  30.788  1.00  0.00     0.031 C 
ATOM     33  C   UNL A   1      42.781  30.254  36.130  1.00  0.00     0.029 A 
ATOM     34  C   UNL A   1      42.446  29.848  34.849  1.00  0.00     0.049 A 
ATOM     35  H   UNL A   1      40.917  30.568  33.581  1.00  0.00     0.167 HD
ATOM     36  C   UNL A   1      42.649  28.482  32.797  1.00  0.00     0.074 A 
ATOM     37  C   UNL A   1      43.268  27.452  31.991  1.00  0.00     0.031 C 
ATOM     38  C   UNL A   1      43.061  28.828  34.041  1.00  0.00     0.037 A 
BRANCH  25  39
ATOM     39  C   UNL A   1      39.723  33.346  36.603  1.00  0.00     0.064 A 
ATOM     40  C   UNL A   1      40.348  34.597  36.720  1.00  0.00     0.173 A 
ATOM     41  C   UNL A   1      38.811  32.977  37.606  1.00  0.00     0.173 A 
ATOM     42  F   UNL A   1      41.230  35.000  35.793  1.00  0.00    -0.203 F 
ATOM     43  C   UNL A   1      40.085  35.435  37.802  1.00  0.00     0.198 A 
ATOM     44  C   UNL A   1      38.528  33.830  38.671  1.00  0.00     0.198 A 
ATOM     45  F   UNL A   1      38.173  31.799  37.540  1.00  0.00    -0.203 F 
ATOM     46  F   UNL A   1      40.720  36.610  37.908  1.00  0.00    -0.200 F 
ATOM     47  C   UNL A   1      39.169  35.056  38.771  1.00  0.00     0.200 A 
ATOM     48  F   UNL A   1      37.628  33.470  39.596  1.00  0.00    -0.200 F 
ATOM     49  F   UNL A   1      38.904  35.871  39.801  1.00  0.00    -0.200 F 
ENDBRANCH  25  39
BRANCH  26  50
ATOM     50  C   UNL A   1      40.952  27.707  28.480  1.00  0.00     0.064 A 
ATOM     51  C   UNL A   1      41.825  28.134  27.469  1.00  0.00     0.173 A 
ATOM     52  C   UNL A   1      40.272  26.495  28.282  1.00  0.00     0.173 A 
ATOM     53  F   UNL A   1      42.481  29.297  27.597  1.00  0.00    -0.203 F 
ATOM     54  C   UNL A   1      41.984  27.398  26.296  1.00  0.00     0.198 A 
ATOM     55  C   UNL A   1      40.462  25.741  27.127  1.00  0.00     0.198 A 
ATOM     56  F   UNL A   1      39.426  26.039  29.217  1.00  0.00    -0.203 F 
ATOM     57  F   UNL A   1      42.773  27.863  25.318  1.00  0.00    -0.200 F 
ATOM     58  C   UNL A   1      41.308  26.199  26.129  1.00  0.00     0.200 A 
ATOM     59  F   UNL A   1      39.819  24.575  26.978  1.00  0.00    -0.200 F 
ATOM     60  F   UNL A   1      41.462  25.491  25.001  1.00  0.00    -0.200 F 
ENDBRANCH  26  50
BRANCH  38  61
ATOM     61  C   UNL A   1      44.221  28.061  34.614  1.00  0.00     0.064 A 
ATOM     62  C   UNL A   1      44.038  26.860  35.318  1.00  0.00     0.173 A 
ATOM     63  C   UNL A   1      45.534  28.534  34.463  1.00  0.00     0.173 A 
ATOM     64  F   UNL A   1      42.803  26.369  35.505  1.00  0.00    -0.203 F 
ATOM     65  C   UNL A   1      45.117  26.188  35.887  1.00  0.00     0.198 A 
ATOM     66  C   UNL A   1      46.616  27.840  35.002  1.00  0.00     0.198 A 
ATOM     67  F   UNL A   1      45.771  29.671  33.792  1.00  0.00    -0.203 F 
ATOM     68  F   UNL A   1      44.908  25.083  36.616  1.00  0.00    -0.200 F 
ATOM     69  C   UNL A   1      46.405  26.676  35.725  1.00  0.00     0.200 A 
ATOM     70  F   UNL A   1      47.861  28.305  34.831  1.00  0.00    -0.200 F 
ATOM     71  F   UNL A   1      47.442  26.032  36.277  1.00  0.00    -0.200 F 
ENDBRANCH  38  61
ENDBRANCH  12  13
ENDBRANCH   5   7
ENDBRANCH   2   3
ENDBRANCH   1   2
BRANCH   1  72
ATOM     72  C   UNL A   1      31.618  30.235  25.858  1.00  0.00     0.117 C 
BRANCH  72  73
ATOM     73  N   UNL A   1      32.690  29.872  24.945  1.00  0.00    -0.354 N 
ATOM     74  C   UNL A   1      32.923  28.793  24.139  1.00  0.00     0.244 C 
ATOM     75  H   UNL A   1      33.402  30.549  24.898  1.00  0.00     0.163 HD
ATOM     76  O   UNL A   1      33.608  29.015  23.130  1.00  0.00    -0.273 OA
BRANCH  74  77
ATOM     77  C   UNL A   1      32.479  27.343  24.428  1.00  0.00     0.193 C 
ATOM     78  C   UNL A   1      33.783  26.490  24.563  1.00  0.00     0.155 C 
ATOM     79  N   UNL A   1      31.389  26.835  23.588  1.00  0.00    -0.327 N 
ATOM     80  N   UNL A   1      33.753  25.244  23.805  1.00  0.00    -0.336 N 
ATOM     81  C   UNL A   1      31.690  25.696  22.676  1.00  0.00     0.142 C 
ATOM     82  C   UNL A   1      33.182  25.348  22.483  1.00  0.00     0.141 C 
BRANCH  79  83
ATOM     83  C   UNL A   1      30.047  27.150  23.782  1.00  0.00     0.226 C 
ATOM     84  O   UNL A   1      29.332  26.336  24.389  1.00  0.00    -0.275 OA
BRANCH  83  85
ATOM     85  C   UNL A   1      29.323  28.438  23.276  1.00  0.00     0.083 C 
ATOM     86  C   UNL A   1      27.808  28.578  23.126  1.00  0.00     0.042 C 
ATOM     87  C   UNL A   1      29.980  29.016  22.020  1.00  0.00     0.042 C 
ATOM     88  C   UNL A   1      27.380  30.001  22.804  1.00  0.00     0.161 C 
ATOM     89  C   UNL A   1      29.461  30.437  21.781  1.00  0.00     0.161 C 
ATOM     90  O   UNL A   1      28.042  30.453  21.633  1.00  0.00    -0.381 OA
ENDBRANCH  83  85
ENDBRANCH  79  83
BRANCH  80  91
ATOM     91  C   UNL A   1      34.804  24.400  24.077  1.00  0.00     0.225 A 
ATOM     92  N   UNL A   1      35.320  23.621  23.112  1.00  0.00    -0.221 NA
ATOM     93  N   UNL A   1      35.314  24.463  25.320  1.00  0.00    -0.221 NA
ATOM     94  C   UNL A   1      36.428  22.913  23.430  1.00  0.00     0.117 A 
ATOM     95  C   UNL A   1      36.386  23.701  25.601  1.00  0.00     0.117 A 
ATOM     96  C   UNL A   1      37.010  22.910  24.675  1.00  0.00     0.040 A 
ENDBRANCH  80  91
ENDBRANCH  74  77
ENDBRANCH  72  73
ENDBRANCH   1  72
TORSDOF 13
ENDMDL
MODEL 2
REMARK VINA RESULT:     -13.1      5.574      9.858
REMARK SMILES O=C(NCCCNC(=O)[C@@H]1CN(c2ncccn2)CCN1C(=O)C1CCOCC1)c1ccc(-c2c3nc(c(-c4c(F)c(F)c(F)c(F)c4F)c4ccc([nH]4)c(-c4c(F)c(F)c(F)c(F)c4F)c4nc(c(-c5c(F)c(F)c(F)c(F)c5F)c5ccc2[nH]5)C=C4)C=C3)cc1
REMARK SMILES IDX 5 1 4 2 3 3 1 4 2 5 30 7 31 8 92 9 32 10 91 11 33 12 34 13
REMARK SMILES IDX 35 14 85 15 36 16 90 17 84 18 86 19 37 20 89 21 83 22 82 23
REMARK SMILES IDX 38 25 70 26 50 27 69 28 51 29 54 30 68 31 87 32 52 33 53 34
REMARK SMILES IDX 67 36 88 37 55 38 39 39 40 40 48 41 41 42 42 43 46 44 49 45
REMARK SMILES IDX 43 46 44 47 47 48 45 49 71 50 72 51 80 52 73 53 74 54 78 55
REMARK SMILES IDX 81 56 75 57 76 58 79 59 77 60 56 61 57 62 65 63 58 64 59 65
REMARK SMILES IDX 63 66 66 67 60 68 61 69 64 70 62 71 6 72 7 73 8 74 9 76
REMARK SMILES IDX 10 77 11 78 21 79 12 80 20 81 19 82 22 83 23 84 24 85 25 86
REMARK SMILES IDX 29 87 26 88 28 89 27 90 13 91 14 92 18 93 15 94 17 95 16 96
REMARK H PARENT 3 6 86 24 54 35 7 75
REMARK Flexibility Score: inf
ROOT
ATOM      1  C   UNL A   1      37.867  19.793  24.989  1.00  0.00     0.042 C 
ENDROOT
BRANCH   1   2
ATOM      2  C   UNL A   1      39.116  20.068  25.834  1.00  0.00     0.118 C 
BRANCH   2   3
ATOM      3  N   UNL A   1      40.154  19.066  25.858  1.00  0.00    -0.352 N 
ATOM      4  O   UNL A   1      42.276  18.320  26.108  1.00  0.00    -0.269 OA
ATOM      5  C   UNL A   1      41.502  19.266  26.108  1.00  0.00     0.251 C 
ATOM      6  H   UNL A   1      39.874  18.139  25.676  1.00  0.00     0.163 HD
BRANCH   5   7
ATOM      7  C   UNL A   1      42.030  20.639  26.350  1.00  0.00     0.039 A 
ATOM      8  C   UNL A   1      42.267  21.529  25.300  1.00  0.00     0.014 A 
ATOM      9  C   UNL A   1      42.226  21.064  27.669  1.00  0.00     0.014 A 
ATOM     10  C   UNL A   1      42.767  22.812  25.567  1.00  0.00     0.010 A 
ATOM     11  C   UNL A   1      42.689  22.362  27.937  1.00  0.00     0.010 A 
ATOM     12  C   UNL A   1      42.977  23.251  26.889  1.00  0.00    -0.014 A 
BRANCH  12  13
ATOM     13  C   UNL A   1      43.417  24.655  27.161  1.00  0.00     0.031 A 
ATOM     14  C   UNL A   1      42.469  25.692  27.711  1.00  0.00     0.074 A 
ATOM     15  C   UNL A   1      44.693  25.009  26.904  1.00  0.00     0.049 A 
ATOM     16  N   UNL A   1      42.695  26.954  28.000  1.00  0.00    -0.248 NA
ATOM     17  C   UNL A   1      41.086  25.264  27.961  1.00  0.00     0.031 C 
ATOM     18  C   UNL A   1      45.710  24.122  26.335  1.00  0.00     0.029 A 
ATOM     19  N   UNL A   1      45.357  26.200  27.084  1.00  0.00    -0.354 N 
ATOM     20  C   UNL A   1      41.490  27.465  28.470  1.00  0.00     0.074 A 
ATOM     21  C   UNL A   1      40.523  26.389  28.387  1.00  0.00     0.031 C 
ATOM     22  C   UNL A   1      46.870  24.787  26.238  1.00  0.00     0.029 A 
ATOM     23  C   UNL A   1      46.674  26.163  26.687  1.00  0.00     0.049 A 
ATOM     24  H   UNL A   1      44.931  27.003  27.460  1.00  0.00     0.167 HD
ATOM     25  C   UNL A   1      41.217  28.708  28.941  1.00  0.00     0.037 A 
ATOM     26  C   UNL A   1      47.616  27.125  26.666  1.00  0.00     0.037 A 
ATOM     27  C   UNL A   1      42.174  29.787  29.020  1.00  0.00     0.049 A 
ATOM     28  C   UNL A   1      47.276  28.504  27.166  1.00  0.00     0.074 A 
ATOM     29  C   UNL A   1      41.990  31.073  29.502  1.00  0.00     0.029 A 
ATOM     30  N   UNL A   1      43.495  29.709  28.602  1.00  0.00    -0.354 N 
ATOM     31  N   UNL A   1      46.145  28.954  27.651  1.00  0.00    -0.248 NA
ATOM     32  C   UNL A   1      48.349  29.508  27.121  1.00  0.00     0.031 C 
ATOM     33  C   UNL A   1      43.181  31.787  29.330  1.00  0.00     0.029 A 
ATOM     34  C   UNL A   1      44.129  30.929  28.797  1.00  0.00     0.049 A 
ATOM     35  H   UNL A   1      43.921  28.906  28.222  1.00  0.00     0.167 HD
ATOM     36  C   UNL A   1      46.375  30.282  27.985  1.00  0.00     0.074 A 
ATOM     37  C   UNL A   1      47.763  30.555  27.681  1.00  0.00     0.031 C 
ATOM     38  C   UNL A   1      45.509  31.197  28.489  1.00  0.00     0.037 A 
BRANCH  25  39
ATOM     39  C   UNL A   1      39.819  28.990  29.421  1.00  0.00     0.064 A 
ATOM     40  C   UNL A   1      38.814  29.420  28.540  1.00  0.00     0.173 A 
ATOM     41  C   UNL A   1      39.454  28.743  30.755  1.00  0.00     0.173 A 
ATOM     42  F   UNL A   1      39.107  29.674  27.256  1.00  0.00    -0.203 F 
ATOM     43  C   UNL A   1      37.505  29.611  28.979  1.00  0.00     0.198 A 
ATOM     44  C   UNL A   1      38.138  28.906  31.183  1.00  0.00     0.198 A 
ATOM     45  F   UNL A   1      40.368  28.316  31.639  1.00  0.00    -0.203 F 
ATOM     46  F   UNL A   1      36.572  30.055  28.126  1.00  0.00    -0.200 F 
ATOM     47  C   UNL A   1      37.166  29.345  30.296  1.00  0.00     0.200 A 
ATOM     48  F   UNL A   1      37.807  28.630  32.452  1.00  0.00    -0.200 F 
ATOM     49  F   UNL A   1      35.903  29.512  30.712  1.00  0.00    -0.200 F 
ENDBRANCH  25  39
BRANCH  26  50
ATOM     50  C   UNL A   1      48.974  26.828  26.134  1.00  0.00     0.064 A 
ATOM     51  C   UNL A   1      49.291  27.041  24.785  1.00  0.00     0.173 A 
ATOM     52  C   UNL A   1      49.976  26.295  26.960  1.00  0.00     0.173 A 
ATOM     53  F   UNL A   1      48.362  27.526  23.946  1.00  0.00    -0.203 F 
ATOM     54  C   UNL A   1      50.544  26.704  24.277  1.00  0.00     0.198 A 
ATOM     55  C   UNL A   1      51.240  25.995  26.460  1.00  0.00     0.198 A 
ATOM     56  F   UNL A   1      49.726  26.072  28.259  1.00  0.00    -0.203 F 
ATOM     57  F   UNL A   1      50.799  26.855  22.970  1.00  0.00    -0.200 F 
ATOM     58  C   UNL A   1      51.520  26.187  25.117  1.00  0.00     0.200 A 
ATOM     59  F   UNL A   1      52.184  25.513  27.280  1.00  0.00    -0.200 F 
ATOM     60  F   UNL A   1      52.726  25.864  24.628  1.00  0.00    -0.200 F 
ENDBRANCH  26  50
BRANCH  38  61
ATOM     61  C   UNL A   1      46.054  32.570  28.768  1.00  0.00     0.064 A 
ATOM     62  C   UNL A   1      46.633  32.898  30.004  1.00  0.00     0.173 A 
ATOM     63  C   UNL A   1      45.991  33.575  27.790  1.00  0.00     0.173 A 
ATOM     64  F   UNL A   1      46.706  31.980  30.980  1.00  0.00    -0.203 F 
ATOM     65  C   UNL A   1      47.087  34.189  30.266  1.00  0.00     0.198 A 
ATOM     66  C   UNL A   1      46.479  34.856  28.043  1.00  0.00     0.198 A 
ATOM     67  F   UNL A   1      45.456  33.317  26.588  1.00  0.00    -0.203 F 
ATOM     68  F   UNL A   1      47.569  34.495  31.478  1.00  0.00    -0.200 F 
ATOM     69  C   UNL A   1      47.013  35.166  29.284  1.00  0.00     0.200 A 
ATOM     70  F   UNL A   1      46.421  35.794  27.087  1.00  0.00    -0.200 F 
ATOM     71  F   UNL A   1      47.445  36.408  29.539  1.00  0.00    -0.200 F 
ENDBRANCH  38  61
ENDBRANCH  12  13
ENDBRANCH   5   7
ENDBRANCH   2   3
ENDBRANCH   1   2
BRANCH   1  72
ATOM     72  C   UNL A   1      36.604  20.675  24.938  1.00  0.00     0.117 C 
BRANCH  72  73
ATOM     73  N   UNL A   1      35.912  21.141  26.129  1.00  0.00    -0.354 N 
ATOM     74  C   UNL A   1      34.666  21.655  26.361  1.00  0.00     0.244 C 
ATOM     75  H   UNL A   1      36.458  21.072  26.944  1.00  0.00     0.163 HD
ATOM     76  O   UNL A   1      34.205  21.454  27.494  1.00  0.00    -0.273 OA
BRANCH  74  77
ATOM     77  C   UNL A   1      33.852  22.516  25.371  1.00  0.00     0.193 C 
ATOM     78  C   UNL A   1      33.799  23.961  25.966  1.00  0.00     0.155 C 
ATOM     79  N   UNL A   1      32.608  21.910  24.881  1.00  0.00    -0.327 N 
ATOM     80  N   UNL A   1      32.465  24.552  25.961  1.00  0.00    -0.336 N 
ATOM     81  C   UNL A   1      31.324  22.572  25.246  1.00  0.00     0.142 C 
ATOM     82  C   UNL A   1      31.399  23.656  26.343  1.00  0.00     0.141 C 
BRANCH  79  83
ATOM     83  C   UNL A   1      32.556  20.941  23.884  1.00  0.00     0.226 C 
ATOM     84  O   UNL A   1      32.147  21.272  22.760  1.00  0.00    -0.275 OA
BRANCH  83  85
ATOM     85  C   UNL A   1      32.940  19.435  24.045  1.00  0.00     0.083 C 
ATOM     86  C   UNL A   1      32.683  18.358  22.991  1.00  0.00     0.042 C 
ATOM     87  C   UNL A   1      32.525  18.874  25.408  1.00  0.00     0.042 C 
ATOM     88  C   UNL A   1      33.339  17.030  23.338  1.00  0.00     0.161 C 
ATOM     89  C   UNL A   1      33.225  17.532  25.641  1.00  0.00     0.161 C 
ATOM     90  O   UNL A   1      32.901  16.594  24.616  1.00  0.00    -0.381 OA
ENDBRANCH  83  85
ENDBRANCH  79  83
BRANCH  80  91
ATOM     91  C   UNL A   1      32.446  25.887  26.293  1.00  0.00     0.225 A 
ATOM     92  N   UNL A   1      31.350  26.436  26.841  1.00  0.00    -0.221 NA
ATOM     93  N   UNL A   1      33.592  26.565  26.105  1.00  0.00    -0.221 NA
ATOM     94  C   UNL A   1      31.454  27.722  27.250  1.00  0.00     0.117 A 
ATOM     95  C   UNL A   1      33.629  27.856  26.482  1.00  0.00     0.117 A 
ATOM     96  C   UNL A   1      32.580  28.492  27.090  1.00  0.00     0.040 A 
ENDBRANCH  80  91
ENDBRANCH  74  77
ENDBRANCH  72  73
ENDBRANCH   1  72
TORSDOF 13
ENDMDL
MODEL 3
REMARK VINA RESULT:     -13.0      0.105      1.570
REMARK SMILES O=C(NCCCNC(=O)[C@@H]1CN(c2ncccn2)CCN1C(=O)C1CCOCC1)c1ccc(-c2c3nc(c(-c4c(F)c(F)c(F)c(F)c4F)c4ccc([nH]4)c(-c4c(F)c(F)c(F)c(F)c4F)c4nc(c(-c5c(F)c(F)c(F)c(F)c5F)c5ccc2[nH]5)C=C4)C=C3)cc1
REMARK SMILES IDX 5 1 4 2 3 3 1 4 2 5 30 7 31 8 92 9 32 10 91 11 33 12 34 13
REMARK SMILES IDX 35 14 85 15 36 16 90 17 84 18 86 19 37 20 89 21 83 22 82 23
REMARK SMILES IDX 38 25 70 26 50 27 69 28 51 29 54 30 68 31 87 32 52 33 53 34
REMARK SMILES IDX 67 36 88 37 55 38 39 39 40 40 48 41 41 42 42 43 46 44 49 45
REMARK SMILES IDX 43 46 44 47 47 48 45 49 71 50 72 51 80 52 73 53 74 54 78 55
REMARK SMILES IDX 81 56 75 57 76 58 79 59 77 60 56 61 57 62 65 63 58 64 59 65
REMARK SMILES IDX 63 66 66 67 60 68 61 69 64 70 62 71 6 72 7 73 8 74 9 76
REMARK SMILES IDX 10 77 11 78 21 79 12 80 20 81 19 82 22 83 23 84 24 85 25 86
REMARK SMILES IDX 29 87 26 88 28 89 27 90 13 91 14 92 18 93 15 94 17 95 16 96
REMARK H PARENT 3 6 86 24 54 35 7 75
REMARK Flexibility Score: inf
ROOT
ATOM      1  C   UNL A   1      31.483  31.657  26.467  1.00  0.00     0.042 C 
ENDROOT
BRANCH   1   2
ATOM      2  C   UNL A   1      32.650  32.511  26.976  1.00  0.00     0.118 C 
BRANCH   2   3
ATOM      3  N   UNL A   1      32.359  33.838  27.462  1.00  0.00    -0.352 N 
ATOM      4  O   UNL A   1      32.700  35.668  28.748  1.00  0.00    -0.269 OA
ATOM      5  C   UNL A   1      33.050  34.539  28.437  1.00  0.00     0.251 C 
ATOM      6  H   UNL A   1      31.586  34.295  27.057  1.00  0.00     0.163 HD
BRANCH   5   7
ATOM      7  C   UNL A   1      34.207  33.915  29.140  1.00  0.00     0.039 A 
ATOM      8  C   UNL A   1      34.028  32.942  30.126  1.00  0.00     0.014 A 
ATOM      9  C   UNL A   1      35.504  34.269  28.750  1.00  0.00     0.014 A 
ATOM     10  C   UNL A   1      35.142  32.381  30.768  1.00  0.00     0.010 A 
ATOM     11  C   UNL A   1      36.618  33.677  29.366  1.00  0.00     0.010 A 
ATOM     12  C   UNL A   1      36.453  32.732  30.392  1.00  0.00    -0.014 A 
BRANCH  12  13
ATOM     13  C   UNL A   1      37.630  32.051  31.017  1.00  0.00     0.031 A 
ATOM     14  C   UNL A   1      38.118  32.415  32.397  1.00  0.00     0.074 A 
ATOM     15  C   UNL A   1      38.278  31.089  30.328  1.00  0.00     0.049 A 
ATOM     16  N   UNL A   1      39.125  31.919  33.080  1.00  0.00    -0.248 NA
ATOM     17  C   UNL A   1      37.389  33.478  33.102  1.00  0.00     0.031 C 
ATOM     18  C   UNL A   1      37.941  30.661  28.969  1.00  0.00     0.029 A 
ATOM     19  N   UNL A   1      39.349  30.297  30.668  1.00  0.00    -0.354 N 
ATOM     20  C   UNL A   1      39.146  32.603  34.291  1.00  0.00     0.074 A 
ATOM     21  C   UNL A   1      38.078  33.580  34.233  1.00  0.00     0.031 C 
ATOM     22  C   UNL A   1      38.768  29.670  28.602  1.00  0.00     0.029 A 
ATOM     23  C   UNL A   1      39.728  29.425  29.674  1.00  0.00     0.049 A 
ATOM     24  H   UNL A   1      39.804  30.351  31.540  1.00  0.00     0.167 HD
ATOM     25  C   UNL A   1      39.967  32.424  35.356  1.00  0.00     0.037 A 
ATOM     26  C   UNL A   1      40.741  28.538  29.618  1.00  0.00     0.037 A 
ATOM     27  C   UNL A   1      41.039  31.457  35.417  1.00  0.00     0.049 A 
ATOM     28  C   UNL A   1      41.655  28.383  30.804  1.00  0.00     0.074 A 
ATOM     29  C   UNL A   1      41.907  31.193  36.463  1.00  0.00     0.029 A 
ATOM     30  N   UNL A   1      41.391  30.597  34.387  1.00  0.00    -0.354 N 
ATOM     31  N   UNL A   1      41.629  29.005  31.957  1.00  0.00    -0.248 NA
ATOM     32  C   UNL A   1      42.738  27.397  30.681  1.00  0.00     0.031 C 
ATOM     33  C   UNL A   1      42.816  30.213  36.051  1.00  0.00     0.029 A 
ATOM     34  C   UNL A   1      42.477  29.819  34.767  1.00  0.00     0.049 A 
ATOM     35  H   UNL A   1      40.939  30.546  33.513  1.00  0.00     0.167 HD
ATOM     36  C   UNL A   1      42.675  28.473  32.700  1.00  0.00     0.074 A 
ATOM     37  C   UNL A   1      43.293  27.453  31.882  1.00  0.00     0.031 C 
ATOM     38  C   UNL A   1      43.091  28.808  33.947  1.00  0.00     0.037 A 
BRANCH  25  39
ATOM     39  C   UNL A   1      39.750  33.290  36.568  1.00  0.00     0.064 A 
ATOM     40  C   UNL A   1      40.405  34.523  36.714  1.00  0.00     0.173 A 
ATOM     41  C   UNL A   1      38.813  32.930  37.550  1.00  0.00     0.173 A 
ATOM     42  F   UNL A   1      41.312  34.917  35.807  1.00  0.00    -0.203 F 
ATOM     43  C   UNL A   1      40.145  35.351  37.804  1.00  0.00     0.198 A 
ATOM     44  C   UNL A   1      38.534  33.774  38.623  1.00  0.00     0.198 A 
ATOM     45  F   UNL A   1      38.146  31.770  37.455  1.00  0.00    -0.203 F 
ATOM     46  F   UNL A   1      40.808  36.508  37.938  1.00  0.00    -0.200 F 
ATOM     47  C   UNL A   1      39.204  34.981  38.752  1.00  0.00     0.200 A 
ATOM     48  F   UNL A   1      37.609  33.423  39.528  1.00  0.00    -0.200 F 
ATOM     49  F   UNL A   1      38.942  35.787  39.790  1.00  0.00    -0.200 F 
ENDBRANCH  25  39
BRANCH  26  50
ATOM     50  C   UNL A   1      40.961  27.735  28.384  1.00  0.00     0.064 A 
ATOM     51  C   UNL A   1      40.334  26.494  28.201  1.00  0.00     0.173 A 
ATOM     52  C   UNL A   1      41.830  28.179  27.375  1.00  0.00     0.173 A 
ATOM     53  F   UNL A   1      39.514  26.011  29.146  1.00  0.00    -0.203 F 
ATOM     54  C   UNL A   1      40.592  25.717  27.073  1.00  0.00     0.198 A 
ATOM     55  C   UNL A   1      42.056  27.419  26.230  1.00  0.00     0.198 A 
ATOM     56  F   UNL A   1      42.456  29.359  27.500  1.00  0.00    -0.203 F 
ATOM     57  F   UNL A   1      40.031  24.505  26.955  1.00  0.00    -0.200 F 
ATOM     58  C   UNL A   1      41.447  26.183  26.085  1.00  0.00     0.200 A 
ATOM     59  F   UNL A   1      42.870  27.883  25.272  1.00  0.00    -0.200 F 
ATOM     60  F   UNL A   1      41.694  25.435  25.001  1.00  0.00    -0.200 F 
ENDBRANCH  26  50
BRANCH  38  61
ATOM     61  C   UNL A   1      44.256  28.039  34.507  1.00  0.00     0.064 A 
ATOM     62  C   UNL A   1      45.578  28.486  34.354  1.00  0.00     0.173 A 
ATOM     63  C   UNL A   1      44.050  26.837  35.201  1.00  0.00     0.173 A 
ATOM     64  F   UNL A   1      45.835  29.622  33.686  1.00  0.00    -0.203 F 
ATOM     65  C   UNL A   1      46.650  27.737  34.834  1.00  0.00     0.198 A 
ATOM     66  C   UNL A   1      45.123  26.108  35.712  1.00  0.00     0.198 A 
ATOM     67  F   UNL A   1      42.808  26.366  35.385  1.00  0.00    -0.203 F 
ATOM     68  F   UNL A   1      47.906  28.148  34.611  1.00  0.00    -0.200 F 
ATOM     69  C   UNL A   1      46.422  26.551  35.515  1.00  0.00     0.200 A 
ATOM     70  F   UNL A   1      44.898  24.970  36.384  1.00  0.00    -0.200 F 
ATOM     71  F   UNL A   1      47.453  25.828  35.972  1.00  0.00    -0.200 F 
ENDBRANCH  38  61
ENDBRANCH  12  13
ENDBRANCH   5   7
ENDBRANCH   2   3
ENDBRANCH   1   2
BRANCH   1  72
ATOM     72  C   UNL A   1      31.602  30.254  25.840  1.00  0.00     0.117 C 
BRANCH  72  73
ATOM     73  N   UNL A   1      32.666  29.882  24.921  1.00  0.00    -0.354 N 
ATOM     74  C   UNL A   1      32.894  28.795  24.124  1.00  0.00     0.244 C 
ATOM     75  H   UNL A   1      33.378  30.559  24.861  1.00  0.00     0.163 HD
ATOM     76  O   UNL A   1      33.570  29.008  23.107  1.00  0.00    -0.273 OA
BRANCH  74  77
ATOM     77  C   UNL A   1      32.454  27.348  24.432  1.00  0.00     0.193 C 
ATOM     78  C   UNL A   1      33.759  26.497  24.565  1.00  0.00     0.155 C 
ATOM     79  N   UNL A   1      31.357  26.831  23.607  1.00  0.00    -0.327 N 
ATOM     80  N   UNL A   1      33.724  25.244  23.820  1.00  0.00    -0.336 N 
ATOM     81  C   UNL A   1      31.651  25.682  22.705  1.00  0.00     0.142 C 
ATOM     82  C   UNL A   1      33.141  25.333  22.502  1.00  0.00     0.141 C 
BRANCH  79  83
ATOM     83  C   UNL A   1      30.017  27.146  23.809  1.00  0.00     0.226 C 
ATOM     84  O   UNL A   1      29.305  26.334  24.423  1.00  0.00    -0.275 OA
BRANCH  83  85
ATOM     85  C   UNL A   1      29.290  28.433  23.304  1.00  0.00     0.083 C 
ATOM     86  C   UNL A   1      27.776  28.559  23.125  1.00  0.00     0.042 C 
ATOM     87  C   UNL A   1      29.965  29.033  22.068  1.00  0.00     0.042 C 
ATOM     88  C   UNL A   1      27.340  29.982  22.812  1.00  0.00     0.161 C 
ATOM     89  C   UNL A   1      29.437  30.452  21.837  1.00  0.00     0.161 C 
ATOM     90  O   UNL A   1      28.021  30.455  21.660  1.00  0.00    -0.381 OA
ENDBRANCH  83  85
ENDBRANCH  79  83
BRANCH  80  91
ATOM     91  C   UNL A   1      34.779  24.404  24.092  1.00  0.00     0.225 A 
ATOM     92  N   UNL A   1      35.310  23.642  23.123  1.00  0.00    -0.221 NA
ATOM     93  N   UNL A   1      35.274  24.453  25.341  1.00  0.00    -0.221 NA
ATOM     94  C   UNL A   1      36.420  22.937  23.443  1.00  0.00     0.117 A 
ATOM     95  C   UNL A   1      36.348  23.695  25.624  1.00  0.00     0.117 A 
ATOM     96  C   UNL A   1      36.988  22.921  24.693  1.00  0.00     0.040 A 
ENDBRANCH  80  91
ENDBRANCH  74  77
ENDBRANCH  72  73
ENDBRANCH   1  72
TORSDOF 13
ENDMDL
