MODEL 1
REMARK VINA RESULT:     -11.8      0.000      0.000
REMARK SMILES O=C(/C=C\c1ccc(OCc2ccc(Br)cc2)cc1)NCCCNC(=O)c1ccc(-c2c3nc(c(-c4c(F)c(F)c(F)c(F)c4F)c4ccc([nH]4)c(-c4c(F)c(F)c(F)c(F)c4F)c4nc(c(-c5c(F)c(F)c(F)c(F)c5F)c5ccc2[nH]5)C=C4)C=C3)cc1
REMARK SMILES IDX 21 1 20 2 1 3 2 4 3 6 4 7 5 8 6 9 19 10 7 11 18 12 8 13 9 14
REMARK SMILES IDX 10 15 11 16 12 17 17 18 13 19 16 20 14 21 15 22 22 23 23 24
REMARK SMILES IDX 24 25 25 26 26 28 27 29 28 30 89 31 29 32 88 33 30 34 31 35
REMARK SMILES IDX 32 36 82 37 33 38 87 39 81 40 83 41 34 42 86 43 80 44 79 45
REMARK SMILES IDX 35 47 67 48 47 49 66 50 48 51 51 52 65 53 84 54 49 55 50 56
REMARK SMILES IDX 64 58 85 59 52 60 36 61 37 62 45 63 38 64 39 65 43 66 46 67
REMARK SMILES IDX 40 68 41 69 44 70 42 71 68 72 69 73 77 74 70 75 71 76 75 77
REMARK SMILES IDX 78 78 72 79 73 80 76 81 74 82 53 83 54 84 62 85 55 86 56 87
REMARK SMILES IDX 60 88 63 89 57 90 58 91 61 92 59 93
REMARK H PARENT 20 5 24 27 83 46 51 57
REMARK Flexibility Score: inf
ROOT
ATOM      1  C   UNL A   1      33.361  36.756  30.788  1.00  0.00     0.118 C 
ENDROOT
BRANCH   1   2
ATOM      2  N   UNL A   1      33.996  35.746  31.625  1.00  0.00    -0.352 N 
ATOM      3  O   UNL A   1      34.404  37.138  33.400  1.00  0.00    -0.270 OA
ATOM      4  C   UNL A   1      34.412  36.014  32.904  1.00  0.00     0.244 C 
ATOM      5  H   UNL A   1      34.133  34.842  31.261  1.00  0.00     0.163 HD
BRANCH   4   6
ATOM      6  C   UNL A   1      34.784  34.863  33.781  1.00  0.00     0.072 C 
ATOM      7  C   UNL A   1      35.925  34.182  33.969  1.00  0.00     0.014 C 
BRANCH   7   8
ATOM      8  C   UNL A   1      37.206  34.425  33.327  1.00  0.00    -0.025 A 
ATOM      9  C   UNL A   1      38.350  34.564  34.118  1.00  0.00     0.012 A 
ATOM     10  C   UNL A   1      37.300  34.490  31.933  1.00  0.00     0.012 A 
ATOM     11  C   UNL A   1      39.595  34.646  33.513  1.00  0.00     0.047 A 
ATOM     12  C   UNL A   1      38.547  34.580  31.330  1.00  0.00     0.047 A 
ATOM     13  C   UNL A   1      39.690  34.577  32.127  1.00  0.00     0.119 A 
BRANCH  13  14
ATOM     14  O   UNL A   1      40.956  34.426  31.657  1.00  0.00    -0.489 OA
BRANCH  14  15
ATOM     15  C   UNL A   1      41.097  33.542  30.550  1.00  0.00     0.265 C 
BRANCH  15  16
ATOM     16  C   UNL A   1      42.036  32.357  30.697  1.00  0.00    -0.011 A 
ATOM     17  C   UNL A   1      42.356  31.295  29.249  1.00  0.00     0.008 A 
ATOM     18  C   UNL A   1      43.032  32.161  32.206  1.00  0.00     0.008 A 
ATOM     19  C   UNL A   1      43.724  30.093  29.296  1.00  0.00     0.016 A 
ATOM     20  C   UNL A   1      44.344  30.913  32.269  1.00  0.00     0.016 A 
ATOM     21  C   UNL A   1      44.739  29.957  30.784  1.00  0.00     0.017 A 
ATOM     22  Br  UNL A   1      46.316  28.908  30.752  1.00  0.00    -0.051 Br
ENDBRANCH  15  16
ENDBRANCH  14  15
ENDBRANCH  13  14
ENDBRANCH   7   8
ENDBRANCH   4   6
ENDBRANCH   1   2
BRANCH   1  23
ATOM     23  C   UNL A   1      32.850  36.253  29.429  1.00  0.00     0.042 C 
BRANCH  23  24
ATOM     24  C   UNL A   1      33.829  35.132  28.585  1.00  0.00     0.118 C 
BRANCH  24  25
ATOM     25  N   UNL A   1      33.623  33.139  28.011  1.00  0.00    -0.352 N 
ATOM     26  C   UNL A   1      34.061  31.781  27.771  1.00  0.00     0.251 C 
ATOM     27  H   UNL A   1      32.675  33.097  27.750  1.00  0.00     0.163 HD
ATOM     28  O   UNL A   1      33.185  31.004  27.371  1.00  0.00    -0.269 OA
BRANCH  26  29
ATOM     29  C   UNL A   1      35.413  31.183  27.916  1.00  0.00     0.039 A 
ATOM     30  C   UNL A   1      36.522  32.006  28.095  1.00  0.00     0.014 A 
ATOM     31  C   UNL A   1      35.605  29.808  27.902  1.00  0.00     0.014 A 
ATOM     32  C   UNL A   1      37.735  31.441  28.506  1.00  0.00     0.010 A 
ATOM     33  C   UNL A   1      36.715  29.271  28.527  1.00  0.00     0.010 A 
ATOM     34  C   UNL A   1      37.799  30.080  28.854  1.00  0.00    -0.014 A 
BRANCH  34  35
ATOM     35  C   UNL A   1      38.932  29.499  29.620  1.00  0.00     0.031 A 
ATOM     36  C   UNL A   1      39.201  29.918  31.044  1.00  0.00     0.074 A 
ATOM     37  C   UNL A   1      39.814  28.705  28.974  1.00  0.00     0.049 A 
ATOM     38  N   UNL A   1      40.166  29.545  31.848  1.00  0.00    -0.248 NA
ATOM     39  C   UNL A   1      38.320  30.948  31.626  1.00  0.00     0.031 C 
ATOM     40  C   UNL A   1      39.774  28.373  27.546  1.00  0.00     0.029 A 
ATOM     41  N   UNL A   1      40.923  28.037  29.428  1.00  0.00    -0.354 N 
ATOM     42  C   UNL A   1      40.007  30.300  33.003  1.00  0.00     0.074 A 
ATOM     43  C   UNL A   1      38.946  31.245  32.752  1.00  0.00     0.031 C 
ATOM     44  C   UNL A   1      40.764  27.514  27.258  1.00  0.00     0.029 A 
ATOM     45  C   UNL A   1      41.527  27.254  28.472  1.00  0.00     0.049 A 
ATOM     46  H   UNL A   1      41.255  28.110  30.352  1.00  0.00     0.167 HD
ATOM     47  C   UNL A   1      40.636  30.172  34.195  1.00  0.00     0.037 A 
ATOM     48  C   UNL A   1      42.563  26.403  28.574  1.00  0.00     0.037 A 
ATOM     49  C   UNL A   1      41.653  29.190  34.447  1.00  0.00     0.049 A 
ATOM     50  C   UNL A   1      43.203  26.214  29.924  1.00  0.00     0.074 A 
ATOM     51  C   UNL A   1      42.287  28.881  35.636  1.00  0.00     0.029 A 
ATOM     52  N   UNL A   1      42.183  28.350  33.477  1.00  0.00    -0.354 N 
ATOM     53  N   UNL A   1      42.930  26.813  31.058  1.00  0.00    -0.248 NA
ATOM     54  C   UNL A   1      44.278  25.218  30.014  1.00  0.00     0.031 C 
ATOM     55  C   UNL A   1      43.231  27.883  35.376  1.00  0.00     0.029 A 
ATOM     56  C   UNL A   1      43.151  27.537  34.035  1.00  0.00     0.049 A 
ATOM     57  H   UNL A   1      41.909  28.336  32.531  1.00  0.00     0.167 HD
ATOM     58  C   UNL A   1      43.777  26.249  32.002  1.00  0.00     0.074 A 
ATOM     59  C   UNL A   1      44.558  25.244  31.309  1.00  0.00     0.031 C 
ATOM     60  C   UNL A   1      43.903  26.537  33.320  1.00  0.00     0.037 A 
BRANCH  47  61
ATOM     61  C   UNL A   1      40.197  31.075  35.314  1.00  0.00     0.064 A 
ATOM     62  C   UNL A   1      38.952  30.906  35.945  1.00  0.00     0.173 A 
ATOM     63  C   UNL A   1      41.017  32.119  35.763  1.00  0.00     0.173 A 
ATOM     64  F   UNL A   1      38.121  29.930  35.550  1.00  0.00    -0.203 F 
ATOM     65  C   UNL A   1      38.525  31.778  36.943  1.00  0.00     0.198 A 
ATOM     66  C   UNL A   1      40.603  32.966  36.791  1.00  0.00     0.198 A 
ATOM     67  F   UNL A   1      42.219  32.325  35.205  1.00  0.00    -0.203 F 
ATOM     68  F   UNL A   1      37.302  31.639  37.473  1.00  0.00    -0.200 F 
ATOM     69  C   UNL A   1      39.354  32.804  37.369  1.00  0.00     0.200 A 
ATOM     70  F   UNL A   1      41.409  33.951  37.211  1.00  0.00    -0.200 F 
ATOM     71  F   UNL A   1      38.942  33.643  38.329  1.00  0.00    -0.200 F 
ENDBRANCH  47  61
BRANCH  48  72
ATOM     72  C   UNL A   1      43.001  25.603  27.397  1.00  0.00     0.064 A 
ATOM     73  C   UNL A   1      44.028  26.063  26.559  1.00  0.00     0.173 A 
ATOM     74  C   UNL A   1      42.410  24.371  27.081  1.00  0.00     0.173 A 
ATOM     75  F   UNL A   1      44.619  27.240  26.813  1.00  0.00    -0.203 F 
ATOM     76  C   UNL A   1      44.424  25.341  25.435  1.00  0.00     0.198 A 
ATOM     77  C   UNL A   1      42.825  23.635  25.971  1.00  0.00     0.198 A 
ATOM     78  F   UNL A   1      41.435  23.875  27.857  1.00  0.00    -0.203 F 
ATOM     79  F   UNL A   1      45.372  25.833  24.626  1.00  0.00    -0.200 F 
ATOM     80  C   UNL A   1      43.825  24.126  25.144  1.00  0.00     0.200 A 
ATOM     81  F   UNL A   1      42.255  22.453  25.701  1.00  0.00    -0.200 F 
ATOM     82  F   UNL A   1      44.204  23.432  24.062  1.00  0.00    -0.200 F 
ENDBRANCH  48  72
BRANCH  60  83
ATOM     83  C   UNL A   1      44.905  25.742  34.101  1.00  0.00     0.064 A 
ATOM     84  C   UNL A   1      44.587  24.483  34.630  1.00  0.00     0.173 A 
ATOM     85  C   UNL A   1      46.214  26.217  34.265  1.00  0.00     0.173 A 
ATOM     86  F   UNL A   1      43.343  23.993  34.509  1.00  0.00    -0.203 F 
ATOM     87  C   UNL A   1      45.540  23.737  35.315  1.00  0.00     0.198 A 
ATOM     88  C   UNL A   1      47.174  25.454  34.922  1.00  0.00     0.198 A 
ATOM     89  F   UNL A   1      46.568  27.412  33.769  1.00  0.00    -0.203 F 
ATOM     90  F   UNL A   1      45.205  22.556  35.851  1.00  0.00    -0.200 F 
ATOM     91  C   UNL A   1      46.835  24.218  35.453  1.00  0.00     0.200 A 
ATOM     92  F   UNL A   1      48.427  25.912  35.038  1.00  0.00    -0.200 F 
ATOM     93  F   UNL A   1      47.756  23.491  36.099  1.00  0.00    -0.200 F 
ENDBRANCH  60  83
ENDBRANCH  34  35
ENDBRANCH  26  29
ENDBRANCH  24  25
ENDBRANCH  23  24
ENDBRANCH   1  23
TORSDOF 14
ENDMDL
MODEL 2
REMARK VINA RESULT:     -11.4      4.294      7.229
REMARK SMILES O=C(/C=C\c1ccc(OCc2ccc(Br)cc2)cc1)NCCCNC(=O)c1ccc(-c2c3nc(c(-c4c(F)c(F)c(F)c(F)c4F)c4ccc([nH]4)c(-c4c(F)c(F)c(F)c(F)c4F)c4nc(c(-c5c(F)c(F)c(F)c(F)c5F)c5ccc2[nH]5)C=C4)C=C3)cc1
REMARK SMILES IDX 21 1 20 2 1 3 2 4 3 6 4 7 5 8 6 9 19 10 7 11 18 12 8 13 9 14
REMARK SMILES IDX 10 15 11 16 12 17 17 18 13 19 16 20 14 21 15 22 22 23 23 24
REMARK SMILES IDX 24 25 25 26 26 28 27 29 28 30 89 31 29 32 88 33 30 34 31 35
REMARK SMILES IDX 32 36 82 37 33 38 87 39 81 40 83 41 34 42 86 43 80 44 79 45
REMARK SMILES IDX 35 47 67 48 47 49 66 50 48 51 51 52 65 53 84 54 49 55 50 56
REMARK SMILES IDX 64 58 85 59 52 60 36 61 37 62 45 63 38 64 39 65 43 66 46 67
REMARK SMILES IDX 40 68 41 69 44 70 42 71 68 72 69 73 77 74 70 75 71 76 75 77
REMARK SMILES IDX 78 78 72 79 73 80 76 81 74 82 53 83 54 84 62 85 55 86 56 87
REMARK SMILES IDX 60 88 63 89 57 90 58 91 61 92 59 93
REMARK H PARENT 20 5 24 27 83 46 51 57
REMARK Flexibility Score: inf
ROOT
ATOM      1  C   UNL A   1      31.065  29.359  24.435  1.00  0.00     0.118 C 
ENDROOT
BRANCH   1   2
ATOM      2  N   UNL A   1      30.474  28.028  24.352  1.00  0.00    -0.352 N 
ATOM      3  O   UNL A   1      30.496  27.907  22.063  1.00  0.00    -0.270 OA
ATOM      4  C   UNL A   1      30.297  27.382  23.156  1.00  0.00     0.244 C 
ATOM      5  H   UNL A   1      30.192  27.579  25.181  1.00  0.00     0.163 HD
BRANCH   4   6
ATOM      6  C   UNL A   1      29.958  25.928  23.183  1.00  0.00     0.072 C 
ATOM      7  C   UNL A   1      30.681  24.819  23.406  1.00  0.00     0.014 C 
BRANCH   7   8
ATOM      8  C   UNL A   1      32.097  24.746  23.724  1.00  0.00    -0.025 A 
ATOM      9  C   UNL A   1      32.568  25.366  24.886  1.00  0.00     0.012 A 
ATOM     10  C   UNL A   1      32.976  24.041  22.895  1.00  0.00     0.012 A 
ATOM     11  C   UNL A   1      33.885  25.177  25.277  1.00  0.00     0.047 A 
ATOM     12  C   UNL A   1      34.296  23.860  23.285  1.00  0.00     0.047 A 
ATOM     13  C   UNL A   1      34.717  24.365  24.513  1.00  0.00     0.119 A 
BRANCH  13  14
ATOM     14  O   UNL A   1      35.900  24.057  25.107  1.00  0.00    -0.489 OA
BRANCH  14  15
ATOM     15  C   UNL A   1      35.821  23.135  26.189  1.00  0.00     0.265 C 
BRANCH  15  16
ATOM     16  C   UNL A   1      35.440  21.698  25.877  1.00  0.00    -0.011 A 
ATOM     17  C   UNL A   1      33.679  21.222  25.909  1.00  0.00     0.008 A 
ATOM     18  C   UNL A   1      36.682  20.543  25.219  1.00  0.00     0.008 A 
ATOM     19  C   UNL A   1      33.164  19.620  25.210  1.00  0.00     0.016 A 
ATOM     20  C   UNL A   1      36.169  18.922  24.592  1.00  0.00     0.016 A 
ATOM     21  C   UNL A   1      34.408  18.514  24.507  1.00  0.00     0.017 A 
ATOM     22  Br  UNL A   1      33.860  16.975  23.547  1.00  0.00    -0.051 Br
ENDBRANCH  15  16
ENDBRANCH  14  15
ENDBRANCH  13  14
ENDBRANCH   7   8
ENDBRANCH   4   6
ENDBRANCH   1   2
BRANCH   1  23
ATOM     23  C   UNL A   1      31.635  29.737  25.811  1.00  0.00     0.042 C 
BRANCH  23  24
ATOM     24  C   UNL A   1      31.458  31.361  26.318  1.00  0.00     0.118 C 
BRANCH  24  25
ATOM     25  N   UNL A   1      32.648  32.712  27.368  1.00  0.00    -0.352 N 
ATOM     26  C   UNL A   1      33.856  33.193  28.003  1.00  0.00     0.251 C 
ATOM     27  H   UNL A   1      32.024  33.458  27.525  1.00  0.00     0.163 HD
ATOM     28  O   UNL A   1      33.783  34.327  28.494  1.00  0.00    -0.269 OA
BRANCH  26  29
ATOM     29  C   UNL A   1      35.170  32.520  28.170  1.00  0.00     0.039 A 
ATOM     30  C   UNL A   1      36.326  33.280  28.329  1.00  0.00     0.014 A 
ATOM     31  C   UNL A   1      35.279  31.137  28.196  1.00  0.00     0.014 A 
ATOM     32  C   UNL A   1      37.503  32.656  28.759  1.00  0.00     0.010 A 
ATOM     33  C   UNL A   1      36.354  30.552  28.840  1.00  0.00     0.010 A 
ATOM     34  C   UNL A   1      37.484  31.304  29.147  1.00  0.00    -0.014 A 
BRANCH  34  35
ATOM     35  C   UNL A   1      38.579  30.678  29.933  1.00  0.00     0.031 A 
ATOM     36  C   UNL A   1      38.814  31.058  31.374  1.00  0.00     0.074 A 
ATOM     37  C   UNL A   1      39.462  29.880  29.295  1.00  0.00     0.049 A 
ATOM     38  N   UNL A   1      39.744  30.643  32.197  1.00  0.00    -0.248 NA
ATOM     39  C   UNL A   1      37.939  32.094  31.953  1.00  0.00     0.031 C 
ATOM     40  C   UNL A   1      39.459  29.582  27.858  1.00  0.00     0.029 A 
ATOM     41  N   UNL A   1      40.542  29.175  29.766  1.00  0.00    -0.354 N 
ATOM     42  C   UNL A   1      39.567  31.375  33.365  1.00  0.00     0.074 A 
ATOM     43  C   UNL A   1      38.537  32.349  33.105  1.00  0.00     0.031 C 
ATOM     44  C   UNL A   1      40.438  28.707  27.580  1.00  0.00     0.029 A 
ATOM     45  C   UNL A   1      41.156  28.401  28.810  1.00  0.00     0.049 A 
ATOM     46  H   UNL A   1      40.846  29.219  30.701  1.00  0.00     0.167 HD
ATOM     47  C   UNL A   1      40.156  31.204  34.572  1.00  0.00     0.037 A 
ATOM     48  C   UNL A   1      42.170  27.523  28.923  1.00  0.00     0.037 A 
ATOM     49  C   UNL A   1      41.142  30.192  34.831  1.00  0.00     0.049 A 
ATOM     50  C   UNL A   1      42.763  27.288  30.287  1.00  0.00     0.074 A 
ATOM     51  C   UNL A   1      41.731  29.841  36.031  1.00  0.00     0.029 A 
ATOM     52  N   UNL A   1      41.682  29.363  33.858  1.00  0.00    -0.354 N 
ATOM     53  N   UNL A   1      42.469  27.866  31.426  1.00  0.00    -0.248 NA
ATOM     54  C   UNL A   1      43.811  26.264  30.385  1.00  0.00     0.031 C 
ATOM     55  C   UNL A   1      42.660  28.827  35.776  1.00  0.00     0.029 A 
ATOM     56  C   UNL A   1      42.614  28.514  34.426  1.00  0.00     0.049 A 
ATOM     57  H   UNL A   1      41.438  29.378  32.904  1.00  0.00     0.167 HD
ATOM     58  C   UNL A   1      43.273  27.261  32.381  1.00  0.00     0.074 A 
ATOM     59  C   UNL A   1      44.052  26.254  31.689  1.00  0.00     0.031 C 
ATOM     60  C   UNL A   1      43.365  27.515  33.710  1.00  0.00     0.037 A 
BRANCH  47  61
ATOM     61  C   UNL A   1      39.702  32.091  35.698  1.00  0.00     0.064 A 
ATOM     62  C   UNL A   1      38.620  31.734  36.521  1.00  0.00     0.173 A 
ATOM     63  C   UNL A   1      40.347  33.307  35.964  1.00  0.00     0.173 A 
ATOM     64  F   UNL A   1      37.958  30.586  36.307  1.00  0.00    -0.203 F 
ATOM     65  C   UNL A   1      38.168  32.583  37.528  1.00  0.00     0.198 A 
ATOM     66  C   UNL A   1      39.917  34.136  36.999  1.00  0.00     0.198 A 
ATOM     67  F   UNL A   1      41.392  33.697  35.218  1.00  0.00    -0.203 F 
ATOM     68  F   UNL A   1      37.086  32.251  38.246  1.00  0.00    -0.200 F 
ATOM     69  C   UNL A   1      38.821  33.781  37.770  1.00  0.00     0.200 A 
ATOM     70  F   UNL A   1      40.556  35.289  37.241  1.00  0.00    -0.200 F 
ATOM     71  F   UNL A   1      38.386  34.598  38.739  1.00  0.00    -0.200 F 
ENDBRANCH  47  61
BRANCH  48  72
ATOM     72  C   UNL A   1      42.625  26.741  27.741  1.00  0.00     0.064 A 
ATOM     73  C   UNL A   1      43.627  27.239  26.895  1.00  0.00     0.173 A 
ATOM     74  C   UNL A   1      42.077  25.489  27.429  1.00  0.00     0.173 A 
ATOM     75  F   UNL A   1      44.177  28.437  27.144  1.00  0.00    -0.203 F 
ATOM     76  C   UNL A   1      44.038  26.533  25.766  1.00  0.00     0.198 A 
ATOM     77  C   UNL A   1      42.508  24.769  26.314  1.00  0.00     0.198 A 
ATOM     78  F   UNL A   1      41.127  24.956  28.213  1.00  0.00    -0.203 F 
ATOM     79  F   UNL A   1      44.961  27.060  24.948  1.00  0.00    -0.200 F 
ATOM     80  C   UNL A   1      43.481  25.298  25.478  1.00  0.00     0.200 A 
ATOM     81  F   UNL A   1      41.979  23.568  26.048  1.00  0.00    -0.200 F 
ATOM     82  F   UNL A   1      43.876  24.619  24.392  1.00  0.00    -0.200 F 
ENDBRANCH  48  72
BRANCH  60  83
ATOM     83  C   UNL A   1      44.323  26.678  34.502  1.00  0.00     0.064 A 
ATOM     84  C   UNL A   1      45.625  27.118  34.775  1.00  0.00     0.173 A 
ATOM     85  C   UNL A   1      43.910  25.453  35.047  1.00  0.00     0.173 A 
ATOM     86  F   UNL A   1      46.069  28.277  34.264  1.00  0.00    -0.203 F 
ATOM     87  C   UNL A   1      46.489  26.349  35.548  1.00  0.00     0.198 A 
ATOM     88  C   UNL A   1      44.765  24.703  35.847  1.00  0.00     0.198 A 
ATOM     89  F   UNL A   1      42.670  24.995  34.820  1.00  0.00    -0.203 F 
ATOM     90  F   UNL A   1      47.744  26.767  35.762  1.00  0.00    -0.200 F 
ATOM     91  C   UNL A   1      46.056  25.148  36.092  1.00  0.00     0.200 A 
ATOM     92  F   UNL A   1      44.340  23.553  36.386  1.00  0.00    -0.200 F 
ATOM     93  F   UNL A   1      46.884  24.418  36.850  1.00  0.00    -0.200 F 
ENDBRANCH  60  83
ENDBRANCH  34  35
ENDBRANCH  26  29
ENDBRANCH  24  25
ENDBRANCH  23  24
ENDBRANCH   1  23
TORSDOF 14
ENDMDL
MODEL 3
REMARK VINA RESULT:     -11.2      3.472      6.756
REMARK SMILES O=C(/C=C\c1ccc(OCc2ccc(Br)cc2)cc1)NCCCNC(=O)c1ccc(-c2c3nc(c(-c4c(F)c(F)c(F)c(F)c4F)c4ccc([nH]4)c(-c4c(F)c(F)c(F)c(F)c4F)c4nc(c(-c5c(F)c(F)c(F)c(F)c5F)c5ccc2[nH]5)C=C4)C=C3)cc1
REMARK SMILES IDX 21 1 20 2 1 3 2 4 3 6 4 7 5 8 6 9 19 10 7 11 18 12 8 13 9 14
REMARK SMILES IDX 10 15 11 16 12 17 17 18 13 19 16 20 14 21 15 22 22 23 23 24
REMARK SMILES IDX 24 25 25 26 26 28 27 29 28 30 89 31 29 32 88 33 30 34 31 35
REMARK SMILES IDX 32 36 82 37 33 38 87 39 81 40 83 41 34 42 86 43 80 44 79 45
REMARK SMILES IDX 35 47 67 48 47 49 66 50 48 51 51 52 65 53 84 54 49 55 50 56
REMARK SMILES IDX 64 58 85 59 52 60 36 61 37 62 45 63 38 64 39 65 43 66 46 67
REMARK SMILES IDX 40 68 41 69 44 70 42 71 68 72 69 73 77 74 70 75 71 76 75 77
REMARK SMILES IDX 78 78 72 79 73 80 76 81 74 82 53 83 54 84 62 85 55 86 56 87
REMARK SMILES IDX 60 88 63 89 57 90 58 91 61 92 59 93
REMARK H PARENT 20 5 24 27 83 46 51 57
REMARK Flexibility Score: inf
ROOT
ATOM      1  C   UNL A   1      30.924  29.313  24.259  1.00  0.00     0.118 C 
ENDROOT
BRANCH   1   2
ATOM      2  N   UNL A   1      30.357  27.969  24.249  1.00  0.00    -0.352 N 
ATOM      3  O   UNL A   1      30.613  27.625  21.998  1.00  0.00    -0.270 OA
ATOM      4  C   UNL A   1      30.309  27.206  23.112  1.00  0.00     0.244 C 
ATOM      5  H   UNL A   1      29.997  27.598  25.087  1.00  0.00     0.163 HD
BRANCH   4   6
ATOM      6  C   UNL A   1      29.983  25.755  23.249  1.00  0.00     0.072 C 
ATOM      7  C   UNL A   1      30.674  24.695  23.696  1.00  0.00     0.014 C 
BRANCH   7   8
ATOM      8  C   UNL A   1      32.029  24.692  24.223  1.00  0.00    -0.025 A 
ATOM      9  C   UNL A   1      32.222  24.643  25.607  1.00  0.00     0.012 A 
ATOM     10  C   UNL A   1      33.128  24.710  23.358  1.00  0.00     0.012 A 
ATOM     11  C   UNL A   1      33.503  24.490  26.115  1.00  0.00     0.047 A 
ATOM     12  C   UNL A   1      34.410  24.564  23.869  1.00  0.00     0.047 A 
ATOM     13  C   UNL A   1      34.578  24.376  25.240  1.00  0.00     0.119 A 
BRANCH  13  14
ATOM     14  O   UNL A   1      35.742  23.992  25.826  1.00  0.00    -0.489 OA
BRANCH  14  15
ATOM     15  C   UNL A   1      36.708  23.416  24.953  1.00  0.00     0.265 C 
BRANCH  15  16
ATOM     16  C   UNL A   1      37.706  22.434  25.540  1.00  0.00    -0.011 A 
ATOM     17  C   UNL A   1      37.710  20.710  24.942  1.00  0.00     0.008 A 
ATOM     18  C   UNL A   1      39.049  23.026  26.615  1.00  0.00     0.008 A 
ATOM     19  C   UNL A   1      39.101  19.611  25.364  1.00  0.00     0.016 A 
ATOM     20  C   UNL A   1      40.391  21.904  27.089  1.00  0.00     0.016 A 
ATOM     21  C   UNL A   1      40.454  20.238  26.384  1.00  0.00     0.017 A 
ATOM     22  Br  UNL A   1      42.021  19.198  26.608  1.00  0.00    -0.051 Br
ENDBRANCH  15  16
ENDBRANCH  14  15
ENDBRANCH  13  14
ENDBRANCH   7   8
ENDBRANCH   4   6
ENDBRANCH   1   2
BRANCH   1  23
ATOM     23  C   UNL A   1      31.749  29.666  25.505  1.00  0.00     0.042 C 
BRANCH  23  24
ATOM     24  C   UNL A   1      31.438  31.172  26.255  1.00  0.00     0.118 C 
BRANCH  24  25
ATOM     25  N   UNL A   1      32.589  32.561  27.300  1.00  0.00    -0.352 N 
ATOM     26  C   UNL A   1      33.782  33.077  27.936  1.00  0.00     0.251 C 
ATOM     27  H   UNL A   1      31.946  33.291  27.449  1.00  0.00     0.163 HD
ATOM     28  O   UNL A   1      33.678  34.213  28.418  1.00  0.00    -0.269 OA
BRANCH  26  29
ATOM     29  C   UNL A   1      35.112  32.439  28.113  1.00  0.00     0.039 A 
ATOM     30  C   UNL A   1      36.241  33.229  28.314  1.00  0.00     0.014 A 
ATOM     31  C   UNL A   1      35.263  31.060  28.105  1.00  0.00     0.014 A 
ATOM     32  C   UNL A   1      37.427  32.629  28.752  1.00  0.00     0.010 A 
ATOM     33  C   UNL A   1      36.341  30.490  28.755  1.00  0.00     0.010 A 
ATOM     34  C   UNL A   1      37.442  31.267  29.105  1.00  0.00    -0.014 A 
BRANCH  34  35
ATOM     35  C   UNL A   1      38.540  30.653  29.897  1.00  0.00     0.031 A 
ATOM     36  C   UNL A   1      38.735  31.003  31.352  1.00  0.00     0.074 A 
ATOM     37  C   UNL A   1      39.458  29.898  29.257  1.00  0.00     0.049 A 
ATOM     38  N   UNL A   1      39.661  30.594  32.183  1.00  0.00    -0.248 NA
ATOM     39  C   UNL A   1      37.818  31.997  31.939  1.00  0.00     0.031 C 
ATOM     40  C   UNL A   1      39.492  29.637  27.814  1.00  0.00     0.029 A 
ATOM     41  N   UNL A   1      40.549  29.213  29.732  1.00  0.00    -0.354 N 
ATOM     42  C   UNL A   1      39.439  31.290  33.365  1.00  0.00     0.074 A 
ATOM     43  C   UNL A   1      38.385  32.241  33.108  1.00  0.00     0.031 C 
ATOM     44  C   UNL A   1      40.502  28.798  27.534  1.00  0.00     0.029 A 
ATOM     45  C   UNL A   1      41.205  28.482  28.770  1.00  0.00     0.049 A 
ATOM     46  H   UNL A   1      40.833  29.241  30.674  1.00  0.00     0.167 HD
ATOM     47  C   UNL A   1      40.009  31.105  34.579  1.00  0.00     0.037 A 
ATOM     48  C   UNL A   1      42.241  27.631  28.882  1.00  0.00     0.037 A 
ATOM     49  C   UNL A   1      41.019  30.117  34.833  1.00  0.00     0.049 A 
ATOM     50  C   UNL A   1      42.814  27.378  30.251  1.00  0.00     0.074 A 
ATOM     51  C   UNL A   1      41.595  29.752  36.035  1.00  0.00     0.029 A 
ATOM     52  N   UNL A   1      41.603  29.329  33.850  1.00  0.00    -0.354 N 
ATOM     53  N   UNL A   1      42.481  27.919  31.398  1.00  0.00    -0.248 NA
ATOM     54  C   UNL A   1      43.890  26.384  30.345  1.00  0.00     0.031 C 
ATOM     55  C   UNL A   1      42.558  28.773  35.773  1.00  0.00     0.029 A 
ATOM     56  C   UNL A   1      42.548  28.494  34.415  1.00  0.00     0.049 A 
ATOM     57  H   UNL A   1      41.377  29.361  32.892  1.00  0.00     0.167 HD
ATOM     58  C   UNL A   1      43.284  27.312  32.354  1.00  0.00     0.074 A 
ATOM     59  C   UNL A   1      44.106  26.347  31.652  1.00  0.00     0.031 C 
ATOM     60  C   UNL A   1      43.342  27.535  33.690  1.00  0.00     0.037 A 
BRANCH  47  61
ATOM     61  C   UNL A   1      39.508  31.950  35.718  1.00  0.00     0.064 A 
ATOM     62  C   UNL A   1      40.036  33.227  35.970  1.00  0.00     0.173 A 
ATOM     63  C   UNL A   1      38.494  31.486  36.568  1.00  0.00     0.173 A 
ATOM     64  F   UNL A   1      41.016  33.718  35.196  1.00  0.00    -0.203 F 
ATOM     65  C   UNL A   1      39.609  33.984  37.058  1.00  0.00     0.198 A 
ATOM     66  C   UNL A   1      38.039  32.263  37.633  1.00  0.00     0.198 A 
ATOM     67  F   UNL A   1      37.944  30.279  36.372  1.00  0.00    -0.203 F 
ATOM     68  F   UNL A   1      40.185  35.165  37.319  1.00  0.00    -0.200 F 
ATOM     69  C   UNL A   1      38.606  33.503  37.885  1.00  0.00     0.200 A 
ATOM     70  F   UNL A   1      37.061  31.804  38.426  1.00  0.00    -0.200 F 
ATOM     71  F   UNL A   1      38.195  34.231  38.932  1.00  0.00    -0.200 F 
ENDBRANCH  47  61
BRANCH  48  72
ATOM     72  C   UNL A   1      42.742  26.893  27.690  1.00  0.00     0.064 A 
ATOM     73  C   UNL A   1      42.336  25.574  27.441  1.00  0.00     0.173 A 
ATOM     74  C   UNL A   1      43.631  27.480  26.778  1.00  0.00     0.173 A 
ATOM     75  F   UNL A   1      41.494  24.963  28.287  1.00  0.00    -0.203 F 
ATOM     76  C   UNL A   1      42.824  24.860  26.348  1.00  0.00     0.198 A 
ATOM     77  C   UNL A   1      44.098  26.775  25.669  1.00  0.00     0.198 A 
ATOM     78  F   UNL A   1      44.040  28.745  26.958  1.00  0.00    -0.203 F 
ATOM     79  F   UNL A   1      42.457  23.584  26.165  1.00  0.00    -0.200 F 
ATOM     80  C   UNL A   1      43.702  25.462  25.461  1.00  0.00     0.200 A 
ATOM     81  F   UNL A   1      44.934  27.366  24.805  1.00  0.00    -0.200 F 
ATOM     82  F   UNL A   1      44.173  24.776  24.411  1.00  0.00    -0.200 F 
ENDBRANCH  48  72
BRANCH  60  83
ATOM     83  C   UNL A   1      44.309  26.706  34.480  1.00  0.00     0.064 A 
ATOM     84  C   UNL A   1      45.592  27.177  34.791  1.00  0.00     0.173 A 
ATOM     85  C   UNL A   1      43.923  25.455  34.984  1.00  0.00     0.173 A 
ATOM     86  F   UNL A   1      46.010  28.362  34.320  1.00  0.00    -0.203 F 
ATOM     87  C   UNL A   1      46.463  26.415  35.563  1.00  0.00     0.198 A 
ATOM     88  C   UNL A   1      44.784  24.711  35.783  1.00  0.00     0.198 A 
ATOM     89  F   UNL A   1      42.702  24.967  34.719  1.00  0.00    -0.203 F 
ATOM     90  F   UNL A   1      47.700  26.864  35.814  1.00  0.00    -0.200 F 
ATOM     91  C   UNL A   1      46.055  25.188  36.066  1.00  0.00     0.200 A 
ATOM     92  F   UNL A   1      44.383  23.535  36.283  1.00  0.00    -0.200 F 
ATOM     93  F   UNL A   1      46.890  24.462  36.822  1.00  0.00    -0.200 F 
ENDBRANCH  60  83
ENDBRANCH  34  35
ENDBRANCH  26  29
ENDBRANCH  24  25
ENDBRANCH  23  24
ENDBRANCH   1  23
TORSDOF 14
ENDMDL
