MODEL 1
REMARK VINA RESULT:     -13.7      0.000      0.000
REMARK SMILES Cc1ccc(Nc2c(C)cccc2Cl)c(CC(=O)NCCCNC(=O)c2ccc(-c3c4nc(c(-c5c(F)c(F)c(F)c(F)c5F)c5ccc([nH]5)c(-c5c(F)c(F)c(F)c(F)c5F)c5nc(c(-c6c(F)c(F)c(F)c(F)c6F)c6ccc3[nH]6)C=C5)C=C4)cc2)c1
REMARK SMILES IDX 20 1 19 2 17 3 18 4 16 6 15 7 1 8 2 9 3 10 89 11 4 12 5 13
REMARK SMILES IDX 6 14 7 16 8 17 13 18 9 19 10 20 12 21 14 22 11 23 21 24
REMARK SMILES IDX 22 25 23 26 24 27 25 29 26 30 27 31 88 32 28 33 87 34 29 35
REMARK SMILES IDX 30 36 31 37 81 38 32 39 86 40 80 41 82 42 33 43 85 44 79 45
REMARK SMILES IDX 78 46 34 48 66 49 46 50 65 51 47 52 50 53 64 54 83 55 48 56
REMARK SMILES IDX 49 57 63 59 84 60 51 61 35 62 36 63 44 64 37 65 38 66 42 67
REMARK SMILES IDX 45 68 39 69 40 70 43 71 41 72 67 73 68 74 76 75 69 76 70 77
REMARK SMILES IDX 74 78 77 79 71 80 72 81 75 82 73 83 52 84 53 85 61 86 54 87
REMARK SMILES IDX 55 88 59 89 62 90 56 91 57 92 60 93 58 94
REMARK H PARENT 19 5 6 15 23 28 82 47 50 58
REMARK Flexibility Score: inf
ROOT
ATOM      1  C   UNL A   1      33.959  28.538  26.769  1.00  0.00     0.117 C 
ENDROOT
BRANCH   1   2
ATOM      2  N   UNL A   1      32.895  27.547  26.732  1.00  0.00    -0.356 N 
ATOM      3  C   UNL A   1      32.909  26.287  26.205  1.00  0.00     0.224 C 
ATOM      4  O   UNL A   1      31.858  25.640  26.199  1.00  0.00    -0.275 OA
ATOM      5  H   UNL A   1      32.045  27.824  27.145  1.00  0.00     0.163 HD
BRANCH   3   6
ATOM      6  C   UNL A   1      34.177  25.696  25.607  1.00  0.00     0.137 C 
BRANCH   6   7
ATOM      7  C   UNL A   1      33.936  24.950  24.311  1.00  0.00    -0.015 A 
ATOM      8  C   UNL A   1      32.527  25.849  20.869  1.00  0.00     0.044 C 
ATOM      9  C   UNL A   1      33.098  25.066  22.012  1.00  0.00    -0.051 A 
ATOM     10  C   UNL A   1      33.214  23.681  21.918  1.00  0.00     0.005 A 
ATOM     11  C   UNL A   1      33.494  25.695  23.196  1.00  0.00     0.009 A 
ATOM     12  C   UNL A   1      33.708  22.940  22.994  1.00  0.00     0.026 A 
ATOM     13  C   UNL A   1      34.070  23.547  24.208  1.00  0.00     0.042 A 
BRANCH  13  14
ATOM     14  N   UNL A   1      34.600  22.782  25.270  1.00  0.00    -0.354 N 
ATOM     15  H   UNL A   1      34.158  22.902  26.141  1.00  0.00     0.167 HD
BRANCH  14  16
ATOM     16  C   UNL A   1      35.681  21.865  25.258  1.00  0.00     0.060 A 
ATOM     17  C   UNL A   1      37.022  22.282  25.418  1.00  0.00    -0.026 A 
ATOM     18  C   UNL A   1      35.432  20.497  25.001  1.00  0.00     0.064 A 
ATOM     19  C   UNL A   1      37.401  23.702  25.749  1.00  0.00     0.046 C 
ATOM     20  C   UNL A   1      38.063  21.348  25.269  1.00  0.00     0.005 A 
ATOM     21  C   UNL A   1      36.476  19.577  24.880  1.00  0.00     0.023 A 
ATOM     22  Cl  UNL A   1      33.817  19.911  24.778  1.00  0.00    -0.082 Cl
ATOM     23  C   UNL A   1      37.794  20.006  25.003  1.00  0.00     0.002 A 
ENDBRANCH  14  16
ENDBRANCH  13  14
ENDBRANCH   6   7
ENDBRANCH   3   6
ENDBRANCH   1   2
BRANCH   1  24
ATOM     24  C   UNL A   1      33.559  29.796  27.536  1.00  0.00     0.042 C 
BRANCH  24  25
ATOM     25  C   UNL A   1      34.557  30.940  27.442  1.00  0.00     0.118 C 
BRANCH  25  26
ATOM     26  N   UNL A   1      34.911  31.523  28.733  1.00  0.00    -0.352 N 
ATOM     27  C   UNL A   1      35.879  31.105  29.634  1.00  0.00     0.251 C 
ATOM     28  H   UNL A   1      34.395  32.318  28.998  1.00  0.00     0.163 HD
ATOM     29  O   UNL A   1      36.086  31.714  30.665  1.00  0.00    -0.269 OA
BRANCH  27  30
ATOM     30  C   UNL A   1      36.742  29.965  29.246  1.00  0.00     0.039 A 
ATOM     31  C   UNL A   1      36.990  28.977  30.204  1.00  0.00     0.014 A 
ATOM     32  C   UNL A   1      37.477  30.014  28.066  1.00  0.00     0.014 A 
ATOM     33  C   UNL A   1      38.144  28.205  30.092  1.00  0.00     0.010 A 
ATOM     34  C   UNL A   1      38.672  29.324  28.007  1.00  0.00     0.010 A 
ATOM     35  C   UNL A   1      39.040  28.477  29.059  1.00  0.00    -0.014 A 
BRANCH  35  36
ATOM     36  C   UNL A   1      40.430  28.032  29.073  1.00  0.00     0.031 A 
ATOM     37  C   UNL A   1      40.808  26.705  28.554  1.00  0.00     0.074 A 
ATOM     38  C   UNL A   1      41.394  28.891  29.477  1.00  0.00     0.049 A 
ATOM     39  N   UNL A   1      41.917  26.104  28.828  1.00  0.00    -0.248 NA
ATOM     40  C   UNL A   1      39.926  25.921  27.702  1.00  0.00     0.031 C 
ATOM     41  C   UNL A   1      42.838  28.753  29.305  1.00  0.00     0.029 A 
ATOM     42  N   UNL A   1      41.252  29.988  30.344  1.00  0.00    -0.354 N 
ATOM     43  C   UNL A   1      42.025  25.013  27.996  1.00  0.00     0.074 A 
ATOM     44  C   UNL A   1      40.728  24.907  27.366  1.00  0.00     0.031 C 
ATOM     45  C   UNL A   1      43.453  29.473  30.257  1.00  0.00     0.029 A 
ATOM     46  C   UNL A   1      42.421  29.973  31.146  1.00  0.00     0.049 A 
ATOM     47  H   UNL A   1      40.505  30.628  30.385  1.00  0.00     0.167 HD
ATOM     48  C   UNL A   1      43.242  24.405  27.856  1.00  0.00     0.037 A 
ATOM     49  C   UNL A   1      42.348  29.733  32.488  1.00  0.00     0.037 A 
ATOM     50  C   UNL A   1      44.229  24.957  28.785  1.00  0.00     0.049 A 
ATOM     51  C   UNL A   1      43.118  28.517  32.962  1.00  0.00     0.074 A 
ATOM     52  C   UNL A   1      45.280  25.855  28.677  1.00  0.00     0.029 A 
ATOM     53  N   UNL A   1      44.024  24.780  30.142  1.00  0.00    -0.354 N 
ATOM     54  N   UNL A   1      43.723  27.674  32.173  1.00  0.00    -0.248 NA
ATOM     55  C   UNL A   1      43.164  28.096  34.364  1.00  0.00     0.031 C 
ATOM     56  C   UNL A   1      45.702  26.212  29.991  1.00  0.00     0.029 A 
ATOM     57  C   UNL A   1      44.902  25.536  30.894  1.00  0.00     0.049 A 
ATOM     58  H   UNL A   1      43.337  24.188  30.525  1.00  0.00     0.167 HD
ATOM     59  C   UNL A   1      44.172  26.610  32.906  1.00  0.00     0.074 A 
ATOM     60  C   UNL A   1      43.803  26.917  34.274  1.00  0.00     0.031 C 
ATOM     61  C   UNL A   1      44.773  25.526  32.339  1.00  0.00     0.037 A 
BRANCH  48  62
ATOM     62  C   UNL A   1      43.607  23.469  26.720  1.00  0.00     0.064 A 
ATOM     63  C   UNL A   1      43.105  22.149  26.686  1.00  0.00     0.173 A 
ATOM     64  C   UNL A   1      44.489  23.780  25.669  1.00  0.00     0.173 A 
ATOM     65  F   UNL A   1      42.159  21.734  27.538  1.00  0.00    -0.203 F 
ATOM     66  C   UNL A   1      43.553  21.194  25.768  1.00  0.00     0.198 A 
ATOM     67  C   UNL A   1      44.984  22.813  24.787  1.00  0.00     0.198 A 
ATOM     68  F   UNL A   1      44.848  25.041  25.407  1.00  0.00    -0.203 F 
ATOM     69  F   UNL A   1      43.043  19.955  25.795  1.00  0.00    -0.200 F 
ATOM     70  C   UNL A   1      44.527  21.515  24.846  1.00  0.00     0.200 A 
ATOM     71  F   UNL A   1      45.902  23.157  23.873  1.00  0.00    -0.200 F 
ATOM     72  F   UNL A   1      44.993  20.590  23.997  1.00  0.00    -0.200 F 
ENDBRANCH  48  62
BRANCH  49  73
ATOM     73  C   UNL A   1      41.080  30.222  33.094  1.00  0.00     0.064 A 
ATOM     74  C   UNL A   1      40.907  31.609  33.268  1.00  0.00     0.173 A 
ATOM     75  C   UNL A   1      39.938  29.415  33.158  1.00  0.00     0.173 A 
ATOM     76  F   UNL A   1      41.968  32.431  33.212  1.00  0.00    -0.203 F 
ATOM     77  C   UNL A   1      39.638  32.174  33.373  1.00  0.00     0.198 A 
ATOM     78  C   UNL A   1      38.671  29.983  33.291  1.00  0.00     0.198 A 
ATOM     79  F   UNL A   1      40.029  28.090  32.976  1.00  0.00    -0.203 F 
ATOM     80  F   UNL A   1      39.500  33.507  33.407  1.00  0.00    -0.200 F 
ATOM     81  C   UNL A   1      38.520  31.360  33.360  1.00  0.00     0.200 A 
ATOM     82  F   UNL A   1      37.585  29.197  33.249  1.00  0.00    -0.200 F 
ATOM     83  F   UNL A   1      37.294  31.903  33.368  1.00  0.00    -0.200 F 
ENDBRANCH  49  73
BRANCH  61  84
ATOM     84  C   UNL A   1      45.281  24.356  33.126  1.00  0.00     0.064 A 
ATOM     85  C   UNL A   1      44.473  23.248  33.422  1.00  0.00     0.173 A 
ATOM     86  C   UNL A   1      46.563  24.371  33.710  1.00  0.00     0.173 A 
ATOM     87  F   UNL A   1      43.220  23.167  32.949  1.00  0.00    -0.203 F 
ATOM     88  C   UNL A   1      44.933  22.205  34.229  1.00  0.00     0.198 A 
ATOM     89  C   UNL A   1      47.000  23.355  34.555  1.00  0.00     0.198 A 
ATOM     90  F   UNL A   1      47.432  25.361  33.458  1.00  0.00    -0.203 F 
ATOM     91  F   UNL A   1      44.149  21.140  34.451  1.00  0.00    -0.200 F 
ATOM     92  C   UNL A   1      46.190  22.265  34.806  1.00  0.00     0.200 A 
ATOM     93  F   UNL A   1      48.214  23.435  35.119  1.00  0.00    -0.200 F 
ATOM     94  F   UNL A   1      46.619  21.275  35.599  1.00  0.00    -0.200 F 
ENDBRANCH  61  84
ENDBRANCH  35  36
ENDBRANCH  27  30
ENDBRANCH  25  26
ENDBRANCH  24  25
ENDBRANCH   1  24
TORSDOF 13
ENDMDL
MODEL 2
REMARK VINA RESULT:     -13.6      3.924     10.072
REMARK SMILES Cc1ccc(Nc2c(C)cccc2Cl)c(CC(=O)NCCCNC(=O)c2ccc(-c3c4nc(c(-c5c(F)c(F)c(F)c(F)c5F)c5ccc([nH]5)c(-c5c(F)c(F)c(F)c(F)c5F)c5nc(c(-c6c(F)c(F)c(F)c(F)c6F)c6ccc3[nH]6)C=C5)C=C4)cc2)c1
REMARK SMILES IDX 20 1 19 2 17 3 18 4 16 6 15 7 1 8 2 9 3 10 89 11 4 12 5 13
REMARK SMILES IDX 6 14 7 16 8 17 13 18 9 19 10 20 12 21 14 22 11 23 21 24
REMARK SMILES IDX 22 25 23 26 24 27 25 29 26 30 27 31 88 32 28 33 87 34 29 35
REMARK SMILES IDX 30 36 31 37 81 38 32 39 86 40 80 41 82 42 33 43 85 44 79 45
REMARK SMILES IDX 78 46 34 48 66 49 46 50 65 51 47 52 50 53 64 54 83 55 48 56
REMARK SMILES IDX 49 57 63 59 84 60 51 61 35 62 36 63 44 64 37 65 38 66 42 67
REMARK SMILES IDX 45 68 39 69 40 70 43 71 41 72 67 73 68 74 76 75 69 76 70 77
REMARK SMILES IDX 74 78 77 79 71 80 72 81 75 82 73 83 52 84 53 85 61 86 54 87
REMARK SMILES IDX 55 88 59 89 62 90 56 91 57 92 60 93 58 94
REMARK H PARENT 19 5 6 15 23 28 82 47 50 58
REMARK Flexibility Score: inf
ROOT
ATOM      1  C   UNL A   1      36.640  21.335  25.240  1.00  0.00     0.117 C 
ENDROOT
BRANCH   1   2
ATOM      2  N   UNL A   1      35.997  21.697  26.494  1.00  0.00    -0.356 N 
ATOM      3  C   UNL A   1      34.770  22.260  26.702  1.00  0.00     0.224 C 
ATOM      4  O   UNL A   1      34.454  22.572  27.854  1.00  0.00    -0.275 OA
ATOM      5  H   UNL A   1      36.520  21.508  27.307  1.00  0.00     0.163 HD
BRANCH   3   6
ATOM      6  C   UNL A   1      33.819  22.531  25.546  1.00  0.00     0.137 C 
BRANCH   6   7
ATOM      7  C   UNL A   1      32.600  23.332  25.949  1.00  0.00    -0.015 A 
ATOM      8  C   UNL A   1      29.075  22.497  27.182  1.00  0.00     0.044 C 
ATOM      9  C   UNL A   1      30.277  23.267  26.727  1.00  0.00    -0.051 A 
ATOM     10  C   UNL A   1      30.186  24.641  26.515  1.00  0.00     0.005 A 
ATOM     11  C   UNL A   1      31.495  22.628  26.477  1.00  0.00     0.009 A 
ATOM     12  C   UNL A   1      31.291  25.358  26.052  1.00  0.00     0.026 A 
ATOM     13  C   UNL A   1      32.511  24.729  25.753  1.00  0.00     0.042 A 
BRANCH  13  14
ATOM     14  N   UNL A   1      33.626  25.480  25.320  1.00  0.00    -0.354 N 
ATOM     15  H   UNL A   1      34.492  25.213  25.706  1.00  0.00     0.167 HD
BRANCH  14  16
ATOM     16  C   UNL A   1      33.674  26.563  24.407  1.00  0.00     0.060 A 
ATOM     17  C   UNL A   1      33.751  27.907  24.840  1.00  0.00    -0.026 A 
ATOM     18  C   UNL A   1      33.563  26.312  23.021  1.00  0.00     0.064 A 
ATOM     19  C   UNL A   1      33.926  28.289  26.286  1.00  0.00     0.046 C 
ATOM     20  C   UNL A   1      33.665  28.947  23.896  1.00  0.00     0.005 A 
ATOM     21  C   UNL A   1      33.503  27.356  22.094  1.00  0.00     0.023 A 
ATOM     22  Cl  UNL A   1      33.448  24.693  22.413  1.00  0.00    -0.082 Cl
ATOM     23  C   UNL A   1      33.544  28.675  22.535  1.00  0.00     0.002 A 
ENDBRANCH  14  16
ENDBRANCH  13  14
ENDBRANCH   6   7
ENDBRANCH   3   6
ENDBRANCH   1   2
BRANCH   1  24
ATOM     24  C   UNL A   1      38.153  21.528  25.283  1.00  0.00     0.042 C 
BRANCH  24  25
ATOM     25  C   UNL A   1      38.612  22.783  26.008  1.00  0.00     0.118 C 
BRANCH  25  26
ATOM     26  N   UNL A   1      40.047  22.822  26.272  1.00  0.00    -0.352 N 
ATOM     27  C   UNL A   1      40.827  23.904  26.651  1.00  0.00     0.251 C 
ATOM     28  H   UNL A   1      40.524  21.967  26.169  1.00  0.00     0.163 HD
ATOM     29  O   UNL A   1      42.017  23.779  26.869  1.00  0.00    -0.269 OA
BRANCH  27  30
ATOM     30  C   UNL A   1      40.147  25.196  26.903  1.00  0.00     0.039 A 
ATOM     31  C   UNL A   1      40.646  26.335  26.263  1.00  0.00     0.014 A 
ATOM     32  C   UNL A   1      39.216  25.307  27.932  1.00  0.00     0.014 A 
ATOM     33  C   UNL A   1      40.408  27.584  26.829  1.00  0.00     0.010 A 
ATOM     34  C   UNL A   1      39.066  26.532  28.553  1.00  0.00     0.010 A 
ATOM     35  C   UNL A   1      39.725  27.656  28.043  1.00  0.00    -0.014 A 
BRANCH  35  36
ATOM     36  C   UNL A   1      39.770  28.827  28.914  1.00  0.00     0.031 A 
ATOM     37  C   UNL A   1      38.765  29.900  28.795  1.00  0.00     0.074 A 
ATOM     38  C   UNL A   1      40.688  28.877  29.905  1.00  0.00     0.049 A 
ATOM     39  N   UNL A   1      38.914  31.093  29.266  1.00  0.00    -0.248 NA
ATOM     40  C   UNL A   1      37.508  29.716  28.086  1.00  0.00     0.031 C 
ATOM     41  C   UNL A   1      40.724  29.798  31.039  1.00  0.00     0.029 A 
ATOM     42  N   UNL A   1      41.928  28.217  29.957  1.00  0.00    -0.354 N 
ATOM     43  C   UNL A   1      37.703  31.739  29.176  1.00  0.00     0.074 A 
ATOM     44  C   UNL A   1      36.882  30.861  28.371  1.00  0.00     0.031 C 
ATOM     45  C   UNL A   1      41.992  29.898  31.469  1.00  0.00     0.029 A 
ATOM     46  C   UNL A   1      42.818  29.157  30.535  1.00  0.00     0.049 A 
ATOM     47  H   UNL A   1      42.133  27.301  29.658  1.00  0.00     0.167 HD
ATOM     48  C   UNL A   1      37.507  32.883  29.898  1.00  0.00     0.037 A 
ATOM     49  C   UNL A   1      43.857  29.673  29.815  1.00  0.00     0.037 A 
ATOM     50  C   UNL A   1      38.742  33.325  30.549  1.00  0.00     0.049 A 
ATOM     51  C   UNL A   1      43.834  31.178  29.649  1.00  0.00     0.074 A 
ATOM     52  C   UNL A   1      39.248  33.254  31.838  1.00  0.00     0.029 A 
ATOM     53  N   UNL A   1      39.800  33.719  29.750  1.00  0.00    -0.354 N 
ATOM     54  N   UNL A   1      42.861  31.948  30.048  1.00  0.00    -0.248 NA
ATOM     55  C   UNL A   1      44.862  31.918  28.914  1.00  0.00     0.031 C 
ATOM     56  C   UNL A   1      40.627  33.612  31.798  1.00  0.00     0.029 A 
ATOM     57  C   UNL A   1      40.957  33.894  30.484  1.00  0.00     0.049 A 
ATOM     58  H   UNL A   1      39.737  33.859  28.778  1.00  0.00     0.167 HD
ATOM     59  C   UNL A   1      43.077  33.222  29.597  1.00  0.00     0.074 A 
ATOM     60  C   UNL A   1      44.344  33.158  28.894  1.00  0.00     0.031 C 
ATOM     61  C   UNL A   1      42.183  34.233  29.787  1.00  0.00     0.037 A 
BRANCH  48  62
ATOM     62  C   UNL A   1      36.148  33.482  30.207  1.00  0.00     0.064 A 
ATOM     63  C   UNL A   1      35.369  34.064  29.183  1.00  0.00     0.173 A 
ATOM     64  C   UNL A   1      35.579  33.572  31.490  1.00  0.00     0.173 A 
ATOM     65  F   UNL A   1      35.706  33.951  27.892  1.00  0.00    -0.203 F 
ATOM     66  C   UNL A   1      34.200  34.787  29.442  1.00  0.00     0.198 A 
ATOM     67  C   UNL A   1      34.443  34.344  31.760  1.00  0.00     0.198 A 
ATOM     68  F   UNL A   1      36.051  32.858  32.517  1.00  0.00    -0.203 F 
ATOM     69  F   UNL A   1      33.511  35.323  28.425  1.00  0.00    -0.200 F 
ATOM     70  C   UNL A   1      33.762  34.965  30.737  1.00  0.00     0.200 A 
ATOM     71  F   UNL A   1      34.013  34.472  33.023  1.00  0.00    -0.200 F 
ATOM     72  F   UNL A   1      32.671  35.698  30.992  1.00  0.00    -0.200 F 
ENDBRANCH  48  62
BRANCH  49  73
ATOM     73  C   UNL A   1      44.392  28.717  28.807  1.00  0.00     0.064 A 
ATOM     74  C   UNL A   1      45.114  27.595  29.258  1.00  0.00     0.173 A 
ATOM     75  C   UNL A   1      43.910  28.690  27.493  1.00  0.00     0.173 A 
ATOM     76  F   UNL A   1      45.596  27.565  30.512  1.00  0.00    -0.203 F 
ATOM     77  C   UNL A   1      45.237  26.449  28.476  1.00  0.00     0.198 A 
ATOM     78  C   UNL A   1      44.059  27.551  26.703  1.00  0.00     0.198 A 
ATOM     79  F   UNL A   1      43.194  29.715  27.009  1.00  0.00    -0.203 F 
ATOM     80  F   UNL A   1      45.817  25.352  28.982  1.00  0.00    -0.200 F 
ATOM     81  C   UNL A   1      44.687  26.422  27.206  1.00  0.00     0.200 A 
ATOM     82  F   UNL A   1      43.501  27.512  25.484  1.00  0.00    -0.200 F 
ATOM     83  F   UNL A   1      44.722  25.292  26.485  1.00  0.00    -0.200 F 
ENDBRANCH  49  73
BRANCH  61  84
ATOM     84  C   UNL A   1      42.408  35.636  29.310  1.00  0.00     0.064 A 
ATOM     85  C   UNL A   1      41.851  36.116  28.116  1.00  0.00     0.173 A 
ATOM     86  C   UNL A   1      43.291  36.503  29.984  1.00  0.00     0.173 A 
ATOM     87  F   UNL A   1      41.035  35.346  27.381  1.00  0.00    -0.203 F 
ATOM     88  C   UNL A   1      42.139  37.398  27.640  1.00  0.00     0.198 A 
ATOM     89  C   UNL A   1      43.616  37.760  29.482  1.00  0.00     0.198 A 
ATOM     90  F   UNL A   1      43.844  36.161  31.157  1.00  0.00    -0.203 F 
ATOM     91  F   UNL A   1      41.552  37.839  26.520  1.00  0.00    -0.200 F 
ATOM     92  C   UNL A   1      43.032  38.213  28.315  1.00  0.00     0.200 A 
ATOM     93  F   UNL A   1      44.494  38.532  30.138  1.00  0.00    -0.200 F 
ATOM     94  F   UNL A   1      43.324  39.432  27.845  1.00  0.00    -0.200 F 
ENDBRANCH  61  84
ENDBRANCH  35  36
ENDBRANCH  27  30
ENDBRANCH  25  26
ENDBRANCH  24  25
ENDBRANCH   1  24
TORSDOF 13
ENDMDL
MODEL 3
REMARK VINA RESULT:     -13.4      3.841      9.905
REMARK SMILES Cc1ccc(Nc2c(C)cccc2Cl)c(CC(=O)NCCCNC(=O)c2ccc(-c3c4nc(c(-c5c(F)c(F)c(F)c(F)c5F)c5ccc([nH]5)c(-c5c(F)c(F)c(F)c(F)c5F)c5nc(c(-c6c(F)c(F)c(F)c(F)c6F)c6ccc3[nH]6)C=C5)C=C4)cc2)c1
REMARK SMILES IDX 20 1 19 2 17 3 18 4 16 6 15 7 1 8 2 9 3 10 89 11 4 12 5 13
REMARK SMILES IDX 6 14 7 16 8 17 13 18 9 19 10 20 12 21 14 22 11 23 21 24
REMARK SMILES IDX 22 25 23 26 24 27 25 29 26 30 27 31 88 32 28 33 87 34 29 35
REMARK SMILES IDX 30 36 31 37 81 38 32 39 86 40 80 41 82 42 33 43 85 44 79 45
REMARK SMILES IDX 78 46 34 48 66 49 46 50 65 51 47 52 50 53 64 54 83 55 48 56
REMARK SMILES IDX 49 57 63 59 84 60 51 61 35 62 36 63 44 64 37 65 38 66 42 67
REMARK SMILES IDX 45 68 39 69 40 70 43 71 41 72 67 73 68 74 76 75 69 76 70 77
REMARK SMILES IDX 74 78 77 79 71 80 72 81 75 82 73 83 52 84 53 85 61 86 54 87
REMARK SMILES IDX 55 88 59 89 62 90 56 91 57 92 60 93 58 94
REMARK H PARENT 19 5 6 15 23 28 82 47 50 58
REMARK Flexibility Score: inf
ROOT
ATOM      1  C   UNL A   1      36.670  21.458  25.202  1.00  0.00     0.117 C 
ENDROOT
BRANCH   1   2
ATOM      2  N   UNL A   1      36.157  22.367  24.189  1.00  0.00    -0.356 N 
ATOM      3  C   UNL A   1      35.398  23.492  24.346  1.00  0.00     0.224 C 
ATOM      4  O   UNL A   1      34.991  24.072  23.336  1.00  0.00    -0.275 OA
ATOM      5  H   UNL A   1      36.391  22.141  23.260  1.00  0.00     0.163 HD
BRANCH   3   6
ATOM      6  C   UNL A   1      35.030  24.009  25.729  1.00  0.00     0.137 C 
BRANCH   6   7
ATOM      7  C   UNL A   1      33.911  25.029  25.707  1.00  0.00    -0.015 A 
ATOM      8  C   UNL A   1      33.698  28.835  25.372  1.00  0.00     0.044 C 
ATOM      9  C   UNL A   1      33.309  27.399  25.551  1.00  0.00    -0.051 A 
ATOM     10  C   UNL A   1      31.994  27.068  25.870  1.00  0.00     0.005 A 
ATOM     11  C   UNL A   1      34.251  26.373  25.437  1.00  0.00     0.009 A 
ATOM     12  C   UNL A   1      31.633  25.735  26.079  1.00  0.00     0.026 A 
ATOM     13  C   UNL A   1      32.572  24.693  26.011  1.00  0.00     0.042 A 
BRANCH  13  14
ATOM     14  N   UNL A   1      32.177  23.349  26.191  1.00  0.00    -0.354 N 
ATOM     15  H   UNL A   1      31.646  23.169  27.000  1.00  0.00     0.167 HD
BRANCH  14  16
ATOM     16  C   UNL A   1      32.438  22.223  25.370  1.00  0.00     0.060 A 
ATOM     17  C   UNL A   1      31.983  22.146  24.034  1.00  0.00    -0.026 A 
ATOM     18  C   UNL A   1      33.105  21.103  25.916  1.00  0.00     0.064 A 
ATOM     19  C   UNL A   1      31.310  23.297  23.334  1.00  0.00     0.046 C 
ATOM     20  C   UNL A   1      32.158  20.953  23.309  1.00  0.00     0.005 A 
ATOM     21  C   UNL A   1      33.292  19.934  25.174  1.00  0.00     0.023 A 
ATOM     22  Cl  UNL A   1      33.679  21.115  27.551  1.00  0.00    -0.082 Cl
ATOM     23  C   UNL A   1      32.808  19.857  23.872  1.00  0.00     0.002 A 
ENDBRANCH  14  16
ENDBRANCH  13  14
ENDBRANCH   6   7
ENDBRANCH   3   6
ENDBRANCH   1   2
BRANCH   1  24
ATOM     24  C   UNL A   1      38.184  21.565  25.370  1.00  0.00     0.042 C 
BRANCH  24  25
ATOM     25  C   UNL A   1      38.652  22.801  26.120  1.00  0.00     0.118 C 
BRANCH  25  26
ATOM     26  N   UNL A   1      40.097  22.859  26.322  1.00  0.00    -0.352 N 
ATOM     27  C   UNL A   1      40.882  23.955  26.646  1.00  0.00     0.251 C 
ATOM     28  H   UNL A   1      40.578  22.006  26.215  1.00  0.00     0.163 HD
ATOM     29  O   UNL A   1      42.081  23.845  26.815  1.00  0.00    -0.269 OA
BRANCH  27  30
ATOM     30  C   UNL A   1      40.200  25.245  26.903  1.00  0.00     0.039 A 
ATOM     31  C   UNL A   1      40.690  26.385  26.258  1.00  0.00     0.014 A 
ATOM     32  C   UNL A   1      39.278  25.354  27.940  1.00  0.00     0.014 A 
ATOM     33  C   UNL A   1      40.453  27.634  26.825  1.00  0.00     0.010 A 
ATOM     34  C   UNL A   1      39.130  26.579  28.561  1.00  0.00     0.010 A 
ATOM     35  C   UNL A   1      39.781  27.705  28.045  1.00  0.00    -0.014 A 
BRANCH  35  36
ATOM     36  C   UNL A   1      39.830  28.877  28.914  1.00  0.00     0.031 A 
ATOM     37  C   UNL A   1      38.817  29.943  28.808  1.00  0.00     0.074 A 
ATOM     38  C   UNL A   1      40.761  28.933  29.893  1.00  0.00     0.049 A 
ATOM     39  N   UNL A   1      38.966  31.137  29.276  1.00  0.00    -0.248 NA
ATOM     40  C   UNL A   1      37.552  29.751  28.115  1.00  0.00     0.031 C 
ATOM     41  C   UNL A   1      40.806  29.855  31.025  1.00  0.00     0.029 A 
ATOM     42  N   UNL A   1      42.006  28.280  29.929  1.00  0.00    -0.354 N 
ATOM     43  C   UNL A   1      37.749  31.775  29.202  1.00  0.00     0.074 A 
ATOM     44  C   UNL A   1      36.923  30.892  28.408  1.00  0.00     0.031 C 
ATOM     45  C   UNL A   1      42.079  29.963  31.438  1.00  0.00     0.029 A 
ATOM     46  C   UNL A   1      42.898  29.226  30.494  1.00  0.00     0.049 A 
ATOM     47  H   UNL A   1      42.213  27.366  29.628  1.00  0.00     0.167 HD
ATOM     48  C   UNL A   1      37.556  32.919  29.925  1.00  0.00     0.037 A 
ATOM     49  C   UNL A   1      43.924  29.748  29.760  1.00  0.00     0.037 A 
ATOM     50  C   UNL A   1      38.796  33.370  30.560  1.00  0.00     0.049 A 
ATOM     51  C   UNL A   1      43.889  31.253  29.593  1.00  0.00     0.074 A 
ATOM     52  C   UNL A   1      39.320  33.303  31.841  1.00  0.00     0.029 A 
ATOM     53  N   UNL A   1      39.842  33.770  29.747  1.00  0.00    -0.354 N 
ATOM     54  N   UNL A   1      42.917  32.018  30.005  1.00  0.00    -0.248 NA
ATOM     55  C   UNL A   1      44.902  31.999  28.844  1.00  0.00     0.031 C 
ATOM     56  C   UNL A   1      40.696  33.669  31.783  1.00  0.00     0.029 A 
ATOM     57  C   UNL A   1      41.007  33.952  30.465  1.00  0.00     0.049 A 
ATOM     58  H   UNL A   1      39.765  33.908  28.775  1.00  0.00     0.167 HD
ATOM     59  C   UNL A   1      43.119  33.292  29.550  1.00  0.00     0.074 A 
ATOM     60  C   UNL A   1      44.377  33.236  28.830  1.00  0.00     0.031 C 
ATOM     61  C   UNL A   1      42.221  34.298  29.752  1.00  0.00     0.037 A 
BRANCH  48  62
ATOM     62  C   UNL A   1      36.198  33.510  30.252  1.00  0.00     0.064 A 
ATOM     63  C   UNL A   1      35.402  34.089  29.238  1.00  0.00     0.173 A 
ATOM     64  C   UNL A   1      35.643  33.594  31.542  1.00  0.00     0.173 A 
ATOM     65  F   UNL A   1      35.724  33.981  27.943  1.00  0.00    -0.203 F 
ATOM     66  C   UNL A   1      34.233  34.806  29.513  1.00  0.00     0.198 A 
ATOM     67  C   UNL A   1      34.507  34.360  31.827  1.00  0.00     0.198 A 
ATOM     68  F   UNL A   1      36.132  32.882  32.562  1.00  0.00    -0.203 F 
ATOM     69  F   UNL A   1      33.528  35.339  28.506  1.00  0.00    -0.200 F 
ATOM     70  C   UNL A   1      33.809  34.979  30.813  1.00  0.00     0.200 A 
ATOM     71  F   UNL A   1      34.091  34.483  33.096  1.00  0.00    -0.200 F 
ATOM     72  F   UNL A   1      32.717  35.705  31.084  1.00  0.00    -0.200 F 
ENDBRANCH  48  62
BRANCH  49  73
ATOM     73  C   UNL A   1      44.451  28.795  28.746  1.00  0.00     0.064 A 
ATOM     74  C   UNL A   1      45.187  27.678  29.188  1.00  0.00     0.173 A 
ATOM     75  C   UNL A   1      43.951  28.763  27.439  1.00  0.00     0.173 A 
ATOM     76  F   UNL A   1      45.688  27.654  30.435  1.00  0.00    -0.203 F 
ATOM     77  C   UNL A   1      45.307  26.533  28.405  1.00  0.00     0.198 A 
ATOM     78  C   UNL A   1      44.097  27.624  26.648  1.00  0.00     0.198 A 
ATOM     79  F   UNL A   1      43.221  29.782  26.964  1.00  0.00    -0.203 F 
ATOM     80  F   UNL A   1      45.902  25.440  28.905  1.00  0.00    -0.200 F 
ATOM     81  C   UNL A   1      44.740  26.500  27.144  1.00  0.00     0.200 A 
ATOM     82  F   UNL A   1      43.522  27.580  25.437  1.00  0.00    -0.200 F 
ATOM     83  F   UNL A   1      44.772  25.370  26.423  1.00  0.00    -0.200 F 
ENDBRANCH  49  73
BRANCH  61  84
ATOM     84  C   UNL A   1      42.431  35.701  29.271  1.00  0.00     0.064 A 
ATOM     85  C   UNL A   1      41.886  36.167  28.065  1.00  0.00     0.173 A 
ATOM     86  C   UNL A   1      43.290  36.586  29.954  1.00  0.00     0.173 A 
ATOM     87  F   UNL A   1      41.095  35.380  27.321  1.00  0.00    -0.203 F 
ATOM     88  C   UNL A   1      42.161  37.450  27.587  1.00  0.00     0.198 A 
ATOM     89  C   UNL A   1      43.602  37.846  29.450  1.00  0.00     0.198 A 
ATOM     90  F   UNL A   1      43.829  36.259  31.138  1.00  0.00    -0.203 F 
ATOM     91  F   UNL A   1      41.585  37.876  26.455  1.00  0.00    -0.200 F 
ATOM     92  C   UNL A   1      43.029  38.284  28.272  1.00  0.00     0.200 A 
ATOM     93  F   UNL A   1      44.457  38.636  30.117  1.00  0.00    -0.200 F 
ATOM     94  F   UNL A   1      43.310  39.505  27.800  1.00  0.00    -0.200 F 
ENDBRANCH  61  84
ENDBRANCH  35  36
ENDBRANCH  27  30
ENDBRANCH  25  26
ENDBRANCH  24  25
ENDBRANCH   1  24
TORSDOF 13
ENDMDL
