MODEL 1
REMARK VINA RESULT:     -13.1      0.000      0.000
REMARK SMILES CS(=O)(=O)c1ccc(/C=C(/C(=O)NCCCNC(=O)c2ccc(-c3c4nc(c(-c5c(F)c(F)c(F)c(F)c5F)c5ccc([nH]5)c(-c5c(F)c(F)c(F)c(F)c5F)c5nc(c(-c6c(F)c(F)c(F)c(F)c6F)c6ccc3[nH]6)C=C5)C=C4)cc2)c2ccc(F)cc2)cc1
REMARK SMILES IDX 15 1 14 2 13 3 11 4 12 5 10 7 9 8 8 9 5 10 6 11 91 12 7 13
REMARK SMILES IDX 90 14 2 15 1 16 3 17 4 18 83 19 84 20 89 21 85 22 88 23
REMARK SMILES IDX 86 24 87 25 16 26 17 27 18 28 19 30 20 31 21 32 82 33 22 34
REMARK SMILES IDX 81 35 23 36 24 37 25 38 75 39 26 40 80 41 74 42 76 43 27 44
REMARK SMILES IDX 79 45 73 46 72 47 28 49 60 50 40 51 59 52 41 53 44 54 58 55
REMARK SMILES IDX 77 56 42 57 43 58 57 60 78 61 45 62 29 63 30 64 38 65 31 66
REMARK SMILES IDX 32 67 36 68 39 69 33 70 34 71 37 72 35 73 61 74 62 75 70 76
REMARK SMILES IDX 63 77 64 78 68 79 71 80 65 81 66 82 69 83 67 84 46 85 47 86
REMARK SMILES IDX 55 87 48 88 49 89 53 90 56 91 50 92 51 93 54 94 52 95
REMARK H PARENT 13 6 17 29 76 48 44 59
REMARK Flexibility Score: inf
ROOT
ATOM      1  C   UNL A   1      35.627  23.939  25.835  1.00  0.00     0.042 C 
ENDROOT
BRANCH   1   2
ATOM      2  C   UNL A   1      34.303  23.641  25.129  1.00  0.00     0.118 C 
BRANCH   2   3
ATOM      3  N   UNL A   1      33.252  23.417  26.103  1.00  0.00    -0.352 N 
ATOM      4  C   UNL A   1      32.169  24.130  26.508  1.00  0.00     0.251 C 
ATOM      5  O   UNL A   1      31.513  23.633  27.426  1.00  0.00    -0.269 OA
ATOM      6  H   UNL A   1      33.344  22.559  26.576  1.00  0.00     0.163 HD
BRANCH   4   7
ATOM      7  C   UNL A   1      31.711  25.408  25.842  1.00  0.00     0.047 C 
ATOM      8  C   UNL A   1      30.999  25.404  24.692  1.00  0.00     0.022 C 
BRANCH   8   9
ATOM      9  C   UNL A   1      30.344  26.523  23.975  1.00  0.00    -0.025 A 
ATOM     10  C   UNL A   1      28.959  28.701  22.869  1.00  0.00     0.067 A 
ATOM     11  C   UNL A   1      30.347  28.636  22.763  1.00  0.00     0.021 A 
ATOM     12  C   UNL A   1      28.245  27.673  23.485  1.00  0.00     0.021 A 
ATOM     13  C   UNL A   1      31.028  27.529  23.281  1.00  0.00     0.009 A 
ATOM     14  C   UNL A   1      28.940  26.589  24.030  1.00  0.00     0.009 A 
BRANCH  10  15
ATOM     15  S   UNL A   1      28.092  30.132  22.272  1.00  0.00     0.175 S 
ATOM     16  C   UNL A   1      29.204  31.460  22.647  1.00  0.00     0.163 C 
ATOM     17  O   UNL A   1      26.902  30.298  23.082  1.00  0.00    -0.224 OA
ATOM     18  O   UNL A   1      28.000  30.009  20.828  1.00  0.00    -0.224 OA
ENDBRANCH  10  15
ENDBRANCH   8   9
BRANCH   7  19
ATOM     19  C   UNL A   1      32.236  26.677  26.410  1.00  0.00    -0.013 A 
ATOM     20  C   UNL A   1      33.543  27.070  26.060  1.00  0.00     0.012 A 
ATOM     21  C   UNL A   1      31.450  27.540  27.187  1.00  0.00     0.012 A 
ATOM     22  C   UNL A   1      34.038  28.317  26.438  1.00  0.00     0.040 A 
ATOM     23  C   UNL A   1      31.942  28.799  27.545  1.00  0.00     0.040 A 
ATOM     24  C   UNL A   1      33.225  29.177  27.161  1.00  0.00     0.123 A 
ATOM     25  F   UNL A   1      33.679  30.397  27.477  1.00  0.00    -0.207 F 
ENDBRANCH   7  19
ENDBRANCH   4   7
ENDBRANCH   2   3
ENDBRANCH   1   2
BRANCH   1  26
ATOM     26  C   UNL A   1      36.848  23.711  24.945  1.00  0.00     0.118 C 
BRANCH  26  27
ATOM     27  N   UNL A   1      37.723  22.674  25.475  1.00  0.00    -0.352 N 
ATOM     28  C   UNL A   1      38.899  22.781  26.170  1.00  0.00     0.251 C 
ATOM     29  H   UNL A   1      37.421  21.752  25.306  1.00  0.00     0.163 HD
ATOM     30  O   UNL A   1      39.612  21.791  26.309  1.00  0.00    -0.269 OA
BRANCH  28  31
ATOM     31  C   UNL A   1      39.317  24.074  26.751  1.00  0.00     0.039 A 
ATOM     32  C   UNL A   1      40.056  24.960  25.963  1.00  0.00     0.014 A 
ATOM     33  C   UNL A   1      39.038  24.390  28.084  1.00  0.00     0.014 A 
ATOM     34  C   UNL A   1      40.481  26.178  26.498  1.00  0.00     0.010 A 
ATOM     35  C   UNL A   1      39.391  25.638  28.590  1.00  0.00     0.010 A 
ATOM     36  C   UNL A   1      40.132  26.538  27.809  1.00  0.00    -0.014 A 
BRANCH  36  37
ATOM     37  C   UNL A   1      40.562  27.833  28.394  1.00  0.00     0.031 A 
ATOM     38  C   UNL A   1      42.004  28.044  28.773  1.00  0.00     0.074 A 
ATOM     39  C   UNL A   1      39.651  28.796  28.631  1.00  0.00     0.049 A 
ATOM     40  N   UNL A   1      42.564  29.070  29.364  1.00  0.00    -0.248 NA
ATOM     41  C   UNL A   1      42.937  26.946  28.473  1.00  0.00     0.031 C 
ATOM     42  C   UNL A   1      38.219  28.694  28.343  1.00  0.00     0.029 A 
ATOM     43  N   UNL A   1      39.790  30.047  29.180  1.00  0.00    -0.354 N 
ATOM     44  C   UNL A   1      43.902  28.732  29.521  1.00  0.00     0.074 A 
ATOM     45  C   UNL A   1      44.063  27.387  29.016  1.00  0.00     0.031 C 
ATOM     46  C   UNL A   1      37.617  29.841  28.698  1.00  0.00     0.029 A 
ATOM     47  C   UNL A   1      38.608  30.740  29.279  1.00  0.00     0.049 A 
ATOM     48  H   UNL A   1      40.655  30.412  29.475  1.00  0.00     0.167 HD
ATOM     49  C   UNL A   1      44.911  29.485  30.020  1.00  0.00     0.037 A 
ATOM     50  C   UNL A   1      38.353  31.959  29.791  1.00  0.00     0.037 A 
ATOM     51  C   UNL A   1      44.751  30.835  30.494  1.00  0.00     0.049 A 
ATOM     52  C   UNL A   1      39.495  32.770  30.348  1.00  0.00     0.074 A 
ATOM     53  C   UNL A   1      45.719  31.703  30.966  1.00  0.00     0.029 A 
ATOM     54  N   UNL A   1      43.542  31.511  30.557  1.00  0.00    -0.354 N 
ATOM     55  N   UNL A   1      40.767  32.465  30.430  1.00  0.00    -0.248 NA
ATOM     56  C   UNL A   1      39.165  34.100  30.877  1.00  0.00     0.031 C 
ATOM     57  C   UNL A   1      45.089  32.884  31.367  1.00  0.00     0.029 A 
ATOM     58  C   UNL A   1      43.737  32.779  31.082  1.00  0.00     0.049 A 
ATOM     59  H   UNL A   1      42.674  31.145  30.272  1.00  0.00     0.167 HD
ATOM     60  C   UNL A   1      41.393  33.577  30.977  1.00  0.00     0.074 A 
ATOM     61  C   UNL A   1      40.362  34.569  31.196  1.00  0.00     0.031 C 
ATOM     62  C   UNL A   1      42.703  33.763  31.271  1.00  0.00     0.037 A 
BRANCH  49  63
ATOM     63  C   UNL A   1      46.282  28.874  30.079  1.00  0.00     0.064 A 
ATOM     64  C   UNL A   1      47.163  28.930  28.989  1.00  0.00     0.173 A 
ATOM     65  C   UNL A   1      46.744  28.278  31.263  1.00  0.00     0.173 A 
ATOM     66  F   UNL A   1      46.770  29.479  27.829  1.00  0.00    -0.203 F 
ATOM     67  C   UNL A   1      48.446  28.394  29.073  1.00  0.00     0.198 A 
ATOM     68  C   UNL A   1      48.039  27.773  31.356  1.00  0.00     0.198 A 
ATOM     69  F   UNL A   1      45.946  28.201  32.339  1.00  0.00    -0.203 F 
ATOM     70  F   UNL A   1      49.254  28.420  28.005  1.00  0.00    -0.200 F 
ATOM     71  C   UNL A   1      48.886  27.825  30.259  1.00  0.00     0.200 A 
ATOM     72  F   UNL A   1      48.467  27.239  32.508  1.00  0.00    -0.200 F 
ATOM     73  F   UNL A   1      50.127  27.325  30.345  1.00  0.00    -0.200 F 
ENDBRANCH  49  63
BRANCH  50  74
ATOM     74  C   UNL A   1      36.967  32.500  29.794  1.00  0.00     0.064 A 
ATOM     75  C   UNL A   1      36.472  33.227  28.702  1.00  0.00     0.173 A 
ATOM     76  C   UNL A   1      36.121  32.334  30.901  1.00  0.00     0.173 A 
ATOM     77  F   UNL A   1      37.247  33.429  27.626  1.00  0.00    -0.203 F 
ATOM     78  C   UNL A   1      35.202  33.800  28.732  1.00  0.00     0.198 A 
ATOM     79  C   UNL A   1      34.837  32.876  30.915  1.00  0.00     0.198 A 
ATOM     80  F   UNL A   1      36.538  31.639  31.969  1.00  0.00    -0.203 F 
ATOM     81  F   UNL A   1      34.782  34.547  27.702  1.00  0.00    -0.200 F 
ATOM     82  C   UNL A   1      34.384  33.621  29.837  1.00  0.00     0.200 A 
ATOM     83  F   UNL A   1      34.043  32.684  31.977  1.00  0.00    -0.200 F 
ATOM     84  F   UNL A   1      33.164  34.174  29.867  1.00  0.00    -0.200 F 
ENDBRANCH  50  74
BRANCH  62  85
ATOM     85  C   UNL A   1      43.111  35.109  31.800  1.00  0.00     0.064 A 
ATOM     86  C   UNL A   1      43.054  35.419  33.166  1.00  0.00     0.173 A 
ATOM     87  C   UNL A   1      43.603  36.089  30.923  1.00  0.00     0.173 A 
ATOM     88  F   UNL A   1      42.580  34.522  34.043  1.00  0.00    -0.203 F 
ATOM     89  C   UNL A   1      43.444  36.673  33.631  1.00  0.00     0.198 A 
ATOM     90  C   UNL A   1      44.027  37.327  31.396  1.00  0.00     0.198 A 
ATOM     91  F   UNL A   1      43.687  35.840  29.607  1.00  0.00    -0.203 F 
ATOM     92  F   UNL A   1      43.327  36.967  34.933  1.00  0.00    -0.200 F 
ATOM     93  C   UNL A   1      43.937  37.622  32.748  1.00  0.00     0.200 A 
ATOM     94  F   UNL A   1      44.522  38.235  30.544  1.00  0.00    -0.200 F 
ATOM     95  F   UNL A   1      44.320  38.824  33.199  1.00  0.00    -0.200 F 
ENDBRANCH  62  85
ENDBRANCH  36  37
ENDBRANCH  28  31
ENDBRANCH  26  27
ENDBRANCH   1  26
TORSDOF 13
ENDMDL
MODEL 2
REMARK VINA RESULT:     -12.9      3.942      8.995
REMARK SMILES CS(=O)(=O)c1ccc(/C=C(/C(=O)NCCCNC(=O)c2ccc(-c3c4nc(c(-c5c(F)c(F)c(F)c(F)c5F)c5ccc([nH]5)c(-c5c(F)c(F)c(F)c(F)c5F)c5nc(c(-c6c(F)c(F)c(F)c(F)c6F)c6ccc3[nH]6)C=C5)C=C4)cc2)c2ccc(F)cc2)cc1
REMARK SMILES IDX 15 1 14 2 13 3 11 4 12 5 10 7 9 8 8 9 5 10 6 11 91 12 7 13
REMARK SMILES IDX 90 14 2 15 1 16 3 17 4 18 83 19 84 20 89 21 85 22 88 23
REMARK SMILES IDX 86 24 87 25 16 26 17 27 18 28 19 30 20 31 21 32 82 33 22 34
REMARK SMILES IDX 81 35 23 36 24 37 25 38 75 39 26 40 80 41 74 42 76 43 27 44
REMARK SMILES IDX 79 45 73 46 72 47 28 49 60 50 40 51 59 52 41 53 44 54 58 55
REMARK SMILES IDX 77 56 42 57 43 58 57 60 78 61 45 62 29 63 30 64 38 65 31 66
REMARK SMILES IDX 32 67 36 68 39 69 33 70 34 71 37 72 35 73 61 74 62 75 70 76
REMARK SMILES IDX 63 77 64 78 68 79 71 80 65 81 66 82 69 83 67 84 46 85 47 86
REMARK SMILES IDX 55 87 48 88 49 89 53 90 56 91 50 92 51 93 54 94 52 95
REMARK H PARENT 13 6 17 29 76 48 44 59
REMARK Flexibility Score: inf
ROOT
ATOM      1  C   UNL A   1      33.826  27.728  25.750  1.00  0.00     0.042 C 
ENDROOT
BRANCH   1   2
ATOM      2  C   UNL A   1      32.683  27.068  24.978  1.00  0.00     0.118 C 
BRANCH   2   3
ATOM      3  N   UNL A   1      33.018  26.965  23.571  1.00  0.00    -0.352 N 
ATOM      4  C   UNL A   1      33.465  25.958  22.775  1.00  0.00     0.251 C 
ATOM      5  O   UNL A   1      33.700  26.265  21.604  1.00  0.00    -0.269 OA
ATOM      6  H   UNL A   1      32.896  27.812  23.084  1.00  0.00     0.163 HD
BRANCH   4   7
ATOM      7  C   UNL A   1      33.591  24.522  23.234  1.00  0.00     0.047 C 
ATOM      8  C   UNL A   1      32.530  23.684  23.274  1.00  0.00     0.022 C 
BRANCH   8   9
ATOM      9  C   UNL A   1      32.477  22.229  23.548  1.00  0.00    -0.025 A 
ATOM     10  C   UNL A   1      32.566  19.438  23.840  1.00  0.00     0.067 A 
ATOM     11  C   UNL A   1      32.812  20.259  24.940  1.00  0.00     0.021 A 
ATOM     12  C   UNL A   1      32.235  19.990  22.603  1.00  0.00     0.021 A 
ATOM     13  C   UNL A   1      32.728  21.648  24.798  1.00  0.00     0.009 A 
ATOM     14  C   UNL A   1      32.189  21.380  22.464  1.00  0.00     0.009 A 
BRANCH  10  15
ATOM     15  S   UNL A   1      32.734  17.677  23.996  1.00  0.00     0.175 S 
ATOM     16  C   UNL A   1      34.408  17.479  24.542  1.00  0.00     0.163 C 
ATOM     17  O   UNL A   1      32.621  17.103  22.670  1.00  0.00    -0.224 OA
ATOM     18  O   UNL A   1      31.851  17.253  25.069  1.00  0.00    -0.224 OA
ENDBRANCH  10  15
ENDBRANCH   8   9
BRANCH   7  19
ATOM     19  C   UNL A   1      34.901  24.124  23.813  1.00  0.00    -0.013 A 
ATOM     20  C   UNL A   1      35.164  24.462  25.155  1.00  0.00     0.012 A 
ATOM     21  C   UNL A   1      35.831  23.341  23.113  1.00  0.00     0.012 A 
ATOM     22  C   UNL A   1      36.306  23.991  25.799  1.00  0.00     0.040 A 
ATOM     23  C   UNL A   1      36.964  22.851  23.769  1.00  0.00     0.040 A 
ATOM     24  C   UNL A   1      37.186  23.173  25.105  1.00  0.00     0.123 A 
ATOM     25  F   UNL A   1      38.255  22.674  25.738  1.00  0.00    -0.207 F 
ENDBRANCH   7  19
ENDBRANCH   4   7
ENDBRANCH   2   3
ENDBRANCH   1   2
BRANCH   1  26
ATOM     26  C   UNL A   1      33.410  28.226  27.133  1.00  0.00     0.118 C 
BRANCH  26  27
ATOM     27  N   UNL A   1      33.359  29.679  27.198  1.00  0.00    -0.352 N 
ATOM     28  C   UNL A   1      34.231  30.570  27.767  1.00  0.00     0.251 C 
ATOM     29  H   UNL A   1      32.573  30.085  26.765  1.00  0.00     0.163 HD
ATOM     30  O   UNL A   1      33.885  31.735  27.934  1.00  0.00    -0.269 OA
BRANCH  28  31
ATOM     31  C   UNL A   1      35.583  30.140  28.183  1.00  0.00     0.039 A 
ATOM     32  C   UNL A   1      35.774  29.687  29.491  1.00  0.00     0.014 A 
ATOM     33  C   UNL A   1      36.672  30.239  27.313  1.00  0.00     0.014 A 
ATOM     34  C   UNL A   1      37.047  29.297  29.913  1.00  0.00     0.010 A 
ATOM     35  C   UNL A   1      37.923  29.773  27.708  1.00  0.00     0.010 A 
ATOM     36  C   UNL A   1      38.128  29.315  29.018  1.00  0.00    -0.014 A 
BRANCH  36  37
ATOM     37  C   UNL A   1      39.487  28.892  29.442  1.00  0.00     0.031 A 
ATOM     38  C   UNL A   1      40.292  29.768  30.366  1.00  0.00     0.074 A 
ATOM     39  C   UNL A   1      40.014  27.752  28.958  1.00  0.00     0.049 A 
ATOM     40  N   UNL A   1      41.521  29.615  30.790  1.00  0.00    -0.248 NA
ATOM     41  C   UNL A   1      39.639  30.992  30.856  1.00  0.00     0.031 C 
ATOM     42  C   UNL A   1      39.347  26.840  28.026  1.00  0.00     0.029 A 
ATOM     43  N   UNL A   1      41.240  27.169  29.171  1.00  0.00    -0.354 N 
ATOM     44  C   UNL A   1      41.791  30.728  31.577  1.00  0.00     0.074 A 
ATOM     45  C   UNL A   1      40.621  31.576  31.529  1.00  0.00     0.031 C 
ATOM     46  C   UNL A   1      40.162  25.804  27.766  1.00  0.00     0.029 A 
ATOM     47  C   UNL A   1      41.423  26.000  28.473  1.00  0.00     0.049 A 
ATOM     48  H   UNL A   1      41.922  27.553  29.767  1.00  0.00     0.167 HD
ATOM     49  C   UNL A   1      42.906  31.005  32.295  1.00  0.00     0.037 A 
ATOM     50  C   UNL A   1      42.492  25.185  28.405  1.00  0.00     0.037 A 
ATOM     51  C   UNL A   1      44.055  30.143  32.363  1.00  0.00     0.049 A 
ATOM     52  C   UNL A   1      43.722  25.525  29.206  1.00  0.00     0.074 A 
ATOM     53  C   UNL A   1      45.212  30.305  33.106  1.00  0.00     0.029 A 
ATOM     54  N   UNL A   1      44.194  28.956  31.660  1.00  0.00    -0.354 N 
ATOM     55  N   UNL A   1      43.940  26.546  30.000  1.00  0.00    -0.248 NA
ATOM     56  C   UNL A   1      44.854  24.593  29.111  1.00  0.00     0.031 C 
ATOM     57  C   UNL A   1      46.074  29.246  32.809  1.00  0.00     0.029 A 
ATOM     58  C   UNL A   1      45.428  28.386  31.935  1.00  0.00     0.049 A 
ATOM     59  H   UNL A   1      43.518  28.573  31.055  1.00  0.00     0.167 HD
ATOM     60  C   UNL A   1      45.209  26.357  30.528  1.00  0.00     0.074 A 
ATOM     61  C   UNL A   1      45.710  25.117  29.975  1.00  0.00     0.031 C 
ATOM     62  C   UNL A   1      45.900  27.138  31.394  1.00  0.00     0.037 A 
BRANCH  49  63
ATOM     63  C   UNL A   1      42.940  32.292  33.070  1.00  0.00     0.064 A 
ATOM     64  C   UNL A   1      43.412  33.484  32.501  1.00  0.00     0.173 A 
ATOM     65  C   UNL A   1      42.438  32.345  34.380  1.00  0.00     0.173 A 
ATOM     66  F   UNL A   1      43.913  33.488  31.257  1.00  0.00    -0.203 F 
ATOM     67  C   UNL A   1      43.400  34.677  33.221  1.00  0.00     0.198 A 
ATOM     68  C   UNL A   1      42.396  33.546  35.085  1.00  0.00     0.198 A 
ATOM     69  F   UNL A   1      41.970  31.235  34.972  1.00  0.00    -0.203 F 
ATOM     70  F   UNL A   1      43.896  35.794  32.672  1.00  0.00    -0.200 F 
ATOM     71  C   UNL A   1      42.883  34.708  34.507  1.00  0.00     0.200 A 
ATOM     72  F   UNL A   1      41.881  33.577  36.321  1.00  0.00    -0.200 F 
ATOM     73  F   UNL A   1      42.856  35.861  35.192  1.00  0.00    -0.200 F 
ENDBRANCH  49  63
BRANCH  50  74
ATOM     74  C   UNL A   1      42.454  23.961  27.558  1.00  0.00     0.064 A 
ATOM     75  C   UNL A   1      42.018  22.735  28.080  1.00  0.00     0.173 A 
ATOM     76  C   UNL A   1      42.886  23.983  26.224  1.00  0.00     0.173 A 
ATOM     77  F   UNL A   1      41.611  22.657  29.356  1.00  0.00    -0.203 F 
ATOM     78  C   UNL A   1      42.053  21.571  27.314  1.00  0.00     0.198 A 
ATOM     79  C   UNL A   1      42.885  22.826  25.447  1.00  0.00     0.198 A 
ATOM     80  F   UNL A   1      43.304  25.130  25.670  1.00  0.00    -0.203 F 
ATOM     81  F   UNL A   1      41.694  20.401  27.861  1.00  0.00    -0.200 F 
ATOM     82  C   UNL A   1      42.482  21.618  25.997  1.00  0.00     0.200 A 
ATOM     83  F   UNL A   1      43.282  22.879  24.168  1.00  0.00    -0.200 F 
ATOM     84  F   UNL A   1      42.518  20.499  25.261  1.00  0.00    -0.200 F 
ENDBRANCH  50  74
BRANCH  62  85
ATOM     85  C   UNL A   1      47.244  26.645  31.850  1.00  0.00     0.064 A 
ATOM     86  C   UNL A   1      47.392  25.829  32.980  1.00  0.00     0.173 A 
ATOM     87  C   UNL A   1      48.397  26.966  31.116  1.00  0.00     0.173 A 
ATOM     88  F   UNL A   1      46.324  25.504  33.724  1.00  0.00    -0.203 F 
ATOM     89  C   UNL A   1      48.650  25.380  33.378  1.00  0.00     0.198 A 
ATOM     90  C   UNL A   1      49.647  26.484  31.495  1.00  0.00     0.198 A 
ATOM     91  F   UNL A   1      48.310  27.735  30.020  1.00  0.00    -0.203 F 
ATOM     92  F   UNL A   1      48.774  24.650  34.495  1.00  0.00    -0.200 F 
ATOM     93  C   UNL A   1      49.773  25.701  32.632  1.00  0.00     0.200 A 
ATOM     94  F   UNL A   1      50.728  26.779  30.760  1.00  0.00    -0.200 F 
ATOM     95  F   UNL A   1      50.980  25.260  33.011  1.00  0.00    -0.200 F 
ENDBRANCH  62  85
ENDBRANCH  36  37
ENDBRANCH  28  31
ENDBRANCH  26  27
ENDBRANCH   1  26
TORSDOF 13
ENDMDL
MODEL 3
REMARK VINA RESULT:     -12.6      3.929      8.945
REMARK SMILES CS(=O)(=O)c1ccc(/C=C(/C(=O)NCCCNC(=O)c2ccc(-c3c4nc(c(-c5c(F)c(F)c(F)c(F)c5F)c5ccc([nH]5)c(-c5c(F)c(F)c(F)c(F)c5F)c5nc(c(-c6c(F)c(F)c(F)c(F)c6F)c6ccc3[nH]6)C=C5)C=C4)cc2)c2ccc(F)cc2)cc1
REMARK SMILES IDX 15 1 14 2 13 3 11 4 12 5 10 7 9 8 8 9 5 10 6 11 91 12 7 13
REMARK SMILES IDX 90 14 2 15 1 16 3 17 4 18 83 19 84 20 89 21 85 22 88 23
REMARK SMILES IDX 86 24 87 25 16 26 17 27 18 28 19 30 20 31 21 32 82 33 22 34
REMARK SMILES IDX 81 35 23 36 24 37 25 38 75 39 26 40 80 41 74 42 76 43 27 44
REMARK SMILES IDX 79 45 73 46 72 47 28 49 60 50 40 51 59 52 41 53 44 54 58 55
REMARK SMILES IDX 77 56 42 57 43 58 57 60 78 61 45 62 29 63 30 64 38 65 31 66
REMARK SMILES IDX 32 67 36 68 39 69 33 70 34 71 37 72 35 73 61 74 62 75 70 76
REMARK SMILES IDX 63 77 64 78 68 79 71 80 65 81 66 82 69 83 67 84 46 85 47 86
REMARK SMILES IDX 55 87 48 88 49 89 53 90 56 91 50 92 51 93 54 94 52 95
REMARK H PARENT 13 6 17 29 76 48 44 59
REMARK Flexibility Score: inf
ROOT
ATOM      1  C   UNL A   1      33.991  27.911  25.422  1.00  0.00     0.042 C 
ENDROOT
BRANCH   1   2
ATOM      2  C   UNL A   1      32.849  27.128  24.772  1.00  0.00     0.118 C 
BRANCH   2   3
ATOM      3  N   UNL A   1      33.102  26.953  23.354  1.00  0.00    -0.352 N 
ATOM      4  C   UNL A   1      33.473  25.899  22.581  1.00  0.00     0.251 C 
ATOM      5  O   UNL A   1      33.651  26.147  21.387  1.00  0.00    -0.269 OA
ATOM      6  H   UNL A   1      32.977  27.782  22.837  1.00  0.00     0.163 HD
BRANCH   4   7
ATOM      7  C   UNL A   1      33.583  24.481  23.096  1.00  0.00     0.047 C 
ATOM      8  C   UNL A   1      32.521  23.645  23.130  1.00  0.00     0.022 C 
BRANCH   8   9
ATOM      9  C   UNL A   1      32.459  22.200  23.455  1.00  0.00    -0.025 A 
ATOM     10  C   UNL A   1      32.526  19.420  23.844  1.00  0.00     0.067 A 
ATOM     11  C   UNL A   1      32.790  20.277  24.912  1.00  0.00     0.021 A 
ATOM     12  C   UNL A   1      32.188  19.932  22.591  1.00  0.00     0.021 A 
ATOM     13  C   UNL A   1      32.716  21.661  24.722  1.00  0.00     0.009 A 
ATOM     14  C   UNL A   1      32.153  21.317  22.404  1.00  0.00     0.009 A 
BRANCH  10  15
ATOM     15  S   UNL A   1      32.680  17.664  24.060  1.00  0.00     0.175 S 
ATOM     16  C   UNL A   1      34.346  17.475  24.634  1.00  0.00     0.163 C 
ATOM     17  O   UNL A   1      32.582  17.048  22.751  1.00  0.00    -0.224 OA
ATOM     18  O   UNL A   1      31.781  17.281  25.134  1.00  0.00    -0.224 OA
ENDBRANCH  10  15
ENDBRANCH   8   9
BRANCH   7  19
ATOM     19  C   UNL A   1      34.872  24.107  23.735  1.00  0.00    -0.013 A 
ATOM     20  C   UNL A   1      35.077  24.472  25.081  1.00  0.00     0.012 A 
ATOM     21  C   UNL A   1      35.836  23.320  23.089  1.00  0.00     0.012 A 
ATOM     22  C   UNL A   1      36.196  24.023  25.779  1.00  0.00     0.040 A 
ATOM     23  C   UNL A   1      36.946  22.853  23.799  1.00  0.00     0.040 A 
ATOM     24  C   UNL A   1      37.110  23.201  25.136  1.00  0.00     0.123 A 
ATOM     25  F   UNL A   1      38.157  22.724  25.821  1.00  0.00    -0.207 F 
ENDBRANCH   7  19
ENDBRANCH   4   7
ENDBRANCH   2   3
ENDBRANCH   1   2
BRANCH   1  26
ATOM     26  C   UNL A   1      33.743  28.223  26.897  1.00  0.00     0.118 C 
BRANCH  26  27
ATOM     27  N   UNL A   1      33.617  29.654  27.138  1.00  0.00    -0.352 N 
ATOM     28  C   UNL A   1      34.438  30.509  27.826  1.00  0.00     0.251 C 
ATOM     29  H   UNL A   1      32.816  30.071  26.746  1.00  0.00     0.163 HD
ATOM     30  O   UNL A   1      34.031  31.627  28.128  1.00  0.00    -0.269 OA
BRANCH  28  31
ATOM     31  C   UNL A   1      35.806  30.098  28.207  1.00  0.00     0.039 A 
ATOM     32  C   UNL A   1      36.836  30.234  27.272  1.00  0.00     0.014 A 
ATOM     33  C   UNL A   1      36.066  29.524  29.454  1.00  0.00     0.014 A 
ATOM     34  C   UNL A   1      38.131  29.832  27.602  1.00  0.00     0.010 A 
ATOM     35  C   UNL A   1      37.372  29.200  29.811  1.00  0.00     0.010 A 
ATOM     36  C   UNL A   1      38.416  29.333  28.883  1.00  0.00    -0.014 A 
BRANCH  36  37
ATOM     37  C   UNL A   1      39.789  28.912  29.259  1.00  0.00     0.031 A 
ATOM     38  C   UNL A   1      40.660  29.831  30.074  1.00  0.00     0.074 A 
ATOM     39  C   UNL A   1      40.269  27.731  28.825  1.00  0.00     0.049 A 
ATOM     40  N   UNL A   1      41.909  29.682  30.439  1.00  0.00    -0.248 NA
ATOM     41  C   UNL A   1      40.056  31.099  30.515  1.00  0.00     0.031 C 
ATOM     42  C   UNL A   1      39.535  26.773  27.996  1.00  0.00     0.029 A 
ATOM     43  N   UNL A   1      41.494  27.139  29.009  1.00  0.00    -0.354 N 
ATOM     44  C   UNL A   1      42.241  30.839  31.133  1.00  0.00     0.074 A 
ATOM     45  C   UNL A   1      41.084  31.706  31.091  1.00  0.00     0.031 C 
ATOM     46  C   UNL A   1      40.316  25.705  27.762  1.00  0.00     0.029 A 
ATOM     47  C   UNL A   1      41.618  25.922  28.384  1.00  0.00     0.049 A 
ATOM     48  H   UNL A   1      42.215  27.548  29.539  1.00  0.00     0.167 HD
ATOM     49  C   UNL A   1      43.399  31.141  31.767  1.00  0.00     0.037 A 
ATOM     50  C   UNL A   1      42.668  25.082  28.312  1.00  0.00     0.037 A 
ATOM     51  C   UNL A   1      44.536  30.261  31.830  1.00  0.00     0.049 A 
ATOM     52  C   UNL A   1      43.947  25.450  29.020  1.00  0.00     0.074 A 
ATOM     53  C   UNL A   1      45.735  30.448  32.496  1.00  0.00     0.029 A 
ATOM     54  N   UNL A   1      44.615  29.027  31.204  1.00  0.00    -0.354 N 
ATOM     55  N   UNL A   1      44.226  26.517  29.728  1.00  0.00    -0.248 NA
ATOM     56  C   UNL A   1      45.055  24.490  28.926  1.00  0.00     0.031 C 
ATOM     57  C   UNL A   1      46.560  29.354  32.225  1.00  0.00     0.029 A 
ATOM     58  C   UNL A   1      45.852  28.452  31.448  1.00  0.00     0.049 A 
ATOM     59  H   UNL A   1      43.899  28.619  30.665  1.00  0.00     0.167 HD
ATOM     60  C   UNL A   1      45.520  26.337  30.197  1.00  0.00     0.074 A 
ATOM     61  C   UNL A   1      45.967  25.053  29.703  1.00  0.00     0.031 C 
ATOM     62  C   UNL A   1      46.272  27.160  30.969  1.00  0.00     0.037 A 
BRANCH  49  63
ATOM     63  C   UNL A   1      43.499  32.475  32.450  1.00  0.00     0.064 A 
ATOM     64  C   UNL A   1      43.150  32.644  33.798  1.00  0.00     0.173 A 
ATOM     65  C   UNL A   1      44.010  33.588  31.762  1.00  0.00     0.173 A 
ATOM     66  F   UNL A   1      42.647  31.616  34.499  1.00  0.00    -0.203 F 
ATOM     67  C   UNL A   1      43.288  33.879  34.427  1.00  0.00     0.198 A 
ATOM     68  C   UNL A   1      44.178  34.813  32.403  1.00  0.00     0.198 A 
ATOM     69  F   UNL A   1      44.364  33.483  30.472  1.00  0.00    -0.203 F 
ATOM     70  F   UNL A   1      42.907  34.026  35.702  1.00  0.00    -0.200 F 
ATOM     71  C   UNL A   1      43.810  34.959  33.732  1.00  0.00     0.200 A 
ATOM     72  F   UNL A   1      44.699  35.851  31.734  1.00  0.00    -0.200 F 
ATOM     73  F   UNL A   1      43.958  36.143  34.343  1.00  0.00    -0.200 F 
ENDBRANCH  49  63
BRANCH  50  74
ATOM     74  C   UNL A   1      42.561  23.805  27.555  1.00  0.00     0.064 A 
ATOM     75  C   UNL A   1      42.954  23.728  26.210  1.00  0.00     0.173 A 
ATOM     76  C   UNL A   1      42.031  22.649  28.144  1.00  0.00     0.173 A 
ATOM     77  F   UNL A   1      43.451  24.811  25.595  1.00  0.00    -0.203 F 
ATOM     78  C   UNL A   1      42.784  22.556  25.475  1.00  0.00     0.198 A 
ATOM     79  C   UNL A   1      41.896  21.466  27.419  1.00  0.00     0.198 A 
ATOM     80  F   UNL A   1      41.648  22.662  29.429  1.00  0.00    -0.203 F 
ATOM     81  F   UNL A   1      43.106  22.532  24.175  1.00  0.00    -0.200 F 
ATOM     82  C   UNL A   1      42.259  21.424  26.081  1.00  0.00     0.200 A 
ATOM     83  F   UNL A   1      41.406  20.370  28.014  1.00  0.00    -0.200 F 
ATOM     84  F   UNL A   1      42.093  20.299  25.374  1.00  0.00    -0.200 F 
ENDBRANCH  50  74
BRANCH  62  85
ATOM     85  C   UNL A   1      47.631  26.672  31.383  1.00  0.00     0.064 A 
ATOM     86  C   UNL A   1      47.818  25.864  32.513  1.00  0.00     0.173 A 
ATOM     87  C   UNL A   1      48.758  26.987  30.607  1.00  0.00     0.173 A 
ATOM     88  F   UNL A   1      46.776  25.545  33.295  1.00  0.00    -0.203 F 
ATOM     89  C   UNL A   1      49.088  25.419  32.872  1.00  0.00     0.198 A 
ATOM     90  C   UNL A   1      50.020  26.508  30.947  1.00  0.00     0.198 A 
ATOM     91  F   UNL A   1      48.633  27.748  29.509  1.00  0.00    -0.203 F 
ATOM     92  F   UNL A   1      49.251  24.697  33.989  1.00  0.00    -0.200 F 
ATOM     93  C   UNL A   1      50.185  25.734  32.085  1.00  0.00     0.200 A 
ATOM     94  F   UNL A   1      51.075  26.798  30.174  1.00  0.00    -0.200 F 
ATOM     95  F   UNL A   1      51.405  25.296  32.426  1.00  0.00    -0.200 F 
ENDBRANCH  62  85
ENDBRANCH  36  37
ENDBRANCH  28  31
ENDBRANCH  26  27
ENDBRANCH   1  26
TORSDOF 13
ENDMDL
