MODEL 1
REMARK VINA RESULT:     -11.5      0.000      0.000
REMARK SMILES Cc1cscc1CNC(=O)CC(C)(C)C(=O)NCCCNC(=O)c1ccc(-c2c3nc(c(-c4c(F)c(F)c(F)c(F)c4F)c4ccc([nH]4)c(-c4c(F)c(F)c(F)c(F)c4F)c4nc(c(-c5c(F)c(F)c(F)c(F)c5F)c5ccc2[nH]5)C=C4)C=C3)cc1
REMARK SMILES IDX 18 1 17 2 15 3 16 4 12 6 13 7 14 8 11 9 9 10 8 11 10 13 7 14
REMARK SMILES IDX 6 15 1 16 2 17 3 18 4 19 5 20 19 21 20 22 21 23 22 24 23 26
REMARK SMILES IDX 24 27 25 28 86 29 26 30 85 31 27 32 28 33 29 34 79 35 30 36
REMARK SMILES IDX 84 37 78 38 80 39 31 40 83 41 77 42 76 43 32 45 64 46 44 47
REMARK SMILES IDX 63 48 45 49 48 50 62 51 81 52 46 53 47 54 61 56 82 57 49 58
REMARK SMILES IDX 33 59 34 60 42 61 35 62 36 63 40 64 43 65 37 66 38 67 41 68
REMARK SMILES IDX 39 69 65 70 66 71 74 72 67 73 68 74 72 75 75 76 69 77 70 78
REMARK SMILES IDX 73 79 71 80 50 81 51 82 59 83 52 84 53 85 57 86 60 87 54 88
REMARK SMILES IDX 55 89 58 90 56 91
REMARK H PARENT 17 5 8 12 21 25 80 44 48 55
REMARK Flexibility Score: inf
ROOT
ATOM      1  C   UNL A   1      31.572  30.787  25.903  1.00  0.00     0.117 C 
ENDROOT
BRANCH   1   2
ATOM      2  N   UNL A   1      30.692  30.579  24.773  1.00  0.00    -0.356 N 
ATOM      3  C   UNL A   1      30.492  29.550  23.915  1.00  0.00     0.226 C 
ATOM      4  O   UNL A   1      29.730  29.814  22.982  1.00  0.00    -0.274 OA
ATOM      5  H   UNL A   1      30.112  31.352  24.587  1.00  0.00     0.163 HD
BRANCH   3   6
ATOM      6  C   UNL A   1      31.231  28.198  23.991  1.00  0.00     0.052 C 
ATOM      7  C   UNL A   1      31.381  27.615  25.404  1.00  0.00     0.022 C 
ATOM      8  C   UNL A   1      32.654  28.438  23.438  1.00  0.00     0.022 C 
BRANCH   6   9
ATOM      9  C   UNL A   1      30.522  27.143  23.077  1.00  0.00     0.116 C 
BRANCH   9  10
ATOM     10  C   UNL A   1      29.510  26.178  23.691  1.00  0.00     0.221 C 
ATOM     11  N   UNL A   1      29.812  24.890  23.984  1.00  0.00    -0.352 N 
ATOM     12  H   UNL A   1      29.141  24.436  24.544  1.00  0.00     0.163 HD
ATOM     13  O   UNL A   1      28.341  26.527  23.876  1.00  0.00    -0.275 OA
BRANCH  11  14
ATOM     14  C   UNL A   1      30.937  24.061  23.626  1.00  0.00     0.152 C 
BRANCH  14  15
ATOM     15  C   UNL A   1      31.773  23.731  24.834  1.00  0.00    -0.015 A 
ATOM     16  C   UNL A   1      33.929  24.966  24.019  1.00  0.00     0.045 C 
ATOM     17  C   UNL A   1      33.143  24.174  25.016  1.00  0.00    -0.035 A 
ATOM     18  C   UNL A   1      33.647  23.777  26.241  1.00  0.00     0.068 A 
ATOM     19  S   UNL A   1      32.529  22.878  27.159  1.00  0.00    -0.152 S 
ATOM     20  C   UNL A   1      31.355  22.992  25.930  1.00  0.00     0.070 A 
ENDBRANCH  14  15
ENDBRANCH  11  14
ENDBRANCH   9  10
ENDBRANCH   6   9
ENDBRANCH   3   6
ENDBRANCH   1   2
BRANCH   1  21
ATOM     21  C   UNL A   1      31.381  32.162  26.527  1.00  0.00     0.042 C 
BRANCH  21  22
ATOM     22  C   UNL A   1      32.625  32.706  27.219  1.00  0.00     0.118 C 
BRANCH  22  23
ATOM     23  N   UNL A   1      32.483  34.103  27.614  1.00  0.00    -0.352 N 
ATOM     24  C   UNL A   1      33.084  34.817  28.616  1.00  0.00     0.251 C 
ATOM     25  H   UNL A   1      31.846  34.619  27.068  1.00  0.00     0.163 HD
ATOM     26  O   UNL A   1      32.648  35.934  28.906  1.00  0.00    -0.269 OA
BRANCH  24  27
ATOM     27  C   UNL A   1      34.230  34.267  29.368  1.00  0.00     0.039 A 
ATOM     28  C   UNL A   1      33.984  33.530  30.531  1.00  0.00     0.014 A 
ATOM     29  C   UNL A   1      35.547  34.499  28.963  1.00  0.00     0.014 A 
ATOM     30  C   UNL A   1      35.050  32.975  31.242  1.00  0.00     0.010 A 
ATOM     31  C   UNL A   1      36.599  33.858  29.609  1.00  0.00     0.010 A 
ATOM     32  C   UNL A   1      36.365  33.099  30.764  1.00  0.00    -0.014 A 
BRANCH  32  33
ATOM     33  C   UNL A   1      37.500  32.446  31.466  1.00  0.00     0.031 A 
ATOM     34  C   UNL A   1      38.240  31.305  30.823  1.00  0.00     0.074 A 
ATOM     35  C   UNL A   1      37.832  32.853  32.707  1.00  0.00     0.049 A 
ATOM     36  N   UNL A   1      39.240  30.599  31.289  1.00  0.00    -0.248 NA
ATOM     37  C   UNL A   1      37.779  30.878  29.492  1.00  0.00     0.031 C 
ATOM     38  C   UNL A   1      37.149  33.904  33.464  1.00  0.00     0.029 A 
ATOM     39  N   UNL A   1      38.827  32.430  33.553  1.00  0.00    -0.354 N 
ATOM     40  C   UNL A   1      39.515  29.644  30.318  1.00  0.00     0.074 A 
ATOM     41  C   UNL A   1      38.538  29.816  29.267  1.00  0.00     0.031 C 
ATOM     42  C   UNL A   1      37.768  34.071  34.643  1.00  0.00     0.029 A 
ATOM     43  C   UNL A   1      38.865  33.114  34.744  1.00  0.00     0.049 A 
ATOM     44  H   UNL A   1      39.455  31.705  33.328  1.00  0.00     0.167 HD
ATOM     45  C   UNL A   1      40.510  28.725  30.292  1.00  0.00     0.037 A 
ATOM     46  C   UNL A   1      39.691  32.984  35.798  1.00  0.00     0.037 A 
ATOM     47  C   UNL A   1      41.496  28.574  31.330  1.00  0.00     0.049 A 
ATOM     48  C   UNL A   1      40.794  31.962  35.740  1.00  0.00     0.074 A 
ATOM     49  C   UNL A   1      42.584  27.719  31.370  1.00  0.00     0.029 A 
ATOM     50  N   UNL A   1      41.511  29.296  32.515  1.00  0.00    -0.354 N 
ATOM     51  N   UNL A   1      41.094  31.120  34.781  1.00  0.00    -0.248 NA
ATOM     52  C   UNL A   1      41.679  31.879  36.908  1.00  0.00     0.031 C 
ATOM     53  C   UNL A   1      43.226  27.887  32.602  1.00  0.00     0.029 A 
ATOM     54  C   UNL A   1      42.576  28.888  33.304  1.00  0.00     0.049 A 
ATOM     55  H   UNL A   1      40.863  29.996  32.759  1.00  0.00     0.167 HD
ATOM     56  C   UNL A   1      42.215  30.427  35.216  1.00  0.00     0.074 A 
ATOM     57  C   UNL A   1      42.555  30.965  36.517  1.00  0.00     0.031 C 
ATOM     58  C   UNL A   1      42.900  29.434  34.598  1.00  0.00     0.037 A 
BRANCH  45  59
ATOM     59  C   UNL A   1      40.588  27.817  29.097  1.00  0.00     0.064 A 
ATOM     60  C   UNL A   1      39.800  26.660  28.999  1.00  0.00     0.173 A 
ATOM     61  C   UNL A   1      41.434  28.125  28.021  1.00  0.00     0.173 A 
ATOM     62  F   UNL A   1      38.982  26.312  30.004  1.00  0.00    -0.203 F 
ATOM     63  C   UNL A   1      39.879  25.829  27.884  1.00  0.00     0.198 A 
ATOM     64  C   UNL A   1      41.487  27.310  26.893  1.00  0.00     0.198 A 
ATOM     65  F   UNL A   1      42.206  29.222  28.059  1.00  0.00    -0.203 F 
ATOM     66  F   UNL A   1      39.155  24.702  27.837  1.00  0.00    -0.200 F 
ATOM     67  C   UNL A   1      40.716  26.159  26.829  1.00  0.00     0.200 A 
ATOM     68  F   UNL A   1      42.284  27.638  25.868  1.00  0.00    -0.200 F 
ATOM     69  F   UNL A   1      40.784  25.364  25.752  1.00  0.00    -0.200 F 
ENDBRANCH  45  59
BRANCH  46  70
ATOM     70  C   UNL A   1      39.530  33.866  36.984  1.00  0.00     0.064 A 
ATOM     71  C   UNL A   1      40.112  35.141  37.018  1.00  0.00     0.173 A 
ATOM     72  C   UNL A   1      38.799  33.454  38.108  1.00  0.00     0.173 A 
ATOM     73  F   UNL A   1      40.837  35.574  35.976  1.00  0.00    -0.203 F 
ATOM     74  C   UNL A   1      39.989  35.959  38.140  1.00  0.00     0.198 A 
ATOM     75  C   UNL A   1      38.650  34.285  39.215  1.00  0.00     0.198 A 
ATOM     76  F   UNL A   1      38.215  32.246  38.124  1.00  0.00    -0.203 F 
ATOM     77  F   UNL A   1      40.599  37.153  38.164  1.00  0.00    -0.200 F 
ATOM     78  C   UNL A   1      39.254  35.533  39.235  1.00  0.00     0.200 A 
ATOM     79  F   UNL A   1      37.925  33.877  40.265  1.00  0.00    -0.200 F 
ATOM     80  F   UNL A   1      39.133  36.322  40.311  1.00  0.00    -0.200 F 
ENDBRANCH  46  70
BRANCH  58  81
ATOM     81  C   UNL A   1      44.103  28.887  35.309  1.00  0.00     0.064 A 
ATOM     82  C   UNL A   1      45.386  29.420  35.105  1.00  0.00     0.173 A 
ATOM     83  C   UNL A   1      43.970  27.830  36.222  1.00  0.00     0.173 A 
ATOM     84  F   UNL A   1      45.571  30.421  34.232  1.00  0.00    -0.203 F 
ATOM     85  C   UNL A   1      46.494  28.888  35.760  1.00  0.00     0.198 A 
ATOM     86  C   UNL A   1      45.075  27.325  36.902  1.00  0.00     0.198 A 
ATOM     87  F   UNL A   1      42.766  27.291  36.461  1.00  0.00    -0.203 F 
ATOM     88  F   UNL A   1      47.717  29.371  35.503  1.00  0.00    -0.200 F 
ATOM     89  C   UNL A   1      46.337  27.846  36.662  1.00  0.00     0.200 A 
ATOM     90  F   UNL A   1      44.918  26.329  37.785  1.00  0.00    -0.200 F 
ATOM     91  F   UNL A   1      47.404  27.339  37.294  1.00  0.00    -0.200 F 
ENDBRANCH  58  81
ENDBRANCH  32  33
ENDBRANCH  24  27
ENDBRANCH  22  23
ENDBRANCH  21  22
ENDBRANCH   1  21
TORSDOF 14
ENDMDL
MODEL 2
REMARK VINA RESULT:     -11.5      1.278      7.656
REMARK SMILES Cc1cscc1CNC(=O)CC(C)(C)C(=O)NCCCNC(=O)c1ccc(-c2c3nc(c(-c4c(F)c(F)c(F)c(F)c4F)c4ccc([nH]4)c(-c4c(F)c(F)c(F)c(F)c4F)c4nc(c(-c5c(F)c(F)c(F)c(F)c5F)c5ccc2[nH]5)C=C4)C=C3)cc1
REMARK SMILES IDX 18 1 17 2 15 3 16 4 12 6 13 7 14 8 11 9 9 10 8 11 10 13 7 14
REMARK SMILES IDX 6 15 1 16 2 17 3 18 4 19 5 20 19 21 20 22 21 23 22 24 23 26
REMARK SMILES IDX 24 27 25 28 86 29 26 30 85 31 27 32 28 33 29 34 79 35 30 36
REMARK SMILES IDX 84 37 78 38 80 39 31 40 83 41 77 42 76 43 32 45 64 46 44 47
REMARK SMILES IDX 63 48 45 49 48 50 62 51 81 52 46 53 47 54 61 56 82 57 49 58
REMARK SMILES IDX 33 59 34 60 42 61 35 62 36 63 40 64 43 65 37 66 38 67 41 68
REMARK SMILES IDX 39 69 65 70 66 71 74 72 67 73 68 74 72 75 75 76 69 77 70 78
REMARK SMILES IDX 73 79 71 80 50 81 51 82 59 83 52 84 53 85 57 86 60 87 54 88
REMARK SMILES IDX 55 89 58 90 56 91
REMARK H PARENT 17 5 8 12 21 25 80 44 48 55
REMARK Flexibility Score: inf
ROOT
ATOM      1  C   UNL A   1      31.461  30.516  25.770  1.00  0.00     0.117 C 
ENDROOT
BRANCH   1   2
ATOM      2  N   UNL A   1      31.503  29.559  26.855  1.00  0.00    -0.356 N 
ATOM      3  C   UNL A   1      31.707  28.222  26.921  1.00  0.00     0.226 C 
ATOM      4  O   UNL A   1      31.528  27.740  28.043  1.00  0.00    -0.274 OA
ATOM      5  H   UNL A   1      31.350  29.968  27.737  1.00  0.00     0.163 HD
BRANCH   3   6
ATOM      6  C   UNL A   1      32.008  27.326  25.702  1.00  0.00     0.052 C 
ATOM      7  C   UNL A   1      33.336  27.622  24.989  1.00  0.00     0.022 C 
ATOM      8  C   UNL A   1      30.873  27.568  24.682  1.00  0.00     0.022 C 
BRANCH   6   9
ATOM      9  C   UNL A   1      31.979  25.817  26.120  1.00  0.00     0.116 C 
BRANCH   9  10
ATOM     10  C   UNL A   1      30.680  25.027  25.984  1.00  0.00     0.221 C 
ATOM     11  N   UNL A   1      30.486  24.097  25.017  1.00  0.00    -0.352 N 
ATOM     12  H   UNL A   1      29.692  23.532  25.155  1.00  0.00     0.163 HD
ATOM     13  O   UNL A   1      29.718  25.267  26.720  1.00  0.00    -0.275 OA
BRANCH  11  14
ATOM     14  C   UNL A   1      31.232  23.783  23.823  1.00  0.00     0.152 C 
BRANCH  14  15
ATOM     15  C   UNL A   1      32.317  22.778  24.111  1.00  0.00    -0.015 A 
ATOM     16  C   UNL A   1      34.313  24.339  23.464  1.00  0.00     0.045 C 
ATOM     17  C   UNL A   1      33.734  23.053  23.965  1.00  0.00    -0.035 A 
ATOM     18  C   UNL A   1      34.504  21.973  24.356  1.00  0.00     0.068 A 
ATOM     19  S   UNL A   1      33.571  20.643  24.867  1.00  0.00    -0.152 S 
ATOM     20  C   UNL A   1      32.120  21.483  24.566  1.00  0.00     0.070 A 
ENDBRANCH  14  15
ENDBRANCH  11  14
ENDBRANCH   9  10
ENDBRANCH   6   9
ENDBRANCH   3   6
ENDBRANCH   1   2
BRANCH   1  21
ATOM     21  C   UNL A   1      31.346  31.947  26.276  1.00  0.00     0.042 C 
BRANCH  21  22
ATOM     22  C   UNL A   1      32.500  32.381  27.171  1.00  0.00     0.118 C 
BRANCH  22  23
ATOM     23  N   UNL A   1      32.427  33.791  27.537  1.00  0.00    -0.352 N 
ATOM     24  C   UNL A   1      33.118  34.510  28.476  1.00  0.00     0.251 C 
ATOM     25  H   UNL A   1      31.770  34.313  27.023  1.00  0.00     0.163 HD
ATOM     26  O   UNL A   1      32.736  35.647  28.765  1.00  0.00    -0.269 OA
BRANCH  24  27
ATOM     27  C   UNL A   1      34.297  33.944  29.161  1.00  0.00     0.039 A 
ATOM     28  C   UNL A   1      34.101  32.990  30.165  1.00  0.00     0.014 A 
ATOM     29  C   UNL A   1      35.592  34.366  28.853  1.00  0.00     0.014 A 
ATOM     30  C   UNL A   1      35.202  32.419  30.806  1.00  0.00     0.010 A 
ATOM     31  C   UNL A   1      36.690  33.721  29.415  1.00  0.00     0.010 A 
ATOM     32  C   UNL A   1      36.508  32.748  30.408  1.00  0.00    -0.014 A 
BRANCH  32  33
ATOM     33  C   UNL A   1      37.687  32.088  31.025  1.00  0.00     0.031 A 
ATOM     34  C   UNL A   1      38.146  32.479  32.404  1.00  0.00     0.074 A 
ATOM     35  C   UNL A   1      38.373  31.167  30.320  1.00  0.00     0.049 A 
ATOM     36  N   UNL A   1      39.163  32.029  33.096  1.00  0.00    -0.248 NA
ATOM     37  C   UNL A   1      37.382  33.535  33.085  1.00  0.00     0.031 C 
ATOM     38  C   UNL A   1      38.068  30.750  28.950  1.00  0.00     0.029 A 
ATOM     39  N   UNL A   1      39.472  30.417  30.657  1.00  0.00    -0.354 N 
ATOM     40  C   UNL A   1      39.164  32.755  34.281  1.00  0.00     0.074 A 
ATOM     41  C   UNL A   1      38.090  33.717  34.189  1.00  0.00     0.031 C 
ATOM     42  C   UNL A   1      38.931  29.793  28.578  1.00  0.00     0.029 A 
ATOM     43  C   UNL A   1      39.875  29.555  29.665  1.00  0.00     0.049 A 
ATOM     44  H   UNL A   1      39.928  30.488  31.527  1.00  0.00     0.167 HD
ATOM     45  C   UNL A   1      39.970  32.611  35.361  1.00  0.00     0.037 A 
ATOM     46  C   UNL A   1      40.891  28.673  29.637  1.00  0.00     0.037 A 
ATOM     47  C   UNL A   1      41.023  31.634  35.457  1.00  0.00     0.049 A 
ATOM     48  C   UNL A   1      41.766  28.527  30.852  1.00  0.00     0.074 A 
ATOM     49  C   UNL A   1      41.853  31.363  36.530  1.00  0.00     0.029 A 
ATOM     50  N   UNL A   1      41.391  30.768  34.438  1.00  0.00    -0.354 N 
ATOM     51  N   UNL A   1      41.706  29.162  31.998  1.00  0.00    -0.248 NA
ATOM     52  C   UNL A   1      42.845  27.535  30.773  1.00  0.00     0.031 C 
ATOM     53  C   UNL A   1      42.758  30.369  36.143  1.00  0.00     0.029 A 
ATOM     54  C   UNL A   1      42.455  29.979  34.849  1.00  0.00     0.049 A 
ATOM     55  H   UNL A   1      40.961  30.720  33.553  1.00  0.00     0.167 HD
ATOM     56  C   UNL A   1      42.718  28.629  32.784  1.00  0.00     0.074 A 
ATOM     57  C   UNL A   1      43.361  27.602  31.991  1.00  0.00     0.031 C 
ATOM     58  C   UNL A   1      43.084  28.960  34.046  1.00  0.00     0.037 A 
BRANCH  45  59
ATOM     59  C   UNL A   1      39.738  33.527  36.529  1.00  0.00     0.064 A 
ATOM     60  C   UNL A   1      40.361  34.782  36.616  1.00  0.00     0.173 A 
ATOM     61  C   UNL A   1      38.857  33.163  37.557  1.00  0.00     0.173 A 
ATOM     62  F   UNL A   1      41.223  35.177  35.666  1.00  0.00    -0.203 F 
ATOM     63  C   UNL A   1      40.133  35.623  37.703  1.00  0.00     0.198 A 
ATOM     64  C   UNL A   1      38.606  34.019  38.626  1.00  0.00     0.198 A 
ATOM     65  F   UNL A   1      38.230  31.977  37.522  1.00  0.00    -0.203 F 
ATOM     66  F   UNL A   1      40.780  36.794  37.789  1.00  0.00    -0.200 F 
ATOM     67  C   UNL A   1      39.250  35.245  38.702  1.00  0.00     0.200 A 
ATOM     68  F   UNL A   1      37.740  33.659  39.584  1.00  0.00    -0.200 F 
ATOM     69  F   UNL A   1      39.025  36.059  39.743  1.00  0.00    -0.200 F 
ENDBRANCH  45  59
BRANCH  46  70
ATOM     70  C   UNL A   1      41.117  27.835  28.429  1.00  0.00     0.064 A 
ATOM     71  C   UNL A   1      41.978  28.261  27.407  1.00  0.00     0.173 A 
ATOM     72  C   UNL A   1      40.474  26.600  28.266  1.00  0.00     0.173 A 
ATOM     73  F   UNL A   1      42.602  29.443  27.507  1.00  0.00    -0.203 F 
ATOM     74  C   UNL A   1      42.169  27.493  26.260  1.00  0.00     0.198 A 
ATOM     75  C   UNL A   1      40.690  25.819  27.133  1.00  0.00     0.198 A 
ATOM     76  F   UNL A   1      39.645  26.143  29.217  1.00  0.00    -0.203 F 
ATOM     77  F   UNL A   1      42.959  27.948  25.277  1.00  0.00    -0.200 F 
ATOM     78  C   UNL A   1      41.529  26.271  26.126  1.00  0.00     0.200 A 
ATOM     79  F   UNL A   1      40.083  24.630  27.015  1.00  0.00    -0.200 F 
ATOM     80  F   UNL A   1      41.716  25.532  25.024  1.00  0.00    -0.200 F 
ENDBRANCH  46  70
BRANCH  58  81
ATOM     81  C   UNL A   1      44.214  28.183  34.657  1.00  0.00     0.064 A 
ATOM     82  C   UNL A   1      43.993  26.984  35.353  1.00  0.00     0.173 A 
ATOM     83  C   UNL A   1      45.537  28.632  34.529  1.00  0.00     0.173 A 
ATOM     84  F   UNL A   1      42.745  26.519  35.517  1.00  0.00    -0.203 F 
ATOM     85  C   UNL A   1      45.050  26.286  35.929  1.00  0.00     0.198 A 
ATOM     86  C   UNL A   1      46.595  27.912  35.076  1.00  0.00     0.198 A 
ATOM     87  F   UNL A   1      45.805  29.767  33.867  1.00  0.00    -0.203 F 
ATOM     88  F   UNL A   1      44.809  25.177  36.641  1.00  0.00    -0.200 F 
ATOM     89  C   UNL A   1      46.351  26.746  35.785  1.00  0.00     0.200 A 
ATOM     90  F   UNL A   1      47.852  28.350  34.921  1.00  0.00    -0.200 F 
ATOM     91  F   UNL A   1      47.367  26.070  36.337  1.00  0.00    -0.200 F 
ENDBRANCH  58  81
ENDBRANCH  32  33
ENDBRANCH  24  27
ENDBRANCH  22  23
ENDBRANCH  21  22
ENDBRANCH   1  21
TORSDOF 14
ENDMDL
MODEL 3
REMARK VINA RESULT:     -11.4      2.133      7.996
REMARK SMILES Cc1cscc1CNC(=O)CC(C)(C)C(=O)NCCCNC(=O)c1ccc(-c2c3nc(c(-c4c(F)c(F)c(F)c(F)c4F)c4ccc([nH]4)c(-c4c(F)c(F)c(F)c(F)c4F)c4nc(c(-c5c(F)c(F)c(F)c(F)c5F)c5ccc2[nH]5)C=C4)C=C3)cc1
REMARK SMILES IDX 18 1 17 2 15 3 16 4 12 6 13 7 14 8 11 9 9 10 8 11 10 13 7 14
REMARK SMILES IDX 6 15 1 16 2 17 3 18 4 19 5 20 19 21 20 22 21 23 22 24 23 26
REMARK SMILES IDX 24 27 25 28 86 29 26 30 85 31 27 32 28 33 29 34 79 35 30 36
REMARK SMILES IDX 84 37 78 38 80 39 31 40 83 41 77 42 76 43 32 45 64 46 44 47
REMARK SMILES IDX 63 48 45 49 48 50 62 51 81 52 46 53 47 54 61 56 82 57 49 58
REMARK SMILES IDX 33 59 34 60 42 61 35 62 36 63 40 64 43 65 37 66 38 67 41 68
REMARK SMILES IDX 39 69 65 70 66 71 74 72 67 73 68 74 72 75 75 76 69 77 70 78
REMARK SMILES IDX 73 79 71 80 50 81 51 82 59 83 52 84 53 85 57 86 60 87 54 88
REMARK SMILES IDX 55 89 58 90 56 91
REMARK H PARENT 17 5 8 12 21 25 80 44 48 55
REMARK Flexibility Score: inf
ROOT
ATOM      1  C   UNL A   1      32.153  27.877  27.073  1.00  0.00     0.117 C 
ENDROOT
BRANCH   1   2
ATOM      2  N   UNL A   1      30.970  27.046  26.994  1.00  0.00    -0.356 N 
ATOM      3  C   UNL A   1      30.671  25.898  26.342  1.00  0.00     0.226 C 
ATOM      4  O   UNL A   1      29.486  25.567  26.422  1.00  0.00    -0.274 OA
ATOM      5  H   UNL A   1      30.221  27.389  27.531  1.00  0.00     0.163 HD
BRANCH   3   6
ATOM      6  C   UNL A   1      31.665  25.115  25.458  1.00  0.00     0.052 C 
ATOM      7  C   UNL A   1      33.032  24.839  26.101  1.00  0.00     0.022 C 
ATOM      8  C   UNL A   1      31.913  25.976  24.199  1.00  0.00     0.022 C 
BRANCH   6   9
ATOM      9  C   UNL A   1      31.031  23.757  25.006  1.00  0.00     0.116 C 
BRANCH   9  10
ATOM     10  C   UNL A   1      31.036  22.570  25.967  1.00  0.00     0.221 C 
ATOM     11  N   UNL A   1      31.777  21.456  25.751  1.00  0.00    -0.352 N 
ATOM     12  H   UNL A   1      31.839  20.856  26.529  1.00  0.00     0.163 HD
ATOM     13  O   UNL A   1      30.295  22.557  26.954  1.00  0.00    -0.275 OA
BRANCH  11  14
ATOM     14  C   UNL A   1      32.493  20.989  24.588  1.00  0.00     0.152 C 
BRANCH  14  15
ATOM     15  C   UNL A   1      33.916  21.481  24.596  1.00  0.00    -0.015 A 
ATOM     16  C   UNL A   1      33.653  23.108  22.565  1.00  0.00     0.045 C 
ATOM     17  C   UNL A   1      34.434  22.475  23.674  1.00  0.00    -0.035 A 
ATOM     18  C   UNL A   1      35.754  22.782  23.947  1.00  0.00     0.068 A 
ATOM     19  S   UNL A   1      36.385  21.897  25.257  1.00  0.00    -0.152 S 
ATOM     20  C   UNL A   1      34.907  21.078  25.478  1.00  0.00     0.070 A 
ENDBRANCH  14  15
ENDBRANCH  11  14
ENDBRANCH   9  10
ENDBRANCH   6   9
ENDBRANCH   3   6
ENDBRANCH   1   2
BRANCH   1  21
ATOM     21  C   UNL A   1      31.815  29.359  26.984  1.00  0.00     0.042 C 
BRANCH  21  22
ATOM     22  C   UNL A   1      32.813  30.173  26.171  1.00  0.00     0.118 C 
BRANCH  22  23
ATOM     23  N   UNL A   1      32.780  31.594  26.501  1.00  0.00    -0.352 N 
ATOM     24  C   UNL A   1      33.532  32.327  27.379  1.00  0.00     0.251 C 
ATOM     25  H   UNL A   1      32.103  32.112  26.009  1.00  0.00     0.163 HD
ATOM     26  O   UNL A   1      33.183  33.478  27.657  1.00  0.00    -0.269 OA
BRANCH  24  27
ATOM     27  C   UNL A   1      34.739  31.762  28.015  1.00  0.00     0.039 A 
ATOM     28  C   UNL A   1      35.877  32.565  28.138  1.00  0.00     0.014 A 
ATOM     29  C   UNL A   1      34.777  30.438  28.459  1.00  0.00     0.014 A 
ATOM     30  C   UNL A   1      37.020  32.062  28.763  1.00  0.00     0.010 A 
ATOM     31  C   UNL A   1      35.876  29.972  29.175  1.00  0.00     0.010 A 
ATOM     32  C   UNL A   1      37.016  30.774  29.324  1.00  0.00    -0.014 A 
BRANCH  32  33
ATOM     33  C   UNL A   1      38.196  30.256  30.062  1.00  0.00     0.031 A 
ATOM     34  C   UNL A   1      38.462  30.690  31.478  1.00  0.00     0.074 A 
ATOM     35  C   UNL A   1      39.057  29.430  29.435  1.00  0.00     0.049 A 
ATOM     36  N   UNL A   1      39.450  30.361  32.272  1.00  0.00    -0.248 NA
ATOM     37  C   UNL A   1      37.511  31.642  32.072  1.00  0.00     0.031 C 
ATOM     38  C   UNL A   1      38.945  28.988  28.044  1.00  0.00     0.029 A 
ATOM     39  N   UNL A   1      40.198  28.814  29.887  1.00  0.00    -0.354 N 
ATOM     40  C   UNL A   1      39.243  31.073  33.448  1.00  0.00     0.074 A 
ATOM     41  C   UNL A   1      38.076  31.900  33.241  1.00  0.00     0.031 C 
ATOM     42  C   UNL A   1      39.951  28.144  27.767  1.00  0.00     0.029 A 
ATOM     43  C   UNL A   1      40.800  28.014  28.946  1.00  0.00     0.049 A 
ATOM     44  H   UNL A   1      40.551  28.933  30.798  1.00  0.00     0.167 HD
ATOM     45  C   UNL A   1      39.946  31.020  34.605  1.00  0.00     0.037 A 
ATOM     46  C   UNL A   1      41.913  27.261  29.026  1.00  0.00     0.037 A 
ATOM     47  C   UNL A   1      41.094  30.176  34.813  1.00  0.00     0.049 A 
ATOM     48  C   UNL A   1      42.671  27.213  30.325  1.00  0.00     0.074 A 
ATOM     49  C   UNL A   1      41.837  29.999  35.967  1.00  0.00     0.029 A 
ATOM     50  N   UNL A   1      41.666  29.367  33.841  1.00  0.00    -0.354 N 
ATOM     51  N   UNL A   1      42.418  27.828  31.455  1.00  0.00    -0.248 NA
ATOM     52  C   UNL A   1      43.864  26.358  30.362  1.00  0.00     0.031 C 
ATOM     53  C   UNL A   1      42.890  29.124  35.679  1.00  0.00     0.029 A 
ATOM     54  C   UNL A   1      42.769  28.709  34.363  1.00  0.00     0.049 A 
ATOM     55  H   UNL A   1      41.337  29.275  32.918  1.00  0.00     0.167 HD
ATOM     56  C   UNL A   1      43.402  27.415  32.344  1.00  0.00     0.074 A 
ATOM     57  C   UNL A   1      44.241  26.478  31.626  1.00  0.00     0.031 C 
ATOM     58  C   UNL A   1      43.595  27.779  33.635  1.00  0.00     0.037 A 
BRANCH  45  59
ATOM     59  C   UNL A   1      39.488  31.894  35.739  1.00  0.00     0.064 A 
ATOM     60  C   UNL A   1      40.018  33.178  35.940  1.00  0.00     0.173 A 
ATOM     61  C   UNL A   1      38.482  31.457  36.614  1.00  0.00     0.173 A 
ATOM     62  F   UNL A   1      40.991  33.641  35.140  1.00  0.00    -0.203 F 
ATOM     63  C   UNL A   1      39.581  33.978  36.992  1.00  0.00     0.198 A 
ATOM     64  C   UNL A   1      38.024  32.273  37.645  1.00  0.00     0.198 A 
ATOM     65  F   UNL A   1      37.936  30.241  36.464  1.00  0.00    -0.203 F 
ATOM     66  F   UNL A   1      40.140  35.179  37.195  1.00  0.00    -0.200 F 
ATOM     67  C   UNL A   1      38.579  33.529  37.839  1.00  0.00     0.200 A 
ATOM     68  F   UNL A   1      37.045  31.844  38.453  1.00  0.00    -0.200 F 
ATOM     69  F   UNL A   1      38.153  34.304  38.846  1.00  0.00    -0.200 F 
ENDBRANCH  45  59
BRANCH  46  70
ATOM     70  C   UNL A   1      42.359  26.465  27.852  1.00  0.00     0.064 A 
ATOM     71  C   UNL A   1      41.838  25.187  27.608  1.00  0.00     0.173 A 
ATOM     72  C   UNL A   1      43.318  26.959  26.955  1.00  0.00     0.173 A 
ATOM     73  F   UNL A   1      40.932  24.662  28.447  1.00  0.00    -0.203 F 
ATOM     74  C   UNL A   1      42.275  24.424  26.527  1.00  0.00     0.198 A 
ATOM     75  C   UNL A   1      43.731  26.209  25.856  1.00  0.00     0.198 A 
ATOM     76  F   UNL A   1      43.843  28.180  27.138  1.00  0.00    -0.203 F 
ATOM     77  F   UNL A   1      41.795  23.185  26.347  1.00  0.00    -0.200 F 
ATOM     78  C   UNL A   1      43.217  24.938  25.649  1.00  0.00     0.200 A 
ATOM     79  F   UNL A   1      44.628  26.716  25.001  1.00  0.00    -0.200 F 
ATOM     80  F   UNL A   1      43.634  24.206  24.607  1.00  0.00    -0.200 F 
ENDBRANCH  46  70
BRANCH  58  81
ATOM     81  C   UNL A   1      44.741  27.139  34.362  1.00  0.00     0.064 A 
ATOM     82  C   UNL A   1      46.011  27.736  34.408  1.00  0.00     0.173 A 
ATOM     83  C   UNL A   1      44.564  25.922  35.037  1.00  0.00     0.173 A 
ATOM     84  F   UNL A   1      46.237  28.892  33.766  1.00  0.00    -0.203 F 
ATOM     85  C   UNL A   1      47.068  27.120  35.071  1.00  0.00     0.198 A 
ATOM     86  C   UNL A   1      45.615  25.326  35.730  1.00  0.00     0.198 A 
ATOM     87  F   UNL A   1      43.369  25.314  35.032  1.00  0.00    -0.203 F 
ATOM     88  F   UNL A   1      48.286  27.677  35.050  1.00  0.00    -0.200 F 
ATOM     89  C   UNL A   1      46.868  25.919  35.737  1.00  0.00     0.200 A 
ATOM     90  F   UNL A   1      45.415  24.175  36.385  1.00  0.00    -0.200 F 
ATOM     91  F   UNL A   1      47.886  25.329  36.378  1.00  0.00    -0.200 F 
ENDBRANCH  58  81
ENDBRANCH  32  33
ENDBRANCH  24  27
ENDBRANCH  22  23
ENDBRANCH  21  22
ENDBRANCH   1  21
TORSDOF 14
ENDMDL
