MODEL 1
REMARK VINA RESULT:     -11.4      0.000      0.000
REMARK SMILES COCc1cccc(C(=O)N2C[C@@H](O)C[C@@H]2C(=O)NCCCNC(=O)c2ccc(-c3c4nc(c(-c5c(F)c(F)c(F)c(F)c5F)c5ccc([nH]5)c(-c5c(F)c(F)c(F)c(F)c5F)c5nc(c(-c6c(F)c(F)c(F)c(F)c6F)c6ccc3[nH]6)C=C5)C=C4)cc2)c1
REMARK SMILES IDX 20 1 19 2 17 3 18 4 16 6 11 7 12 8 13 9 15 10 9 11 10 12
REMARK SMILES IDX 8 13 4 14 5 15 89 16 6 17 7 18 3 19 2 20 1 21 14 22 21 24
REMARK SMILES IDX 22 25 23 26 24 27 25 29 26 30 27 31 88 32 28 33 87 34 29 35
REMARK SMILES IDX 30 36 31 37 81 38 32 39 86 40 80 41 82 42 33 43 85 44 79 45
REMARK SMILES IDX 78 46 34 48 66 49 46 50 65 51 47 52 50 53 64 54 83 55 48 56
REMARK SMILES IDX 49 57 63 59 84 60 51 61 35 62 36 63 44 64 37 65 38 66 42 67
REMARK SMILES IDX 45 68 39 69 40 70 43 71 41 72 67 73 68 74 76 75 69 76 70 77
REMARK SMILES IDX 74 78 77 79 71 80 72 81 75 82 73 83 52 84 53 85 61 86 54 87
REMARK SMILES IDX 55 88 59 89 62 90 56 91 57 92 60 93 58 94
REMARK H PARENT 19 5 14 23 23 28 82 47 50 58
REMARK Flexibility Score: inf
ROOT
ATOM      1  C   UNL A   1      33.709  26.395  25.653  1.00  0.00     0.117 C 
ENDROOT
BRANCH   1   2
ATOM      2  N   UNL A   1      33.490  25.756  24.372  1.00  0.00    -0.354 N 
ATOM      3  C   UNL A   1      33.395  24.432  24.058  1.00  0.00     0.242 C 
ATOM      4  O   UNL A   1      33.040  24.168  22.909  1.00  0.00    -0.273 OA
ATOM      5  H   UNL A   1      33.395  26.372  23.609  1.00  0.00     0.163 HD
BRANCH   3   6
ATOM      6  C   UNL A   1      33.777  23.354  25.104  1.00  0.00     0.177 C 
ATOM      7  N   UNL A   1      34.738  22.387  24.571  1.00  0.00    -0.324 N 
ATOM      8  C   UNL A   1      34.321  21.020  24.816  1.00  0.00     0.152 C 
ATOM      9  C   UNL A   1      32.809  21.131  24.811  1.00  0.00     0.136 C 
ATOM     10  C   UNL A   1      32.568  22.478  25.487  1.00  0.00     0.069 C 
BRANCH   7  11
ATOM     11  C   UNL A   1      35.967  22.772  24.070  1.00  0.00     0.254 C 
ATOM     12  O   UNL A   1      36.180  22.886  22.868  1.00  0.00    -0.269 OA
BRANCH  11  13
ATOM     13  C   UNL A   1      37.089  22.854  25.068  1.00  0.00     0.040 A 
ATOM     14  C   UNL A   1      39.112  21.852  26.044  1.00  0.00    -0.022 A 
ATOM     15  C   UNL A   1      39.337  23.046  26.736  1.00  0.00     0.006 A 
ATOM     16  C   UNL A   1      37.991  21.787  25.212  1.00  0.00     0.020 A 
ATOM     17  C   UNL A   1      38.465  24.134  26.587  1.00  0.00     0.001 A 
ATOM     18  C   UNL A   1      37.342  24.040  25.757  1.00  0.00     0.014 A 
BRANCH  14  19
ATOM     19  C   UNL A   1      40.010  20.647  26.226  1.00  0.00     0.195 C 
BRANCH  19  20
ATOM     20  O   UNL A   1      40.655  20.588  27.499  1.00  0.00    -0.380 OA
ATOM     21  C   UNL A   1      41.794  19.739  27.562  1.00  0.00     0.195 C 
ENDBRANCH  19  20
ENDBRANCH  14  19
ENDBRANCH  11  13
ENDBRANCH   7  11
BRANCH   9  22
ATOM     22  O   UNL A   1      32.145  20.079  25.485  1.00  0.00    -0.391 OA
ATOM     23  H   UNL A   1      32.698  19.282  25.463  1.00  0.00     0.211 HD
ENDBRANCH   9  22
ENDBRANCH   3   6
ENDBRANCH   1   2
BRANCH   1  24
ATOM     24  C   UNL A   1      33.008  27.729  25.791  1.00  0.00     0.042 C 
BRANCH  24  25
ATOM     25  C   UNL A   1      33.858  28.930  25.423  1.00  0.00     0.118 C 
BRANCH  25  26
ATOM     26  N   UNL A   1      33.307  30.193  25.895  1.00  0.00    -0.352 N 
ATOM     27  C   UNL A   1      33.660  30.976  26.968  1.00  0.00     0.251 C 
ATOM     28  H   UNL A   1      32.561  30.543  25.357  1.00  0.00     0.163 HD
ATOM     29  O   UNL A   1      32.954  31.927  27.282  1.00  0.00    -0.269 OA
BRANCH  27  30
ATOM     30  C   UNL A   1      34.868  30.662  27.764  1.00  0.00     0.039 A 
ATOM     31  C   UNL A   1      34.917  29.457  28.470  1.00  0.00     0.014 A 
ATOM     32  C   UNL A   1      35.943  31.548  27.832  1.00  0.00     0.014 A 
ATOM     33  C   UNL A   1      36.066  29.122  29.190  1.00  0.00     0.010 A 
ATOM     34  C   UNL A   1      37.131  31.158  28.437  1.00  0.00     0.010 A 
ATOM     35  C   UNL A   1      37.196  29.954  29.151  1.00  0.00    -0.014 A 
BRANCH  35  36
ATOM     36  C   UNL A   1      38.438  29.606  29.887  1.00  0.00     0.031 A 
ATOM     37  C   UNL A   1      38.690  30.182  31.255  1.00  0.00     0.074 A 
ATOM     38  C   UNL A   1      39.366  28.823  29.304  1.00  0.00     0.049 A 
ATOM     39  N   UNL A   1      39.726  30.028  32.043  1.00  0.00    -0.248 NA
ATOM     40  C   UNL A   1      37.659  31.083  31.796  1.00  0.00     0.031 C 
ATOM     41  C   UNL A   1      39.274  28.264  27.954  1.00  0.00     0.029 A 
ATOM     42  N   UNL A   1      40.574  28.367  29.771  1.00  0.00    -0.354 N 
ATOM     43  C   UNL A   1      39.479  30.830  33.150  1.00  0.00     0.074 A 
ATOM     44  C   UNL A   1      38.235  31.522  32.904  1.00  0.00     0.031 C 
ATOM     45  C   UNL A   1      40.362  27.517  27.713  1.00  0.00     0.029 A 
ATOM     46  C   UNL A   1      41.245  27.574  28.874  1.00  0.00     0.049 A 
ATOM     47  H   UNL A   1      40.924  28.588  30.664  1.00  0.00     0.167 HD
ATOM     48  C   UNL A   1      40.207  30.955  34.285  1.00  0.00     0.037 A 
ATOM     49  C   UNL A   1      42.441  26.963  28.976  1.00  0.00     0.037 A 
ATOM     50  C   UNL A   1      41.429  30.238  34.537  1.00  0.00     0.049 A 
ATOM     51  C   UNL A   1      43.220  27.089  30.257  1.00  0.00     0.074 A 
ATOM     52  C   UNL A   1      42.200  30.224  35.684  1.00  0.00     0.029 A 
ATOM     53  N   UNL A   1      42.062  29.412  33.619  1.00  0.00    -0.354 N 
ATOM     54  N   UNL A   1      42.931  27.772  31.338  1.00  0.00    -0.248 NA
ATOM     55  C   UNL A   1      44.484  26.346  30.337  1.00  0.00     0.031 C 
ATOM     56  C   UNL A   1      43.333  29.441  35.439  1.00  0.00     0.029 A 
ATOM     57  C   UNL A   1      43.233  28.909  34.163  1.00  0.00     0.049 A 
ATOM     58  H   UNL A   1      41.729  29.213  32.714  1.00  0.00     0.167 HD
ATOM     59  C   UNL A   1      43.960  27.523  32.235  1.00  0.00     0.074 A 
ATOM     60  C   UNL A   1      44.872  26.609  31.577  1.00  0.00     0.031 C 
ATOM     61  C   UNL A   1      44.134  28.004  33.492  1.00  0.00     0.037 A 
BRANCH  48  62
ATOM     62  C   UNL A   1      39.704  31.912  35.330  1.00  0.00     0.064 A 
ATOM     63  C   UNL A   1      38.767  31.526  36.303  1.00  0.00     0.173 A 
ATOM     64  C   UNL A   1      40.169  33.236  35.363  1.00  0.00     0.173 A 
ATOM     65  F   UNL A   1      38.279  30.276  36.314  1.00  0.00    -0.203 F 
ATOM     66  C   UNL A   1      38.280  32.440  37.235  1.00  0.00     0.198 A 
ATOM     67  C   UNL A   1      39.710  34.136  36.321  1.00  0.00     0.198 A 
ATOM     68  F   UNL A   1      41.069  33.659  34.464  1.00  0.00    -0.203 F 
ATOM     69  F   UNL A   1      37.332  32.065  38.105  1.00  0.00    -0.200 F 
ATOM     70  C   UNL A   1      38.756  33.742  37.248  1.00  0.00     0.200 A 
ATOM     71  F   UNL A   1      40.184  35.389  36.343  1.00  0.00    -0.200 F 
ATOM     72  F   UNL A   1      38.288  34.619  38.145  1.00  0.00    -0.200 F 
ENDBRANCH  48  62
BRANCH  49  73
ATOM     73  C   UNL A   1      42.950  26.152  27.840  1.00  0.00     0.064 A 
ATOM     74  C   UNL A   1      42.600  24.801  27.700  1.00  0.00     0.173 A 
ATOM     75  C   UNL A   1      43.773  26.717  26.854  1.00  0.00     0.173 A 
ATOM     76  F   UNL A   1      41.829  24.210  28.623  1.00  0.00    -0.203 F 
ATOM     77  C   UNL A   1      43.069  24.043  26.628  1.00  0.00     0.198 A 
ATOM     78  C   UNL A   1      44.215  25.967  25.767  1.00  0.00     0.198 A 
ATOM     79  F   UNL A   1      44.128  28.009  26.936  1.00  0.00    -0.203 F 
ATOM     80  F   UNL A   1      42.751  22.745  26.538  1.00  0.00    -0.200 F 
ATOM     81  C   UNL A   1      43.868  24.629  25.658  1.00  0.00     0.200 A 
ATOM     82  F   UNL A   1      44.971  26.543  24.822  1.00  0.00    -0.200 F 
ATOM     83  F   UNL A   1      44.307  23.904  24.619  1.00  0.00    -0.200 F 
ENDBRANCH  49  73
BRANCH  61  84
ATOM     84  C   UNL A   1      45.339  27.525  34.252  1.00  0.00     0.064 A 
ATOM     85  C   UNL A   1      46.556  28.220  34.226  1.00  0.00     0.173 A 
ATOM     86  C   UNL A   1      45.262  26.367  35.043  1.00  0.00     0.173 A 
ATOM     87  F   UNL A   1      46.687  29.326  33.476  1.00  0.00    -0.203 F 
ATOM     88  C   UNL A   1      47.662  27.756  34.934  1.00  0.00     0.198 A 
ATOM     89  C   UNL A   1      46.358  25.927  35.779  1.00  0.00     0.198 A 
ATOM     90  F   UNL A   1      44.119  25.669  35.112  1.00  0.00    -0.203 F 
ATOM     91  F   UNL A   1      48.832  28.404  34.845  1.00  0.00    -0.200 F 
ATOM     92  C   UNL A   1      47.560  26.615  35.716  1.00  0.00     0.200 A 
ATOM     93  F   UNL A   1      46.251  24.835  36.548  1.00  0.00    -0.200 F 
ATOM     94  F   UNL A   1      48.624  26.173  36.401  1.00  0.00    -0.200 F 
ENDBRANCH  61  84
ENDBRANCH  35  36
ENDBRANCH  27  30
ENDBRANCH  25  26
ENDBRANCH  24  25
ENDBRANCH   1  24
TORSDOF 15
ENDMDL
MODEL 2
REMARK VINA RESULT:     -11.3      3.963      9.338
REMARK SMILES COCc1cccc(C(=O)N2C[C@@H](O)C[C@@H]2C(=O)NCCCNC(=O)c2ccc(-c3c4nc(c(-c5c(F)c(F)c(F)c(F)c5F)c5ccc([nH]5)c(-c5c(F)c(F)c(F)c(F)c5F)c5nc(c(-c6c(F)c(F)c(F)c(F)c6F)c6ccc3[nH]6)C=C5)C=C4)cc2)c1
REMARK SMILES IDX 20 1 19 2 17 3 18 4 16 6 11 7 12 8 13 9 15 10 9 11 10 12
REMARK SMILES IDX 8 13 4 14 5 15 89 16 6 17 7 18 3 19 2 20 1 21 14 22 21 24
REMARK SMILES IDX 22 25 23 26 24 27 25 29 26 30 27 31 88 32 28 33 87 34 29 35
REMARK SMILES IDX 30 36 31 37 81 38 32 39 86 40 80 41 82 42 33 43 85 44 79 45
REMARK SMILES IDX 78 46 34 48 66 49 46 50 65 51 47 52 50 53 64 54 83 55 48 56
REMARK SMILES IDX 49 57 63 59 84 60 51 61 35 62 36 63 44 64 37 65 38 66 42 67
REMARK SMILES IDX 45 68 39 69 40 70 43 71 41 72 67 73 68 74 76 75 69 76 70 77
REMARK SMILES IDX 74 78 77 79 71 80 72 81 75 82 73 83 52 84 53 85 61 86 54 87
REMARK SMILES IDX 55 88 59 89 62 90 56 91 57 92 60 93 58 94
REMARK H PARENT 19 5 14 23 23 28 82 47 50 58
REMARK Flexibility Score: inf
ROOT
ATOM      1  C   UNL A   1      34.287  24.526  24.727  1.00  0.00     0.117 C 
ENDROOT
BRANCH   1   2
ATOM      2  N   UNL A   1      34.049  25.803  24.088  1.00  0.00    -0.354 N 
ATOM      3  C   UNL A   1      33.944  27.049  24.634  1.00  0.00     0.242 C 
ATOM      4  O   UNL A   1      33.902  27.990  23.840  1.00  0.00    -0.273 OA
ATOM      5  H   UNL A   1      33.945  25.767  23.109  1.00  0.00     0.163 HD
BRANCH   3   6
ATOM      6  C   UNL A   1      33.830  27.220  26.169  1.00  0.00     0.177 C 
ATOM      7  N   UNL A   1      32.444  27.419  26.599  1.00  0.00    -0.324 N 
ATOM      8  C   UNL A   1      32.312  28.560  27.484  1.00  0.00     0.152 C 
ATOM      9  C   UNL A   1      33.421  29.479  27.006  1.00  0.00     0.136 C 
ATOM     10  C   UNL A   1      34.538  28.501  26.653  1.00  0.00     0.069 C 
BRANCH   7  11
ATOM     11  C   UNL A   1      31.451  26.501  26.323  1.00  0.00     0.254 C 
ATOM     12  O   UNL A   1      31.460  25.364  26.784  1.00  0.00    -0.269 OA
BRANCH  11  13
ATOM     13  C   UNL A   1      30.456  26.902  25.269  1.00  0.00     0.040 A 
ATOM     14  C   UNL A   1      29.820  28.436  23.454  1.00  0.00    -0.022 A 
ATOM     15  C   UNL A   1      28.767  27.574  23.131  1.00  0.00     0.006 A 
ATOM     16  C   UNL A   1      30.652  28.072  24.517  1.00  0.00     0.020 A 
ATOM     17  C   UNL A   1      28.569  26.388  23.850  1.00  0.00     0.001 A 
ATOM     18  C   UNL A   1      29.409  26.051  24.918  1.00  0.00     0.014 A 
BRANCH  14  19
ATOM     19  C   UNL A   1      30.026  29.747  22.727  1.00  0.00     0.195 C 
BRANCH  19  20
ATOM     20  O   UNL A   1      29.434  29.792  21.427  1.00  0.00    -0.380 OA
ATOM     21  C   UNL A   1      28.276  30.609  21.318  1.00  0.00     0.195 C 
ENDBRANCH  19  20
ENDBRANCH  14  19
ENDBRANCH  11  13
ENDBRANCH   7  11
BRANCH   9  22
ATOM     22  O   UNL A   1      33.840  30.432  27.963  1.00  0.00    -0.391 OA
ATOM     23  H   UNL A   1      34.594  30.932  27.612  1.00  0.00     0.211 HD
ENDBRANCH   9  22
ENDBRANCH   3   6
ENDBRANCH   1   2
BRANCH   1  24
ATOM     24  C   UNL A   1      35.748  24.131  24.763  1.00  0.00     0.042 C 
BRANCH  24  25
ATOM     25  C   UNL A   1      36.236  23.641  26.113  1.00  0.00     0.118 C 
BRANCH  25  26
ATOM     26  N   UNL A   1      37.335  22.689  26.018  1.00  0.00    -0.352 N 
ATOM     27  C   UNL A   1      38.678  22.847  26.262  1.00  0.00     0.251 C 
ATOM     28  H   UNL A   1      37.072  21.785  25.732  1.00  0.00     0.163 HD
ATOM     29  O   UNL A   1      39.458  21.951  25.962  1.00  0.00    -0.269 OA
BRANCH  27  30
ATOM     30  C   UNL A   1      39.192  24.101  26.858  1.00  0.00     0.039 A 
ATOM     31  C   UNL A   1      39.885  25.000  26.043  1.00  0.00     0.014 A 
ATOM     32  C   UNL A   1      39.009  24.391  28.210  1.00  0.00     0.014 A 
ATOM     33  C   UNL A   1      40.338  26.210  26.575  1.00  0.00     0.010 A 
ATOM     34  C   UNL A   1      39.343  25.646  28.705  1.00  0.00     0.010 A 
ATOM     35  C   UNL A   1      40.040  26.558  27.902  1.00  0.00    -0.014 A 
BRANCH  35  36
ATOM     36  C   UNL A   1      40.488  27.849  28.482  1.00  0.00     0.031 A 
ATOM     37  C   UNL A   1      41.930  28.041  28.872  1.00  0.00     0.074 A 
ATOM     38  C   UNL A   1      39.592  28.827  28.714  1.00  0.00     0.049 A 
ATOM     39  N   UNL A   1      42.510  29.078  29.424  1.00  0.00    -0.248 NA
ATOM     40  C   UNL A   1      42.834  26.902  28.649  1.00  0.00     0.031 C 
ATOM     41  C   UNL A   1      38.155  28.737  28.450  1.00  0.00     0.029 A 
ATOM     42  N   UNL A   1      39.757  30.088  29.232  1.00  0.00    -0.354 N 
ATOM     43  C   UNL A   1      43.831  28.703  29.635  1.00  0.00     0.074 A 
ATOM     44  C   UNL A   1      43.952  27.324  29.219  1.00  0.00     0.031 C 
ATOM     45  C   UNL A   1      37.574  29.902  28.779  1.00  0.00     0.029 A 
ATOM     46  C   UNL A   1      38.589  30.806  29.311  1.00  0.00     0.049 A 
ATOM     47  H   UNL A   1      40.629  30.442  29.519  1.00  0.00     0.167 HD
ATOM     48  C   UNL A   1      44.860  29.449  30.103  1.00  0.00     0.037 A 
ATOM     49  C   UNL A   1      38.363  32.054  29.764  1.00  0.00     0.037 A 
ATOM     50  C   UNL A   1      44.740  30.831  30.484  1.00  0.00     0.049 A 
ATOM     51  C   UNL A   1      39.524  32.877  30.251  1.00  0.00     0.074 A 
ATOM     52  C   UNL A   1      45.732  31.704  30.889  1.00  0.00     0.029 A 
ATOM     53  N   UNL A   1      43.546  31.539  30.516  1.00  0.00    -0.354 N 
ATOM     54  N   UNL A   1      40.789  32.547  30.354  1.00  0.00    -0.248 NA
ATOM     55  C   UNL A   1      39.228  34.254  30.669  1.00  0.00     0.031 C 
ATOM     56  C   UNL A   1      45.131  32.921  31.227  1.00  0.00     0.029 A 
ATOM     57  C   UNL A   1      43.773  32.830  30.965  1.00  0.00     0.049 A 
ATOM     58  H   UNL A   1      42.667  31.178  30.258  1.00  0.00     0.167 HD
ATOM     59  C   UNL A   1      41.443  33.677  30.823  1.00  0.00     0.074 A 
ATOM     60  C   UNL A   1      40.437  34.710  30.966  1.00  0.00     0.031 C 
ATOM     61  C   UNL A   1      42.759  33.846  31.107  1.00  0.00     0.037 A 
BRANCH  48  62
ATOM     62  C   UNL A   1      46.199  28.778  30.236  1.00  0.00     0.064 A 
ATOM     63  C   UNL A   1      46.604  28.155  31.428  1.00  0.00     0.173 A 
ATOM     64  C   UNL A   1      47.091  28.751  29.153  1.00  0.00     0.173 A 
ATOM     65  F   UNL A   1      45.797  28.158  32.501  1.00  0.00    -0.203 F 
ATOM     66  C   UNL A   1      47.867  27.578  31.545  1.00  0.00     0.198 A 
ATOM     67  C   UNL A   1      48.336  28.138  29.260  1.00  0.00     0.198 A 
ATOM     68  F   UNL A   1      46.755  29.323  27.986  1.00  0.00    -0.203 F 
ATOM     69  F   UNL A   1      48.256  27.056  32.716  1.00  0.00    -0.200 F 
ATOM     70  C   UNL A   1      48.729  27.564  30.460  1.00  0.00     0.200 A 
ATOM     71  F   UNL A   1      49.161  28.112  28.205  1.00  0.00    -0.200 F 
ATOM     72  F   UNL A   1      49.942  27.008  30.574  1.00  0.00    -0.200 F 
ENDBRANCH  48  62
BRANCH  49  73
ATOM     73  C   UNL A   1      36.982  32.602  29.743  1.00  0.00     0.064 A 
ATOM     74  C   UNL A   1      36.123  32.443  30.840  1.00  0.00     0.173 A 
ATOM     75  C   UNL A   1      36.502  33.321  28.639  1.00  0.00     0.173 A 
ATOM     76  F   UNL A   1      36.529  31.750  31.914  1.00  0.00    -0.203 F 
ATOM     77  C   UNL A   1      34.831  32.967  30.825  1.00  0.00     0.198 A 
ATOM     78  C   UNL A   1      35.221  33.871  28.637  1.00  0.00     0.198 A 
ATOM     79  F   UNL A   1      37.288  33.511  27.568  1.00  0.00    -0.203 F 
ATOM     80  F   UNL A   1      34.017  32.768  31.871  1.00  0.00    -0.200 F 
ATOM     81  C   UNL A   1      34.385  33.688  29.728  1.00  0.00     0.200 A 
ATOM     82  F   UNL A   1      34.802  34.584  27.583  1.00  0.00    -0.200 F 
ATOM     83  F   UNL A   1      33.148  34.205  29.720  1.00  0.00    -0.200 F 
ENDBRANCH  49  73
BRANCH  61  84
ATOM     84  C   UNL A   1      43.194  35.208  31.570  1.00  0.00     0.064 A 
ATOM     85  C   UNL A   1      43.671  36.177  30.676  1.00  0.00     0.173 A 
ATOM     86  C   UNL A   1      43.100  35.558  32.927  1.00  0.00     0.173 A 
ATOM     87  F   UNL A   1      43.792  35.891  29.371  1.00  0.00    -0.203 F 
ATOM     88  C   UNL A   1      44.074  37.432  31.127  1.00  0.00     0.198 A 
ATOM     89  C   UNL A   1      43.467  36.825  33.369  1.00  0.00     0.198 A 
ATOM     90  F   UNL A   1      42.641  34.672  33.824  1.00  0.00    -0.203 F 
ATOM     91  F   UNL A   1      44.584  38.321  30.263  1.00  0.00    -0.200 F 
ATOM     92  C   UNL A   1      43.964  37.758  32.471  1.00  0.00     0.200 A 
ATOM     93  F   UNL A   1      43.343  37.143  34.665  1.00  0.00    -0.200 F 
ATOM     94  F   UNL A   1      44.346  38.968  32.903  1.00  0.00    -0.200 F 
ENDBRANCH  61  84
ENDBRANCH  35  36
ENDBRANCH  27  30
ENDBRANCH  25  26
ENDBRANCH  24  25
ENDBRANCH   1  24
TORSDOF 15
ENDMDL
MODEL 3
REMARK VINA RESULT:     -11.2      4.470      7.983
REMARK SMILES COCc1cccc(C(=O)N2C[C@@H](O)C[C@@H]2C(=O)NCCCNC(=O)c2ccc(-c3c4nc(c(-c5c(F)c(F)c(F)c(F)c5F)c5ccc([nH]5)c(-c5c(F)c(F)c(F)c(F)c5F)c5nc(c(-c6c(F)c(F)c(F)c(F)c6F)c6ccc3[nH]6)C=C5)C=C4)cc2)c1
REMARK SMILES IDX 20 1 19 2 17 3 18 4 16 6 11 7 12 8 13 9 15 10 9 11 10 12
REMARK SMILES IDX 8 13 4 14 5 15 89 16 6 17 7 18 3 19 2 20 1 21 14 22 21 24
REMARK SMILES IDX 22 25 23 26 24 27 25 29 26 30 27 31 88 32 28 33 87 34 29 35
REMARK SMILES IDX 30 36 31 37 81 38 32 39 86 40 80 41 82 42 33 43 85 44 79 45
REMARK SMILES IDX 78 46 34 48 66 49 46 50 65 51 47 52 50 53 64 54 83 55 48 56
REMARK SMILES IDX 49 57 63 59 84 60 51 61 35 62 36 63 44 64 37 65 38 66 42 67
REMARK SMILES IDX 45 68 39 69 40 70 43 71 41 72 67 73 68 74 76 75 69 76 70 77
REMARK SMILES IDX 74 78 77 79 71 80 72 81 75 82 73 83 52 84 53 85 61 86 54 87
REMARK SMILES IDX 55 88 59 89 62 90 56 91 57 92 60 93 58 94
REMARK H PARENT 19 5 14 23 23 28 82 47 50 58
REMARK Flexibility Score: inf
ROOT
ATOM      1  C   UNL A   1      36.624  20.068  25.005  1.00  0.00     0.117 C 
ENDROOT
BRANCH   1   2
ATOM      2  N   UNL A   1      36.413  21.343  25.658  1.00  0.00    -0.354 N 
ATOM      3  C   UNL A   1      35.282  22.102  25.751  1.00  0.00     0.242 C 
ATOM      4  O   UNL A   1      35.338  23.071  26.509  1.00  0.00    -0.273 OA
ATOM      5  H   UNL A   1      37.206  21.721  26.103  1.00  0.00     0.163 HD
BRANCH   3   6
ATOM      6  C   UNL A   1      34.040  21.760  24.891  1.00  0.00     0.177 C 
ATOM      7  N   UNL A   1      33.441  22.953  24.291  1.00  0.00    -0.324 N 
ATOM      8  C   UNL A   1      32.009  23.007  24.512  1.00  0.00     0.152 C 
ATOM      9  C   UNL A   1      31.853  22.291  25.840  1.00  0.00     0.136 C 
ATOM     10  C   UNL A   1      32.896  21.181  25.748  1.00  0.00     0.069 C 
BRANCH   7  11
ATOM     11  C   UNL A   1      34.156  23.799  23.466  1.00  0.00     0.254 C 
ATOM     12  O   UNL A   1      35.104  23.411  22.791  1.00  0.00    -0.269 OA
BRANCH  11  13
ATOM     13  C   UNL A   1      33.836  25.263  23.585  1.00  0.00     0.040 A 
ATOM     14  C   UNL A   1      33.777  27.296  24.968  1.00  0.00    -0.022 A 
ATOM     15  C   UNL A   1      33.485  28.037  23.819  1.00  0.00     0.006 A 
ATOM     16  C   UNL A   1      33.956  25.918  24.822  1.00  0.00     0.020 A 
ATOM     17  C   UNL A   1      33.387  27.409  22.570  1.00  0.00     0.001 A 
ATOM     18  C   UNL A   1      33.559  26.025  22.451  1.00  0.00     0.014 A 
BRANCH  14  19
ATOM     19  C   UNL A   1      33.839  27.942  26.335  1.00  0.00     0.195 C 
BRANCH  19  20
ATOM     20  O   UNL A   1      32.670  27.737  27.131  1.00  0.00    -0.380 OA
ATOM     21  C   UNL A   1      31.852  28.885  27.312  1.00  0.00     0.195 C 
ENDBRANCH  19  20
ENDBRANCH  14  19
ENDBRANCH  11  13
ENDBRANCH   7  11
BRANCH   9  22
ATOM     22  O   UNL A   1      30.557  21.775  26.074  1.00  0.00    -0.391 OA
ATOM     23  H   UNL A   1      30.433  21.634  27.027  1.00  0.00     0.211 HD
ENDBRANCH   9  22
ENDBRANCH   3   6
ENDBRANCH   1   2
BRANCH   1  24
ATOM     24  C   UNL A   1      38.075  19.792  24.674  1.00  0.00     0.042 C 
BRANCH  24  25
ATOM     25  C   UNL A   1      39.048  20.101  25.796  1.00  0.00     0.118 C 
BRANCH  25  26
ATOM     26  N   UNL A   1      40.120  19.123  25.915  1.00  0.00    -0.352 N 
ATOM     27  C   UNL A   1      41.468  19.294  26.119  1.00  0.00     0.251 C 
ATOM     28  H   UNL A   1      39.832  18.185  25.838  1.00  0.00     0.163 HD
ATOM     29  O   UNL A   1      42.223  18.333  26.026  1.00  0.00    -0.269 OA
BRANCH  27  30
ATOM     30  C   UNL A   1      42.019  20.635  26.421  1.00  0.00     0.039 A 
ATOM     31  C   UNL A   1      42.310  21.500  25.362  1.00  0.00     0.014 A 
ATOM     32  C   UNL A   1      42.263  21.042  27.733  1.00  0.00     0.014 A 
ATOM     33  C   UNL A   1      42.787  22.785  25.628  1.00  0.00     0.010 A 
ATOM     34  C   UNL A   1      42.611  22.360  28.001  1.00  0.00     0.010 A 
ATOM     35  C   UNL A   1      42.908  23.238  26.951  1.00  0.00    -0.014 A 
BRANCH  35  36
ATOM     36  C   UNL A   1      43.388  24.610  27.259  1.00  0.00     0.031 A 
ATOM     37  C   UNL A   1      42.418  25.658  27.737  1.00  0.00     0.074 A 
ATOM     38  C   UNL A   1      44.679  24.930  27.052  1.00  0.00     0.049 A 
ATOM     39  N   UNL A   1      42.633  26.918  28.024  1.00  0.00    -0.248 NA
ATOM     40  C   UNL A   1      41.012  25.248  27.874  1.00  0.00     0.031 C 
ATOM     41  C   UNL A   1      45.700  24.026  26.521  1.00  0.00     0.029 A 
ATOM     42  N   UNL A   1      45.353  26.109  27.257  1.00  0.00    -0.354 N 
ATOM     43  C   UNL A   1      41.390  27.448  28.347  1.00  0.00     0.074 A 
ATOM     44  C   UNL A   1      40.418  26.397  28.153  1.00  0.00     0.031 C 
ATOM     45  C   UNL A   1      46.876  24.672  26.470  1.00  0.00     0.029 A 
ATOM     46  C   UNL A   1      46.684  26.045  26.929  1.00  0.00     0.049 A 
ATOM     47  H   UNL A   1      44.921  26.921  27.607  1.00  0.00     0.167 HD
ATOM     48  C   UNL A   1      41.089  28.690  28.795  1.00  0.00     0.037 A 
ATOM     49  C   UNL A   1      47.643  26.988  26.989  1.00  0.00     0.037 A 
ATOM     50  C   UNL A   1      42.067  29.722  29.018  1.00  0.00     0.049 A 
ATOM     51  C   UNL A   1      47.294  28.352  27.520  1.00  0.00     0.074 A 
ATOM     52  C   UNL A   1      41.884  30.984  29.551  1.00  0.00     0.029 A 
ATOM     53  N   UNL A   1      43.416  29.609  28.709  1.00  0.00    -0.354 N 
ATOM     54  N   UNL A   1      46.133  28.815  27.916  1.00  0.00    -0.248 NA
ATOM     55  C   UNL A   1      48.394  29.320  27.627  1.00  0.00     0.031 C 
ATOM     56  C   UNL A   1      43.108  31.659  29.505  1.00  0.00     0.029 A 
ATOM     57  C   UNL A   1      44.071  30.792  29.010  1.00  0.00     0.049 A 
ATOM     58  H   UNL A   1      43.844  28.807  28.332  1.00  0.00     0.167 HD
ATOM     59  C   UNL A   1      46.364  30.115  28.342  1.00  0.00     0.074 A 
ATOM     60  C   UNL A   1      47.782  30.362  28.173  1.00  0.00     0.031 C 
ATOM     61  C   UNL A   1      45.483  31.024  28.832  1.00  0.00     0.037 A 
BRANCH  48  62
ATOM     62  C   UNL A   1      39.641  28.998  29.063  1.00  0.00     0.064 A 
ATOM     63  C   UNL A   1      39.077  28.871  30.342  1.00  0.00     0.173 A 
ATOM     64  C   UNL A   1      38.805  29.434  28.023  1.00  0.00     0.173 A 
ATOM     65  F   UNL A   1      39.826  28.448  31.373  1.00  0.00    -0.203 F 
ATOM     66  C   UNL A   1      37.723  29.120  30.559  1.00  0.00     0.198 A 
ATOM     67  C   UNL A   1      37.462  29.720  28.252  1.00  0.00     0.198 A 
ATOM     68  F   UNL A   1      39.291  29.582  26.781  1.00  0.00    -0.203 F 
ATOM     69  F   UNL A   1      37.194  28.919  31.774  1.00  0.00    -0.200 F 
ATOM     70  C   UNL A   1      36.919  29.550  29.516  1.00  0.00     0.200 A 
ATOM     71  F   UNL A   1      36.690  30.152  27.246  1.00  0.00    -0.200 F 
ATOM     72  F   UNL A   1      35.617  29.789  29.726  1.00  0.00    -0.200 F 
ENDBRANCH  48  62
BRANCH  49  73
ATOM     73  C   UNL A   1      49.027  26.656  26.564  1.00  0.00     0.064 A 
ATOM     74  C   UNL A   1      49.452  26.874  25.246  1.00  0.00     0.173 A 
ATOM     75  C   UNL A   1      49.963  26.139  27.472  1.00  0.00     0.173 A 
ATOM     76  F   UNL A   1      48.591  27.351  24.335  1.00  0.00    -0.203 F 
ATOM     77  C   UNL A   1      50.754  26.573  24.849  1.00  0.00     0.198 A 
ATOM     78  C   UNL A   1      51.273  25.867  27.083  1.00  0.00     0.198 A 
ATOM     79  F   UNL A   1      49.610  25.922  28.749  1.00  0.00    -0.203 F 
ATOM     80  F   UNL A   1      51.123  26.755  23.574  1.00  0.00    -0.200 F 
ATOM     81  C   UNL A   1      51.665  26.078  25.770  1.00  0.00     0.200 A 
ATOM     82  F   UNL A   1      52.155  25.408  27.981  1.00  0.00    -0.200 F 
ATOM     83  F   UNL A   1      52.921  25.802  25.392  1.00  0.00    -0.200 F 
ENDBRANCH  49  73
BRANCH  61  84
ATOM     84  C   UNL A   1      46.032  32.358  29.252  1.00  0.00     0.064 A 
ATOM     85  C   UNL A   1      46.521  32.583  30.547  1.00  0.00     0.173 A 
ATOM     86  C   UNL A   1      46.097  33.418  28.333  1.00  0.00     0.173 A 
ATOM     87  F   UNL A   1      46.472  31.608  31.467  1.00  0.00    -0.203 F 
ATOM     88  C   UNL A   1      47.022  33.829  30.917  1.00  0.00     0.198 A 
ATOM     89  C   UNL A   1      46.632  34.650  28.695  1.00  0.00     0.198 A 
ATOM     90  F   UNL A   1      45.652  33.254  27.078  1.00  0.00    -0.203 F 
ATOM     91  F   UNL A   1      47.427  34.039  32.177  1.00  0.00    -0.200 F 
ATOM     92  C   UNL A   1      47.084  34.859  29.990  1.00  0.00     0.200 A 
ATOM     93  F   UNL A   1      46.709  35.637  27.792  1.00  0.00    -0.200 F 
ATOM     94  F   UNL A   1      47.571  36.056  30.346  1.00  0.00    -0.200 F 
ENDBRANCH  61  84
ENDBRANCH  35  36
ENDBRANCH  27  30
ENDBRANCH  25  26
ENDBRANCH  24  25
ENDBRANCH   1  24
TORSDOF 15
ENDMDL
