MODEL 1
REMARK VINA RESULT:     -12.0      0.000      0.000
REMARK SMILES CC[C@@H](C(=O)NCCCNC(=O)c1ccc(-c2c3nc(c(-c4c(F)c(F)c(F)c(F)c4F)c4ccc([nH]4)c(-c4c(F)c(F)c(F)c(F)c4F)c4nc(c(-c5c(F)c(F)c(F)c(F)c5F)c5ccc2[nH]5)C=C4)C=C3)cc1)N1C(=O)/C(=C\c2ccc(C(=O)OC)cc2)SC1=S
REMARK SMILES IDX 7 1 6 2 4 3 5 4 3 6 2 7 1 8 76 9 77 10 92 11 78 12 79 13
REMARK SMILES IDX 91 14 93 15 80 16 81 17 82 18 90 19 83 20 89 21 84 22 85 23
REMARK SMILES IDX 86 24 87 25 88 26 8 27 9 28 10 29 11 30 12 32 13 33 14 34
REMARK SMILES IDX 75 35 15 36 74 37 16 38 17 39 18 40 68 41 19 42 73 43 67 44
REMARK SMILES IDX 69 45 20 46 72 47 66 48 65 49 21 51 53 52 33 53 52 54 34 55
REMARK SMILES IDX 37 56 51 57 70 58 35 59 36 60 50 62 71 63 38 64 22 65 23 66
REMARK SMILES IDX 31 67 24 68 25 69 29 70 32 71 26 72 27 73 30 74 28 75 54 76
REMARK SMILES IDX 55 77 63 78 56 79 57 80 61 81 64 82 58 83 59 84 62 85 60 86
REMARK SMILES IDX 39 87 40 88 48 89 41 90 42 91 46 92 49 93 43 94 44 95 47 96
REMARK SMILES IDX 45 97
REMARK H PARENT 6 5 10 31 69 50 37 61
REMARK Flexibility Score: inf
ROOT
ATOM      1  C   UNL A   1      31.449  30.418  26.300  1.00  0.00     0.117 C 
ENDROOT
BRANCH   1   2
ATOM      2  N   UNL A   1      31.911  30.098  24.954  1.00  0.00    -0.354 N 
ATOM      3  C   UNL A   1      32.503  28.974  24.452  1.00  0.00     0.243 C 
ATOM      4  O   UNL A   1      33.065  29.068  23.357  1.00  0.00    -0.273 OA
ATOM      5  H   UNL A   1      31.774  30.816  24.296  1.00  0.00     0.163 HD
BRANCH   3   6
ATOM      6  C   UNL A   1      32.472  27.646  25.233  1.00  0.00     0.181 C 
BRANCH   6   7
ATOM      7  C   UNL A   1      33.937  27.387  25.713  1.00  0.00     0.032 C 
ATOM      8  C   UNL A   1      34.565  28.437  26.603  1.00  0.00     0.006 C 
ENDBRANCH   6   7
BRANCH   6   9
ATOM      9  N   UNL A   1      32.043  26.513  24.351  1.00  0.00    -0.280 N 
ATOM     10  C   UNL A   1      32.666  25.296  24.540  1.00  0.00     0.266 C 
ATOM     11  C   UNL A   1      30.847  26.345  23.692  1.00  0.00     0.149 C 
ATOM     12  O   UNL A   1      33.222  24.963  25.577  1.00  0.00    -0.268 OA
ATOM     13  C   UNL A   1      32.392  24.378  23.405  1.00  0.00     0.081 C 
ATOM     14  S   UNL A   1      30.976  24.942  22.608  1.00  0.00    -0.054 SA
ATOM     15  S   UNL A   1      29.415  27.185  23.854  1.00  0.00    -0.052 S 
ATOM     16  C   UNL A   1      33.120  23.314  23.030  1.00  0.00     0.029 C 
BRANCH  16  17
ATOM     17  C   UNL A   1      34.343  22.861  23.709  1.00  0.00    -0.024 A 
ATOM     18  C   UNL A   1      34.301  21.795  24.615  1.00  0.00     0.009 A 
ATOM     19  C   UNL A   1      35.576  23.463  23.431  1.00  0.00     0.009 A 
ATOM     20  C   UNL A   1      35.487  21.291  25.168  1.00  0.00     0.016 A 
ATOM     21  C   UNL A   1      36.763  22.942  23.953  1.00  0.00     0.016 A 
ATOM     22  C   UNL A   1      36.726  21.839  24.812  1.00  0.00     0.060 A 
BRANCH  22  23
ATOM     23  C   UNL A   1      37.970  21.215  25.341  1.00  0.00     0.337 C 
ATOM     24  O   UNL A   1      38.312  20.069  25.091  1.00  0.00    -0.246 OA
BRANCH  23  25
ATOM     25  O   UNL A   1      38.664  22.107  26.091  1.00  0.00    -0.465 OA
ATOM     26  C   UNL A   1      40.024  21.747  26.332  1.00  0.00     0.282 C 
ENDBRANCH  23  25
ENDBRANCH  22  23
ENDBRANCH  16  17
ENDBRANCH   6   9
ENDBRANCH   3   6
ENDBRANCH   1   2
BRANCH   1  27
ATOM     27  C   UNL A   1      31.405  31.932  26.519  1.00  0.00     0.042 C 
BRANCH  27  28
ATOM     28  C   UNL A   1      32.640  32.496  27.208  1.00  0.00     0.118 C 
BRANCH  28  29
ATOM     29  N   UNL A   1      32.475  33.896  27.557  1.00  0.00    -0.352 N 
ATOM     30  C   UNL A   1      33.087  34.623  28.549  1.00  0.00     0.251 C 
ATOM     31  H   UNL A   1      31.833  34.396  27.002  1.00  0.00     0.163 HD
ATOM     32  O   UNL A   1      32.650  35.731  28.846  1.00  0.00    -0.269 OA
BRANCH  30  33
ATOM     33  C   UNL A   1      34.256  34.075  29.278  1.00  0.00     0.039 A 
ATOM     34  C   UNL A   1      34.036  33.217  30.361  1.00  0.00     0.014 A 
ATOM     35  C   UNL A   1      35.563  34.431  28.933  1.00  0.00     0.014 A 
ATOM     36  C   UNL A   1      35.122  32.679  31.060  1.00  0.00     0.010 A 
ATOM     37  C   UNL A   1      36.644  33.826  29.573  1.00  0.00     0.010 A 
ATOM     38  C   UNL A   1      36.437  32.956  30.654  1.00  0.00    -0.014 A 
BRANCH  38  39
ATOM     39  C   UNL A   1      37.609  32.381  31.366  1.00  0.00     0.031 A 
ATOM     40  C   UNL A   1      38.363  31.227  30.760  1.00  0.00     0.074 A 
ATOM     41  C   UNL A   1      37.961  32.848  32.579  1.00  0.00     0.049 A 
ATOM     42  N   UNL A   1      39.343  30.517  31.262  1.00  0.00    -0.248 NA
ATOM     43  C   UNL A   1      37.942  30.796  29.417  1.00  0.00     0.031 C 
ATOM     44  C   UNL A   1      37.298  33.942  33.290  1.00  0.00     0.029 A 
ATOM     45  N   UNL A   1      38.959  32.453  33.438  1.00  0.00    -0.354 N 
ATOM     46  C   UNL A   1      39.639  29.551  30.308  1.00  0.00     0.074 A 
ATOM     47  C   UNL A   1      38.700  29.727  29.222  1.00  0.00     0.031 C 
ATOM     48  C   UNL A   1      37.916  34.143  34.465  1.00  0.00     0.029 A 
ATOM     49  C   UNL A   1      38.988  33.163  34.613  1.00  0.00     0.049 A 
ATOM     50  H   UNL A   1      39.592  31.728  33.230  1.00  0.00     0.167 HD
ATOM     51  C   UNL A   1      40.621  28.618  30.324  1.00  0.00     0.037 A 
ATOM     52  C   UNL A   1      39.780  33.029  35.696  1.00  0.00     0.037 A 
ATOM     53  C   UNL A   1      41.570  28.460  31.393  1.00  0.00     0.049 A 
ATOM     54  C   UNL A   1      40.843  31.961  35.702  1.00  0.00     0.074 A 
ATOM     55  C   UNL A   1      42.629  27.574  31.484  1.00  0.00     0.029 A 
ATOM     56  N   UNL A   1      41.571  29.205  32.563  1.00  0.00    -0.354 N 
ATOM     57  N   UNL A   1      41.147  31.089  34.772  1.00  0.00    -0.248 NA
ATOM     58  C   UNL A   1      41.674  31.860  36.910  1.00  0.00     0.031 C 
ATOM     59  C   UNL A   1      43.241  27.749  32.729  1.00  0.00     0.029 A 
ATOM     60  C   UNL A   1      42.600  28.784  33.390  1.00  0.00     0.049 A 
ATOM     61  H   UNL A   1      40.936  29.927  32.774  1.00  0.00     0.167 HD
ATOM     62  C   UNL A   1      42.225  30.366  35.263  1.00  0.00     0.074 A 
ATOM     63  C   UNL A   1      42.529  30.904  36.572  1.00  0.00     0.031 C 
ATOM     64  C   UNL A   1      42.904  29.346  34.682  1.00  0.00     0.037 A 
BRANCH  51  65
ATOM     65  C   UNL A   1      40.722  27.695  29.142  1.00  0.00     0.064 A 
ATOM     66  C   UNL A   1      39.869  26.588  28.997  1.00  0.00     0.173 A 
ATOM     67  C   UNL A   1      41.656  27.938  28.124  1.00  0.00     0.173 A 
ATOM     68  F   UNL A   1      38.964  26.304  29.946  1.00  0.00    -0.203 F 
ATOM     69  C   UNL A   1      39.972  25.743  27.895  1.00  0.00     0.198 A 
ATOM     70  C   UNL A   1      41.732  27.111  27.006  1.00  0.00     0.198 A 
ATOM     71  F   UNL A   1      42.490  28.986  28.207  1.00  0.00    -0.203 F 
ATOM     72  F   UNL A   1      39.184  24.662  27.806  1.00  0.00    -0.200 F 
ATOM     73  C   UNL A   1      40.897  26.009  26.897  1.00  0.00     0.200 A 
ATOM     74  F   UNL A   1      42.616  27.379  26.036  1.00  0.00    -0.200 F 
ATOM     75  F   UNL A   1      40.989  25.199  25.833  1.00  0.00    -0.200 F 
ENDBRANCH  51  65
BRANCH  52  76
ATOM     76  C   UNL A   1      39.611  33.936  36.863  1.00  0.00     0.064 A 
ATOM     77  C   UNL A   1      40.243  35.187  36.899  1.00  0.00     0.173 A 
ATOM     78  C   UNL A   1      38.833  33.567  37.970  1.00  0.00     0.173 A 
ATOM     79  F   UNL A   1      41.016  35.576  35.873  1.00  0.00    -0.203 F 
ATOM     80  C   UNL A   1      40.125  36.023  38.008  1.00  0.00     0.198 A 
ATOM     81  C   UNL A   1      38.690  34.418  39.065  1.00  0.00     0.198 A 
ATOM     82  F   UNL A   1      38.203  32.385  37.985  1.00  0.00    -0.203 F 
ATOM     83  F   UNL A   1      40.784  37.189  38.037  1.00  0.00    -0.200 F 
ATOM     84  C   UNL A   1      39.345  35.640  39.087  1.00  0.00     0.200 A 
ATOM     85  F   UNL A   1      37.922  34.051  40.099  1.00  0.00    -0.200 F 
ATOM     86  F   UNL A   1      39.230  36.445  40.153  1.00  0.00    -0.200 F 
ENDBRANCH  52  76
BRANCH  64  87
ATOM     87  C   UNL A   1      44.078  28.778  35.427  1.00  0.00     0.064 A 
ATOM     88  C   UNL A   1      45.376  29.281  35.256  1.00  0.00     0.173 A 
ATOM     89  C   UNL A   1      43.889  27.754  36.369  1.00  0.00     0.173 A 
ATOM     90  F   UNL A   1      45.612  30.249  34.358  1.00  0.00    -0.203 F 
ATOM     91  C   UNL A   1      46.444  28.766  35.986  1.00  0.00     0.198 A 
ATOM     92  C   UNL A   1      44.953  27.264  37.120  1.00  0.00     0.198 A 
ATOM     93  F   UNL A   1      42.666  27.243  36.575  1.00  0.00    -0.203 F 
ATOM     94  F   UNL A   1      47.683  29.230  35.774  1.00  0.00    -0.200 F 
ATOM     95  C   UNL A   1      46.230  27.765  36.924  1.00  0.00     0.200 A 
ATOM     96  F   UNL A   1      44.741  26.310  38.036  1.00  0.00    -0.200 F 
ATOM     97  F   UNL A   1      47.258  27.280  37.634  1.00  0.00    -0.200 F 
ENDBRANCH  64  87
ENDBRANCH  38  39
ENDBRANCH  30  33
ENDBRANCH  28  29
ENDBRANCH  27  28
ENDBRANCH   1  27
TORSDOF 15
ENDMDL
MODEL 2
REMARK VINA RESULT:     -11.9      5.222     11.008
REMARK SMILES CC[C@@H](C(=O)NCCCNC(=O)c1ccc(-c2c3nc(c(-c4c(F)c(F)c(F)c(F)c4F)c4ccc([nH]4)c(-c4c(F)c(F)c(F)c(F)c4F)c4nc(c(-c5c(F)c(F)c(F)c(F)c5F)c5ccc2[nH]5)C=C4)C=C3)cc1)N1C(=O)/C(=C\c2ccc(C(=O)OC)cc2)SC1=S
REMARK SMILES IDX 7 1 6 2 4 3 5 4 3 6 2 7 1 8 76 9 77 10 92 11 78 12 79 13
REMARK SMILES IDX 91 14 93 15 80 16 81 17 82 18 90 19 83 20 89 21 84 22 85 23
REMARK SMILES IDX 86 24 87 25 88 26 8 27 9 28 10 29 11 30 12 32 13 33 14 34
REMARK SMILES IDX 75 35 15 36 74 37 16 38 17 39 18 40 68 41 19 42 73 43 67 44
REMARK SMILES IDX 69 45 20 46 72 47 66 48 65 49 21 51 53 52 33 53 52 54 34 55
REMARK SMILES IDX 37 56 51 57 70 58 35 59 36 60 50 62 71 63 38 64 22 65 23 66
REMARK SMILES IDX 31 67 24 68 25 69 29 70 32 71 26 72 27 73 30 74 28 75 54 76
REMARK SMILES IDX 55 77 63 78 56 79 57 80 61 81 64 82 58 83 59 84 62 85 60 86
REMARK SMILES IDX 39 87 40 88 48 89 41 90 42 91 46 92 49 93 43 94 44 95 47 96
REMARK SMILES IDX 45 97
REMARK H PARENT 6 5 10 31 69 50 37 61
REMARK Flexibility Score: inf
ROOT
ATOM      1  C   UNL A   1      37.033  20.703  24.688  1.00  0.00     0.117 C 
ENDROOT
BRANCH   1   2
ATOM      2  N   UNL A   1      36.034  20.680  25.749  1.00  0.00    -0.354 N 
ATOM      3  C   UNL A   1      35.103  21.606  26.127  1.00  0.00     0.243 C 
ATOM      4  O   UNL A   1      34.581  21.468  27.237  1.00  0.00    -0.273 OA
ATOM      5  H   UNL A   1      36.030  19.855  26.286  1.00  0.00     0.163 HD
BRANCH   3   6
ATOM      6  C   UNL A   1      34.731  22.779  25.199  1.00  0.00     0.181 C 
BRANCH   6   7
ATOM      7  C   UNL A   1      35.334  24.063  25.855  1.00  0.00     0.032 C 
ATOM      8  C   UNL A   1      36.829  24.078  26.090  1.00  0.00     0.006 C 
ENDBRANCH   6   7
BRANCH   6   9
ATOM      9  N   UNL A   1      33.244  22.937  25.102  1.00  0.00    -0.280 N 
ATOM     10  C   UNL A   1      32.754  24.220  24.970  1.00  0.00     0.266 C 
ATOM     11  C   UNL A   1      32.310  22.018  24.680  1.00  0.00     0.149 C 
ATOM     12  O   UNL A   1      33.404  25.163  24.541  1.00  0.00    -0.268 OA
ATOM     13  C   UNL A   1      31.290  24.257  25.217  1.00  0.00     0.081 C 
ATOM     14  S   UNL A   1      30.683  22.663  24.995  1.00  0.00    -0.054 SA
ATOM     15  S   UNL A   1      32.528  20.555  23.910  1.00  0.00    -0.052 S 
ATOM     16  C   UNL A   1      30.555  25.321  25.581  1.00  0.00     0.029 C 
BRANCH  16  17
ATOM     17  C   UNL A   1      31.096  26.672  25.791  1.00  0.00    -0.024 A 
ATOM     18  C   UNL A   1      31.028  27.632  24.775  1.00  0.00     0.009 A 
ATOM     19  C   UNL A   1      31.651  27.032  27.025  1.00  0.00     0.009 A 
ATOM     20  C   UNL A   1      31.435  28.951  25.021  1.00  0.00     0.016 A 
ATOM     21  C   UNL A   1      32.027  28.353  27.284  1.00  0.00     0.016 A 
ATOM     22  C   UNL A   1      31.904  29.325  26.288  1.00  0.00     0.060 A 
BRANCH  22  23
ATOM     23  C   UNL A   1      32.234  30.755  26.541  1.00  0.00     0.337 C 
ATOM     24  O   UNL A   1      31.413  31.659  26.491  1.00  0.00    -0.246 OA
BRANCH  23  25
ATOM     25  O   UNL A   1      33.545  30.886  26.865  1.00  0.00    -0.465 OA
ATOM     26  C   UNL A   1      33.793  31.715  28.001  1.00  0.00     0.282 C 
ENDBRANCH  23  25
ENDBRANCH  22  23
ENDBRANCH  16  17
ENDBRANCH   6   9
ENDBRANCH   3   6
ENDBRANCH   1   2
BRANCH   1  27
ATOM     27  C   UNL A   1      38.116  19.650  24.932  1.00  0.00     0.042 C 
BRANCH  27  28
ATOM     28  C   UNL A   1      39.127  20.035  26.003  1.00  0.00     0.118 C 
BRANCH  28  29
ATOM     29  N   UNL A   1      40.268  19.138  26.020  1.00  0.00    -0.352 N 
ATOM     30  C   UNL A   1      41.609  19.436  26.071  1.00  0.00     0.251 C 
ATOM     31  H   UNL A   1      40.050  18.178  25.993  1.00  0.00     0.163 HD
ATOM     32  O   UNL A   1      42.434  18.557  25.839  1.00  0.00    -0.269 OA
BRANCH  30  33
ATOM     33  C   UNL A   1      42.068  20.811  26.382  1.00  0.00     0.039 A 
ATOM     34  C   UNL A   1      42.285  21.165  27.718  1.00  0.00     0.014 A 
ATOM     35  C   UNL A   1      42.247  21.765  25.376  1.00  0.00     0.014 A 
ATOM     36  C   UNL A   1      42.728  22.453  28.037  1.00  0.00     0.010 A 
ATOM     37  C   UNL A   1      42.772  23.018  25.687  1.00  0.00     0.010 A 
ATOM     38  C   UNL A   1      43.003  23.383  27.022  1.00  0.00    -0.014 A 
BRANCH  38  39
ATOM     39  C   UNL A   1      43.495  24.752  27.332  1.00  0.00     0.031 A 
ATOM     40  C   UNL A   1      42.541  25.791  27.860  1.00  0.00     0.074 A 
ATOM     41  C   UNL A   1      44.777  25.084  27.084  1.00  0.00     0.049 A 
ATOM     42  N   UNL A   1      42.742  27.064  28.093  1.00  0.00    -0.248 NA
ATOM     43  C   UNL A   1      41.167  25.343  28.138  1.00  0.00     0.031 C 
ATOM     44  C   UNL A   1      45.796  24.181  26.548  1.00  0.00     0.029 A 
ATOM     45  N   UNL A   1      45.440  26.277  27.238  1.00  0.00    -0.354 N 
ATOM     46  C   UNL A   1      41.521  27.567  28.526  1.00  0.00     0.074 A 
ATOM     47  C   UNL A   1      40.571  26.478  28.469  1.00  0.00     0.031 C 
ATOM     48  C   UNL A   1      46.958  24.845  26.436  1.00  0.00     0.029 A 
ATOM     49  C   UNL A   1      46.756  26.232  26.846  1.00  0.00     0.049 A 
ATOM     50  H   UNL A   1      45.012  27.089  27.596  1.00  0.00     0.167 HD
ATOM     51  C   UNL A   1      41.226  28.817  28.957  1.00  0.00     0.037 A 
ATOM     52  C   UNL A   1      47.690  27.203  26.807  1.00  0.00     0.037 A 
ATOM     53  C   UNL A   1      42.178  29.892  29.037  1.00  0.00     0.049 A 
ATOM     54  C   UNL A   1      47.326  28.593  27.259  1.00  0.00     0.074 A 
ATOM     55  C   UNL A   1      41.987  31.181  29.501  1.00  0.00     0.029 A 
ATOM     56  N   UNL A   1      43.504  29.803  28.638  1.00  0.00    -0.354 N 
ATOM     57  N   UNL A   1      46.183  29.043  27.717  1.00  0.00    -0.248 NA
ATOM     58  C   UNL A   1      48.385  29.610  27.192  1.00  0.00     0.031 C 
ATOM     59  C   UNL A   1      43.183  31.887  29.336  1.00  0.00     0.029 A 
ATOM     60  C   UNL A   1      44.136  31.021  28.825  1.00  0.00     0.049 A 
ATOM     61  H   UNL A   1      43.931  28.994  28.276  1.00  0.00     0.167 HD
ATOM     62  C   UNL A   1      46.394  30.379  28.028  1.00  0.00     0.074 A 
ATOM     63  C   UNL A   1      47.778  30.668  27.713  1.00  0.00     0.031 C 
ATOM     64  C   UNL A   1      45.520  31.287  28.528  1.00  0.00     0.037 A 
BRANCH  51  65
ATOM     65  C   UNL A   1      39.810  29.089  29.382  1.00  0.00     0.064 A 
ATOM     66  C   UNL A   1      39.399  28.942  30.717  1.00  0.00     0.173 A 
ATOM     67  C   UNL A   1      38.860  29.537  28.451  1.00  0.00     0.173 A 
ATOM     68  F   UNL A   1      40.265  28.507  31.645  1.00  0.00    -0.203 F 
ATOM     69  C   UNL A   1      38.084  29.201  31.096  1.00  0.00     0.198 A 
ATOM     70  C   UNL A   1      37.554  29.828  28.841  1.00  0.00     0.198 A 
ATOM     71  F   UNL A   1      39.199  29.703  27.164  1.00  0.00    -0.203 F 
ATOM     72  F   UNL A   1      37.704  29.000  32.366  1.00  0.00    -0.200 F 
ATOM     73  C   UNL A   1      37.166  29.650  30.160  1.00  0.00     0.200 A 
ATOM     74  F   UNL A   1      36.672  30.277  27.938  1.00  0.00    -0.200 F 
ATOM     75  F   UNL A   1      35.903  29.907  30.529  1.00  0.00    -0.200 F 
ENDBRANCH  51  65
BRANCH  52  76
ATOM     76  C   UNL A   1      49.067  26.897  26.332  1.00  0.00     0.064 A 
ATOM     77  C   UNL A   1      49.407  27.029  24.979  1.00  0.00     0.173 A 
ATOM     78  C   UNL A   1      50.062  26.449  27.213  1.00  0.00     0.173 A 
ATOM     79  F   UNL A   1      48.484  27.433  24.093  1.00  0.00    -0.203 F 
ATOM     80  C   UNL A   1      50.682  26.701  24.520  1.00  0.00     0.198 A 
ATOM     81  C   UNL A   1      51.345  26.152  26.758  1.00  0.00     0.198 A 
ATOM     82  F   UNL A   1      49.791  26.310  28.518  1.00  0.00    -0.203 F 
ATOM     83  F   UNL A   1      50.963  26.786  23.212  1.00  0.00    -0.200 F 
ATOM     84  C   UNL A   1      51.651  26.268  25.411  1.00  0.00     0.200 A 
ATOM     85  F   UNL A   1      52.284  25.749  27.626  1.00  0.00    -0.200 F 
ATOM     86  F   UNL A   1      52.877  25.954  24.970  1.00  0.00    -0.200 F 
ENDBRANCH  52  76
BRANCH  64  87
ATOM     87  C   UNL A   1      46.042  32.664  28.823  1.00  0.00     0.064 A 
ATOM     88  C   UNL A   1      45.965  33.702  27.883  1.00  0.00     0.173 A 
ATOM     89  C   UNL A   1      46.575  32.962  30.088  1.00  0.00     0.173 A 
ATOM     90  F   UNL A   1      45.478  33.466  26.656  1.00  0.00    -0.203 F 
ATOM     91  C   UNL A   1      46.420  34.982  28.191  1.00  0.00     0.198 A 
ATOM     92  C   UNL A   1      46.999  34.249  30.403  1.00  0.00     0.198 A 
ATOM     93  F   UNL A   1      46.665  32.006  31.025  1.00  0.00    -0.203 F 
ATOM     94  F   UNL A   1      46.378  35.947  27.263  1.00  0.00    -0.200 F 
ATOM     95  C   UNL A   1      46.927  35.256  29.454  1.00  0.00     0.200 A 
ATOM     96  F   UNL A   1      47.472  34.515  31.628  1.00  0.00    -0.200 F 
ATOM     97  F   UNL A   1      47.352  36.492  29.752  1.00  0.00    -0.200 F 
ENDBRANCH  64  87
ENDBRANCH  38  39
ENDBRANCH  30  33
ENDBRANCH  28  29
ENDBRANCH  27  28
ENDBRANCH   1  27
TORSDOF 15
ENDMDL
MODEL 3
REMARK VINA RESULT:     -11.9      3.350      8.621
REMARK SMILES CC[C@@H](C(=O)NCCCNC(=O)c1ccc(-c2c3nc(c(-c4c(F)c(F)c(F)c(F)c4F)c4ccc([nH]4)c(-c4c(F)c(F)c(F)c(F)c4F)c4nc(c(-c5c(F)c(F)c(F)c(F)c5F)c5ccc2[nH]5)C=C4)C=C3)cc1)N1C(=O)/C(=C\c2ccc(C(=O)OC)cc2)SC1=S
REMARK SMILES IDX 7 1 6 2 4 3 5 4 3 6 2 7 1 8 76 9 77 10 92 11 78 12 79 13
REMARK SMILES IDX 91 14 93 15 80 16 81 17 82 18 90 19 83 20 89 21 84 22 85 23
REMARK SMILES IDX 86 24 87 25 88 26 8 27 9 28 10 29 11 30 12 32 13 33 14 34
REMARK SMILES IDX 75 35 15 36 74 37 16 38 17 39 18 40 68 41 19 42 73 43 67 44
REMARK SMILES IDX 69 45 20 46 72 47 66 48 65 49 21 51 53 52 33 53 52 54 34 55
REMARK SMILES IDX 37 56 51 57 70 58 35 59 36 60 50 62 71 63 38 64 22 65 23 66
REMARK SMILES IDX 31 67 24 68 25 69 29 70 32 71 26 72 27 73 30 74 28 75 54 76
REMARK SMILES IDX 55 77 63 78 56 79 57 80 61 81 64 82 58 83 59 84 62 85 60 86
REMARK SMILES IDX 39 87 40 88 48 89 41 90 42 91 46 92 49 93 43 94 44 95 47 96
REMARK SMILES IDX 45 97
REMARK H PARENT 6 5 10 31 69 50 37 61
REMARK Flexibility Score: inf
ROOT
ATOM      1  C   UNL A   1      33.042  26.324  26.186  1.00  0.00     0.117 C 
ENDROOT
BRANCH   1   2
ATOM      2  N   UNL A   1      31.841  25.555  26.490  1.00  0.00    -0.354 N 
ATOM      3  C   UNL A   1      30.554  25.692  26.055  1.00  0.00     0.243 C 
ATOM      4  O   UNL A   1      29.674  25.102  26.688  1.00  0.00    -0.273 OA
ATOM      5  H   UNL A   1      31.984  24.809  27.115  1.00  0.00     0.163 HD
BRANCH   3   6
ATOM      6  C   UNL A   1      30.221  26.560  24.826  1.00  0.00     0.181 C 
BRANCH   6   7
ATOM      7  C   UNL A   1      28.785  26.141  24.370  1.00  0.00     0.032 C 
ATOM      8  C   UNL A   1      27.912  27.220  23.769  1.00  0.00     0.006 C 
ENDBRANCH   6   7
BRANCH   6   9
ATOM      9  N   UNL A   1      31.181  26.296  23.706  1.00  0.00    -0.280 N 
ATOM     10  C   UNL A   1      31.371  24.981  23.335  1.00  0.00     0.266 C 
ATOM     11  C   UNL A   1      31.571  27.144  22.694  1.00  0.00     0.149 C 
ATOM     12  O   UNL A   1      30.569  24.083  23.551  1.00  0.00    -0.268 OA
ATOM     13  C   UNL A   1      32.567  24.842  22.465  1.00  0.00     0.081 C 
ATOM     14  S   UNL A   1      32.902  26.388  21.789  1.00  0.00    -0.054 SA
ATOM     15  S   UNL A   1      30.934  28.614  22.231  1.00  0.00    -0.052 S 
ATOM     16  C   UNL A   1      33.292  23.732  22.254  1.00  0.00     0.029 C 
BRANCH  16  17
ATOM     17  C   UNL A   1      33.005  22.423  22.861  1.00  0.00    -0.024 A 
ATOM     18  C   UNL A   1      32.240  21.472  22.176  1.00  0.00     0.009 A 
ATOM     19  C   UNL A   1      33.526  22.093  24.118  1.00  0.00     0.009 A 
ATOM     20  C   UNL A   1      32.070  20.186  22.707  1.00  0.00     0.016 A 
ATOM     21  C   UNL A   1      33.387  20.802  24.635  1.00  0.00     0.016 A 
ATOM     22  C   UNL A   1      32.673  19.834  23.922  1.00  0.00     0.060 A 
BRANCH  22  23
ATOM     23  C   UNL A   1      32.554  18.431  24.407  1.00  0.00     0.337 C 
ATOM     24  O   UNL A   1      32.139  18.131  25.516  1.00  0.00    -0.246 OA
BRANCH  23  25
ATOM     25  O   UNL A   1      32.932  17.563  23.436  1.00  0.00    -0.465 OA
ATOM     26  C   UNL A   1      33.421  16.311  23.919  1.00  0.00     0.282 C 
ENDBRANCH  23  25
ENDBRANCH  22  23
ENDBRANCH  16  17
ENDBRANCH   6   9
ENDBRANCH   3   6
ENDBRANCH   1   2
BRANCH   1  27
ATOM     27  C   UNL A   1      32.968  27.722  26.804  1.00  0.00     0.042 C 
BRANCH  27  28
ATOM     28  C   UNL A   1      34.015  28.692  26.275  1.00  0.00     0.118 C 
BRANCH  28  29
ATOM     29  N   UNL A   1      33.808  30.040  26.773  1.00  0.00    -0.352 N 
ATOM     30  C   UNL A   1      34.528  30.742  27.710  1.00  0.00     0.251 C 
ATOM     31  H   UNL A   1      33.041  30.520  26.384  1.00  0.00     0.163 HD
ATOM     32  O   UNL A   1      34.067  31.779  28.177  1.00  0.00    -0.269 OA
BRANCH  30  33
ATOM     33  C   UNL A   1      35.846  30.249  28.177  1.00  0.00     0.039 A 
ATOM     34  C   UNL A   1      36.956  30.387  27.336  1.00  0.00     0.014 A 
ATOM     35  C   UNL A   1      35.991  29.616  29.415  1.00  0.00     0.014 A 
ATOM     36  C   UNL A   1      38.212  29.939  27.757  1.00  0.00     0.010 A 
ATOM     37  C   UNL A   1      37.258  29.251  29.868  1.00  0.00     0.010 A 
ATOM     38  C   UNL A   1      38.381  29.393  29.039  1.00  0.00    -0.014 A 
BRANCH  38  39
ATOM     39  C   UNL A   1      39.709  28.928  29.520  1.00  0.00     0.031 A 
ATOM     40  C   UNL A   1      40.489  29.767  30.498  1.00  0.00     0.074 A 
ATOM     41  C   UNL A   1      40.245  27.790  29.037  1.00  0.00     0.049 A 
ATOM     42  N   UNL A   1      41.703  29.595  30.959  1.00  0.00    -0.248 NA
ATOM     43  C   UNL A   1      39.823  30.976  31.007  1.00  0.00     0.031 C 
ATOM     44  C   UNL A   1      39.607  26.901  28.065  1.00  0.00     0.029 A 
ATOM     45  N   UNL A   1      41.456  27.192  29.287  1.00  0.00    -0.354 N 
ATOM     46  C   UNL A   1      41.949  30.678  31.793  1.00  0.00     0.074 A 
ATOM     47  C   UNL A   1      40.783  31.532  31.732  1.00  0.00     0.031 C 
ATOM     48  C   UNL A   1      40.422  25.863  27.817  1.00  0.00     0.029 A 
ATOM     49  C   UNL A   1      41.659  26.036  28.573  1.00  0.00     0.049 A 
ATOM     50  H   UNL A   1      42.116  27.558  29.920  1.00  0.00     0.167 HD
ATOM     51  C   UNL A   1      43.037  30.927  32.562  1.00  0.00     0.037 A 
ATOM     52  C   UNL A   1      42.728  25.217  28.521  1.00  0.00     0.037 A 
ATOM     53  C   UNL A   1      44.185  30.064  32.641  1.00  0.00     0.049 A 
ATOM     54  C   UNL A   1      43.939  25.534  29.360  1.00  0.00     0.074 A 
ATOM     55  C   UNL A   1      45.318  30.205  33.423  1.00  0.00     0.029 A 
ATOM     56  N   UNL A   1      44.348  28.898  31.907  1.00  0.00    -0.354 N 
ATOM     57  N   UNL A   1      44.137  26.533  30.185  1.00  0.00    -0.248 NA
ATOM     58  C   UNL A   1      45.075  24.606  29.260  1.00  0.00     0.031 C 
ATOM     59  C   UNL A   1      46.188  29.152  33.125  1.00  0.00     0.029 A 
ATOM     60  C   UNL A   1      45.572  28.321  32.203  1.00  0.00     0.049 A 
ATOM     61  H   UNL A   1      43.691  28.533  31.272  1.00  0.00     0.167 HD
ATOM     62  C   UNL A   1      45.398  26.334  30.730  1.00  0.00     0.074 A 
ATOM     63  C   UNL A   1      45.918  25.115  30.148  1.00  0.00     0.031 C 
ATOM     64  C   UNL A   1      46.067  27.095  31.632  1.00  0.00     0.037 A 
BRANCH  51  65
ATOM     65  C   UNL A   1      43.034  32.184  33.384  1.00  0.00     0.064 A 
ATOM     66  C   UNL A   1      43.544  33.394  32.882  1.00  0.00     0.173 A 
ATOM     67  C   UNL A   1      42.484  32.193  34.674  1.00  0.00     0.173 A 
ATOM     68  F   UNL A   1      44.091  33.440  31.658  1.00  0.00    -0.203 F 
ATOM     69  C   UNL A   1      43.532  34.552  33.655  1.00  0.00     0.198 A 
ATOM     70  C   UNL A   1      42.443  33.362  35.431  1.00  0.00     0.198 A 
ATOM     71  F   UNL A   1      41.975  31.068  35.201  1.00  0.00    -0.203 F 
ATOM     72  F   UNL A   1      44.074  35.681  33.175  1.00  0.00    -0.200 F 
ATOM     73  C   UNL A   1      42.975  34.537  34.924  1.00  0.00     0.200 A 
ATOM     74  F   UNL A   1      41.889  33.349  36.651  1.00  0.00    -0.200 F 
ATOM     75  F   UNL A   1      42.957  35.656  35.663  1.00  0.00    -0.200 F 
ENDBRANCH  51  65
BRANCH  52  76
ATOM     76  C   UNL A   1      42.702  24.008  27.654  1.00  0.00     0.064 A 
ATOM     77  C   UNL A   1      42.364  22.753  28.180  1.00  0.00     0.173 A 
ATOM     78  C   UNL A   1      43.031  24.076  26.293  1.00  0.00     0.173 A 
ATOM     79  F   UNL A   1      42.062  22.632  29.482  1.00  0.00    -0.203 F 
ATOM     80  C   UNL A   1      42.380  21.609  27.385  1.00  0.00     0.198 A 
ATOM     81  C   UNL A   1      43.016  22.936  25.490  1.00  0.00     0.198 A 
ATOM     82  F   UNL A   1      43.357  25.252  25.738  1.00  0.00    -0.203 F 
ATOM     83  F   UNL A   1      42.105  20.415  27.927  1.00  0.00    -0.200 F 
ATOM     84  C   UNL A   1      42.701  21.703  26.040  1.00  0.00     0.200 A 
ATOM     85  F   UNL A   1      43.312  23.034  24.187  1.00  0.00    -0.200 F 
ATOM     86  F   UNL A   1      42.715  20.603  25.274  1.00  0.00    -0.200 F 
ENDBRANCH  52  76
BRANCH  64  87
ATOM     87  C   UNL A   1      47.410  26.605  32.093  1.00  0.00     0.064 A 
ATOM     88  C   UNL A   1      47.543  25.705  33.160  1.00  0.00     0.173 A 
ATOM     89  C   UNL A   1      48.576  27.001  31.419  1.00  0.00     0.173 A 
ATOM     90  F   UNL A   1      46.462  25.307  33.847  1.00  0.00    -0.203 F 
ATOM     91  C   UNL A   1      48.796  25.234  33.546  1.00  0.00     0.198 A 
ATOM     92  C   UNL A   1      49.822  26.505  31.787  1.00  0.00     0.198 A 
ATOM     93  F   UNL A   1      48.502  27.856  30.387  1.00  0.00    -0.203 F 
ATOM     94  F   UNL A   1      48.904  24.409  34.597  1.00  0.00    -0.200 F 
ATOM     95  C   UNL A   1      49.932  25.627  32.853  1.00  0.00     0.200 A 
ATOM     96  F   UNL A   1      50.916  26.872  31.106  1.00  0.00    -0.200 F 
ATOM     97  F   UNL A   1      51.135  25.162  33.220  1.00  0.00    -0.200 F 
ENDBRANCH  64  87
ENDBRANCH  38  39
ENDBRANCH  30  33
ENDBRANCH  28  29
ENDBRANCH  27  28
ENDBRANCH   1  27
TORSDOF 15
ENDMDL
