MODEL 1
REMARK VINA RESULT:     -12.8      0.000      0.000
REMARK SMILES CCOC(=O)c1c(NC(=O)/C=C/C(=O)NCCCNC(=O)c2ccc(-c3c4nc(c(-c5c(F)c(F)c(F)c(F)c5F)c5ccc([nH]5)c(-c5c(F)c(F)c(F)c(F)c5F)c5nc(c(-c6c(F)c(F)c(F)c(F)c6F)c6ccc3[nH]6)C=C5)C=C4)cc2)sc(C)c1-c1ccc(C)c(C)c1
REMARK SMILES IDX 13 1 14 2 15 3 12 5 11 6 9 7 8 8 10 10 7 11 6 12 88 13 85 14
REMARK SMILES IDX 86 15 87 16 4 17 5 18 3 19 2 20 1 21 89 22 90 23 96 24 91 25
REMARK SMILES IDX 94 26 92 27 95 28 93 29 16 30 17 31 18 32 19 33 20 34 21 36
REMARK SMILES IDX 22 37 23 38 84 39 24 40 83 41 25 42 26 43 27 44 77 45 28 46
REMARK SMILES IDX 82 47 76 48 78 49 29 50 81 51 75 52 74 53 30 55 62 56 42 57
REMARK SMILES IDX 61 58 43 59 46 60 60 61 79 62 44 63 45 64 59 66 80 67 47 68
REMARK SMILES IDX 31 69 32 70 40 71 33 72 34 73 38 74 41 75 35 76 36 77 39 78
REMARK SMILES IDX 37 79 63 80 64 81 72 82 65 83 66 84 70 85 73 86 67 87 68 88
REMARK SMILES IDX 71 89 69 90 48 91 49 92 57 93 50 94 51 95 55 96 58 97 52 98
REMARK SMILES IDX 53 99 56 100 54 101
REMARK H PARENT 15 4 8 9 19 35 78 54 46 65
REMARK Flexibility Score: inf
ROOT
ATOM      1  C   UNL A   1      33.306  29.397  25.867  1.00  0.00     0.244 C 
ATOM      2  O   UNL A   1      34.148  28.764  26.494  1.00  0.00    -0.270 OA
ATOM      3  N   UNL A   1      32.683  30.466  26.432  1.00  0.00    -0.352 N 
ATOM      4  H   UNL A   1      33.155  30.905  27.175  1.00  0.00     0.163 HD
ENDROOT
BRANCH   1   5
ATOM      5  C   UNL A   1      32.954  29.010  24.488  1.00  0.00     0.077 C 
ATOM      6  C   UNL A   1      32.676  27.717  24.262  1.00  0.00     0.077 C 
BRANCH   6   7
ATOM      7  C   UNL A   1      32.003  27.296  23.031  1.00  0.00     0.249 C 
ATOM      8  N   UNL A   1      31.691  25.984  22.816  1.00  0.00    -0.313 N 
ATOM      9  H   UNL A   1      31.350  25.799  21.912  1.00  0.00     0.171 HD
ATOM     10  O   UNL A   1      31.759  28.145  22.175  1.00  0.00    -0.270 OA
BRANCH   8  11
ATOM     11  C   UNL A   1      31.761  24.857  23.628  1.00  0.00     0.111 A 
ATOM     12  C   UNL A   1      32.519  23.720  23.392  1.00  0.00     0.102 A 
ATOM     13  C   UNL A   1      32.121  22.642  24.281  1.00  0.00     0.012 A 
ATOM     14  S   UNL A   1      30.932  24.730  25.094  1.00  0.00    -0.122 S 
ATOM     15  C   UNL A   1      31.175  23.054  25.204  1.00  0.00     0.012 A 
ATOM     16  C   UNL A   1      30.411  22.308  26.252  1.00  0.00     0.057 C 
BRANCH  12  17
ATOM     17  C   UNL A   1      33.536  23.689  22.346  1.00  0.00     0.341 C 
ATOM     18  O   UNL A   1      33.338  23.151  21.266  1.00  0.00    -0.246 OA
BRANCH  17  19
ATOM     19  O   UNL A   1      34.704  24.294  22.700  1.00  0.00    -0.462 OA
BRANCH  19  20
ATOM     20  C   UNL A   1      35.382  23.736  23.834  1.00  0.00     0.230 C 
ATOM     21  C   UNL A   1      36.658  22.999  23.461  1.00  0.00     0.049 C 
ENDBRANCH  19  20
ENDBRANCH  17  19
ENDBRANCH  12  17
BRANCH  13  22
ATOM     22  C   UNL A   1      32.654  21.290  24.309  1.00  0.00    -0.016 A 
ATOM     23  C   UNL A   1      33.575  20.938  25.293  1.00  0.00     0.009 A 
ATOM     24  C   UNL A   1      32.253  20.342  23.360  1.00  0.00     0.012 A 
ATOM     25  C   UNL A   1      34.104  19.651  25.319  1.00  0.00     0.004 A 
ATOM     26  C   UNL A   1      32.764  19.034  23.388  1.00  0.00    -0.048 A 
ATOM     27  C   UNL A   1      33.707  18.687  24.376  1.00  0.00    -0.048 A 
ATOM     28  C   UNL A   1      32.283  18.046  22.361  1.00  0.00     0.044 C 
ATOM     29  C   UNL A   1      34.348  17.330  24.462  1.00  0.00     0.044 C 
ENDBRANCH  13  22
ENDBRANCH   8  11
ENDBRANCH   6   7
ENDBRANCH   1   5
BRANCH   3  30
ATOM     30  C   UNL A   1      31.399  31.034  26.060  1.00  0.00     0.118 C 
BRANCH  30  31
ATOM     31  C   UNL A   1      31.262  32.449  26.607  1.00  0.00     0.042 C 
BRANCH  31  32
ATOM     32  C   UNL A   1      32.527  32.921  27.314  1.00  0.00     0.118 C 
BRANCH  32  33
ATOM     33  N   UNL A   1      32.456  34.338  27.649  1.00  0.00    -0.352 N 
ATOM     34  C   UNL A   1      33.056  35.023  28.674  1.00  0.00     0.251 C 
ATOM     35  H   UNL A   1      31.892  34.883  27.054  1.00  0.00     0.163 HD
ATOM     36  O   UNL A   1      32.641  36.131  28.999  1.00  0.00    -0.269 OA
BRANCH  34  37
ATOM     37  C   UNL A   1      34.204  34.425  29.382  1.00  0.00     0.039 A 
ATOM     38  C   UNL A   1      33.980  33.678  30.540  1.00  0.00     0.014 A 
ATOM     39  C   UNL A   1      35.506  34.639  28.923  1.00  0.00     0.014 A 
ATOM     40  C   UNL A   1      35.061  33.101  31.207  1.00  0.00     0.010 A 
ATOM     41  C   UNL A   1      36.571  33.988  29.532  1.00  0.00     0.010 A 
ATOM     42  C   UNL A   1      36.362  33.228  30.691  1.00  0.00    -0.014 A 
BRANCH  42  43
ATOM     43  C   UNL A   1      37.524  32.594  31.357  1.00  0.00     0.031 A 
ATOM     44  C   UNL A   1      38.227  31.439  30.699  1.00  0.00     0.074 A 
ATOM     45  C   UNL A   1      37.897  33.010  32.583  1.00  0.00     0.049 A 
ATOM     46  N   UNL A   1      39.203  30.695  31.154  1.00  0.00    -0.248 NA
ATOM     47  C   UNL A   1      37.745  31.046  29.365  1.00  0.00     0.031 C 
ATOM     48  C   UNL A   1      37.254  34.085  33.342  1.00  0.00     0.029 A 
ATOM     49  N   UNL A   1      38.897  32.571  33.412  1.00  0.00    -0.354 N 
ATOM     50  C   UNL A   1      39.437  29.740  30.172  1.00  0.00     0.074 A 
ATOM     51  C   UNL A   1      38.464  29.959  29.125  1.00  0.00     0.031 C 
ATOM     52  C   UNL A   1      37.892  34.237  34.514  1.00  0.00     0.029 A 
ATOM     53  C   UNL A   1      38.958  33.246  34.605  1.00  0.00     0.049 A 
ATOM     54  H   UNL A   1      39.512  31.840  33.172  1.00  0.00     0.167 HD
ATOM     55  C   UNL A   1      40.395  28.784  30.137  1.00  0.00     0.037 A 
ATOM     56  C   UNL A   1      39.780  33.076  35.658  1.00  0.00     0.037 A 
ATOM     57  C   UNL A   1      41.379  28.593  31.169  1.00  0.00     0.049 A 
ATOM     58  C   UNL A   1      40.837  32.007  35.593  1.00  0.00     0.074 A 
ATOM     59  C   UNL A   1      42.435  27.700  31.202  1.00  0.00     0.029 A 
ATOM     60  N   UNL A   1      41.425  29.313  32.355  1.00  0.00    -0.354 N 
ATOM     61  N   UNL A   1      41.097  31.157  34.629  1.00  0.00    -0.248 NA
ATOM     62  C   UNL A   1      41.718  31.875  36.761  1.00  0.00     0.031 C 
ATOM     63  C   UNL A   1      43.092  27.847  32.428  1.00  0.00     0.029 A 
ATOM     64  C   UNL A   1      42.477  28.866  33.137  1.00  0.00     0.049 A 
ATOM     65  H   UNL A   1      40.802  30.033  32.604  1.00  0.00     0.167 HD
ATOM     66  C   UNL A   1      42.184  30.410  35.060  1.00  0.00     0.074 A 
ATOM     67  C   UNL A   1      42.547  30.920  36.366  1.00  0.00     0.031 C 
ATOM     68  C   UNL A   1      42.823  29.392  34.433  1.00  0.00     0.037 A 
BRANCH  55  69
ATOM     69  C   UNL A   1      40.429  27.877  28.941  1.00  0.00     0.064 A 
ATOM     70  C   UNL A   1      41.208  28.174  27.812  1.00  0.00     0.173 A 
ATOM     71  C   UNL A   1      39.703  26.676  28.935  1.00  0.00     0.173 A 
ATOM     72  F   UNL A   1      41.914  29.315  27.760  1.00  0.00    -0.203 F 
ATOM     73  C   UNL A   1      41.235  27.321  26.712  1.00  0.00     0.198 A 
ATOM     74  C   UNL A   1      39.756  25.809  27.846  1.00  0.00     0.198 A 
ATOM     75  F   UNL A   1      38.946  26.338  29.990  1.00  0.00    -0.203 F 
ATOM     76  F   UNL A   1      41.946  27.654  25.626  1.00  0.00    -0.200 F 
ATOM     77  C   UNL A   1      40.515  26.137  26.733  1.00  0.00     0.200 A 
ATOM     78  F   UNL A   1      39.071  24.658  27.873  1.00  0.00    -0.200 F 
ATOM     79  F   UNL A   1      40.548  25.312  25.677  1.00  0.00    -0.200 F 
ENDBRANCH  55  69
BRANCH  56  80
ATOM     80  C   UNL A   1      39.652  33.953  36.851  1.00  0.00     0.064 A 
ATOM     81  C   UNL A   1      40.313  35.187  36.910  1.00  0.00     0.173 A 
ATOM     82  C   UNL A   1      38.872  33.577  37.955  1.00  0.00     0.173 A 
ATOM     83  F   UNL A   1      41.086  35.582  35.887  1.00  0.00    -0.203 F 
ATOM     84  C   UNL A   1      40.219  36.003  38.036  1.00  0.00     0.198 A 
ATOM     85  C   UNL A   1      38.755  34.407  39.069  1.00  0.00     0.198 A 
ATOM     86  F   UNL A   1      38.215  32.409  37.948  1.00  0.00    -0.203 F 
ATOM     87  F   UNL A   1      40.900  37.155  38.084  1.00  0.00    -0.200 F 
ATOM     88  C   UNL A   1      39.435  35.615  39.111  1.00  0.00     0.200 A 
ATOM     89  F   UNL A   1      37.985  34.035  40.101  1.00  0.00    -0.200 F 
ATOM     90  F   UNL A   1      39.342  36.400  40.193  1.00  0.00    -0.200 F 
ENDBRANCH  56  80
BRANCH  68  91
ATOM     91  C   UNL A   1      43.997  28.780  35.141  1.00  0.00     0.064 A 
ATOM     92  C   UNL A   1      43.847  27.682  36.000  1.00  0.00     0.173 A 
ATOM     93  C   UNL A   1      45.293  29.275  34.925  1.00  0.00     0.173 A 
ATOM     94  F   UNL A   1      42.628  27.183  36.251  1.00  0.00    -0.203 F 
ATOM     95  C   UNL A   1      44.949  27.116  36.635  1.00  0.00     0.198 A 
ATOM     96  C   UNL A   1      46.396  28.687  35.537  1.00  0.00     0.198 A 
ATOM     97  F   UNL A   1      45.490  30.320  34.107  1.00  0.00    -0.203 F 
ATOM     98  F   UNL A   1      44.777  26.098  37.489  1.00  0.00    -0.200 F 
ATOM     99  C   UNL A   1      46.222  27.613  36.397  1.00  0.00     0.200 A 
ATOM    100  F   UNL A   1      47.626  29.158  35.294  1.00  0.00    -0.200 F 
ATOM    101  F   UNL A   1      47.282  27.061  37.003  1.00  0.00    -0.200 F 
ENDBRANCH  68  91
ENDBRANCH  42  43
ENDBRANCH  34  37
ENDBRANCH  32  33
ENDBRANCH  31  32
ENDBRANCH  30  31
ENDBRANCH   3  30
TORSDOF 16
ENDMDL
MODEL 2
REMARK VINA RESULT:     -12.8      5.541     11.108
REMARK SMILES CCOC(=O)c1c(NC(=O)/C=C/C(=O)NCCCNC(=O)c2ccc(-c3c4nc(c(-c5c(F)c(F)c(F)c(F)c5F)c5ccc([nH]5)c(-c5c(F)c(F)c(F)c(F)c5F)c5nc(c(-c6c(F)c(F)c(F)c(F)c6F)c6ccc3[nH]6)C=C5)C=C4)cc2)sc(C)c1-c1ccc(C)c(C)c1
REMARK SMILES IDX 13 1 14 2 15 3 12 5 11 6 9 7 8 8 10 10 7 11 6 12 88 13 85 14
REMARK SMILES IDX 86 15 87 16 4 17 5 18 3 19 2 20 1 21 89 22 90 23 96 24 91 25
REMARK SMILES IDX 94 26 92 27 95 28 93 29 16 30 17 31 18 32 19 33 20 34 21 36
REMARK SMILES IDX 22 37 23 38 84 39 24 40 83 41 25 42 26 43 27 44 77 45 28 46
REMARK SMILES IDX 82 47 76 48 78 49 29 50 81 51 75 52 74 53 30 55 62 56 42 57
REMARK SMILES IDX 61 58 43 59 46 60 60 61 79 62 44 63 45 64 59 66 80 67 47 68
REMARK SMILES IDX 31 69 32 70 40 71 33 72 34 73 38 74 41 75 35 76 36 77 39 78
REMARK SMILES IDX 37 79 63 80 64 81 72 82 65 83 66 84 70 85 73 86 67 87 68 88
REMARK SMILES IDX 71 89 69 90 48 91 49 92 57 93 50 94 51 95 55 96 58 97 52 98
REMARK SMILES IDX 53 99 56 100 54 101
REMARK H PARENT 15 4 8 9 19 35 78 54 46 65
REMARK Flexibility Score: inf
ROOT
ATOM      1  C   UNL A   1      36.778  22.582  25.763  1.00  0.00     0.244 C 
ATOM      2  O   UNL A   1      37.070  23.754  25.976  1.00  0.00    -0.270 OA
ATOM      3  N   UNL A   1      37.680  21.736  25.198  1.00  0.00    -0.352 N 
ATOM      4  H   UNL A   1      38.628  21.983  25.291  1.00  0.00     0.163 HD
ENDROOT
BRANCH   1   5
ATOM      5  C   UNL A   1      35.440  22.069  26.116  1.00  0.00     0.077 C 
ATOM      6  C   UNL A   1      34.379  22.790  25.723  1.00  0.00     0.077 C 
BRANCH   6   7
ATOM      7  C   UNL A   1      33.033  22.212  25.727  1.00  0.00     0.249 C 
ATOM      8  N   UNL A   1      31.985  22.872  25.151  1.00  0.00    -0.313 N 
ATOM      9  H   UNL A   1      31.111  22.449  25.315  1.00  0.00     0.171 HD
ATOM     10  O   UNL A   1      32.859  21.135  26.295  1.00  0.00    -0.270 OA
BRANCH   8  11
ATOM     11  C   UNL A   1      31.912  24.024  24.378  1.00  0.00     0.111 A 
ATOM     12  C   UNL A   1      31.267  25.204  24.719  1.00  0.00     0.102 A 
ATOM     13  C   UNL A   1      31.143  26.076  23.564  1.00  0.00     0.012 A 
ATOM     14  S   UNL A   1      32.665  24.168  22.872  1.00  0.00    -0.122 S 
ATOM     15  C   UNL A   1      31.793  25.562  22.454  1.00  0.00     0.012 A 
ATOM     16  C   UNL A   1      31.879  26.038  21.039  1.00  0.00     0.057 C 
BRANCH  12  17
ATOM     17  C   UNL A   1      30.782  25.439  26.075  1.00  0.00     0.341 C 
ATOM     18  O   UNL A   1      29.598  25.341  26.364  1.00  0.00    -0.246 OA
BRANCH  17  19
ATOM     19  O   UNL A   1      31.761  25.785  26.955  1.00  0.00    -0.462 OA
BRANCH  19  20
ATOM     20  C   UNL A   1      32.346  27.081  26.767  1.00  0.00     0.230 C 
ATOM     21  C   UNL A   1      31.603  28.182  27.505  1.00  0.00     0.049 C 
ENDBRANCH  19  20
ENDBRANCH  17  19
ENDBRANCH  12  17
BRANCH  13  22
ATOM     22  C   UNL A   1      30.493  27.376  23.515  1.00  0.00    -0.016 A 
ATOM     23  C   UNL A   1      31.261  28.530  23.664  1.00  0.00     0.009 A 
ATOM     24  C   UNL A   1      29.111  27.479  23.323  1.00  0.00     0.012 A 
ATOM     25  C   UNL A   1      30.647  29.778  23.635  1.00  0.00     0.004 A 
ATOM     26  C   UNL A   1      28.483  28.735  23.271  1.00  0.00    -0.048 A 
ATOM     27  C   UNL A   1      29.260  29.898  23.438  1.00  0.00    -0.048 A 
ATOM     28  C   UNL A   1      26.998  28.793  23.038  1.00  0.00     0.044 C 
ATOM     29  C   UNL A   1      28.678  31.284  23.447  1.00  0.00     0.044 C 
ENDBRANCH  13  22
ENDBRANCH   8  11
ENDBRANCH   6   7
ENDBRANCH   1   5
BRANCH   3  30
ATOM     30  C   UNL A   1      37.402  20.508  24.474  1.00  0.00     0.118 C 
BRANCH  30  31
ATOM     31  C   UNL A   1      38.316  19.387  24.952  1.00  0.00     0.042 C 
BRANCH  31  32
ATOM     32  C   UNL A   1      39.374  19.881  25.932  1.00  0.00     0.118 C 
BRANCH  32  33
ATOM     33  N   UNL A   1      40.476  18.936  26.052  1.00  0.00    -0.352 N 
ATOM     34  C   UNL A   1      41.826  19.170  26.087  1.00  0.00     0.251 C 
ATOM     35  H   UNL A   1      40.213  17.989  26.116  1.00  0.00     0.163 HD
ATOM     36  O   UNL A   1      42.615  18.255  25.870  1.00  0.00    -0.269 OA
BRANCH  34  37
ATOM     37  C   UNL A   1      42.328  20.524  26.390  1.00  0.00     0.039 A 
ATOM     38  C   UNL A   1      42.726  21.356  25.343  1.00  0.00     0.014 A 
ATOM     39  C   UNL A   1      42.444  20.954  27.715  1.00  0.00     0.014 A 
ATOM     40  C   UNL A   1      43.190  22.642  25.622  1.00  0.00     0.010 A 
ATOM     41  C   UNL A   1      42.817  22.265  27.987  1.00  0.00     0.010 A 
ATOM     42  C   UNL A   1      43.211  23.115  26.945  1.00  0.00    -0.014 A 
BRANCH  42  43
ATOM     43  C   UNL A   1      43.664  24.489  27.269  1.00  0.00     0.031 A 
ATOM     44  C   UNL A   1      42.676  25.503  27.777  1.00  0.00     0.074 A 
ATOM     45  C   UNL A   1      44.942  24.840  27.036  1.00  0.00     0.049 A 
ATOM     46  N   UNL A   1      42.851  26.774  28.034  1.00  0.00    -0.248 NA
ATOM     47  C   UNL A   1      41.298  25.032  27.993  1.00  0.00     0.031 C 
ATOM     48  C   UNL A   1      45.976  23.957  26.493  1.00  0.00     0.029 A 
ATOM     49  N   UNL A   1      45.588  26.038  27.212  1.00  0.00    -0.354 N 
ATOM     50  C   UNL A   1      41.607  27.255  28.422  1.00  0.00     0.074 A 
ATOM     51  C   UNL A   1      40.673  26.157  28.310  1.00  0.00     0.031 C 
ATOM     52  C   UNL A   1      47.132  24.635  26.404  1.00  0.00     0.029 A 
ATOM     53  C   UNL A   1      46.910  26.009  26.843  1.00  0.00     0.049 A 
ATOM     54  H   UNL A   1      45.145  26.841  27.569  1.00  0.00     0.167 HD
ATOM     55  C   UNL A   1      41.279  28.494  28.858  1.00  0.00     0.037 A 
ATOM     56  C   UNL A   1      47.836  26.986  26.851  1.00  0.00     0.037 A 
ATOM     57  C   UNL A   1      42.222  29.573  28.996  1.00  0.00     0.049 A 
ATOM     58  C   UNL A   1      47.447  28.354  27.342  1.00  0.00     0.074 A 
ATOM     59  C   UNL A   1      42.011  30.847  29.492  1.00  0.00     0.029 A 
ATOM     60  N   UNL A   1      43.560  29.499  28.634  1.00  0.00    -0.354 N 
ATOM     61  N   UNL A   1      46.285  28.779  27.776  1.00  0.00    -0.248 NA
ATOM     62  C   UNL A   1      48.499  29.379  27.347  1.00  0.00     0.031 C 
ATOM     63  C   UNL A   1      43.210  31.560  29.386  1.00  0.00     0.029 A 
ATOM     64  C   UNL A   1      44.181  30.715  28.873  1.00  0.00     0.049 A 
ATOM     65  H   UNL A   1      44.003  28.703  28.262  1.00  0.00     0.167 HD
ATOM     66  C   UNL A   1      46.471  30.107  28.130  1.00  0.00     0.074 A 
ATOM     67  C   UNL A   1      47.864  30.414  27.877  1.00  0.00     0.031 C 
ATOM     68  C   UNL A   1      45.570  30.996  28.618  1.00  0.00     0.037 A 
BRANCH  55  69
ATOM     69  C   UNL A   1      39.846  28.748  29.224  1.00  0.00     0.064 A 
ATOM     70  C   UNL A   1      39.378  28.574  30.535  1.00  0.00     0.173 A 
ATOM     71  C   UNL A   1      38.934  29.205  28.260  1.00  0.00     0.173 A 
ATOM     72  F   UNL A   1      40.205  28.128  31.493  1.00  0.00    -0.203 F 
ATOM     73  C   UNL A   1      38.046  28.818  30.862  1.00  0.00     0.198 A 
ATOM     74  C   UNL A   1      37.610  29.478  28.596  1.00  0.00     0.198 A 
ATOM     75  F   UNL A   1      39.328  29.395  26.991  1.00  0.00    -0.203 F 
ATOM     76  F   UNL A   1      37.613  28.594  32.109  1.00  0.00    -0.200 F 
ATOM     77  C   UNL A   1      37.166  29.276  29.894  1.00  0.00     0.200 A 
ATOM     78  F   UNL A   1      36.763  29.936  27.663  1.00  0.00    -0.200 F 
ATOM     79  F   UNL A   1      35.886  29.519  30.211  1.00  0.00    -0.200 F 
ENDBRANCH  55  69
BRANCH  56  80
ATOM     80  C   UNL A   1      49.224  26.700  26.405  1.00  0.00     0.064 A 
ATOM     81  C   UNL A   1      50.194  26.256  27.313  1.00  0.00     0.173 A 
ATOM     82  C   UNL A   1      49.611  26.866  25.067  1.00  0.00     0.173 A 
ATOM     83  F   UNL A   1      49.878  26.099  28.608  1.00  0.00    -0.203 F 
ATOM     84  C   UNL A   1      51.505  26.010  26.907  1.00  0.00     0.198 A 
ATOM     85  C   UNL A   1      50.915  26.593  24.655  1.00  0.00     0.198 A 
ATOM     86  F   UNL A   1      48.721  27.284  24.156  1.00  0.00    -0.203 F 
ATOM     87  F   UNL A   1      52.423  25.633  27.806  1.00  0.00    -0.200 F 
ATOM     88  C   UNL A   1      51.861  26.173  25.577  1.00  0.00     0.200 A 
ATOM     89  F   UNL A   1      51.252  26.737  23.367  1.00  0.00    -0.200 F 
ATOM     90  F   UNL A   1      53.121  25.935  25.186  1.00  0.00    -0.200 F 
ENDBRANCH  56  80
BRANCH  68  91
ATOM     91  C   UNL A   1      46.071  32.375  28.936  1.00  0.00     0.064 A 
ATOM     92  C   UNL A   1      46.617  32.689  30.189  1.00  0.00     0.173 A 
ATOM     93  C   UNL A   1      46.040  33.383  27.960  1.00  0.00     0.173 A 
ATOM     94  F   UNL A   1      46.654  31.763  31.159  1.00  0.00    -0.203 F 
ATOM     95  C   UNL A   1      47.093  33.968  30.460  1.00  0.00     0.198 A 
ATOM     96  C   UNL A   1      46.546  34.652  28.225  1.00  0.00     0.198 A 
ATOM     97  F   UNL A   1      45.534  33.132  26.743  1.00  0.00    -0.203 F 
ATOM     98  F   UNL A   1      47.566  34.259  31.680  1.00  0.00    -0.200 F 
ATOM     99  C   UNL A   1      47.065  34.946  29.477  1.00  0.00     0.200 A 
ATOM    100  F   UNL A   1      46.532  35.591  27.269  1.00  0.00    -0.200 F 
ATOM    101  F   UNL A   1      47.531  36.175  29.739  1.00  0.00    -0.200 F 
ENDBRANCH  68  91
ENDBRANCH  42  43
ENDBRANCH  34  37
ENDBRANCH  32  33
ENDBRANCH  31  32
ENDBRANCH  30  31
ENDBRANCH   3  30
TORSDOF 16
ENDMDL
MODEL 3
REMARK VINA RESULT:     -12.6      0.632      7.233
REMARK SMILES CCOC(=O)c1c(NC(=O)/C=C/C(=O)NCCCNC(=O)c2ccc(-c3c4nc(c(-c5c(F)c(F)c(F)c(F)c5F)c5ccc([nH]5)c(-c5c(F)c(F)c(F)c(F)c5F)c5nc(c(-c6c(F)c(F)c(F)c(F)c6F)c6ccc3[nH]6)C=C5)C=C4)cc2)sc(C)c1-c1ccc(C)c(C)c1
REMARK SMILES IDX 13 1 14 2 15 3 12 5 11 6 9 7 8 8 10 10 7 11 6 12 88 13 85 14
REMARK SMILES IDX 86 15 87 16 4 17 5 18 3 19 2 20 1 21 89 22 90 23 96 24 91 25
REMARK SMILES IDX 94 26 92 27 95 28 93 29 16 30 17 31 18 32 19 33 20 34 21 36
REMARK SMILES IDX 22 37 23 38 84 39 24 40 83 41 25 42 26 43 27 44 77 45 28 46
REMARK SMILES IDX 82 47 76 48 78 49 29 50 81 51 75 52 74 53 30 55 62 56 42 57
REMARK SMILES IDX 61 58 43 59 46 60 60 61 79 62 44 63 45 64 59 66 80 67 47 68
REMARK SMILES IDX 31 69 32 70 40 71 33 72 34 73 38 74 41 75 35 76 36 77 39 78
REMARK SMILES IDX 37 79 63 80 64 81 72 82 65 83 66 84 70 85 73 86 67 87 68 88
REMARK SMILES IDX 71 89 69 90 48 91 49 92 57 93 50 94 51 95 55 96 58 97 52 98
REMARK SMILES IDX 53 99 56 100 54 101
REMARK H PARENT 15 4 8 9 19 35 78 54 46 65
REMARK Flexibility Score: inf
ROOT
ATOM      1  C   UNL A   1      33.309  29.404  26.412  1.00  0.00     0.244 C 
ATOM      2  O   UNL A   1      34.085  28.767  27.117  1.00  0.00    -0.270 OA
ATOM      3  N   UNL A   1      32.630  30.468  26.918  1.00  0.00    -0.352 N 
ATOM      4  H   UNL A   1      33.024  30.902  27.708  1.00  0.00     0.163 HD
ENDROOT
BRANCH   1   5
ATOM      5  C   UNL A   1      33.098  29.026  25.001  1.00  0.00     0.077 C 
ATOM      6  C   UNL A   1      32.625  27.795  24.757  1.00  0.00     0.077 C 
BRANCH   6   7
ATOM      7  C   UNL A   1      32.074  27.447  23.445  1.00  0.00     0.249 C 
ATOM      8  N   UNL A   1      31.819  26.147  23.114  1.00  0.00    -0.313 N 
ATOM      9  H   UNL A   1      31.563  26.019  22.172  1.00  0.00     0.171 HD
ATOM     10  O   UNL A   1      31.881  28.349  22.631  1.00  0.00    -0.270 OA
BRANCH   8  11
ATOM     11  C   UNL A   1      31.849  24.967  23.849  1.00  0.00     0.111 A 
ATOM     12  C   UNL A   1      32.585  23.831  23.550  1.00  0.00     0.102 A 
ATOM     13  C   UNL A   1      32.148  22.706  24.358  1.00  0.00     0.012 A 
ATOM     14  S   UNL A   1      30.990  24.762  25.290  1.00  0.00    -0.122 S 
ATOM     15  C   UNL A   1      31.194  23.077  25.292  1.00  0.00     0.012 A 
ATOM     16  C   UNL A   1      30.395  22.282  26.274  1.00  0.00     0.057 C 
BRANCH  12  17
ATOM     17  C   UNL A   1      33.621  23.846  22.522  1.00  0.00     0.341 C 
ATOM     18  O   UNL A   1      33.454  23.324  21.429  1.00  0.00    -0.246 OA
BRANCH  17  19
ATOM     19  O   UNL A   1      34.767  24.472  22.907  1.00  0.00    -0.462 OA
BRANCH  19  20
ATOM     20  C   UNL A   1      35.496  23.849  23.974  1.00  0.00     0.230 C 
ATOM     21  C   UNL A   1      36.350  22.682  23.508  1.00  0.00     0.049 C 
ENDBRANCH  19  20
ENDBRANCH  17  19
ENDBRANCH  12  17
BRANCH  13  22
ATOM     22  C   UNL A   1      32.649  21.343  24.305  1.00  0.00    -0.016 A 
ATOM     23  C   UNL A   1      33.576  20.917  25.255  1.00  0.00     0.009 A 
ATOM     24  C   UNL A   1      32.215  20.458  23.311  1.00  0.00     0.012 A 
ATOM     25  C   UNL A   1      34.075  19.619  25.202  1.00  0.00     0.004 A 
ATOM     26  C   UNL A   1      32.696  19.138  23.261  1.00  0.00    -0.048 A 
ATOM     27  C   UNL A   1      33.644  18.718  24.214  1.00  0.00    -0.048 A 
ATOM     28  C   UNL A   1      32.179  18.220  22.188  1.00  0.00     0.044 C 
ATOM     29  C   UNL A   1      34.255  17.344  24.216  1.00  0.00     0.044 C 
ENDBRANCH  13  22
ENDBRANCH   8  11
ENDBRANCH   6   7
ENDBRANCH   1   5
BRANCH   3  30
ATOM     30  C   UNL A   1      31.389  31.037  26.422  1.00  0.00     0.118 C 
BRANCH  30  31
ATOM     31  C   UNL A   1      31.373  32.546  26.627  1.00  0.00     0.042 C 
BRANCH  31  32
ATOM     32  C   UNL A   1      32.721  33.081  27.096  1.00  0.00     0.118 C 
BRANCH  32  33
ATOM     33  N   UNL A   1      32.594  34.400  27.700  1.00  0.00    -0.352 N 
ATOM     34  C   UNL A   1      33.134  34.883  28.864  1.00  0.00     0.251 C 
ATOM     35  H   UNL A   1      32.036  35.039  27.200  1.00  0.00     0.163 HD
ATOM     36  O   UNL A   1      32.673  35.896  29.382  1.00  0.00    -0.269 OA
BRANCH  34  37
ATOM     37  C   UNL A   1      34.273  34.185  29.489  1.00  0.00     0.039 A 
ATOM     38  C   UNL A   1      34.032  33.250  30.497  1.00  0.00     0.014 A 
ATOM     39  C   UNL A   1      35.583  34.485  29.105  1.00  0.00     0.014 A 
ATOM     40  C   UNL A   1      35.105  32.577  31.084  1.00  0.00     0.010 A 
ATOM     41  C   UNL A   1      36.642  33.749  29.621  1.00  0.00     0.010 A 
ATOM     42  C   UNL A   1      36.416  32.802  30.629  1.00  0.00    -0.014 A 
BRANCH  42  43
ATOM     43  C   UNL A   1      37.571  32.074  31.207  1.00  0.00     0.031 A 
ATOM     44  C   UNL A   1      38.070  32.433  32.579  1.00  0.00     0.074 A 
ATOM     45  C   UNL A   1      38.210  31.148  30.468  1.00  0.00     0.049 A 
ATOM     46  N   UNL A   1      39.114  31.978  33.225  1.00  0.00    -0.248 NA
ATOM     47  C   UNL A   1      37.315  33.463  33.310  1.00  0.00     0.031 C 
ATOM     48  C   UNL A   1      37.848  30.758  29.104  1.00  0.00     0.029 A 
ATOM     49  N   UNL A   1      39.307  30.376  30.754  1.00  0.00    -0.354 N 
ATOM     50  C   UNL A   1      39.149  32.680  34.424  1.00  0.00     0.074 A 
ATOM     51  C   UNL A   1      38.060  33.630  34.393  1.00  0.00     0.031 C 
ATOM     52  C   UNL A   1      38.693  29.803  28.682  1.00  0.00     0.029 A 
ATOM     53  C   UNL A   1      39.677  29.544  29.727  1.00  0.00     0.049 A 
ATOM     54  H   UNL A   1      39.784  30.416  31.615  1.00  0.00     0.167 HD
ATOM     55  C   UNL A   1      39.998  32.525  35.468  1.00  0.00     0.037 A 
ATOM     56  C   UNL A   1      40.703  28.677  29.638  1.00  0.00     0.037 A 
ATOM     57  C   UNL A   1      41.060  31.554  35.503  1.00  0.00     0.049 A 
ATOM     58  C   UNL A   1      41.631  28.523  30.813  1.00  0.00     0.074 A 
ATOM     59  C   UNL A   1      41.934  31.267  36.536  1.00  0.00     0.029 A 
ATOM     60  N   UNL A   1      41.391  30.711  34.451  1.00  0.00    -0.354 N 
ATOM     61  N   UNL A   1      41.611  29.138  31.970  1.00  0.00    -0.248 NA
ATOM     62  C   UNL A   1      42.723  27.550  30.670  1.00  0.00     0.031 C 
ATOM     63  C   UNL A   1      42.824  30.283  36.094  1.00  0.00     0.029 A 
ATOM     64  C   UNL A   1      42.472  29.920  34.803  1.00  0.00     0.049 A 
ATOM     65  H   UNL A   1      40.926  30.680  33.584  1.00  0.00     0.167 HD
ATOM     66  C   UNL A   1      42.665  28.611  32.702  1.00  0.00     0.074 A 
ATOM     67  C   UNL A   1      43.295  27.611  31.864  1.00  0.00     0.031 C 
ATOM     68  C   UNL A   1      43.079  28.927  33.954  1.00  0.00     0.037 A 
BRANCH  55  69
ATOM     69  C   UNL A   1      39.808  33.419  36.659  1.00  0.00     0.064 A 
ATOM     70  C   UNL A   1      38.952  33.069  37.714  1.00  0.00     0.173 A 
ATOM     71  C   UNL A   1      40.517  34.625  36.765  1.00  0.00     0.173 A 
ATOM     72  F   UNL A   1      38.241  31.932  37.658  1.00  0.00    -0.203 F 
ATOM     73  C   UNL A   1      38.789  33.906  38.815  1.00  0.00     0.198 A 
ATOM     74  C   UNL A   1      40.376  35.446  37.882  1.00  0.00     0.198 A 
ATOM     75  F   UNL A   1      41.354  35.007  35.788  1.00  0.00    -0.203 F 
ATOM     76  F   UNL A   1      37.926  33.574  39.785  1.00  0.00    -0.200 F 
ATOM     77  C   UNL A   1      39.506  35.089  38.902  1.00  0.00     0.200 A 
ATOM     78  F   UNL A   1      41.081  36.582  37.971  1.00  0.00    -0.200 F 
ATOM     79  F   UNL A   1      39.355  35.890  39.966  1.00  0.00    -0.200 F 
ENDBRANCH  55  69
BRANCH  56  80
ATOM     80  C   UNL A   1      40.891  27.870  28.404  1.00  0.00     0.064 A 
ATOM     81  C   UNL A   1      40.288  26.613  28.269  1.00  0.00     0.173 A 
ATOM     82  C   UNL A   1      41.676  28.336  27.339  1.00  0.00     0.173 A 
ATOM     83  F   UNL A   1      39.543  26.116  29.267  1.00  0.00    -0.203 F 
ATOM     84  C   UNL A   1      40.481  25.840  27.125  1.00  0.00     0.198 A 
ATOM     85  C   UNL A   1      41.845  27.575  26.183  1.00  0.00     0.198 A 
ATOM     86  F   UNL A   1      42.271  29.535  27.415  1.00  0.00    -0.203 F 
ATOM     87  F   UNL A   1      39.932  24.621  27.043  1.00  0.00    -0.200 F 
ATOM     88  C   UNL A   1      41.254  26.325  26.081  1.00  0.00     0.200 A 
ATOM     89  F   UNL A   1      42.582  28.052  25.171  1.00  0.00    -0.200 F 
ATOM     90  F   UNL A   1      41.438  25.583  24.981  1.00  0.00    -0.200 F 
ENDBRANCH  56  80
BRANCH  68  91
ATOM     91  C   UNL A   1      44.250  28.165  34.502  1.00  0.00     0.064 A 
ATOM     92  C   UNL A   1      45.562  28.646  34.383  1.00  0.00     0.173 A 
ATOM     93  C   UNL A   1      44.051  26.958  35.191  1.00  0.00     0.173 A 
ATOM     94  F   UNL A   1      45.804  29.787  33.720  1.00  0.00    -0.203 F 
ATOM     95  C   UNL A   1      46.635  27.935  34.913  1.00  0.00     0.198 A 
ATOM     96  C   UNL A   1      45.123  26.266  35.747  1.00  0.00     0.198 A 
ATOM     97  F   UNL A   1      42.815  26.459  35.339  1.00  0.00    -0.203 F 
ATOM     98  F   UNL A   1      47.885  28.389  34.745  1.00  0.00    -0.200 F 
ATOM     99  C   UNL A   1      46.415  26.751  35.600  1.00  0.00     0.200 A 
ATOM    100  F   UNL A   1      44.908  25.130  36.424  1.00  0.00    -0.200 F 
ATOM    101  F   UNL A   1      47.448  26.072  36.116  1.00  0.00    -0.200 F 
ENDBRANCH  68  91
ENDBRANCH  42  43
ENDBRANCH  34  37
ENDBRANCH  32  33
ENDBRANCH  31  32
ENDBRANCH  30  31
ENDBRANCH   3  30
TORSDOF 16
ENDMDL
