MODEL 1
REMARK VINA RESULT:     -13.2      0.000      0.000
REMARK SMILES C[C@@H](C(=O)NCCCNC(=O)c1ccc(-c2c3nc(c(-c4c(F)c(F)c(F)c(F)c4F)c4ccc([nH]4)c(-c4c(F)c(F)c(F)c(F)c4F)c4nc(c(-c5c(F)c(F)c(F)c(F)c5F)c5ccc2[nH]5)C=C4)C=C3)cc1)c1ccc(C[C@H]2CCCC2=O)c(-c2ccc(F)cc2)c1
REMARK SMILES IDX 6 1 5 2 3 3 4 4 2 6 1 7 75 8 76 9 94 10 77 11 86 12 78 13
REMARK SMILES IDX 87 14 88 15 93 16 89 17 92 18 90 19 91 20 79 21 80 22 81 23
REMARK SMILES IDX 84 24 82 25 83 26 85 27 7 28 8 29 9 30 10 31 11 33 12 34
REMARK SMILES IDX 13 35 74 36 14 37 73 38 15 39 16 40 17 41 67 42 18 43 72 44
REMARK SMILES IDX 66 45 68 46 19 47 71 48 65 49 64 50 20 52 52 53 32 54 51 55
REMARK SMILES IDX 33 56 36 57 50 58 69 59 34 60 35 61 49 63 70 64 37 65 21 66
REMARK SMILES IDX 22 67 30 68 23 69 24 70 28 71 31 72 25 73 26 74 29 75 27 76
REMARK SMILES IDX 53 77 54 78 62 79 55 80 56 81 60 82 63 83 57 84 58 85 61 86
REMARK SMILES IDX 59 87 38 88 39 89 47 90 40 91 41 92 45 93 48 94 42 95 43 96
REMARK SMILES IDX 46 97 44 98
REMARK H PARENT 5 5 9 32 68 51 36 62
REMARK Flexibility Score: inf
ROOT
ATOM      1  C   UNL A   1      31.671  30.647  26.406  1.00  0.00     0.117 C 
ENDROOT
BRANCH   1   2
ATOM      2  N   UNL A   1      31.189  30.270  25.093  1.00  0.00    -0.356 N 
ATOM      3  C   UNL A   1      31.715  29.442  24.144  1.00  0.00     0.227 C 
ATOM      4  O   UNL A   1      31.055  29.328  23.110  1.00  0.00    -0.274 OA
ATOM      5  H   UNL A   1      30.330  30.682  24.840  1.00  0.00     0.163 HD
BRANCH   3   6
ATOM      6  C   UNL A   1      33.044  28.709  24.400  1.00  0.00     0.105 C 
ATOM      7  C   UNL A   1      33.925  28.667  23.147  1.00  0.00     0.023 C 
BRANCH   6   8
ATOM      8  C   UNL A   1      32.895  27.275  24.907  1.00  0.00    -0.035 A 
ATOM      9  C   UNL A   1      31.756  26.906  25.626  1.00  0.00     0.005 A 
ATOM     10  C   UNL A   1      33.919  26.326  24.761  1.00  0.00     0.013 A 
ATOM     11  C   UNL A   1      31.667  25.641  26.208  1.00  0.00     0.004 A 
ATOM     12  C   UNL A   1      33.847  25.030  25.319  1.00  0.00    -0.015 A 
ATOM     13  C   UNL A   1      32.715  24.704  26.099  1.00  0.00    -0.039 A 
BRANCH  12  14
ATOM     14  C   UNL A   1      34.956  24.098  25.037  1.00  0.00    -0.018 A 
ATOM     15  C   UNL A   1      35.733  23.560  26.080  1.00  0.00     0.012 A 
ATOM     16  C   UNL A   1      35.225  23.669  23.723  1.00  0.00     0.012 A 
ATOM     17  C   UNL A   1      36.765  22.656  25.817  1.00  0.00     0.040 A 
ATOM     18  C   UNL A   1      36.248  22.754  23.460  1.00  0.00     0.040 A 
ATOM     19  C   UNL A   1      37.012  22.263  24.509  1.00  0.00     0.123 A 
ATOM     20  F   UNL A   1      37.996  21.389  24.256  1.00  0.00    -0.207 F 
ENDBRANCH  12  14
BRANCH  13  21
ATOM     21  C   UNL A   1      32.580  23.408  26.879  1.00  0.00     0.047 C 
BRANCH  21  22
ATOM     22  C   UNL A   1      31.887  22.240  26.161  1.00  0.00     0.060 C 
ATOM     23  C   UNL A   1      31.028  22.588  24.941  1.00  0.00     0.012 C 
ATOM     24  C   UNL A   1      32.864  21.243  25.580  1.00  0.00     0.136 C 
ATOM     25  C   UNL A   1      31.905  22.335  23.721  1.00  0.00     0.009 C 
ATOM     26  C   UNL A   1      32.741  21.116  24.084  1.00  0.00     0.076 C 
ATOM     27  O   UNL A   1      33.653  20.588  26.252  1.00  0.00    -0.299 OA
ENDBRANCH  21  22
ENDBRANCH  13  21
ENDBRANCH   6   8
ENDBRANCH   3   6
ENDBRANCH   1   2
BRANCH   1  28
ATOM     28  C   UNL A   1      31.408  32.119  26.720  1.00  0.00     0.042 C 
BRANCH  28  29
ATOM     29  C   UNL A   1      32.657  32.980  26.899  1.00  0.00     0.118 C 
BRANCH  29  30
ATOM     30  N   UNL A   1      32.403  34.213  27.624  1.00  0.00    -0.352 N 
ATOM     31  C   UNL A   1      33.009  34.736  28.736  1.00  0.00     0.251 C 
ATOM     32  H   UNL A   1      31.674  34.764  27.256  1.00  0.00     0.163 HD
ATOM     33  O   UNL A   1      32.526  35.736  29.265  1.00  0.00    -0.269 OA
BRANCH  31  34
ATOM     34  C   UNL A   1      34.216  34.114  29.330  1.00  0.00     0.039 A 
ATOM     35  C   UNL A   1      34.037  33.162  30.340  1.00  0.00     0.014 A 
ATOM     36  C   UNL A   1      35.510  34.490  28.958  1.00  0.00     0.014 A 
ATOM     37  C   UNL A   1      35.144  32.555  30.936  1.00  0.00     0.010 A 
ATOM     38  C   UNL A   1      36.616  33.836  29.508  1.00  0.00     0.010 A 
ATOM     39  C   UNL A   1      36.443  32.867  30.508  1.00  0.00    -0.014 A 
BRANCH  39  40
ATOM     40  C   UNL A   1      37.616  32.177  31.102  1.00  0.00     0.031 A 
ATOM     41  C   UNL A   1      38.091  32.519  32.487  1.00  0.00     0.074 A 
ATOM     42  C   UNL A   1      38.276  31.252  30.378  1.00  0.00     0.049 A 
ATOM     43  N   UNL A   1      39.086  32.010  33.171  1.00  0.00    -0.248 NA
ATOM     44  C   UNL A   1      37.366  33.588  33.191  1.00  0.00     0.031 C 
ATOM     45  C   UNL A   1      37.953  30.869  29.003  1.00  0.00     0.029 A 
ATOM     46  N   UNL A   1      39.355  30.465  30.698  1.00  0.00    -0.354 N 
ATOM     47  C   UNL A   1      39.111  32.700  34.375  1.00  0.00     0.074 A 
ATOM     48  C   UNL A   1      38.065  33.697  34.312  1.00  0.00     0.031 C 
ATOM     49  C   UNL A   1      38.795  29.903  28.606  1.00  0.00     0.029 A 
ATOM     50  C   UNL A   1      39.731  29.612  29.689  1.00  0.00     0.049 A 
ATOM     51  H   UNL A   1      39.815  30.508  31.566  1.00  0.00     0.167 HD
ATOM     52  C   UNL A   1      39.919  32.505  35.446  1.00  0.00     0.037 A 
ATOM     53  C   UNL A   1      40.713  28.693  29.645  1.00  0.00     0.037 A 
ATOM     54  C   UNL A   1      40.945  31.497  35.520  1.00  0.00     0.049 A 
ATOM     55  C   UNL A   1      41.575  28.476  30.857  1.00  0.00     0.074 A 
ATOM     56  C   UNL A   1      41.776  31.186  36.583  1.00  0.00     0.029 A 
ATOM     57  N   UNL A   1      41.280  30.634  34.487  1.00  0.00    -0.354 N 
ATOM     58  N   UNL A   1      41.542  29.086  32.015  1.00  0.00    -0.248 NA
ATOM     59  C   UNL A   1      42.604  27.431  30.758  1.00  0.00     0.031 C 
ATOM     60  C   UNL A   1      42.636  30.157  36.182  1.00  0.00     0.029 A 
ATOM     61  C   UNL A   1      42.314  29.800  34.882  1.00  0.00     0.049 A 
ATOM     62  H   UNL A   1      40.846  30.617  33.604  1.00  0.00     0.167 HD
ATOM     63  C   UNL A   1      42.527  28.489  32.789  1.00  0.00     0.074 A 
ATOM     64  C   UNL A   1      43.129  27.454  31.974  1.00  0.00     0.031 C 
ATOM     65  C   UNL A   1      42.903  28.776  34.060  1.00  0.00     0.037 A 
BRANCH  52  66
ATOM     66  C   UNL A   1      39.718  33.398  36.635  1.00  0.00     0.064 A 
ATOM     67  C   UNL A   1      40.395  34.622  36.753  1.00  0.00     0.173 A 
ATOM     68  C   UNL A   1      38.813  33.048  37.647  1.00  0.00     0.173 A 
ATOM     69  F   UNL A   1      41.280  34.997  35.817  1.00  0.00    -0.203 F 
ATOM     70  C   UNL A   1      40.194  35.449  37.856  1.00  0.00     0.198 A 
ATOM     71  C   UNL A   1      38.594  33.890  38.735  1.00  0.00     0.198 A 
ATOM     72  F   UNL A   1      38.136  31.893  37.579  1.00  0.00    -0.203 F 
ATOM     73  F   UNL A   1      40.885  36.592  37.969  1.00  0.00    -0.200 F 
ATOM     74  C   UNL A   1      39.289  35.085  38.842  1.00  0.00     0.200 A 
ATOM     75  F   UNL A   1      37.711  33.543  39.683  1.00  0.00    -0.200 F 
ATOM     76  F   UNL A   1      39.092  35.885  39.899  1.00  0.00    -0.200 F 
ENDBRANCH  52  66
BRANCH  53  77
ATOM     77  C   UNL A   1      40.904  27.877  28.420  1.00  0.00     0.064 A 
ATOM     78  C   UNL A   1      40.249  26.647  28.266  1.00  0.00     0.173 A 
ATOM     79  C   UNL A   1      41.738  28.309  27.379  1.00  0.00     0.173 A 
ATOM     80  F   UNL A   1      39.457  26.185  29.245  1.00  0.00    -0.203 F 
ATOM     81  C   UNL A   1      40.434  25.872  27.124  1.00  0.00     0.198 A 
ATOM     82  C   UNL A   1      41.903  27.543  26.226  1.00  0.00     0.198 A 
ATOM     83  F   UNL A   1      42.382  29.480  27.477  1.00  0.00    -0.203 F 
ATOM     84  F   UNL A   1      39.825  24.682  27.019  1.00  0.00    -0.200 F 
ATOM     85  C   UNL A   1      41.257  26.323  26.103  1.00  0.00     0.200 A 
ATOM     86  F   UNL A   1      42.689  27.989  25.236  1.00  0.00    -0.200 F 
ATOM     87  F   UNL A   1      41.430  25.579  25.001  1.00  0.00    -0.200 F 
ENDBRANCH  53  77
BRANCH  65  88
ATOM     88  C   UNL A   1      44.002  27.944  34.650  1.00  0.00     0.064 A 
ATOM     89  C   UNL A   1      45.344  28.347  34.581  1.00  0.00     0.173 A 
ATOM     90  C   UNL A   1      43.709  26.740  35.309  1.00  0.00     0.173 A 
ATOM     91  F   UNL A   1      45.674  29.483  33.946  1.00  0.00    -0.203 F 
ATOM     92  C   UNL A   1      46.355  27.561  35.125  1.00  0.00     0.198 A 
ATOM     93  C   UNL A   1      44.722  25.970  35.875  1.00  0.00     0.198 A 
ATOM     94  F   UNL A   1      42.442  26.313  35.405  1.00  0.00    -0.203 F 
ATOM     95  F   UNL A   1      47.635  27.942  35.004  1.00  0.00    -0.200 F 
ATOM     96  C   UNL A   1      46.044  26.377  35.776  1.00  0.00     0.200 A 
ATOM     97  F   UNL A   1      44.418  24.831  36.511  1.00  0.00    -0.200 F 
ATOM     98  F   UNL A   1      47.020  25.622  36.299  1.00  0.00    -0.200 F 
ENDBRANCH  65  88
ENDBRANCH  39  40
ENDBRANCH  31  34
ENDBRANCH  29  30
ENDBRANCH  28  29
ENDBRANCH   1  28
TORSDOF 14
ENDMDL
MODEL 2
REMARK VINA RESULT:     -13.2      5.267     10.513
REMARK SMILES C[C@@H](C(=O)NCCCNC(=O)c1ccc(-c2c3nc(c(-c4c(F)c(F)c(F)c(F)c4F)c4ccc([nH]4)c(-c4c(F)c(F)c(F)c(F)c4F)c4nc(c(-c5c(F)c(F)c(F)c(F)c5F)c5ccc2[nH]5)C=C4)C=C3)cc1)c1ccc(C[C@H]2CCCC2=O)c(-c2ccc(F)cc2)c1
REMARK SMILES IDX 6 1 5 2 3 3 4 4 2 6 1 7 75 8 76 9 94 10 77 11 86 12 78 13
REMARK SMILES IDX 87 14 88 15 93 16 89 17 92 18 90 19 91 20 79 21 80 22 81 23
REMARK SMILES IDX 84 24 82 25 83 26 85 27 7 28 8 29 9 30 10 31 11 33 12 34
REMARK SMILES IDX 13 35 74 36 14 37 73 38 15 39 16 40 17 41 67 42 18 43 72 44
REMARK SMILES IDX 66 45 68 46 19 47 71 48 65 49 64 50 20 52 52 53 32 54 51 55
REMARK SMILES IDX 33 56 36 57 50 58 69 59 34 60 35 61 49 63 70 64 37 65 21 66
REMARK SMILES IDX 22 67 30 68 23 69 24 70 28 71 31 72 25 73 26 74 29 75 27 76
REMARK SMILES IDX 53 77 54 78 62 79 55 80 56 81 60 82 63 83 57 84 58 85 61 86
REMARK SMILES IDX 59 87 38 88 39 89 47 90 40 91 41 92 45 93 48 94 42 95 43 96
REMARK SMILES IDX 46 97 44 98
REMARK H PARENT 5 5 9 32 68 51 36 62
REMARK Flexibility Score: inf
ROOT
ATOM      1  C   UNL A   1      37.120  20.014  24.510  1.00  0.00     0.117 C 
ENDROOT
BRANCH   1   2
ATOM      2  N   UNL A   1      36.086  20.400  25.449  1.00  0.00    -0.356 N 
ATOM      3  C   UNL A   1      35.619  21.627  25.820  1.00  0.00     0.227 C 
ATOM      4  O   UNL A   1      34.718  21.624  26.661  1.00  0.00    -0.274 OA
ATOM      5  H   UNL A   1      35.642  19.644  25.899  1.00  0.00     0.163 HD
BRANCH   3   6
ATOM      6  C   UNL A   1      36.201  22.906  25.191  1.00  0.00     0.105 C 
ATOM      7  C   UNL A   1      37.008  23.725  26.202  1.00  0.00     0.023 C 
BRANCH   6   8
ATOM      8  C   UNL A   1      35.165  23.837  24.563  1.00  0.00    -0.035 A 
ATOM      9  C   UNL A   1      34.686  23.579  23.277  1.00  0.00     0.005 A 
ATOM     10  C   UNL A   1      34.744  25.016  25.200  1.00  0.00     0.013 A 
ATOM     11  C   UNL A   1      33.842  24.491  22.642  1.00  0.00     0.004 A 
ATOM     12  C   UNL A   1      33.873  25.946  24.591  1.00  0.00    -0.015 A 
ATOM     13  C   UNL A   1      33.456  25.696  23.263  1.00  0.00    -0.039 A 
BRANCH  12  14
ATOM     14  C   UNL A   1      33.446  27.112  25.388  1.00  0.00    -0.018 A 
ATOM     15  C   UNL A   1      32.608  26.955  26.508  1.00  0.00     0.012 A 
ATOM     16  C   UNL A   1      33.918  28.404  25.092  1.00  0.00     0.012 A 
ATOM     17  C   UNL A   1      32.224  28.053  27.281  1.00  0.00     0.040 A 
ATOM     18  C   UNL A   1      33.546  29.503  25.872  1.00  0.00     0.040 A 
ATOM     19  C   UNL A   1      32.697  29.317  26.954  1.00  0.00     0.123 A 
ATOM     20  F   UNL A   1      32.337  30.371  27.699  1.00  0.00    -0.207 F 
ENDBRANCH  12  14
BRANCH  13  21
ATOM     21  C   UNL A   1      32.647  26.683  22.440  1.00  0.00     0.047 C 
BRANCH  21  22
ATOM     22  C   UNL A   1      31.142  26.403  22.312  1.00  0.00     0.060 C 
ATOM     23  C   UNL A   1      30.539  25.389  23.288  1.00  0.00     0.012 C 
ATOM     24  C   UNL A   1      30.292  27.627  22.567  1.00  0.00     0.136 C 
ATOM     25  C   UNL A   1      29.916  26.206  24.413  1.00  0.00     0.009 C 
ATOM     26  C   UNL A   1      29.356  27.448  23.734  1.00  0.00     0.076 C 
ATOM     27  O   UNL A   1      30.336  28.645  21.886  1.00  0.00    -0.299 OA
ENDBRANCH  21  22
ENDBRANCH  13  21
ENDBRANCH   6   8
ENDBRANCH   3   6
ENDBRANCH   1   2
BRANCH   1  28
ATOM     28  C   UNL A   1      38.139  19.058  25.129  1.00  0.00     0.042 C 
BRANCH  28  29
ATOM     29  C   UNL A   1      39.329  19.730  25.813  1.00  0.00     0.118 C 
BRANCH  29  30
ATOM     30  N   UNL A   1      40.522  18.900  25.827  1.00  0.00    -0.352 N 
ATOM     31  C   UNL A   1      41.833  19.225  26.058  1.00  0.00     0.251 C 
ATOM     32  H   UNL A   1      40.361  17.946  25.640  1.00  0.00     0.163 HD
ATOM     33  O   UNL A   1      42.700  18.372  25.875  1.00  0.00    -0.269 OA
BRANCH  31  34
ATOM     34  C   UNL A   1      42.232  20.582  26.498  1.00  0.00     0.039 A 
ATOM     35  C   UNL A   1      42.620  21.504  25.520  1.00  0.00     0.014 A 
ATOM     36  C   UNL A   1      42.290  20.943  27.848  1.00  0.00     0.014 A 
ATOM     37  C   UNL A   1      43.014  22.792  25.886  1.00  0.00     0.010 A 
ATOM     38  C   UNL A   1      42.622  22.251  28.210  1.00  0.00     0.010 A 
ATOM     39  C   UNL A   1      42.993  23.187  27.233  1.00  0.00    -0.014 A 
BRANCH  39  40
ATOM     40  C   UNL A   1      43.355  24.575  27.615  1.00  0.00     0.031 A 
ATOM     41  C   UNL A   1      44.793  25.015  27.646  1.00  0.00     0.074 A 
ATOM     42  C   UNL A   1      42.383  25.441  27.963  1.00  0.00     0.049 A 
ATOM     43  N   UNL A   1      45.293  26.190  27.941  1.00  0.00    -0.248 NA
ATOM     44  C   UNL A   1      45.805  23.998  27.324  1.00  0.00     0.031 C 
ATOM     45  C   UNL A   1      40.956  25.123  28.030  1.00  0.00     0.029 A 
ATOM     46  N   UNL A   1      42.447  26.764  28.325  1.00  0.00    -0.354 N 
ATOM     47  C   UNL A   1      46.671  26.051  27.847  1.00  0.00     0.074 A 
ATOM     48  C   UNL A   1      46.933  24.666  27.517  1.00  0.00     0.031 C 
ATOM     49  C   UNL A   1      40.277  26.226  28.382  1.00  0.00     0.029 A 
ATOM     50  C   UNL A   1      41.220  27.321  28.587  1.00  0.00     0.049 A 
ATOM     51  H   UNL A   1      43.291  27.264  28.391  1.00  0.00     0.167 HD
ATOM     52  C   UNL A   1      47.631  26.995  28.001  1.00  0.00     0.037 A 
ATOM     53  C   UNL A   1      40.890  28.577  28.943  1.00  0.00     0.037 A 
ATOM     54  C   UNL A   1      47.370  28.379  28.305  1.00  0.00     0.049 A 
ATOM     55  C   UNL A   1      41.971  29.613  29.076  1.00  0.00     0.074 A 
ATOM     56  C   UNL A   1      48.273  29.422  28.424  1.00  0.00     0.029 A 
ATOM     57  N   UNL A   1      46.112  28.913  28.539  1.00  0.00    -0.354 N 
ATOM     58  N   UNL A   1      43.265  29.484  28.915  1.00  0.00    -0.248 NA
ATOM     59  C   UNL A   1      41.542  30.974  29.429  1.00  0.00     0.031 C 
ATOM     60  C   UNL A   1      47.563  30.580  28.762  1.00  0.00     0.029 A 
ATOM     61  C   UNL A   1      46.215  30.267  28.814  1.00  0.00     0.049 A 
ATOM     62  H   UNL A   1      45.270  28.404  28.511  1.00  0.00     0.167 HD
ATOM     63  C   UNL A   1      43.803  30.746  29.127  1.00  0.00     0.074 A 
ATOM     64  C   UNL A   1      42.692  31.632  29.408  1.00  0.00     0.031 C 
ATOM     65  C   UNL A   1      45.101  31.135  29.095  1.00  0.00     0.037 A 
BRANCH  52  66
ATOM     66  C   UNL A   1      49.058  26.565  27.831  1.00  0.00     0.064 A 
ATOM     67  C   UNL A   1      49.629  26.411  26.558  1.00  0.00     0.173 A 
ATOM     68  C   UNL A   1      49.874  26.340  28.949  1.00  0.00     0.173 A 
ATOM     69  F   UNL A   1      48.886  26.603  25.457  1.00  0.00    -0.203 F 
ATOM     70  C   UNL A   1      50.958  26.022  26.411  1.00  0.00     0.198 A 
ATOM     71  C   UNL A   1      51.211  25.977  28.798  1.00  0.00     0.198 A 
ATOM     72  F   UNL A   1      49.380  26.480  30.187  1.00  0.00    -0.203 F 
ATOM     73  F   UNL A   1      51.469  25.839  25.186  1.00  0.00    -0.200 F 
ATOM     74  C   UNL A   1      51.750  25.812  27.531  1.00  0.00     0.200 A 
ATOM     75  F   UNL A   1      51.978  25.785  29.880  1.00  0.00    -0.200 F 
ATOM     76  F   UNL A   1      53.030  25.443  27.387  1.00  0.00    -0.200 F 
ENDBRANCH  52  66
BRANCH  53  77
ATOM     77  C   UNL A   1      39.465  28.933  29.154  1.00  0.00     0.064 A 
ATOM     78  C   UNL A   1      38.878  28.824  30.423  1.00  0.00     0.173 A 
ATOM     79  C   UNL A   1      38.664  29.393  28.099  1.00  0.00     0.173 A 
ATOM     80  F   UNL A   1      39.602  28.370  31.457  1.00  0.00    -0.203 F 
ATOM     81  C   UNL A   1      37.538  29.145  30.625  1.00  0.00     0.198 A 
ATOM     82  C   UNL A   1      37.330  29.736  28.309  1.00  0.00     0.198 A 
ATOM     83  F   UNL A   1      39.181  29.519  26.870  1.00  0.00    -0.203 F 
ATOM     84  F   UNL A   1      36.992  28.995  31.839  1.00  0.00    -0.200 F 
ATOM     85  C   UNL A   1      36.767  29.606  29.569  1.00  0.00     0.200 A 
ATOM     86  F   UNL A   1      36.591  30.194  27.288  1.00  0.00    -0.200 F 
ATOM     87  F   UNL A   1      35.478  29.920  29.765  1.00  0.00    -0.200 F 
ENDBRANCH  53  77
BRANCH  65  88
ATOM     88  C   UNL A   1      45.385  32.585  29.351  1.00  0.00     0.064 A 
ATOM     89  C   UNL A   1      45.406  33.522  28.307  1.00  0.00     0.173 A 
ATOM     90  C   UNL A   1      45.620  33.046  30.655  1.00  0.00     0.173 A 
ATOM     91  F   UNL A   1      45.204  33.126  27.041  1.00  0.00    -0.203 F 
ATOM     92  C   UNL A   1      45.679  34.864  28.557  1.00  0.00     0.198 A 
ATOM     93  C   UNL A   1      45.866  34.393  30.904  1.00  0.00     0.198 A 
ATOM     94  F   UNL A   1      45.606  32.190  31.687  1.00  0.00    -0.203 F 
ATOM     95  F   UNL A   1      45.742  35.734  27.539  1.00  0.00    -0.200 F 
ATOM     96  C   UNL A   1      45.904  35.300  29.855  1.00  0.00     0.200 A 
ATOM     97  F   UNL A   1      46.075  34.814  32.158  1.00  0.00    -0.200 F 
ATOM     98  F   UNL A   1      46.167  36.592  30.092  1.00  0.00    -0.200 F 
ENDBRANCH  65  88
ENDBRANCH  39  40
ENDBRANCH  31  34
ENDBRANCH  29  30
ENDBRANCH  28  29
ENDBRANCH   1  28
TORSDOF 14
ENDMDL
MODEL 3
REMARK VINA RESULT:     -13.2      5.377      9.753
REMARK SMILES C[C@@H](C(=O)NCCCNC(=O)c1ccc(-c2c3nc(c(-c4c(F)c(F)c(F)c(F)c4F)c4ccc([nH]4)c(-c4c(F)c(F)c(F)c(F)c4F)c4nc(c(-c5c(F)c(F)c(F)c(F)c5F)c5ccc2[nH]5)C=C4)C=C3)cc1)c1ccc(C[C@H]2CCCC2=O)c(-c2ccc(F)cc2)c1
REMARK SMILES IDX 6 1 5 2 3 3 4 4 2 6 1 7 75 8 76 9 94 10 77 11 86 12 78 13
REMARK SMILES IDX 87 14 88 15 93 16 89 17 92 18 90 19 91 20 79 21 80 22 81 23
REMARK SMILES IDX 84 24 82 25 83 26 85 27 7 28 8 29 9 30 10 31 11 33 12 34
REMARK SMILES IDX 13 35 74 36 14 37 73 38 15 39 16 40 17 41 67 42 18 43 72 44
REMARK SMILES IDX 66 45 68 46 19 47 71 48 65 49 64 50 20 52 52 53 32 54 51 55
REMARK SMILES IDX 33 56 36 57 50 58 69 59 34 60 35 61 49 63 70 64 37 65 21 66
REMARK SMILES IDX 22 67 30 68 23 69 24 70 28 71 31 72 25 73 26 74 29 75 27 76
REMARK SMILES IDX 53 77 54 78 62 79 55 80 56 81 60 82 63 83 57 84 58 85 61 86
REMARK SMILES IDX 59 87 38 88 39 89 47 90 40 91 41 92 45 93 48 94 42 95 43 96
REMARK SMILES IDX 46 97 44 98
REMARK H PARENT 5 5 9 32 68 51 36 62
REMARK Flexibility Score: inf
ROOT
ATOM      1  C   UNL A   1      37.267  20.142  24.555  1.00  0.00     0.117 C 
ENDROOT
BRANCH   1   2
ATOM      2  N   UNL A   1      36.245  20.510  25.514  1.00  0.00    -0.356 N 
ATOM      3  C   UNL A   1      35.765  21.729  25.896  1.00  0.00     0.227 C 
ATOM      4  O   UNL A   1      34.881  21.710  26.754  1.00  0.00    -0.274 OA
ATOM      5  H   UNL A   1      35.823  19.746  25.972  1.00  0.00     0.163 HD
BRANCH   3   6
ATOM      6  C   UNL A   1      36.314  23.017  25.256  1.00  0.00     0.105 C 
ATOM      7  C   UNL A   1      37.084  23.874  26.265  1.00  0.00     0.023 C 
BRANCH   6   8
ATOM      8  C   UNL A   1      35.256  23.908  24.606  1.00  0.00    -0.035 A 
ATOM      9  C   UNL A   1      34.807  23.626  23.314  1.00  0.00     0.005 A 
ATOM     10  C   UNL A   1      34.783  25.074  25.229  1.00  0.00     0.013 A 
ATOM     11  C   UNL A   1      33.943  24.504  22.660  1.00  0.00     0.004 A 
ATOM     12  C   UNL A   1      33.890  25.970  24.600  1.00  0.00    -0.015 A 
ATOM     13  C   UNL A   1      33.503  25.698  23.268  1.00  0.00    -0.039 A 
BRANCH  12  14
ATOM     14  C   UNL A   1      33.409  27.124  25.384  1.00  0.00    -0.018 A 
ATOM     15  C   UNL A   1      33.749  28.440  25.018  1.00  0.00     0.012 A 
ATOM     16  C   UNL A   1      32.542  26.945  26.478  1.00  0.00     0.012 A 
ATOM     17  C   UNL A   1      33.271  29.535  25.742  1.00  0.00     0.040 A 
ATOM     18  C   UNL A   1      32.053  28.040  27.195  1.00  0.00     0.040 A 
ATOM     19  C   UNL A   1      32.428  29.324  26.824  1.00  0.00     0.123 A 
ATOM     20  F   UNL A   1      31.963  30.374  27.514  1.00  0.00    -0.207 F 
ENDBRANCH  12  14
BRANCH  13  21
ATOM     21  C   UNL A   1      32.674  26.651  22.425  1.00  0.00     0.047 C 
BRANCH  21  22
ATOM     22  C   UNL A   1      31.177  26.333  22.297  1.00  0.00     0.060 C 
ATOM     23  C   UNL A   1      30.609  25.273  23.246  1.00  0.00     0.012 C 
ATOM     24  C   UNL A   1      30.295  27.524  22.596  1.00  0.00     0.136 C 
ATOM     25  C   UNL A   1      29.971  26.037  24.399  1.00  0.00     0.009 C 
ATOM     26  C   UNL A   1      29.372  27.283  23.762  1.00  0.00     0.076 C 
ATOM     27  O   UNL A   1      30.305  28.563  21.946  1.00  0.00    -0.299 OA
ENDBRANCH  21  22
ENDBRANCH  13  21
ENDBRANCH   6   8
ENDBRANCH   3   6
ENDBRANCH   1   2
BRANCH   1  28
ATOM     28  C   UNL A   1      38.255  19.122  25.121  1.00  0.00     0.042 C 
BRANCH  28  29
ATOM     29  C   UNL A   1      39.417  19.715  25.916  1.00  0.00     0.118 C 
BRANCH  29  30
ATOM     30  N   UNL A   1      40.600  18.870  25.913  1.00  0.00    -0.352 N 
ATOM     31  C   UNL A   1      41.923  19.187  26.073  1.00  0.00     0.251 C 
ATOM     32  H   UNL A   1      40.420  17.911  25.774  1.00  0.00     0.163 HD
ATOM     33  O   UNL A   1      42.772  18.316  25.888  1.00  0.00    -0.269 OA
BRANCH  31  34
ATOM     34  C   UNL A   1      42.358  20.555  26.438  1.00  0.00     0.039 A 
ATOM     35  C   UNL A   1      42.876  21.373  25.427  1.00  0.00     0.014 A 
ATOM     36  C   UNL A   1      42.321  21.025  27.754  1.00  0.00     0.014 A 
ATOM     37  C   UNL A   1      43.308  22.667  25.724  1.00  0.00     0.010 A 
ATOM     38  C   UNL A   1      42.692  22.342  28.039  1.00  0.00     0.010 A 
ATOM     39  C   UNL A   1      43.195  23.174  27.028  1.00  0.00    -0.014 A 
BRANCH  39  40
ATOM     40  C   UNL A   1      43.598  24.571  27.330  1.00  0.00     0.031 A 
ATOM     41  C   UNL A   1      42.575  25.599  27.726  1.00  0.00     0.074 A 
ATOM     42  C   UNL A   1      44.894  24.923  27.222  1.00  0.00     0.049 A 
ATOM     43  N   UNL A   1      42.747  26.860  28.039  1.00  0.00    -0.248 NA
ATOM     44  C   UNL A   1      41.171  25.161  27.754  1.00  0.00     0.031 C 
ATOM     45  C   UNL A   1      45.976  24.036  26.792  1.00  0.00     0.029 A 
ATOM     46  N   UNL A   1      45.521  26.120  27.465  1.00  0.00    -0.354 N 
ATOM     47  C   UNL A   1      41.478  27.364  28.292  1.00  0.00     0.074 A 
ATOM     48  C   UNL A   1      40.541  26.289  28.049  1.00  0.00     0.031 C 
ATOM     49  C   UNL A   1      47.136  24.709  26.828  1.00  0.00     0.029 A 
ATOM     50  C   UNL A   1      46.879  26.080  27.261  1.00  0.00     0.049 A 
ATOM     51  H   UNL A   1      45.044  26.929  27.756  1.00  0.00     0.167 HD
ATOM     52  C   UNL A   1      41.128  28.604  28.710  1.00  0.00     0.037 A 
ATOM     53  C   UNL A   1      47.813  27.037  27.416  1.00  0.00     0.037 A 
ATOM     54  C   UNL A   1      42.061  29.669  28.977  1.00  0.00     0.049 A 
ATOM     55  C   UNL A   1      47.401  28.395  27.911  1.00  0.00     0.074 A 
ATOM     56  C   UNL A   1      41.807  30.942  29.457  1.00  0.00     0.029 A 
ATOM     57  N   UNL A   1      43.432  29.583  28.783  1.00  0.00    -0.354 N 
ATOM     58  N   UNL A   1      46.206  28.838  28.215  1.00  0.00    -0.248 NA
ATOM     59  C   UNL A   1      48.473  29.384  28.096  1.00  0.00     0.031 C 
ATOM     60  C   UNL A   1      43.020  31.637  29.525  1.00  0.00     0.029 A 
ATOM     61  C   UNL A   1      44.035  30.784  29.123  1.00  0.00     0.049 A 
ATOM     62  H   UNL A   1      43.906  28.785  28.454  1.00  0.00     0.167 HD
ATOM     63  C   UNL A   1      46.382  30.146  28.645  1.00  0.00     0.074 A 
ATOM     64  C   UNL A   1      47.803  30.419  28.582  1.00  0.00     0.031 C 
ATOM     65  C   UNL A   1      45.449  31.041  29.052  1.00  0.00     0.037 A 
BRANCH  52  66
ATOM     66  C   UNL A   1      39.667  28.877  28.918  1.00  0.00     0.064 A 
ATOM     67  C   UNL A   1      39.059  28.693  30.169  1.00  0.00     0.173 A 
ATOM     68  C   UNL A   1      38.874  29.363  27.868  1.00  0.00     0.173 A 
ATOM     69  F   UNL A   1      39.772  28.220  31.203  1.00  0.00    -0.203 F 
ATOM     70  C   UNL A   1      37.705  28.960  30.355  1.00  0.00     0.198 A 
ATOM     71  C   UNL A   1      37.526  29.654  28.064  1.00  0.00     0.198 A 
ATOM     72  F   UNL A   1      39.407  29.563  26.654  1.00  0.00    -0.203 F 
ATOM     73  F   UNL A   1      37.137  28.735  31.548  1.00  0.00    -0.200 F 
ATOM     74  C   UNL A   1      36.941  29.446  29.304  1.00  0.00     0.200 A 
ATOM     75  F   UNL A   1      36.791  30.134  27.051  1.00  0.00    -0.200 F 
ATOM     76  F   UNL A   1      35.639  29.707  29.486  1.00  0.00    -0.200 F 
ENDBRANCH  52  66
BRANCH  53  77
ATOM     77  C   UNL A   1      49.238  26.728  27.140  1.00  0.00     0.064 A 
ATOM     78  C   UNL A   1      49.763  26.855  25.847  1.00  0.00     0.173 A 
ATOM     79  C   UNL A   1      50.102  26.304  28.160  1.00  0.00     0.173 A 
ATOM     80  F   UNL A   1      48.968  27.238  24.837  1.00  0.00    -0.203 F 
ATOM     81  C   UNL A   1      51.096  26.555  25.580  1.00  0.00     0.198 A 
ATOM     82  C   UNL A   1      51.442  26.027  27.895  1.00  0.00     0.198 A 
ATOM     83  F   UNL A   1      49.648  26.173  29.414  1.00  0.00    -0.203 F 
ATOM     84  F   UNL A   1      51.564  26.648  24.327  1.00  0.00    -0.200 F 
ATOM     85  C   UNL A   1      51.936  26.146  26.605  1.00  0.00     0.200 A 
ATOM     86  F   UNL A   1      52.254  25.646  28.891  1.00  0.00    -0.200 F 
ATOM     87  F   UNL A   1      53.221  25.862  26.349  1.00  0.00    -0.200 F 
ENDBRANCH  53  77
BRANCH  65  88
ATOM     88  C   UNL A   1      45.942  32.392  29.479  1.00  0.00     0.064 A 
ATOM     89  C   UNL A   1      46.049  33.454  28.569  1.00  0.00     0.173 A 
ATOM     90  C   UNL A   1      46.292  32.633  30.816  1.00  0.00     0.173 A 
ATOM     91  F   UNL A   1      45.741  33.266  27.276  1.00  0.00    -0.203 F 
ATOM     92  C   UNL A   1      46.515  34.700  28.976  1.00  0.00     0.198 A 
ATOM     93  C   UNL A   1      46.733  33.889  31.225  1.00  0.00     0.198 A 
ATOM     94  F   UNL A   1      46.204  31.652  31.726  1.00  0.00    -0.203 F 
ATOM     95  F   UNL A   1      46.656  35.686  28.080  1.00  0.00    -0.200 F 
ATOM     96  C   UNL A   1      46.852  34.919  30.304  1.00  0.00     0.200 A 
ATOM     97  F   UNL A   1      47.050  34.100  32.509  1.00  0.00    -0.200 F 
ATOM     98  F   UNL A   1      47.301  36.120  30.693  1.00  0.00    -0.200 F 
ENDBRANCH  65  88
ENDBRANCH  39  40
ENDBRANCH  31  34
ENDBRANCH  29  30
ENDBRANCH  28  29
ENDBRANCH   1  28
TORSDOF 14
ENDMDL
