MODEL 1
REMARK VINA RESULT:     -13.1      0.000      0.000
REMARK SMILES O=C(NCCCNC(=O)[C@H]1CC[C@@H](CNC(=O)[C@@H]2C[C@H]3CC[C@@H]2[NH2+]3)O1)c1ccc(-c2c3nc(c(-c4c(F)c(F)c(F)c(F)c4F)c4ccc([nH]4)c(-c4c(F)c(F)c(F)c(F)c4F)c4nc(c(-c5c(F)c(F)c(F)c(F)c5F)c5ccc2[nH]5)C=C4)C=C3)cc1
REMARK SMILES IDX 5 1 4 2 3 3 1 4 2 5 26 7 27 8 88 9 28 10 87 11 29 12 30 13
REMARK SMILES IDX 31 14 81 15 32 16 86 17 80 18 82 19 33 20 85 21 79 22 78 23
REMARK SMILES IDX 34 25 66 26 46 27 65 28 47 29 50 30 64 31 83 32 48 33 49 34
REMARK SMILES IDX 63 36 84 37 51 38 35 39 36 40 44 41 37 42 38 43 42 44 45 45
REMARK SMILES IDX 39 46 40 47 43 48 41 49 67 50 68 51 76 52 69 53 70 54 74 55
REMARK SMILES IDX 77 56 71 57 72 58 75 59 73 60 52 61 53 62 61 63 54 64 55 65
REMARK SMILES IDX 59 66 62 67 56 68 57 69 60 70 58 71 6 72 7 73 8 74 9 76
REMARK SMILES IDX 10 77 11 78 25 79 12 80 13 81 14 82 15 83 16 84 17 86 18 87
REMARK SMILES IDX 19 88 23 89 20 90 22 91 24 92 21 93
REMARK H PARENT 3 6 82 24 50 35 7 75 15 85 24 94 24 95
REMARK Flexibility Score: inf
ROOT
ATOM      1  C   UNL A   1      31.451  32.149  26.779  1.00  0.00     0.042 C 
ENDROOT
BRANCH   1   2
ATOM      2  C   UNL A   1      32.725  32.825  27.272  1.00  0.00     0.118 C 
BRANCH   2   3
ATOM      3  N   UNL A   1      32.503  34.213  27.651  1.00  0.00    -0.352 N 
ATOM      4  O   UNL A   1      32.605  36.033  28.973  1.00  0.00    -0.269 OA
ATOM      5  C   UNL A   1      33.066  34.940  28.669  1.00  0.00     0.251 C 
ATOM      6  H   UNL A   1      31.852  34.701  27.097  1.00  0.00     0.163 HD
BRANCH   5   7
ATOM      7  C   UNL A   1      34.236  34.403  29.397  1.00  0.00     0.039 A 
ATOM      8  C   UNL A   1      34.060  33.664  30.570  1.00  0.00     0.014 A 
ATOM      9  C   UNL A   1      35.516  34.594  28.870  1.00  0.00     0.014 A 
ATOM     10  C   UNL A   1      35.168  33.207  31.272  1.00  0.00     0.010 A 
ATOM     11  C   UNL A   1      36.624  34.058  29.530  1.00  0.00     0.010 A 
ATOM     12  C   UNL A   1      36.456  33.363  30.737  1.00  0.00    -0.014 A 
BRANCH  12  13
ATOM     13  C   UNL A   1      37.592  32.661  31.384  1.00  0.00     0.031 A 
ATOM     14  C   UNL A   1      38.282  31.506  30.722  1.00  0.00     0.074 A 
ATOM     15  C   UNL A   1      37.985  33.089  32.601  1.00  0.00     0.049 A 
ATOM     16  N   UNL A   1      39.270  30.775  31.172  1.00  0.00    -0.248 NA
ATOM     17  C   UNL A   1      37.803  31.113  29.387  1.00  0.00     0.031 C 
ATOM     18  C   UNL A   1      37.366  34.192  33.343  1.00  0.00     0.029 A 
ATOM     19  N   UNL A   1      38.989  32.659  33.428  1.00  0.00    -0.354 N 
ATOM     20  C   UNL A   1      39.521  29.826  30.190  1.00  0.00     0.074 A 
ATOM     21  C   UNL A   1      38.571  30.063  29.123  1.00  0.00     0.031 C 
ATOM     22  C   UNL A   1      38.018  34.368  34.500  1.00  0.00     0.029 A 
ATOM     23  C   UNL A   1      39.050  33.345  34.617  1.00  0.00     0.049 A 
ATOM     24  H   UNL A   1      39.607  31.929  33.194  1.00  0.00     0.167 HD
ATOM     25  C   UNL A   1      40.461  28.852  30.190  1.00  0.00     0.037 A 
ATOM     26  C   UNL A   1      39.822  33.149  35.701  1.00  0.00     0.037 A 
ATOM     27  C   UNL A   1      41.412  28.644  31.252  1.00  0.00     0.049 A 
ATOM     28  C   UNL A   1      40.827  32.032  35.678  1.00  0.00     0.074 A 
ATOM     29  C   UNL A   1      42.454  27.734  31.307  1.00  0.00     0.029 A 
ATOM     30  N   UNL A   1      41.429  29.341  32.451  1.00  0.00    -0.354 N 
ATOM     31  N   UNL A   1      41.107  31.192  34.710  1.00  0.00    -0.248 NA
ATOM     32  C   UNL A   1      41.618  31.828  36.898  1.00  0.00     0.031 C 
ATOM     33  C   UNL A   1      43.056  27.831  32.565  1.00  0.00     0.029 A 
ATOM     34  C   UNL A   1      42.431  28.845  33.271  1.00  0.00     0.049 A 
ATOM     35  H   UNL A   1      40.819  30.078  32.685  1.00  0.00     0.167 HD
ATOM     36  C   UNL A   1      42.110  30.370  35.199  1.00  0.00     0.074 A 
ATOM     37  C   UNL A   1      42.416  30.835  36.537  1.00  0.00     0.031 C 
ATOM     38  C   UNL A   1      42.717  29.317  34.602  1.00  0.00     0.037 A 
BRANCH  25  39
ATOM     39  C   UNL A   1      40.515  27.910  29.022  1.00  0.00     0.064 A 
ATOM     40  C   UNL A   1      39.732  26.748  28.971  1.00  0.00     0.173 A 
ATOM     41  C   UNL A   1      41.274  28.240  27.888  1.00  0.00     0.173 A 
ATOM     42  F   UNL A   1      38.992  26.387  30.029  1.00  0.00    -0.203 F 
ATOM     43  C   UNL A   1      39.709  25.950  27.829  1.00  0.00     0.198 A 
ATOM     44  C   UNL A   1      41.230  27.454  26.740  1.00  0.00     0.198 A 
ATOM     45  F   UNL A   1      42.033  29.346  27.881  1.00  0.00    -0.203 F 
ATOM     46  F   UNL A   1      38.965  24.836  27.807  1.00  0.00    -0.200 F 
ATOM     47  C   UNL A   1      40.448  26.310  26.711  1.00  0.00     0.200 A 
ATOM     48  F   UNL A   1      41.930  27.814  25.655  1.00  0.00    -0.200 F 
ATOM     49  F   UNL A   1      40.403  25.556  25.604  1.00  0.00    -0.200 F 
ENDBRANCH  25  39
BRANCH  26  50
ATOM     50  C   UNL A   1      39.639  33.990  36.913  1.00  0.00     0.064 A 
ATOM     51  C   UNL A   1      38.852  33.555  37.988  1.00  0.00     0.173 A 
ATOM     52  C   UNL A   1      40.222  35.264  37.006  1.00  0.00     0.173 A 
ATOM     53  F   UNL A   1      38.258  32.353  37.940  1.00  0.00    -0.203 F 
ATOM     54  C   UNL A   1      38.627  34.375  39.091  1.00  0.00     0.198 A 
ATOM     55  C   UNL A   1      40.029  36.066  38.127  1.00  0.00     0.198 A 
ATOM     56  F   UNL A   1      40.989  35.727  36.007  1.00  0.00    -0.203 F 
ATOM     57  F   UNL A   1      37.816  33.961  40.074  1.00  0.00    -0.200 F 
ATOM     58  C   UNL A   1      39.218  35.627  39.162  1.00  0.00     0.200 A 
ATOM     59  F   UNL A   1      40.619  37.266  38.198  1.00  0.00    -0.200 F 
ATOM     60  F   UNL A   1      38.998  36.416  40.222  1.00  0.00    -0.200 F 
ENDBRANCH  26  50
BRANCH  38  61
ATOM     61  C   UNL A   1      43.778  28.605  35.388  1.00  0.00     0.064 A 
ATOM     62  C   UNL A   1      45.129  28.974  35.294  1.00  0.00     0.173 A 
ATOM     63  C   UNL A   1      43.440  27.566  36.267  1.00  0.00     0.173 A 
ATOM     64  F   UNL A   1      45.505  29.948  34.451  1.00  0.00    -0.203 F 
ATOM     65  C   UNL A   1      46.104  28.311  36.033  1.00  0.00     0.198 A 
ATOM     66  C   UNL A   1      44.414  26.929  37.030  1.00  0.00     0.198 A 
ATOM     67  F   UNL A   1      42.163  27.178  36.397  1.00  0.00    -0.203 F 
ATOM     68  F   UNL A   1      47.394  28.646  35.887  1.00  0.00    -0.200 F 
ATOM     69  C   UNL A   1      45.746  27.297  36.907  1.00  0.00     0.200 A 
ATOM     70  F   UNL A   1      44.064  25.958  37.885  1.00  0.00    -0.200 F 
ATOM     71  F   UNL A   1      46.684  26.666  37.624  1.00  0.00    -0.200 F 
ENDBRANCH  38  61
ENDBRANCH  12  13
ENDBRANCH   5   7
ENDBRANCH   2   3
ENDBRANCH   1   2
BRANCH   1  72
ATOM     72  C   UNL A   1      31.700  30.792  26.133  1.00  0.00     0.117 C 
BRANCH  72  73
ATOM     73  N   UNL A   1      31.572  29.716  27.097  1.00  0.00    -0.354 N 
ATOM     74  C   UNL A   1      31.764  28.377  26.900  1.00  0.00     0.249 C 
ATOM     75  H   UNL A   1      31.314  29.984  28.009  1.00  0.00     0.163 HD
ATOM     76  O   UNL A   1      31.503  27.616  27.831  1.00  0.00    -0.272 OA
BRANCH  74  77
ATOM     77  C   UNL A   1      32.342  27.901  25.549  1.00  0.00     0.207 C 
ATOM     78  C   UNL A   1      33.702  27.250  25.702  1.00  0.00     0.045 C 
ATOM     79  O   UNL A   1      31.511  26.915  24.917  1.00  0.00    -0.363 OA
ATOM     80  C   UNL A   1      33.330  25.821  25.999  1.00  0.00     0.037 C 
ATOM     81  C   UNL A   1      32.075  25.603  25.157  1.00  0.00     0.138 C 
BRANCH  81  82
ATOM     82  C   UNL A   1      31.022  24.732  25.858  1.00  0.00     0.147 C 
BRANCH  82  83
ATOM     83  N   UNL A   1      31.536  23.951  26.977  1.00  0.00    -0.353 N 
ATOM     84  C   UNL A   1      32.396  22.903  27.054  1.00  0.00     0.229 C 
ATOM     85  H   UNL A   1      31.189  24.241  27.852  1.00  0.00     0.163 HD
ATOM     86  O   UNL A   1      32.694  22.533  28.199  1.00  0.00    -0.275 OA
BRANCH  84  87
ATOM     87  C   UNL A   1      32.940  22.103  25.867  1.00  0.00     0.142 C 
ATOM     88  C   UNL A   1      32.033  21.120  25.122  1.00  0.00     0.084 C 
ATOM     89  C   UNL A   1      34.105  21.210  26.305  1.00  0.00     0.195 C 
ATOM     90  C   UNL A   1      32.686  19.759  25.446  1.00  0.00     0.183 C 
ATOM     91  C   UNL A   1      34.858  20.654  25.081  1.00  0.00     0.072 C 
ATOM     92  N   UNL A   1      33.354  20.017  26.735  1.00  0.00    -0.341 N 
ATOM     93  C   UNL A   1      33.913  19.559  24.562  1.00  0.00     0.071 C 
ATOM     94  H   UNL A   1      33.965  19.251  27.020  1.00  0.00     0.346 HD
ATOM     95  H   UNL A   1      32.751  20.125  27.552  1.00  0.00     0.346 HD
ENDBRANCH  84  87
ENDBRANCH  82  83
ENDBRANCH  81  82
ENDBRANCH  74  77
ENDBRANCH  72  73
ENDBRANCH   1  72
TORSDOF 13
ENDMDL
MODEL 2
REMARK VINA RESULT:     -13.0      6.003     11.200
REMARK SMILES O=C(NCCCNC(=O)[C@H]1CC[C@@H](CNC(=O)[C@@H]2C[C@H]3CC[C@@H]2[NH2+]3)O1)c1ccc(-c2c3nc(c(-c4c(F)c(F)c(F)c(F)c4F)c4ccc([nH]4)c(-c4c(F)c(F)c(F)c(F)c4F)c4nc(c(-c5c(F)c(F)c(F)c(F)c5F)c5ccc2[nH]5)C=C4)C=C3)cc1
REMARK SMILES IDX 5 1 4 2 3 3 1 4 2 5 26 7 27 8 88 9 28 10 87 11 29 12 30 13
REMARK SMILES IDX 31 14 81 15 32 16 86 17 80 18 82 19 33 20 85 21 79 22 78 23
REMARK SMILES IDX 34 25 66 26 46 27 65 28 47 29 50 30 64 31 83 32 48 33 49 34
REMARK SMILES IDX 63 36 84 37 51 38 35 39 36 40 44 41 37 42 38 43 42 44 45 45
REMARK SMILES IDX 39 46 40 47 43 48 41 49 67 50 68 51 76 52 69 53 70 54 74 55
REMARK SMILES IDX 77 56 71 57 72 58 75 59 73 60 52 61 53 62 61 63 54 64 55 65
REMARK SMILES IDX 59 66 62 67 56 68 57 69 60 70 58 71 6 72 7 73 8 74 9 76
REMARK SMILES IDX 10 77 11 78 25 79 12 80 13 81 14 82 15 83 16 84 17 86 18 87
REMARK SMILES IDX 19 88 23 89 20 90 22 91 24 92 21 93
REMARK H PARENT 3 6 82 24 50 35 7 75 15 85 24 94 24 95
REMARK Flexibility Score: inf
ROOT
ATOM      1  C   UNL A   1      38.154  19.995  25.001  1.00  0.00     0.042 C 
ENDROOT
BRANCH   1   2
ATOM      2  C   UNL A   1      39.178  20.239  26.102  1.00  0.00     0.118 C 
BRANCH   2   3
ATOM      3  N   UNL A   1      40.235  19.237  26.105  1.00  0.00    -0.352 N 
ATOM      4  O   UNL A   1      42.337  18.453  25.912  1.00  0.00    -0.269 OA
ATOM      5  C   UNL A   1      41.596  19.405  26.126  1.00  0.00     0.251 C 
ATOM      6  H   UNL A   1      39.927  18.302  26.090  1.00  0.00     0.163 HD
BRANCH   5   7
ATOM      7  C   UNL A   1      42.170  20.737  26.412  1.00  0.00     0.039 A 
ATOM      8  C   UNL A   1      42.465  21.619  25.368  1.00  0.00     0.014 A 
ATOM      9  C   UNL A   1      42.361  21.128  27.740  1.00  0.00     0.014 A 
ATOM     10  C   UNL A   1      43.049  22.848  25.645  1.00  0.00     0.010 A 
ATOM     11  C   UNL A   1      42.865  22.400  28.021  1.00  0.00     0.010 A 
ATOM     12  C   UNL A   1      43.215  23.267  26.974  1.00  0.00    -0.014 A 
BRANCH  12  13
ATOM     13  C   UNL A   1      43.616  24.670  27.240  1.00  0.00     0.031 A 
ATOM     14  C   UNL A   1      42.638  25.683  27.757  1.00  0.00     0.074 A 
ATOM     15  C   UNL A   1      44.896  25.016  26.993  1.00  0.00     0.049 A 
ATOM     16  N   UNL A   1      42.832  26.952  28.012  1.00  0.00    -0.248 NA
ATOM     17  C   UNL A   1      41.266  25.220  28.016  1.00  0.00     0.031 C 
ATOM     18  C   UNL A   1      45.924  24.112  26.468  1.00  0.00     0.029 A 
ATOM     19  N   UNL A   1      45.554  26.208  27.147  1.00  0.00    -0.354 N 
ATOM     20  C   UNL A   1      41.608  27.445  28.444  1.00  0.00     0.074 A 
ATOM     21  C   UNL A   1      40.671  26.342  28.403  1.00  0.00     0.031 C 
ATOM     22  C   UNL A   1      47.085  24.772  26.368  1.00  0.00     0.029 A 
ATOM     23  C   UNL A   1      46.869  26.162  26.748  1.00  0.00     0.049 A 
ATOM     24  H   UNL A   1      45.128  27.019  27.507  1.00  0.00     0.167 HD
ATOM     25  C   UNL A   1      41.306  28.705  28.836  1.00  0.00     0.037 A 
ATOM     26  C   UNL A   1      47.790  27.138  26.658  1.00  0.00     0.037 A 
ATOM     27  C   UNL A   1      42.256  29.787  28.890  1.00  0.00     0.049 A 
ATOM     28  C   UNL A   1      47.405  28.532  27.066  1.00  0.00     0.074 A 
ATOM     29  C   UNL A   1      42.064  31.078  29.350  1.00  0.00     0.029 A 
ATOM     30  N   UNL A   1      43.571  29.710  28.457  1.00  0.00    -0.354 N 
ATOM     31  N   UNL A   1      46.265  28.967  27.547  1.00  0.00    -0.248 NA
ATOM     32  C   UNL A   1      48.428  29.573  26.911  1.00  0.00     0.031 C 
ATOM     33  C   UNL A   1      43.239  31.802  29.129  1.00  0.00     0.029 A 
ATOM     34  C   UNL A   1      44.185  30.946  28.591  1.00  0.00     0.049 A 
ATOM     35  H   UNL A   1      44.004  28.898  28.104  1.00  0.00     0.167 HD
ATOM     36  C   UNL A   1      46.438  30.326  27.762  1.00  0.00     0.074 A 
ATOM     37  C   UNL A   1      47.804  30.637  27.393  1.00  0.00     0.031 C 
ATOM     38  C   UNL A   1      45.544  31.238  28.213  1.00  0.00     0.037 A 
BRANCH  25  39
ATOM     39  C   UNL A   1      39.888  29.013  29.226  1.00  0.00     0.064 A 
ATOM     40  C   UNL A   1      38.930  29.406  28.282  1.00  0.00     0.173 A 
ATOM     41  C   UNL A   1      39.460  28.795  30.545  1.00  0.00     0.173 A 
ATOM     42  F   UNL A   1      39.289  29.630  27.009  1.00  0.00    -0.203 F 
ATOM     43  C   UNL A   1      37.595  29.573  28.644  1.00  0.00     0.198 A 
ATOM     44  C   UNL A   1      38.121  28.939  30.898  1.00  0.00     0.198 A 
ATOM     45  F   UNL A   1      40.335  28.409  31.485  1.00  0.00    -0.203 F 
ATOM     46  F   UNL A   1      36.697  29.964  27.728  1.00  0.00    -0.200 F 
ATOM     47  C   UNL A   1      37.190  29.327  29.948  1.00  0.00     0.200 A 
ATOM     48  F   UNL A   1      37.730  28.683  32.154  1.00  0.00    -0.200 F 
ATOM     49  F   UNL A   1      35.900  29.462  30.288  1.00  0.00    -0.200 F 
ENDBRANCH  25  39
BRANCH  26  50
ATOM     50  C   UNL A   1      49.141  26.844  26.113  1.00  0.00     0.064 A 
ATOM     51  C   UNL A   1      49.437  27.043  24.758  1.00  0.00     0.173 A 
ATOM     52  C   UNL A   1      50.157  26.326  26.933  1.00  0.00     0.173 A 
ATOM     53  F   UNL A   1      48.496  27.519  23.929  1.00  0.00    -0.203 F 
ATOM     54  C   UNL A   1      50.684  26.702  24.237  1.00  0.00     0.198 A 
ATOM     55  C   UNL A   1      51.414  26.023  26.419  1.00  0.00     0.198 A 
ATOM     56  F   UNL A   1      49.928  26.122  28.239  1.00  0.00    -0.203 F 
ATOM     57  F   UNL A   1      50.917  26.839  22.925  1.00  0.00    -0.200 F 
ATOM     58  C   UNL A   1      51.672  26.197  25.068  1.00  0.00     0.200 A 
ATOM     59  F   UNL A   1      52.371  25.555  27.231  1.00  0.00    -0.200 F 
ATOM     60  F   UNL A   1      52.869  25.865  24.565  1.00  0.00    -0.200 F 
ENDBRANCH  26  50
BRANCH  38  61
ATOM     61  C   UNL A   1      46.021  32.655  28.340  1.00  0.00     0.064 A 
ATOM     62  C   UNL A   1      45.868  33.574  27.291  1.00  0.00     0.173 A 
ATOM     63  C   UNL A   1      46.606  33.108  29.532  1.00  0.00     0.173 A 
ATOM     64  F   UNL A   1      45.333  33.184  26.125  1.00  0.00    -0.203 F 
ATOM     65  C   UNL A   1      46.308  34.888  27.423  1.00  0.00     0.198 A 
ATOM     66  C   UNL A   1      47.013  34.432  29.671  1.00  0.00     0.198 A 
ATOM     67  F   UNL A   1      46.771  32.270  30.566  1.00  0.00    -0.203 F 
ATOM     68  F   UNL A   1      46.200  35.735  26.388  1.00  0.00    -0.200 F 
ATOM     69  C   UNL A   1      46.870  35.319  28.615  1.00  0.00     0.200 A 
ATOM     70  F   UNL A   1      47.543  34.849  30.829  1.00  0.00    -0.200 F 
ATOM     71  F   UNL A   1      47.284  36.586  28.743  1.00  0.00    -0.200 F 
ENDBRANCH  38  61
ENDBRANCH  12  13
ENDBRANCH   5   7
ENDBRANCH   2   3
ENDBRANCH   1   2
BRANCH   1  72
ATOM     72  C   UNL A   1      36.862  20.778  25.194  1.00  0.00     0.117 C 
BRANCH  72  73
ATOM     73  N   UNL A   1      36.555  21.588  24.031  1.00  0.00    -0.354 N 
ATOM     74  C   UNL A   1      36.054  22.859  23.994  1.00  0.00     0.249 C 
ATOM     75  H   UNL A   1      36.730  21.169  23.157  1.00  0.00     0.163 HD
ATOM     76  O   UNL A   1      35.767  23.332  22.895  1.00  0.00    -0.272 OA
BRANCH  74  77
ATOM     77  C   UNL A   1      35.925  23.645  25.317  1.00  0.00     0.207 C 
ATOM     78  C   UNL A   1      34.892  24.751  25.232  1.00  0.00     0.045 C 
ATOM     79  O   UNL A   1      35.508  22.811  26.409  1.00  0.00    -0.363 OA
ATOM     80  C   UNL A   1      33.625  24.020  25.592  1.00  0.00     0.037 C 
ATOM     81  C   UNL A   1      34.090  23.002  26.631  1.00  0.00     0.138 C 
BRANCH  81  82
ATOM     82  C   UNL A   1      33.382  21.645  26.506  1.00  0.00     0.147 C 
BRANCH  82  83
ATOM     83  N   UNL A   1      32.994  21.293  25.145  1.00  0.00    -0.353 N 
ATOM     84  C   UNL A   1      32.927  20.111  24.479  1.00  0.00     0.229 C 
ATOM     85  H   UNL A   1      32.726  22.068  24.599  1.00  0.00     0.163 HD
ATOM     86  O   UNL A   1      32.454  20.162  23.334  1.00  0.00    -0.275 OA
BRANCH  84  87
ATOM     87  C   UNL A   1      33.465  18.770  24.984  1.00  0.00     0.142 C 
ATOM     88  C   UNL A   1      34.618  18.078  24.251  1.00  0.00     0.084 C 
ATOM     89  C   UNL A   1      32.368  17.702  24.956  1.00  0.00     0.195 C 
ATOM     90  C   UNL A   1      33.939  16.807  23.695  1.00  0.00     0.183 C 
ATOM     91  C   UNL A   1      32.798  16.454  25.751  1.00  0.00     0.072 C 
ATOM     92  N   UNL A   1      32.528  17.219  23.572  1.00  0.00    -0.341 N 
ATOM     93  C   UNL A   1      33.804  15.773  24.809  1.00  0.00     0.071 C 
ATOM     94  H   UNL A   1      31.910  16.437  23.356  1.00  0.00     0.346 HD
ATOM     95  H   UNL A   1      32.306  17.880  22.827  1.00  0.00     0.346 HD
ENDBRANCH  84  87
ENDBRANCH  82  83
ENDBRANCH  81  82
ENDBRANCH  74  77
ENDBRANCH  72  73
ENDBRANCH   1  72
TORSDOF 13
ENDMDL
MODEL 3
REMARK VINA RESULT:     -12.9      2.064      4.042
REMARK SMILES O=C(NCCCNC(=O)[C@H]1CC[C@@H](CNC(=O)[C@@H]2C[C@H]3CC[C@@H]2[NH2+]3)O1)c1ccc(-c2c3nc(c(-c4c(F)c(F)c(F)c(F)c4F)c4ccc([nH]4)c(-c4c(F)c(F)c(F)c(F)c4F)c4nc(c(-c5c(F)c(F)c(F)c(F)c5F)c5ccc2[nH]5)C=C4)C=C3)cc1
REMARK SMILES IDX 5 1 4 2 3 3 1 4 2 5 26 7 27 8 88 9 28 10 87 11 29 12 30 13
REMARK SMILES IDX 31 14 81 15 32 16 86 17 80 18 82 19 33 20 85 21 79 22 78 23
REMARK SMILES IDX 34 25 66 26 46 27 65 28 47 29 50 30 64 31 83 32 48 33 49 34
REMARK SMILES IDX 63 36 84 37 51 38 35 39 36 40 44 41 37 42 38 43 42 44 45 45
REMARK SMILES IDX 39 46 40 47 43 48 41 49 67 50 68 51 76 52 69 53 70 54 74 55
REMARK SMILES IDX 77 56 71 57 72 58 75 59 73 60 52 61 53 62 61 63 54 64 55 65
REMARK SMILES IDX 59 66 62 67 56 68 57 69 60 70 58 71 6 72 7 73 8 74 9 76
REMARK SMILES IDX 10 77 11 78 25 79 12 80 13 81 14 82 15 83 16 84 17 86 18 87
REMARK SMILES IDX 19 88 23 89 20 90 22 91 24 92 21 93
REMARK H PARENT 3 6 82 24 50 35 7 75 15 85 24 94 24 95
REMARK Flexibility Score: inf
ROOT
ATOM      1  C   UNL A   1      31.533  31.757  26.509  1.00  0.00     0.042 C 
ENDROOT
BRANCH   1   2
ATOM      2  C   UNL A   1      32.720  32.389  27.225  1.00  0.00     0.118 C 
BRANCH   2   3
ATOM      3  N   UNL A   1      32.497  33.796  27.529  1.00  0.00    -0.352 N 
ATOM      4  O   UNL A   1      32.593  35.683  28.754  1.00  0.00    -0.269 OA
ATOM      5  C   UNL A   1      33.055  34.574  28.511  1.00  0.00     0.251 C 
ATOM      6  H   UNL A   1      31.852  34.255  26.945  1.00  0.00     0.163 HD
BRANCH   5   7
ATOM      7  C   UNL A   1      34.218  34.075  29.276  1.00  0.00     0.039 A 
ATOM      8  C   UNL A   1      34.030  33.301  30.425  1.00  0.00     0.014 A 
ATOM      9  C   UNL A   1      35.507  34.337  28.806  1.00  0.00     0.014 A 
ATOM     10  C   UNL A   1      35.128  32.880  31.163  1.00  0.00     0.010 A 
ATOM     11  C   UNL A   1      36.612  33.837  29.501  1.00  0.00     0.010 A 
ATOM     12  C   UNL A   1      36.428  33.107  30.685  1.00  0.00    -0.014 A 
BRANCH  12  13
ATOM     13  C   UNL A   1      37.568  32.443  31.363  1.00  0.00     0.031 A 
ATOM     14  C   UNL A   1      38.293  31.291  30.735  1.00  0.00     0.074 A 
ATOM     15  C   UNL A   1      37.932  32.903  32.577  1.00  0.00     0.049 A 
ATOM     16  N   UNL A   1      39.290  30.591  31.215  1.00  0.00    -0.248 NA
ATOM     17  C   UNL A   1      37.845  30.861  29.401  1.00  0.00     0.031 C 
ATOM     18  C   UNL A   1      37.278  34.007  33.288  1.00  0.00     0.029 A 
ATOM     19  N   UNL A   1      38.932  32.512  33.428  1.00  0.00    -0.354 N 
ATOM     20  C   UNL A   1      39.578  29.629  30.256  1.00  0.00     0.074 A 
ATOM     21  C   UNL A   1      38.640  29.824  29.169  1.00  0.00     0.031 C 
ATOM     22  C   UNL A   1      37.907  34.219  34.451  1.00  0.00     0.029 A 
ATOM     23  C   UNL A   1      38.959  33.222  34.605  1.00  0.00     0.049 A 
ATOM     24  H   UNL A   1      39.569  31.791  33.219  1.00  0.00     0.167 HD
ATOM     25  C   UNL A   1      40.539  28.676  30.290  1.00  0.00     0.037 A 
ATOM     26  C   UNL A   1      39.717  33.064  35.704  1.00  0.00     0.037 A 
ATOM     27  C   UNL A   1      41.477  28.509  31.371  1.00  0.00     0.049 A 
ATOM     28  C   UNL A   1      40.746  31.970  35.719  1.00  0.00     0.074 A 
ATOM     29  C   UNL A   1      42.538  27.624  31.460  1.00  0.00     0.029 A 
ATOM     30  N   UNL A   1      41.459  29.230  32.555  1.00  0.00    -0.354 N 
ATOM     31  N   UNL A   1      41.060  31.118  34.773  1.00  0.00    -0.248 NA
ATOM     32  C   UNL A   1      41.522  31.807  36.955  1.00  0.00     0.031 C 
ATOM     33  C   UNL A   1      43.116  27.760  32.725  1.00  0.00     0.029 A 
ATOM     34  C   UNL A   1      42.458  28.773  33.401  1.00  0.00     0.049 A 
ATOM     35  H   UNL A   1      40.829  29.958  32.765  1.00  0.00     0.167 HD
ATOM     36  C   UNL A   1      42.074  30.328  35.294  1.00  0.00     0.074 A 
ATOM     37  C   UNL A   1      42.348  30.825  36.626  1.00  0.00     0.031 C 
ATOM     38  C   UNL A   1      42.713  29.277  34.726  1.00  0.00     0.037 A 
BRANCH  25  39
ATOM     39  C   UNL A   1      40.632  27.712  29.142  1.00  0.00     0.064 A 
ATOM     40  C   UNL A   1      39.769  26.614  29.025  1.00  0.00     0.173 A 
ATOM     41  C   UNL A   1      41.522  27.964  28.085  1.00  0.00     0.173 A 
ATOM     42  F   UNL A   1      38.903  26.329  30.008  1.00  0.00    -0.203 F 
ATOM     43  C   UNL A   1      39.795  25.801  27.894  1.00  0.00     0.198 A 
ATOM     44  C   UNL A   1      41.528  27.164  26.946  1.00  0.00     0.198 A 
ATOM     45  F   UNL A   1      42.362  29.008  28.143  1.00  0.00    -0.203 F 
ATOM     46  F   UNL A   1      38.971  24.747  27.809  1.00  0.00    -0.200 F 
ATOM     47  C   UNL A   1      40.665  26.084  26.851  1.00  0.00     0.200 A 
ATOM     48  F   UNL A   1      42.356  27.451  25.932  1.00  0.00    -0.200 F 
ATOM     49  F   UNL A   1      40.669  25.316  25.752  1.00  0.00    -0.200 F 
ENDBRANCH  25  39
BRANCH  26  50
ATOM     50  C   UNL A   1      39.496  33.925  36.896  1.00  0.00     0.064 A 
ATOM     51  C   UNL A   1      40.086  35.192  36.996  1.00  0.00     0.173 A 
ATOM     52  C   UNL A   1      38.715  33.483  37.975  1.00  0.00     0.173 A 
ATOM     53  F   UNL A   1      40.856  35.654  36.000  1.00  0.00    -0.203 F 
ATOM     54  C   UNL A   1      39.932  35.967  38.144  1.00  0.00     0.198 A 
ATOM     55  C   UNL A   1      38.529  34.275  39.104  1.00  0.00     0.198 A 
ATOM     56  F   UNL A   1      38.123  32.280  37.928  1.00  0.00    -0.203 F 
ATOM     57  F   UNL A   1      40.562  37.146  38.241  1.00  0.00    -0.200 F 
ATOM     58  C   UNL A   1      39.151  35.511  39.194  1.00  0.00     0.200 A 
ATOM     59  F   UNL A   1      37.757  33.837  40.107  1.00  0.00    -0.200 F 
ATOM     60  F   UNL A   1      39.007  36.255  40.298  1.00  0.00    -0.200 F 
ENDBRANCH  26  50
BRANCH  38  61
ATOM     61  C   UNL A   1      43.777  28.604  35.543  1.00  0.00     0.064 A 
ATOM     62  C   UNL A   1      43.465  27.572  36.441  1.00  0.00     0.173 A 
ATOM     63  C   UNL A   1      45.123  28.970  35.404  1.00  0.00     0.173 A 
ATOM     64  F   UNL A   1      42.189  27.199  36.624  1.00  0.00    -0.203 F 
ATOM     65  C   UNL A   1      44.460  26.949  37.188  1.00  0.00     0.198 A 
ATOM     66  C   UNL A   1      46.119  28.322  36.128  1.00  0.00     0.198 A 
ATOM     67  F   UNL A   1      45.475  29.948  34.556  1.00  0.00    -0.203 F 
ATOM     68  F   UNL A   1      44.132  26.002  38.079  1.00  0.00    -0.200 F 
ATOM     69  C   UNL A   1      45.787  27.317  37.024  1.00  0.00     0.200 A 
ATOM     70  F   UNL A   1      47.402  28.669  35.957  1.00  0.00    -0.200 F 
ATOM     71  F   UNL A   1      46.744  26.711  37.738  1.00  0.00    -0.200 F 
ENDBRANCH  38  61
ENDBRANCH  12  13
ENDBRANCH   5   7
ENDBRANCH   2   3
ENDBRANCH   1   2
BRANCH   1  72
ATOM     72  C   UNL A   1      31.879  30.454  25.801  1.00  0.00     0.117 C 
BRANCH  72  73
ATOM     73  N   UNL A   1      31.403  29.304  26.546  1.00  0.00    -0.354 N 
ATOM     74  C   UNL A   1      31.985  28.074  26.665  1.00  0.00     0.249 C 
ATOM     75  H   UNL A   1      30.553  29.426  27.027  1.00  0.00     0.163 HD
ATOM     76  O   UNL A   1      31.363  27.198  27.265  1.00  0.00    -0.272 OA
BRANCH  74  77
ATOM     77  C   UNL A   1      33.404  27.865  26.090  1.00  0.00     0.207 C 
ATOM     78  C   UNL A   1      33.679  26.414  25.748  1.00  0.00     0.045 C 
ATOM     79  O   UNL A   1      33.612  28.595  24.872  1.00  0.00    -0.363 OA
ATOM     80  C   UNL A   1      33.142  26.320  24.344  1.00  0.00     0.037 C 
ATOM     81  C   UNL A   1      33.466  27.689  23.751  1.00  0.00     0.138 C 
BRANCH  81  82
ATOM     82  C   UNL A   1      32.365  28.222  22.823  1.00  0.00     0.147 C 
BRANCH  82  83
ATOM     83  N   UNL A   1      31.014  27.822  23.203  1.00  0.00    -0.353 N 
ATOM     84  C   UNL A   1      29.804  28.427  23.084  1.00  0.00     0.229 C 
ATOM     85  H   UNL A   1      30.972  26.936  23.630  1.00  0.00     0.163 HD
ATOM     86  O   UNL A   1      28.826  27.750  23.434  1.00  0.00    -0.275 OA
BRANCH  84  87
ATOM     87  C   UNL A   1      29.567  29.877  22.653  1.00  0.00     0.142 C 
ATOM     88  C   UNL A   1      29.152  30.928  23.685  1.00  0.00     0.084 C 
ATOM     89  C   UNL A   1      28.434  29.957  21.626  1.00  0.00     0.195 C 
ATOM     90  C   UNL A   1      27.722  31.290  23.230  1.00  0.00     0.183 C 
ATOM     91  C   UNL A   1      28.403  31.343  20.952  1.00  0.00     0.072 C 
ATOM     92  N   UNL A   1      27.281  30.065  22.538  1.00  0.00    -0.341 N 
ATOM     93  C   UNL A   1      27.791  32.241  22.039  1.00  0.00     0.071 C 
ATOM     94  H   UNL A   1      26.399  30.192  22.041  1.00  0.00     0.346 HD
ATOM     95  H   UNL A   1      27.082  29.253  23.123  1.00  0.00     0.346 HD
ENDBRANCH  84  87
ENDBRANCH  82  83
ENDBRANCH  81  82
ENDBRANCH  74  77
ENDBRANCH  72  73
ENDBRANCH   1  72
TORSDOF 13
ENDMDL
