MODEL 1
REMARK VINA RESULT:     -12.5      0.000      0.000
REMARK SMILES Cc1[nH]c(=O)sc1S(=O)(=O)NC1(CC(=O)NCCCNC(=O)c2ccc(-c3c4nc(c(-c5c(F)c(F)c(F)c(F)c5F)c5ccc([nH]5)c(-c5c(F)c(F)c(F)c(F)c5F)c5nc(c(-c6c(F)c(F)c(F)c(F)c6F)c6ccc3[nH]6)C=C5)C=C4)cc2)CCC1
REMARK SMILES IDX 17 1 16 2 14 3 15 4 13 6 12 7 86 8 88 9 87 10 11 11 8 13
REMARK SMILES IDX 9 14 10 15 7 16 1 17 2 18 3 19 4 20 6 22 5 23 18 24 19 25
REMARK SMILES IDX 20 26 21 27 22 29 23 30 24 31 85 32 25 33 84 34 26 35 27 36
REMARK SMILES IDX 28 37 78 38 29 39 83 40 77 41 79 42 30 43 82 44 76 45 75 46
REMARK SMILES IDX 31 48 63 49 43 50 62 51 44 52 47 53 61 54 80 55 45 56 46 57
REMARK SMILES IDX 60 59 81 60 48 61 32 62 33 63 41 64 34 65 35 66 39 67 42 68
REMARK SMILES IDX 36 69 37 70 40 71 38 72 64 73 65 74 73 75 66 76 67 77 71 78
REMARK SMILES IDX 74 79 68 80 69 81 72 82 70 83 49 84 50 85 58 86 51 87 52 88
REMARK SMILES IDX 56 89 59 90 53 91 54 92 57 93 55 94
REMARK H PARENT 16 5 11 12 3 21 20 28 79 47 47 58
REMARK Flexibility Score: inf
ROOT
ATOM      1  C   UNL A   1      35.992  21.324  25.715  1.00  0.00     0.117 C 
ENDROOT
BRANCH   1   2
ATOM      2  N   UNL A   1      35.099  20.340  25.112  1.00  0.00    -0.356 N 
ATOM      3  C   UNL A   1      33.746  20.328  24.970  1.00  0.00     0.221 C 
ATOM      4  O   UNL A   1      33.301  19.659  24.037  1.00  0.00    -0.275 OA
ATOM      5  H   UNL A   1      35.554  19.548  24.744  1.00  0.00     0.163 HD
BRANCH   3   6
ATOM      6  C   UNL A   1      32.807  21.110  25.846  1.00  0.00     0.123 C 
BRANCH   6   7
ATOM      7  C   UNL A   1      32.457  22.566  25.489  1.00  0.00     0.042 C 
ATOM      8  C   UNL A   1      32.289  23.400  26.828  1.00  0.00     0.024 C 
ATOM      9  C   UNL A   1      30.947  22.910  25.269  1.00  0.00     0.024 C 
ATOM     10  C   UNL A   1      30.787  23.096  26.782  1.00  0.00     0.004 C 
BRANCH   7  11
ATOM     11  N   UNL A   1      33.392  23.296  24.549  1.00  0.00    -0.204 NA
ATOM     12  H   UNL A   1      33.499  24.200  25.008  1.00  0.00     0.142 HD
BRANCH  11  13
ATOM     13  S   UNL A   1      33.404  23.717  22.917  1.00  0.00     0.252 S 
ATOM     14  O   UNL A   1      32.722  22.630  22.249  1.00  0.00    -0.206 OA
ATOM     15  O   UNL A   1      34.814  23.935  22.647  1.00  0.00    -0.206 OA
BRANCH  13  16
ATOM     16  C   UNL A   1      32.589  25.214  22.681  1.00  0.00     0.158 A 
ATOM     17  C   UNL A   1      32.661  25.262  20.091  1.00  0.00     0.067 C 
ATOM     18  C   UNL A   1      32.386  25.759  21.471  1.00  0.00     0.046 A 
ATOM     19  N   UNL A   1      31.863  27.029  21.570  1.00  0.00    -0.315 N 
ATOM     20  C   UNL A   1      31.671  27.497  22.833  1.00  0.00     0.305 A 
ATOM     21  H   UNL A   1      31.644  27.567  20.775  1.00  0.00     0.170 HD
ATOM     22  S   UNL A   1      31.908  26.202  23.960  1.00  0.00    -0.061 S 
ATOM     23  O   UNL A   1      31.446  28.677  23.153  1.00  0.00    -0.257 OA
ENDBRANCH  13  16
ENDBRANCH  11  13
ENDBRANCH   7  11
ENDBRANCH   6   7
ENDBRANCH   3   6
ENDBRANCH   1   2
BRANCH   1  24
ATOM     24  C   UNL A   1      37.375  21.428  25.048  1.00  0.00     0.042 C 
BRANCH  24  25
ATOM     25  C   UNL A   1      38.331  22.387  25.734  1.00  0.00     0.118 C 
BRANCH  25  26
ATOM     26  N   UNL A   1      39.658  21.876  26.077  1.00  0.00    -0.352 N 
ATOM     27  C   UNL A   1      40.759  22.566  26.596  1.00  0.00     0.251 C 
ATOM     28  H   UNL A   1      39.796  20.913  25.921  1.00  0.00     0.163 HD
ATOM     29  O   UNL A   1      41.852  22.014  26.664  1.00  0.00    -0.269 OA
BRANCH  27  30
ATOM     30  C   UNL A   1      40.620  23.977  27.052  1.00  0.00     0.039 A 
ATOM     31  C   UNL A   1      39.471  24.767  26.903  1.00  0.00     0.014 A 
ATOM     32  C   UNL A   1      41.685  24.534  27.709  1.00  0.00     0.014 A 
ATOM     33  C   UNL A   1      39.478  26.092  27.391  1.00  0.00     0.010 A 
ATOM     34  C   UNL A   1      41.415  25.525  28.593  1.00  0.00     0.010 A 
ATOM     35  C   UNL A   1      40.534  26.489  28.202  1.00  0.00    -0.014 A 
BRANCH  35  36
ATOM     36  C   UNL A   1      40.799  27.792  28.805  1.00  0.00     0.031 A 
ATOM     37  C   UNL A   1      41.949  28.523  28.239  1.00  0.00     0.074 A 
ATOM     38  C   UNL A   1      39.872  28.477  29.529  1.00  0.00     0.049 A 
ATOM     39  N   UNL A   1      43.052  28.821  28.835  1.00  0.00    -0.248 NA
ATOM     40  C   UNL A   1      41.916  28.889  26.814  1.00  0.00     0.031 C 
ATOM     41  C   UNL A   1      38.487  28.104  29.857  1.00  0.00     0.029 A 
ATOM     42  N   UNL A   1      39.954  29.738  30.049  1.00  0.00    -0.354 N 
ATOM     43  C   UNL A   1      43.787  29.566  27.924  1.00  0.00     0.074 A 
ATOM     44  C   UNL A   1      43.129  29.417  26.651  1.00  0.00     0.031 C 
ATOM     45  C   UNL A   1      37.814  29.179  30.330  1.00  0.00     0.029 A 
ATOM     46  C   UNL A   1      38.752  30.269  30.506  1.00  0.00     0.049 A 
ATOM     47  H   UNL A   1      40.804  30.235  30.096  1.00  0.00     0.167 HD
ATOM     48  C   UNL A   1      44.743  30.441  28.339  1.00  0.00     0.037 A 
ATOM     49  C   UNL A   1      38.543  31.522  30.983  1.00  0.00     0.037 A 
ATOM     50  C   UNL A   1      45.075  30.239  29.729  1.00  0.00     0.049 A 
ATOM     51  C   UNL A   1      39.865  32.059  31.389  1.00  0.00     0.074 A 
ATOM     52  C   UNL A   1      45.545  29.168  30.466  1.00  0.00     0.029 A 
ATOM     53  N   UNL A   1      44.552  31.112  30.652  1.00  0.00    -0.354 N 
ATOM     54  N   UNL A   1      40.570  31.581  32.377  1.00  0.00    -0.248 NA
ATOM     55  C   UNL A   1      40.610  32.826  30.403  1.00  0.00     0.031 C 
ATOM     56  C   UNL A   1      44.826  29.225  31.699  1.00  0.00     0.029 A 
ATOM     57  C   UNL A   1      44.010  30.355  31.661  1.00  0.00     0.049 A 
ATOM     58  H   UNL A   1      44.566  32.096  30.600  1.00  0.00     0.167 HD
ATOM     59  C   UNL A   1      41.879  31.611  31.923  1.00  0.00     0.074 A 
ATOM     60  C   UNL A   1      41.851  32.471  30.741  1.00  0.00     0.031 C 
ATOM     61  C   UNL A   1      42.802  30.708  32.369  1.00  0.00     0.037 A 
BRANCH  48  62
ATOM     62  C   UNL A   1      45.131  31.691  27.598  1.00  0.00     0.064 A 
ATOM     63  C   UNL A   1      46.426  31.790  27.057  1.00  0.00     0.173 A 
ATOM     64  C   UNL A   1      44.388  32.889  27.634  1.00  0.00     0.173 A 
ATOM     65  F   UNL A   1      47.225  30.713  26.998  1.00  0.00    -0.203 F 
ATOM     66  C   UNL A   1      46.960  33.013  26.644  1.00  0.00     0.198 A 
ATOM     67  C   UNL A   1      44.902  34.097  27.167  1.00  0.00     0.198 A 
ATOM     68  F   UNL A   1      43.188  32.966  28.222  1.00  0.00    -0.203 F 
ATOM     69  F   UNL A   1      48.238  33.080  26.251  1.00  0.00    -0.200 F 
ATOM     70  C   UNL A   1      46.198  34.165  26.702  1.00  0.00     0.200 A 
ATOM     71  F   UNL A   1      44.153  35.206  27.245  1.00  0.00    -0.200 F 
ATOM     72  F   UNL A   1      46.726  35.348  26.359  1.00  0.00    -0.200 F 
ENDBRANCH  48  62
BRANCH  49  73
ATOM     73  C   UNL A   1      37.343  32.383  30.831  1.00  0.00     0.064 A 
ATOM     74  C   UNL A   1      37.037  33.015  29.614  1.00  0.00     0.173 A 
ATOM     75  C   UNL A   1      36.321  32.369  31.801  1.00  0.00     0.173 A 
ATOM     76  F   UNL A   1      37.932  33.026  28.616  1.00  0.00    -0.203 F 
ATOM     77  C   UNL A   1      35.778  33.584  29.377  1.00  0.00     0.198 A 
ATOM     78  C   UNL A   1      35.069  32.941  31.567  1.00  0.00     0.198 A 
ATOM     79  F   UNL A   1      36.486  31.703  32.952  1.00  0.00    -0.203 F 
ATOM     80  F   UNL A   1      35.500  34.122  28.181  1.00  0.00    -0.200 F 
ATOM     81  C   UNL A   1      34.793  33.538  30.351  1.00  0.00     0.200 A 
ATOM     82  F   UNL A   1      34.109  32.846  32.497  1.00  0.00    -0.200 F 
ATOM     83  F   UNL A   1      33.569  34.023  30.100  1.00  0.00    -0.200 F 
ENDBRANCH  49  73
BRANCH  61  84
ATOM     84  C   UNL A   1      42.418  29.836  33.537  1.00  0.00     0.064 A 
ATOM     85  C   UNL A   1      41.870  28.548  33.404  1.00  0.00     0.173 A 
ATOM     86  C   UNL A   1      42.753  30.255  34.829  1.00  0.00     0.173 A 
ATOM     87  F   UNL A   1      41.619  28.028  32.200  1.00  0.00    -0.203 F 
ATOM     88  C   UNL A   1      41.628  27.737  34.511  1.00  0.00     0.198 A 
ATOM     89  C   UNL A   1      42.544  29.430  35.934  1.00  0.00     0.198 A 
ATOM     90  F   UNL A   1      43.335  31.449  35.018  1.00  0.00    -0.203 F 
ATOM     91  F   UNL A   1      41.099  26.516  34.350  1.00  0.00    -0.200 F 
ATOM     92  C   UNL A   1      41.973  28.177  35.776  1.00  0.00     0.200 A 
ATOM     93  F   UNL A   1      42.924  29.840  37.151  1.00  0.00    -0.200 F 
ATOM     94  F   UNL A   1      41.783  27.384  36.840  1.00  0.00    -0.200 F 
ENDBRANCH  61  84
ENDBRANCH  35  36
ENDBRANCH  27  30
ENDBRANCH  25  26
ENDBRANCH  24  25
ENDBRANCH   1  24
TORSDOF 14
ENDMDL
MODEL 2
REMARK VINA RESULT:     -12.4      1.468      2.477
REMARK SMILES Cc1[nH]c(=O)sc1S(=O)(=O)NC1(CC(=O)NCCCNC(=O)c2ccc(-c3c4nc(c(-c5c(F)c(F)c(F)c(F)c5F)c5ccc([nH]5)c(-c5c(F)c(F)c(F)c(F)c5F)c5nc(c(-c6c(F)c(F)c(F)c(F)c6F)c6ccc3[nH]6)C=C5)C=C4)cc2)CCC1
REMARK SMILES IDX 17 1 16 2 14 3 15 4 13 6 12 7 86 8 88 9 87 10 11 11 8 13
REMARK SMILES IDX 9 14 10 15 7 16 1 17 2 18 3 19 4 20 6 22 5 23 18 24 19 25
REMARK SMILES IDX 20 26 21 27 22 29 23 30 24 31 85 32 25 33 84 34 26 35 27 36
REMARK SMILES IDX 28 37 78 38 29 39 83 40 77 41 79 42 30 43 82 44 76 45 75 46
REMARK SMILES IDX 31 48 63 49 43 50 62 51 44 52 47 53 61 54 80 55 45 56 46 57
REMARK SMILES IDX 60 59 81 60 48 61 32 62 33 63 41 64 34 65 35 66 39 67 42 68
REMARK SMILES IDX 36 69 37 70 40 71 38 72 64 73 65 74 73 75 66 76 67 77 71 78
REMARK SMILES IDX 74 79 68 80 69 81 72 82 70 83 49 84 50 85 58 86 51 87 52 88
REMARK SMILES IDX 56 89 59 90 53 91 54 92 57 93 55 94
REMARK H PARENT 16 5 11 12 3 21 20 28 79 47 47 58
REMARK Flexibility Score: inf
ROOT
ATOM      1  C   UNL A   1      37.597  22.086  25.184  1.00  0.00     0.117 C 
ENDROOT
BRANCH   1   2
ATOM      2  N   UNL A   1      36.527  22.252  26.163  1.00  0.00    -0.356 N 
ATOM      3  C   UNL A   1      35.324  21.631  26.286  1.00  0.00     0.221 C 
ATOM      4  O   UNL A   1      34.841  21.597  27.419  1.00  0.00    -0.275 OA
ATOM      5  H   UNL A   1      36.708  22.931  26.853  1.00  0.00     0.163 HD
BRANCH   3   6
ATOM      6  C   UNL A   1      34.605  20.966  25.145  1.00  0.00     0.123 C 
BRANCH   6   7
ATOM      7  C   UNL A   1      33.076  20.793  25.197  1.00  0.00     0.042 C 
ATOM      8  C   UNL A   1      32.736  19.251  25.352  1.00  0.00     0.024 C 
ATOM      9  C   UNL A   1      32.319  20.664  23.835  1.00  0.00     0.024 C 
ATOM     10  C   UNL A   1      32.629  19.162  23.825  1.00  0.00     0.004 C 
BRANCH   7  11
ATOM     11  N   UNL A   1      32.321  21.588  26.241  1.00  0.00    -0.204 NA
ATOM     12  H   UNL A   1      31.733  20.875  26.673  1.00  0.00     0.142 HD
BRANCH  11  13
ATOM     13  S   UNL A   1      31.319  22.943  26.260  1.00  0.00     0.252 S 
ATOM     14  O   UNL A   1      31.607  23.597  27.518  1.00  0.00    -0.206 OA
ATOM     15  O   UNL A   1      30.000  22.376  26.046  1.00  0.00    -0.206 OA
BRANCH  13  16
ATOM     16  C   UNL A   1      31.673  23.964  24.921  1.00  0.00     0.158 A 
ATOM     17  C   UNL A   1      33.960  24.863  25.745  1.00  0.00     0.067 C 
ATOM     18  C   UNL A   1      32.771  24.734  24.852  1.00  0.00     0.046 A 
ATOM     19  N   UNL A   1      32.732  25.573  23.762  1.00  0.00    -0.315 N 
ATOM     20  C   UNL A   1      31.617  25.490  22.986  1.00  0.00     0.305 A 
ATOM     21  H   UNL A   1      33.466  26.197  23.557  1.00  0.00     0.170 HD
ATOM     22  S   UNL A   1      30.680  24.121  23.484  1.00  0.00    -0.061 S 
ATOM     23  O   UNL A   1      31.267  26.304  22.114  1.00  0.00    -0.257 OA
ENDBRANCH  13  16
ENDBRANCH  11  13
ENDBRANCH   7  11
ENDBRANCH   6   7
ENDBRANCH   3   6
ENDBRANCH   1   2
BRANCH   1  24
ATOM     24  C   UNL A   1      38.833  21.332  25.707  1.00  0.00     0.042 C 
BRANCH  24  25
ATOM     25  C   UNL A   1      39.730  22.152  26.617  1.00  0.00     0.118 C 
BRANCH  25  26
ATOM     26  N   UNL A   1      41.174  22.012  26.432  1.00  0.00    -0.352 N 
ATOM     27  C   UNL A   1      42.164  23.000  26.467  1.00  0.00     0.251 C 
ATOM     28  H   UNL A   1      41.494  21.097  26.259  1.00  0.00     0.163 HD
ATOM     29  O   UNL A   1      43.310  22.733  26.121  1.00  0.00    -0.269 OA
BRANCH  27  30
ATOM     30  C   UNL A   1      41.835  24.385  26.906  1.00  0.00     0.039 A 
ATOM     31  C   UNL A   1      40.771  25.158  26.418  1.00  0.00     0.014 A 
ATOM     32  C   UNL A   1      42.606  24.930  27.898  1.00  0.00     0.014 A 
ATOM     33  C   UNL A   1      40.573  26.458  26.932  1.00  0.00     0.010 A 
ATOM     34  C   UNL A   1      42.028  25.873  28.681  1.00  0.00     0.010 A 
ATOM     35  C   UNL A   1      41.291  26.837  28.059  1.00  0.00    -0.014 A 
BRANCH  35  36
ATOM     36  C   UNL A   1      41.299  28.115  28.766  1.00  0.00     0.031 A 
ATOM     37  C   UNL A   1      42.359  29.054  28.352  1.00  0.00     0.074 A 
ATOM     38  C   UNL A   1      40.222  28.593  29.446  1.00  0.00     0.049 A 
ATOM     39  N   UNL A   1      43.352  29.468  29.062  1.00  0.00    -0.248 NA
ATOM     40  C   UNL A   1      42.381  29.519  26.957  1.00  0.00     0.031 C 
ATOM     41  C   UNL A   1      38.892  27.990  29.625  1.00  0.00     0.029 A 
ATOM     42  N   UNL A   1      40.063  29.808  30.051  1.00  0.00    -0.354 N 
ATOM     43  C   UNL A   1      44.029  30.385  28.270  1.00  0.00     0.074 A 
ATOM     44  C   UNL A   1      43.505  30.236  26.937  1.00  0.00     0.031 C 
ATOM     45  C   UNL A   1      38.022  28.911  30.104  1.00  0.00     0.029 A 
ATOM     46  C   UNL A   1      38.760  30.114  30.433  1.00  0.00     0.049 A 
ATOM     47  H   UNL A   1      40.817  30.424  30.206  1.00  0.00     0.167 HD
ATOM     48  C   UNL A   1      44.799  31.360  28.824  1.00  0.00     0.037 A 
ATOM     49  C   UNL A   1      38.318  31.280  30.968  1.00  0.00     0.037 A 
ATOM     50  C   UNL A   1      45.049  31.104  30.222  1.00  0.00     0.049 A 
ATOM     51  C   UNL A   1      39.503  31.978  31.523  1.00  0.00     0.074 A 
ATOM     52  C   UNL A   1      45.623  30.064  30.929  1.00  0.00     0.029 A 
ATOM     53  N   UNL A   1      44.325  31.814  31.149  1.00  0.00    -0.354 N 
ATOM     54  N   UNL A   1      40.195  31.539  32.538  1.00  0.00    -0.248 NA
ATOM     55  C   UNL A   1      40.192  32.923  30.659  1.00  0.00     0.031 C 
ATOM     56  C   UNL A   1      44.810  29.916  32.094  1.00  0.00     0.029 A 
ATOM     57  C   UNL A   1      43.831  30.908  32.055  1.00  0.00     0.049 A 
ATOM     58  H   UNL A   1      44.186  32.790  31.162  1.00  0.00     0.167 HD
ATOM     59  C   UNL A   1      41.515  31.802  32.206  1.00  0.00     0.074 A 
ATOM     60  C   UNL A   1      41.444  32.736  31.083  1.00  0.00     0.031 C 
ATOM     61  C   UNL A   1      42.531  31.018  32.674  1.00  0.00     0.037 A 
BRANCH  48  62
ATOM     62  C   UNL A   1      45.042  32.708  28.202  1.00  0.00     0.064 A 
ATOM     63  C   UNL A   1      43.951  33.573  28.001  1.00  0.00     0.173 A 
ATOM     64  C   UNL A   1      46.240  33.070  27.553  1.00  0.00     0.173 A 
ATOM     65  F   UNL A   1      42.758  33.307  28.555  1.00  0.00    -0.203 F 
ATOM     66  C   UNL A   1      44.038  34.683  27.157  1.00  0.00     0.198 A 
ATOM     67  C   UNL A   1      46.340  34.212  26.760  1.00  0.00     0.198 A 
ATOM     68  F   UNL A   1      47.324  32.284  27.566  1.00  0.00    -0.203 F 
ATOM     69  F   UNL A   1      42.941  35.407  26.898  1.00  0.00    -0.200 F 
ATOM     70  C   UNL A   1      45.231  35.000  26.536  1.00  0.00     0.200 A 
ATOM     71  F   UNL A   1      47.503  34.493  26.154  1.00  0.00    -0.200 F 
ATOM     72  F   UNL A   1      45.303  36.030  25.684  1.00  0.00    -0.200 F 
ENDBRANCH  48  62
BRANCH  49  73
ATOM     73  C   UNL A   1      37.014  31.957  30.764  1.00  0.00     0.064 A 
ATOM     74  C   UNL A   1      36.055  32.039  31.788  1.00  0.00     0.173 A 
ATOM     75  C   UNL A   1      36.801  32.786  29.644  1.00  0.00     0.173 A 
ATOM     76  F   UNL A   1      36.208  31.327  32.914  1.00  0.00    -0.203 F 
ATOM     77  C   UNL A   1      34.961  32.910  31.703  1.00  0.00     0.198 A 
ATOM     78  C   UNL A   1      35.707  33.649  29.557  1.00  0.00     0.198 A 
ATOM     79  F   UNL A   1      37.713  32.849  28.664  1.00  0.00    -0.203 F 
ATOM     80  F   UNL A   1      34.101  33.009  32.727  1.00  0.00    -0.200 F 
ATOM     81  C   UNL A   1      34.793  33.721  30.591  1.00  0.00     0.200 A 
ATOM     82  F   UNL A   1      35.585  34.463  28.499  1.00  0.00    -0.200 F 
ATOM     83  F   UNL A   1      33.784  34.600  30.539  1.00  0.00    -0.200 F 
ENDBRANCH  49  73
BRANCH  61  84
ATOM     84  C   UNL A   1      42.199  30.011  33.744  1.00  0.00     0.064 A 
ATOM     85  C   UNL A   1      41.760  28.702  33.477  1.00  0.00     0.173 A 
ATOM     86  C   UNL A   1      42.477  30.329  35.078  1.00  0.00     0.173 A 
ATOM     87  F   UNL A   1      41.572  28.282  32.224  1.00  0.00    -0.203 F 
ATOM     88  C   UNL A   1      41.567  27.772  34.497  1.00  0.00     0.198 A 
ATOM     89  C   UNL A   1      42.317  29.389  36.095  1.00  0.00     0.198 A 
ATOM     90  F   UNL A   1      42.958  31.542  35.393  1.00  0.00    -0.203 F 
ATOM     91  F   UNL A   1      41.141  26.534  34.208  1.00  0.00    -0.200 F 
ATOM     92  C   UNL A   1      41.852  28.115  35.806  1.00  0.00     0.200 A 
ATOM     93  F   UNL A   1      42.643  29.709  37.354  1.00  0.00    -0.200 F 
ATOM     94  F   UNL A   1      41.710  27.211  36.785  1.00  0.00    -0.200 F 
ENDBRANCH  61  84
ENDBRANCH  35  36
ENDBRANCH  27  30
ENDBRANCH  25  26
ENDBRANCH  24  25
ENDBRANCH   1  24
TORSDOF 14
ENDMDL
MODEL 3
REMARK VINA RESULT:     -12.4      3.244      8.728
REMARK SMILES Cc1[nH]c(=O)sc1S(=O)(=O)NC1(CC(=O)NCCCNC(=O)c2ccc(-c3c4nc(c(-c5c(F)c(F)c(F)c(F)c5F)c5ccc([nH]5)c(-c5c(F)c(F)c(F)c(F)c5F)c5nc(c(-c6c(F)c(F)c(F)c(F)c6F)c6ccc3[nH]6)C=C5)C=C4)cc2)CCC1
REMARK SMILES IDX 17 1 16 2 14 3 15 4 13 6 12 7 86 8 88 9 87 10 11 11 8 13
REMARK SMILES IDX 9 14 10 15 7 16 1 17 2 18 3 19 4 20 6 22 5 23 18 24 19 25
REMARK SMILES IDX 20 26 21 27 22 29 23 30 24 31 85 32 25 33 84 34 26 35 27 36
REMARK SMILES IDX 28 37 78 38 29 39 83 40 77 41 79 42 30 43 82 44 76 45 75 46
REMARK SMILES IDX 31 48 63 49 43 50 62 51 44 52 47 53 61 54 80 55 45 56 46 57
REMARK SMILES IDX 60 59 81 60 48 61 32 62 33 63 41 64 34 65 35 66 39 67 42 68
REMARK SMILES IDX 36 69 37 70 40 71 38 72 64 73 65 74 73 75 66 76 67 77 71 78
REMARK SMILES IDX 74 79 68 80 69 81 72 82 70 83 49 84 50 85 58 86 51 87 52 88
REMARK SMILES IDX 56 89 59 90 53 91 54 92 57 93 55 94
REMARK H PARENT 16 5 11 12 3 21 20 28 79 47 47 58
REMARK Flexibility Score: inf
ROOT
ATOM      1  C   UNL A   1      33.712  29.465  27.009  1.00  0.00     0.117 C 
ENDROOT
BRANCH   1   2
ATOM      2  N   UNL A   1      34.057  29.215  25.613  1.00  0.00    -0.356 N 
ATOM      3  C   UNL A   1      33.278  29.126  24.502  1.00  0.00     0.221 C 
ATOM      4  O   UNL A   1      33.824  29.389  23.430  1.00  0.00    -0.275 OA
ATOM      5  H   UNL A   1      35.019  29.090  25.447  1.00  0.00     0.163 HD
BRANCH   3   6
ATOM      6  C   UNL A   1      31.815  28.778  24.532  1.00  0.00     0.123 C 
BRANCH   6   7
ATOM      7  C   UNL A   1      31.298  27.566  23.735  1.00  0.00     0.042 C 
ATOM      8  C   UNL A   1      30.625  28.081  22.393  1.00  0.00     0.024 C 
ATOM      9  C   UNL A   1      29.863  27.043  24.070  1.00  0.00     0.024 C 
ATOM     10  C   UNL A   1      29.276  28.095  23.121  1.00  0.00     0.004 C 
BRANCH   7  11
ATOM     11  N   UNL A   1      32.289  26.467  23.418  1.00  0.00    -0.204 NA
ATOM     12  H   UNL A   1      31.770  25.891  22.756  1.00  0.00     0.142 HD
BRANCH  11  13
ATOM     13  S   UNL A   1      33.163  25.319  24.288  1.00  0.00     0.252 S 
ATOM     14  O   UNL A   1      33.989  26.090  25.192  1.00  0.00    -0.206 OA
ATOM     15  O   UNL A   1      33.802  24.536  23.246  1.00  0.00    -0.206 OA
BRANCH  13  16
ATOM     16  C   UNL A   1      32.093  24.278  25.143  1.00  0.00     0.158 A 
ATOM     17  C   UNL A   1      30.654  23.507  23.130  1.00  0.00     0.067 C 
ATOM     18  C   UNL A   1      31.076  23.625  24.557  1.00  0.00     0.046 A 
ATOM     19  N   UNL A   1      30.277  22.996  25.485  1.00  0.00    -0.315 N 
ATOM     20  C   UNL A   1      30.636  23.159  26.787  1.00  0.00     0.305 A 
ATOM     21  H   UNL A   1      29.493  22.462  25.222  1.00  0.00     0.170 HD
ATOM     22  S   UNL A   1      32.192  23.918  26.856  1.00  0.00    -0.061 S 
ATOM     23  O   UNL A   1      29.937  22.892  27.780  1.00  0.00    -0.257 OA
ENDBRANCH  13  16
ENDBRANCH  11  13
ENDBRANCH   7  11
ENDBRANCH   6   7
ENDBRANCH   3   6
ENDBRANCH   1   2
BRANCH   1  24
ATOM     24  C   UNL A   1      33.429  30.940  27.345  1.00  0.00     0.042 C 
BRANCH  24  25
ATOM     25  C   UNL A   1      34.670  31.768  27.626  1.00  0.00     0.118 C 
BRANCH  25  26
ATOM     26  N   UNL A   1      34.700  32.521  28.880  1.00  0.00    -0.352 N 
ATOM     27  C   UNL A   1      35.446  32.271  30.037  1.00  0.00     0.251 C 
ATOM     28  H   UNL A   1      34.115  33.312  28.915  1.00  0.00     0.163 HD
ATOM     29  O   UNL A   1      35.221  32.908  31.061  1.00  0.00    -0.269 OA
BRANCH  27  30
ATOM     30  C   UNL A   1      36.504  31.224  30.043  1.00  0.00     0.039 A 
ATOM     31  C   UNL A   1      36.293  29.858  29.802  1.00  0.00     0.014 A 
ATOM     32  C   UNL A   1      37.794  31.632  30.256  1.00  0.00     0.014 A 
ATOM     33  C   UNL A   1      37.394  28.975  29.832  1.00  0.00     0.010 A 
ATOM     34  C   UNL A   1      38.779  30.869  29.724  1.00  0.00     0.010 A 
ATOM     35  C   UNL A   1      38.672  29.518  29.871  1.00  0.00    -0.014 A 
BRANCH  35  36
ATOM     36  C   UNL A   1      39.965  28.841  29.939  1.00  0.00     0.031 A 
ATOM     37  C   UNL A   1      40.474  28.598  31.302  1.00  0.00     0.074 A 
ATOM     38  C   UNL A   1      40.484  28.128  28.903  1.00  0.00     0.049 A 
ATOM     39  N   UNL A   1      41.522  29.117  31.845  1.00  0.00    -0.248 NA
ATOM     40  C   UNL A   1      39.681  27.754  32.209  1.00  0.00     0.031 C 
ATOM     41  C   UNL A   1      39.920  27.884  27.566  1.00  0.00     0.029 A 
ATOM     42  N   UNL A   1      41.618  27.365  28.873  1.00  0.00    -0.354 N 
ATOM     43  C   UNL A   1      41.627  28.534  33.100  1.00  0.00     0.074 A 
ATOM     44  C   UNL A   1      40.380  27.855  33.340  1.00  0.00     0.031 C 
ATOM     45  C   UNL A   1      40.599  26.889  26.947  1.00  0.00     0.029 A 
ATOM     46  C   UNL A   1      41.748  26.542  27.758  1.00  0.00     0.049 A 
ATOM     47  H   UNL A   1      42.294  27.396  29.589  1.00  0.00     0.167 HD
ATOM     48  C   UNL A   1      42.825  28.456  33.741  1.00  0.00     0.037 A 
ATOM     49  C   UNL A   1      42.726  25.629  27.528  1.00  0.00     0.037 A 
ATOM     50  C   UNL A   1      43.814  29.301  33.116  1.00  0.00     0.049 A 
ATOM     51  C   UNL A   1      43.871  25.991  28.398  1.00  0.00     0.074 A 
ATOM     52  C   UNL A   1      43.898  30.653  32.841  1.00  0.00     0.029 A 
ATOM     53  N   UNL A   1      44.751  28.708  32.304  1.00  0.00    -0.354 N 
ATOM     54  N   UNL A   1      44.574  27.081  28.257  1.00  0.00    -0.248 NA
ATOM     55  C   UNL A   1      43.940  25.368  29.710  1.00  0.00     0.031 C 
ATOM     56  C   UNL A   1      44.492  30.730  31.545  1.00  0.00     0.029 A 
ATOM     57  C   UNL A   1      44.787  29.429  31.136  1.00  0.00     0.049 A 
ATOM     58  H   UNL A   1      45.295  27.916  32.520  1.00  0.00     0.167 HD
ATOM     59  C   UNL A   1      44.818  27.513  29.551  1.00  0.00     0.074 A 
ATOM     60  C   UNL A   1      44.485  26.372  30.402  1.00  0.00     0.031 C 
ATOM     61  C   UNL A   1      44.985  28.839  29.833  1.00  0.00     0.037 A 
BRANCH  48  62
ATOM     62  C   UNL A   1      43.200  27.372  34.713  1.00  0.00     0.064 A 
ATOM     63  C   UNL A   1      43.500  27.720  36.043  1.00  0.00     0.173 A 
ATOM     64  C   UNL A   1      43.539  26.056  34.332  1.00  0.00     0.173 A 
ATOM     65  F   UNL A   1      43.239  28.955  36.500  1.00  0.00    -0.203 F 
ATOM     66  C   UNL A   1      44.153  26.837  36.906  1.00  0.00     0.198 A 
ATOM     67  C   UNL A   1      44.136  25.157  35.214  1.00  0.00     0.198 A 
ATOM     68  F   UNL A   1      43.413  25.625  33.071  1.00  0.00    -0.203 F 
ATOM     69  F   UNL A   1      44.529  27.253  38.122  1.00  0.00    -0.200 F 
ATOM     70  C   UNL A   1      44.473  25.558  36.490  1.00  0.00     0.200 A 
ATOM     71  F   UNL A   1      44.452  23.927  34.786  1.00  0.00    -0.200 F 
ATOM     72  F   UNL A   1      45.147  24.728  37.296  1.00  0.00    -0.200 F 
ENDBRANCH  48  62
BRANCH  49  73
ATOM     73  C   UNL A   1      42.624  24.316  26.845  1.00  0.00     0.064 A 
ATOM     74  C   UNL A   1      43.254  24.071  25.614  1.00  0.00     0.173 A 
ATOM     75  C   UNL A   1      42.139  23.184  27.532  1.00  0.00     0.173 A 
ATOM     76  F   UNL A   1      43.793  25.084  24.919  1.00  0.00    -0.203 F 
ATOM     77  C   UNL A   1      43.404  22.773  25.109  1.00  0.00     0.198 A 
ATOM     78  C   UNL A   1      42.283  21.891  27.027  1.00  0.00     0.198 A 
ATOM     79  F   UNL A   1      41.613  23.309  28.759  1.00  0.00    -0.203 F 
ATOM     80  F   UNL A   1      44.068  22.572  23.962  1.00  0.00    -0.200 F 
ATOM     81  C   UNL A   1      42.927  21.683  25.821  1.00  0.00     0.200 A 
ATOM     82  F   UNL A   1      41.862  20.844  27.749  1.00  0.00    -0.200 F 
ATOM     83  F   UNL A   1      43.129  20.438  25.371  1.00  0.00    -0.200 F 
ENDBRANCH  49  73
BRANCH  61  84
ATOM     84  C   UNL A   1      45.130  29.788  28.671  1.00  0.00     0.064 A 
ATOM     85  C   UNL A   1      44.056  30.486  28.094  1.00  0.00     0.173 A 
ATOM     86  C   UNL A   1      46.416  30.114  28.225  1.00  0.00     0.173 A 
ATOM     87  F   UNL A   1      42.807  30.315  28.534  1.00  0.00    -0.203 F 
ATOM     88  C   UNL A   1      44.253  31.433  27.090  1.00  0.00     0.198 A 
ATOM     89  C   UNL A   1      46.616  31.085  27.245  1.00  0.00     0.198 A 
ATOM     90  F   UNL A   1      47.488  29.526  28.778  1.00  0.00    -0.203 F 
ATOM     91  F   UNL A   1      43.206  32.078  26.556  1.00  0.00    -0.200 F 
ATOM     92  C   UNL A   1      45.536  31.736  26.671  1.00  0.00     0.200 A 
ATOM     93  F   UNL A   1      47.862  31.412  26.877  1.00  0.00    -0.200 F 
ATOM     94  F   UNL A   1      45.734  32.677  25.737  1.00  0.00    -0.200 F 
ENDBRANCH  61  84
ENDBRANCH  35  36
ENDBRANCH  27  30
ENDBRANCH  25  26
ENDBRANCH  24  25
ENDBRANCH   1  24
TORSDOF 14
ENDMDL
