MODEL 1
REMARK VINA RESULT:     -11.6      0.000      0.000
REMARK SMILES CC(C)[C@H](CO)NS(=O)(=O)c1ccc(C(=O)NCCCNC(=O)c2ccc(-c3c4nc(c(-c5c(F)c(F)c(F)c(F)c5F)c5ccc([nH]5)c(-c5c(F)c(F)c(F)c(F)c5F)c5nc(c(-c6c(F)c(F)c(F)c(F)c6F)c6ccc3[nH]6)C=C5)C=C4)cc2)cn1
REMARK SMILES IDX 15 1 16 2 17 3 14 5 11 6 12 7 88 8 13 9 87 10 8 11 9 12
REMARK SMILES IDX 10 13 7 14 4 16 2 17 1 18 3 19 5 20 6 21 18 23 19 24 20 25
REMARK SMILES IDX 21 26 22 27 23 29 24 30 25 31 86 32 26 33 85 34 27 35 28 36
REMARK SMILES IDX 29 37 79 38 30 39 84 40 78 41 80 42 31 43 83 44 77 45 76 46
REMARK SMILES IDX 32 48 64 49 44 50 63 51 45 52 48 53 62 54 81 55 46 56 47 57
REMARK SMILES IDX 61 59 82 60 49 61 33 62 34 63 42 64 35 65 36 66 40 67 43 68
REMARK SMILES IDX 37 69 38 70 41 71 39 72 65 73 66 74 74 75 67 76 68 77 72 78
REMARK SMILES IDX 75 79 69 80 70 81 73 82 71 83 50 84 51 85 59 86 52 87 53 88
REMARK SMILES IDX 57 89 60 90 54 91 55 92 58 93 56 94
REMARK H PARENT 17 4 7 15 6 22 21 28 80 47 48 58
REMARK Flexibility Score: inf
ROOT
ATOM      1  C   UNL A   1      31.452  29.013  24.384  1.00  0.00     0.252 C 
ATOM      2  O   UNL A   1      31.374  29.026  23.156  1.00  0.00    -0.269 OA
ATOM      3  N   UNL A   1      31.565  30.211  25.038  1.00  0.00    -0.352 N 
ATOM      4  H   UNL A   1      31.675  30.986  24.440  1.00  0.00     0.163 HD
ENDROOT
BRANCH   1   5
ATOM      5  C   UNL A   1      31.385  27.713  25.086  1.00  0.00     0.058 A 
ATOM      6  C   UNL A   1      31.094  25.222  26.194  1.00  0.00     0.170 A 
ATOM      7  C   UNL A   1      32.236  25.954  26.501  1.00  0.00     0.043 A 
ATOM      8  N   UNL A   1      30.112  25.656  25.366  1.00  0.00    -0.243 NA
ATOM      9  C   UNL A   1      32.375  27.222  25.939  1.00  0.00     0.018 A 
ATOM     10  C   UNL A   1      30.300  26.881  24.811  1.00  0.00     0.126 A 
BRANCH   6  11
ATOM     11  S   UNL A   1      30.925  23.536  26.787  1.00  0.00     0.258 S 
ATOM     12  O   UNL A   1      29.584  23.410  27.318  1.00  0.00    -0.205 OA
ATOM     13  O   UNL A   1      32.057  23.192  27.621  1.00  0.00    -0.205 OA
BRANCH  11  14
ATOM     14  N   UNL A   1      30.997  22.502  25.437  1.00  0.00    -0.204 NA
ATOM     15  H   UNL A   1      30.693  21.585  25.763  1.00  0.00     0.141 HD
BRANCH  14  16
ATOM     16  C   UNL A   1      32.266  22.279  24.683  1.00  0.00     0.098 C 
BRANCH  16  17
ATOM     17  C   UNL A   1      32.420  23.169  23.416  1.00  0.00     0.003 C 
ATOM     18  C   UNL A   1      33.549  24.197  23.451  1.00  0.00     0.009 C 
ATOM     19  C   UNL A   1      32.641  22.273  22.185  1.00  0.00     0.009 C 
ENDBRANCH  16  17
BRANCH  16  20
ATOM     20  C   UNL A   1      32.253  20.778  24.282  1.00  0.00     0.176 C 
BRANCH  20  21
ATOM     21  O   UNL A   1      31.823  19.969  25.379  1.00  0.00    -0.395 OA
ATOM     22  H   UNL A   1      32.578  19.786  25.961  1.00  0.00     0.210 HD
ENDBRANCH  20  21
ENDBRANCH  16  20
ENDBRANCH  14  16
ENDBRANCH  11  14
ENDBRANCH   6  11
ENDBRANCH   1   5
BRANCH   3  23
ATOM     23  C   UNL A   1      31.553  30.550  26.451  1.00  0.00     0.118 C 
BRANCH  23  24
ATOM     24  C   UNL A   1      31.373  32.053  26.666  1.00  0.00     0.042 C 
BRANCH  24  25
ATOM     25  C   UNL A   1      32.680  32.803  26.915  1.00  0.00     0.118 C 
BRANCH  25  26
ATOM     26  N   UNL A   1      32.455  34.139  27.446  1.00  0.00    -0.352 N 
ATOM     27  C   UNL A   1      33.018  34.771  28.526  1.00  0.00     0.251 C 
ATOM     28  H   UNL A   1      31.793  34.675  26.952  1.00  0.00     0.163 HD
ATOM     29  O   UNL A   1      32.530  35.824  28.928  1.00  0.00    -0.269 OA
BRANCH  27  30
ATOM     30  C   UNL A   1      34.194  34.200  29.219  1.00  0.00     0.039 A 
ATOM     31  C   UNL A   1      33.982  33.308  30.276  1.00  0.00     0.014 A 
ATOM     32  C   UNL A   1      35.497  34.579  28.881  1.00  0.00     0.014 A 
ATOM     33  C   UNL A   1      35.072  32.758  30.957  1.00  0.00     0.010 A 
ATOM     34  C   UNL A   1      36.585  33.981  29.518  1.00  0.00     0.010 A 
ATOM     35  C   UNL A   1      36.383  33.069  30.565  1.00  0.00    -0.014 A 
BRANCH  35  36
ATOM     36  C   UNL A   1      37.554  32.454  31.241  1.00  0.00     0.031 A 
ATOM     37  C   UNL A   1      38.305  31.330  30.581  1.00  0.00     0.074 A 
ATOM     38  C   UNL A   1      37.905  32.868  32.473  1.00  0.00     0.049 A 
ATOM     39  N   UNL A   1      39.292  30.606  31.046  1.00  0.00    -0.248 NA
ATOM     40  C   UNL A   1      37.873  30.951  29.226  1.00  0.00     0.031 C 
ATOM     41  C   UNL A   1      37.233  33.923  33.233  1.00  0.00     0.029 A 
ATOM     42  N   UNL A   1      38.904  32.439  33.313  1.00  0.00    -0.354 N 
ATOM     43  C   UNL A   1      39.589  29.683  30.053  1.00  0.00     0.074 A 
ATOM     44  C   UNL A   1      38.647  29.905  28.976  1.00  0.00     0.031 C 
ATOM     45  C   UNL A   1      37.847  34.070  34.419  1.00  0.00     0.029 A 
ATOM     46  C   UNL A   1      38.928  33.095  34.520  1.00  0.00     0.049 A 
ATOM     47  H   UNL A   1      39.542  31.730  33.072  1.00  0.00     0.167 HD
ATOM     48  C   UNL A   1      40.569  28.749  30.031  1.00  0.00     0.037 A 
ATOM     49  C   UNL A   1      39.725  32.920  35.591  1.00  0.00     0.037 A 
ATOM     50  C   UNL A   1      41.521  28.549  31.092  1.00  0.00     0.049 A 
ATOM     51  C   UNL A   1      40.803  31.871  35.541  1.00  0.00     0.074 A 
ATOM     52  C   UNL A   1      42.581  27.659  31.144  1.00  0.00     0.029 A 
ATOM     53  N   UNL A   1      41.530  29.252  32.287  1.00  0.00    -0.354 N 
ATOM     54  N   UNL A   1      41.107  31.043  34.572  1.00  0.00    -0.248 NA
ATOM     55  C   UNL A   1      41.655  31.739  36.731  1.00  0.00     0.031 C 
ATOM     56  C   UNL A   1      43.208  27.798  32.386  1.00  0.00     0.029 A 
ATOM     57  C   UNL A   1      42.568  28.805  33.090  1.00  0.00     0.049 A 
ATOM     58  H   UNL A   1      40.893  29.962  32.530  1.00  0.00     0.167 HD
ATOM     59  C   UNL A   1      42.200  30.314  35.022  1.00  0.00     0.074 A 
ATOM     60  C   UNL A   1      42.516  30.809  36.346  1.00  0.00     0.031 C 
ATOM     61  C   UNL A   1      42.879  29.322  34.397  1.00  0.00     0.037 A 
BRANCH  48  62
ATOM     62  C   UNL A   1      40.675  27.877  28.814  1.00  0.00     0.064 A 
ATOM     63  C   UNL A   1      39.972  26.667  28.717  1.00  0.00     0.173 A 
ATOM     64  C   UNL A   1      41.440  28.281  27.710  1.00  0.00     0.173 A 
ATOM     65  F   UNL A   1      39.235  26.229  29.749  1.00  0.00    -0.203 F 
ATOM     66  C   UNL A   1      40.049  25.882  27.568  1.00  0.00     0.198 A 
ATOM     67  C   UNL A   1      41.491  27.509  26.551  1.00  0.00     0.198 A 
ATOM     68  F   UNL A   1      42.125  29.434  27.747  1.00  0.00    -0.203 F 
ATOM     69  F   UNL A   1      39.401  24.710  27.514  1.00  0.00    -0.200 F 
ATOM     70  C   UNL A   1      40.801  26.308  26.484  1.00  0.00     0.200 A 
ATOM     71  F   UNL A   1      42.209  27.928  25.500  1.00  0.00    -0.200 F 
ATOM     72  F   UNL A   1      40.865  25.559  25.375  1.00  0.00    -0.200 F 
ENDBRANCH  48  62
BRANCH  49  73
ATOM     73  C   UNL A   1      39.547  33.766  36.800  1.00  0.00     0.064 A 
ATOM     74  C   UNL A   1      40.189  35.008  36.911  1.00  0.00     0.173 A 
ATOM     75  C   UNL A   1      38.755  33.345  37.877  1.00  0.00     0.173 A 
ATOM     76  F   UNL A   1      40.974  35.446  35.915  1.00  0.00    -0.203 F 
ATOM     77  C   UNL A   1      40.067  35.782  38.063  1.00  0.00     0.198 A 
ATOM     78  C   UNL A   1      38.609  34.132  39.017  1.00  0.00     0.198 A 
ATOM     79  F   UNL A   1      38.114  32.166  37.819  1.00  0.00    -0.203 F 
ATOM     80  F   UNL A   1      40.733  36.941  38.162  1.00  0.00    -0.200 F 
ATOM     81  C   UNL A   1      39.273  35.347  39.112  1.00  0.00     0.200 A 
ATOM     82  F   UNL A   1      37.830  33.715  40.022  1.00  0.00    -0.200 F 
ATOM     83  F   UNL A   1      39.157  36.091  40.220  1.00  0.00    -0.200 F 
ENDBRANCH  49  73
BRANCH  61  84
ATOM     84  C   UNL A   1      44.058  28.736  35.117  1.00  0.00     0.064 A 
ATOM     85  C   UNL A   1      43.934  27.603  35.933  1.00  0.00     0.173 A 
ATOM     86  C   UNL A   1      45.334  29.297  34.959  1.00  0.00     0.173 A 
ATOM     87  F   UNL A   1      42.731  27.041  36.129  1.00  0.00    -0.203 F 
ATOM     88  C   UNL A   1      45.041  27.065  36.583  1.00  0.00     0.198 A 
ATOM     89  C   UNL A   1      46.444  28.739  35.587  1.00  0.00     0.198 A 
ATOM     90  F   UNL A   1      45.507  30.378  34.184  1.00  0.00    -0.203 F 
ATOM     91  F   UNL A   1      44.892  26.010  37.394  1.00  0.00    -0.200 F 
ATOM     92  C   UNL A   1      46.296  27.629  36.404  1.00  0.00     0.200 A 
ATOM     93  F   UNL A   1      47.657  29.278  35.403  1.00  0.00    -0.200 F 
ATOM     94  F   UNL A   1      47.362  27.107  37.026  1.00  0.00    -0.200 F 
ENDBRANCH  61  84
ENDBRANCH  35  36
ENDBRANCH  27  30
ENDBRANCH  25  26
ENDBRANCH  24  25
ENDBRANCH  23  24
ENDBRANCH   3  23
TORSDOF 16
ENDMDL
MODEL 2
REMARK VINA RESULT:     -11.5      0.648      7.466
REMARK SMILES CC(C)[C@H](CO)NS(=O)(=O)c1ccc(C(=O)NCCCNC(=O)c2ccc(-c3c4nc(c(-c5c(F)c(F)c(F)c(F)c5F)c5ccc([nH]5)c(-c5c(F)c(F)c(F)c(F)c5F)c5nc(c(-c6c(F)c(F)c(F)c(F)c6F)c6ccc3[nH]6)C=C5)C=C4)cc2)cn1
REMARK SMILES IDX 15 1 16 2 17 3 14 5 11 6 12 7 88 8 13 9 87 10 8 11 9 12
REMARK SMILES IDX 10 13 7 14 4 16 2 17 1 18 3 19 5 20 6 21 18 23 19 24 20 25
REMARK SMILES IDX 21 26 22 27 23 29 24 30 25 31 86 32 26 33 85 34 27 35 28 36
REMARK SMILES IDX 29 37 79 38 30 39 84 40 78 41 80 42 31 43 83 44 77 45 76 46
REMARK SMILES IDX 32 48 64 49 44 50 63 51 45 52 48 53 62 54 81 55 46 56 47 57
REMARK SMILES IDX 61 59 82 60 49 61 33 62 34 63 42 64 35 65 36 66 40 67 43 68
REMARK SMILES IDX 37 69 38 70 41 71 39 72 65 73 66 74 74 75 67 76 68 77 72 78
REMARK SMILES IDX 75 79 69 80 70 81 73 82 71 83 50 84 51 85 59 86 52 87 53 88
REMARK SMILES IDX 57 89 60 90 54 91 55 92 58 93 56 94
REMARK H PARENT 17 4 7 15 6 22 21 28 80 47 48 58
REMARK Flexibility Score: inf
ROOT
ATOM      1  C   UNL A   1      31.323  28.944  24.260  1.00  0.00     0.252 C 
ATOM      2  O   UNL A   1      31.163  28.949  23.041  1.00  0.00    -0.269 OA
ATOM      3  N   UNL A   1      31.401  30.148  24.909  1.00  0.00    -0.352 N 
ATOM      4  H   UNL A   1      31.421  30.927  24.307  1.00  0.00     0.163 HD
ENDROOT
BRANCH   1   5
ATOM      5  C   UNL A   1      31.387  27.643  24.963  1.00  0.00     0.058 A 
ATOM      6  C   UNL A   1      31.301  25.155  26.110  1.00  0.00     0.170 A 
ATOM      7  C   UNL A   1      32.493  25.869  26.166  1.00  0.00     0.043 A 
ATOM      8  N   UNL A   1      30.171  25.605  25.509  1.00  0.00    -0.243 NA
ATOM      9  C   UNL A   1      32.528  27.136  25.586  1.00  0.00     0.018 A 
ATOM     10  C   UNL A   1      30.256  26.828  24.925  1.00  0.00     0.126 A 
BRANCH   6  11
ATOM     11  S   UNL A   1      31.236  23.471  26.727  1.00  0.00     0.258 S 
ATOM     12  O   UNL A   1      29.902  23.267  27.251  1.00  0.00    -0.205 OA
ATOM     13  O   UNL A   1      32.382  23.213  27.574  1.00  0.00    -0.205 OA
BRANCH  11  14
ATOM     14  N   UNL A   1      31.385  22.424  25.394  1.00  0.00    -0.204 NA
ATOM     15  H   UNL A   1      30.876  21.574  25.639  1.00  0.00     0.141 HD
BRANCH  14  16
ATOM     16  C   UNL A   1      32.717  21.982  24.885  1.00  0.00     0.098 C 
BRANCH  16  17
ATOM     17  C   UNL A   1      33.196  22.738  23.612  1.00  0.00     0.003 C 
ATOM     18  C   UNL A   1      32.174  23.664  22.955  1.00  0.00     0.009 C 
ATOM     19  C   UNL A   1      34.438  23.580  23.954  1.00  0.00     0.009 C 
ENDBRANCH  16  17
BRANCH  16  20
ATOM     20  C   UNL A   1      32.563  20.467  24.578  1.00  0.00     0.176 C 
BRANCH  20  21
ATOM     21  O   UNL A   1      32.153  19.756  25.748  1.00  0.00    -0.395 OA
ATOM     22  H   UNL A   1      32.668  18.938  25.826  1.00  0.00     0.210 HD
ENDBRANCH  20  21
ENDBRANCH  16  20
ENDBRANCH  14  16
ENDBRANCH  11  14
ENDBRANCH   6  11
ENDBRANCH   1   5
BRANCH   3  23
ATOM     23  C   UNL A   1      31.461  30.489  26.320  1.00  0.00     0.118 C 
BRANCH  23  24
ATOM     24  C   UNL A   1      31.384  32.000  26.536  1.00  0.00     0.042 C 
BRANCH  24  25
ATOM     25  C   UNL A   1      32.726  32.645  26.876  1.00  0.00     0.118 C 
BRANCH  25  26
ATOM     26  N   UNL A   1      32.568  33.959  27.480  1.00  0.00    -0.352 N 
ATOM     27  C   UNL A   1      33.172  34.508  28.584  1.00  0.00     0.251 C 
ATOM     28  H   UNL A   1      31.925  34.550  27.024  1.00  0.00     0.163 HD
ATOM     29  O   UNL A   1      32.736  35.558  29.047  1.00  0.00    -0.269 OA
BRANCH  27  30
ATOM     30  C   UNL A   1      34.329  33.849  29.229  1.00  0.00     0.039 A 
ATOM     31  C   UNL A   1      34.088  32.886  30.214  1.00  0.00     0.014 A 
ATOM     32  C   UNL A   1      35.643  34.212  28.919  1.00  0.00     0.014 A 
ATOM     33  C   UNL A   1      35.161  32.252  30.849  1.00  0.00     0.010 A 
ATOM     34  C   UNL A   1      36.711  33.534  29.506  1.00  0.00     0.010 A 
ATOM     35  C   UNL A   1      36.481  32.551  30.481  1.00  0.00    -0.014 A 
BRANCH  35  36
ATOM     36  C   UNL A   1      37.632  31.851  31.105  1.00  0.00     0.031 A 
ATOM     37  C   UNL A   1      38.094  32.233  32.485  1.00  0.00     0.074 A 
ATOM     38  C   UNL A   1      38.298  30.911  30.407  1.00  0.00     0.049 A 
ATOM     39  N   UNL A   1      39.129  31.804  33.162  1.00  0.00    -0.248 NA
ATOM     40  C   UNL A   1      37.300  33.253  33.189  1.00  0.00     0.031 C 
ATOM     41  C   UNL A   1      37.971  30.478  29.048  1.00  0.00     0.029 A 
ATOM     42  N   UNL A   1      39.401  30.161  30.738  1.00  0.00    -0.354 N 
ATOM     43  C   UNL A   1      39.119  32.507  34.359  1.00  0.00     0.074 A 
ATOM     44  C   UNL A   1      38.003  33.426  34.300  1.00  0.00     0.031 C 
ATOM     45  C   UNL A   1      38.843  29.531  28.666  1.00  0.00     0.029 A 
ATOM     46  C   UNL A   1      39.813  29.317  29.736  1.00  0.00     0.049 A 
ATOM     47  H   UNL A   1      39.852  30.223  31.610  1.00  0.00     0.167 HD
ATOM     48  C   UNL A   1      39.952  32.383  35.420  1.00  0.00     0.037 A 
ATOM     49  C   UNL A   1      40.862  28.474  29.683  1.00  0.00     0.037 A 
ATOM     50  C   UNL A   1      41.046  31.449  35.487  1.00  0.00     0.049 A 
ATOM     51  C   UNL A   1      41.774  28.360  30.875  1.00  0.00     0.074 A 
ATOM     52  C   UNL A   1      41.918  31.217  36.536  1.00  0.00     0.029 A 
ATOM     53  N   UNL A   1      41.414  30.591  34.462  1.00  0.00    -0.354 N 
ATOM     54  N   UNL A   1      41.719  28.992  32.022  1.00  0.00    -0.248 NA
ATOM     55  C   UNL A   1      42.890  27.410  30.767  1.00  0.00     0.031 C 
ATOM     56  C   UNL A   1      42.838  30.243  36.132  1.00  0.00     0.029 A 
ATOM     57  C   UNL A   1      42.511  29.837  34.849  1.00  0.00     0.049 A 
ATOM     58  H   UNL A   1      40.964  30.527  33.589  1.00  0.00     0.167 HD
ATOM     59  C   UNL A   1      42.771  28.496  32.780  1.00  0.00     0.074 A 
ATOM     60  C   UNL A   1      43.438  27.499  31.970  1.00  0.00     0.031 C 
ATOM     61  C   UNL A   1      43.151  28.837  34.035  1.00  0.00     0.037 A 
BRANCH  48  62
ATOM     62  C   UNL A   1      39.709  33.271  36.606  1.00  0.00     0.064 A 
ATOM     63  C   UNL A   1      40.350  34.511  36.737  1.00  0.00     0.173 A 
ATOM     64  C   UNL A   1      38.781  32.905  37.592  1.00  0.00     0.173 A 
ATOM     65  F   UNL A   1      41.255  34.903  35.826  1.00  0.00    -0.203 F 
ATOM     66  C   UNL A   1      40.090  35.343  37.823  1.00  0.00     0.198 A 
ATOM     67  C   UNL A   1      38.500  33.752  38.662  1.00  0.00     0.198 A 
ATOM     68  F   UNL A   1      38.133  31.733  37.511  1.00  0.00    -0.203 F 
ATOM     69  F   UNL A   1      40.745  36.505  37.948  1.00  0.00    -0.200 F 
ATOM     70  C   UNL A   1      39.159  34.967  38.780  1.00  0.00     0.200 A 
ATOM     71  F   UNL A   1      37.592  33.392  39.579  1.00  0.00    -0.200 F 
ATOM     72  F   UNL A   1      38.900  35.773  39.818  1.00  0.00    -0.200 F 
ENDBRANCH  48  62
BRANCH  49  73
ATOM     73  C   UNL A   1      41.102  27.656  28.465  1.00  0.00     0.064 A 
ATOM     74  C   UNL A   1      41.972  28.102  27.459  1.00  0.00     0.173 A 
ATOM     75  C   UNL A   1      40.454  26.428  28.269  1.00  0.00     0.173 A 
ATOM     76  F   UNL A   1      42.600  29.280  27.591  1.00  0.00    -0.203 F 
ATOM     77  C   UNL A   1      42.162  27.364  26.293  1.00  0.00     0.198 A 
ATOM     78  C   UNL A   1      40.668  25.677  27.116  1.00  0.00     0.198 A 
ATOM     79  F   UNL A   1      39.617  25.954  29.204  1.00  0.00    -0.203 F 
ATOM     80  F   UNL A   1      42.959  27.840  25.325  1.00  0.00    -0.200 F 
ATOM     81  C   UNL A   1      41.515  26.150  26.124  1.00  0.00     0.200 A 
ATOM     82  F   UNL A   1      40.052  24.498  26.963  1.00  0.00    -0.200 F 
ATOM     83  F   UNL A   1      41.697  25.442  25.001  1.00  0.00    -0.200 F 
ENDBRANCH  49  73
BRANCH  61  84
ATOM     84  C   UNL A   1      44.315  28.097  34.626  1.00  0.00     0.064 A 
ATOM     85  C   UNL A   1      45.626  28.585  34.524  1.00  0.00     0.173 A 
ATOM     86  C   UNL A   1      44.110  26.902  35.333  1.00  0.00     0.173 A 
ATOM     87  F   UNL A   1      45.875  29.714  33.844  1.00  0.00    -0.203 F 
ATOM     88  C   UNL A   1      46.692  27.891  35.089  1.00  0.00     0.198 A 
ATOM     89  C   UNL A   1      45.175  26.227  35.921  1.00  0.00     0.198 A 
ATOM     90  F   UNL A   1      42.874  26.397  35.464  1.00  0.00    -0.203 F 
ATOM     91  F   UNL A   1      47.942  28.351  34.941  1.00  0.00    -0.200 F 
ATOM     92  C   UNL A   1      46.466  26.717  35.793  1.00  0.00     0.200 A 
ATOM     93  F   UNL A   1      44.952  25.100  36.612  1.00  0.00    -0.200 F 
ATOM     94  F   UNL A   1      47.493  26.054  36.341  1.00  0.00    -0.200 F 
ENDBRANCH  61  84
ENDBRANCH  35  36
ENDBRANCH  27  30
ENDBRANCH  25  26
ENDBRANCH  24  25
ENDBRANCH  23  24
ENDBRANCH   3  23
TORSDOF 16
ENDMDL
MODEL 3
REMARK VINA RESULT:     -11.5      1.580      2.528
REMARK SMILES CC(C)[C@H](CO)NS(=O)(=O)c1ccc(C(=O)NCCCNC(=O)c2ccc(-c3c4nc(c(-c5c(F)c(F)c(F)c(F)c5F)c5ccc([nH]5)c(-c5c(F)c(F)c(F)c(F)c5F)c5nc(c(-c6c(F)c(F)c(F)c(F)c6F)c6ccc3[nH]6)C=C5)C=C4)cc2)cn1
REMARK SMILES IDX 15 1 16 2 17 3 14 5 11 6 12 7 88 8 13 9 87 10 8 11 9 12
REMARK SMILES IDX 10 13 7 14 4 16 2 17 1 18 3 19 5 20 6 21 18 23 19 24 20 25
REMARK SMILES IDX 21 26 22 27 23 29 24 30 25 31 86 32 26 33 85 34 27 35 28 36
REMARK SMILES IDX 29 37 79 38 30 39 84 40 78 41 80 42 31 43 83 44 77 45 76 46
REMARK SMILES IDX 32 48 64 49 44 50 63 51 45 52 48 53 62 54 81 55 46 56 47 57
REMARK SMILES IDX 61 59 82 60 49 61 33 62 34 63 42 64 35 65 36 66 40 67 43 68
REMARK SMILES IDX 37 69 38 70 41 71 39 72 65 73 66 74 74 75 67 76 68 77 72 78
REMARK SMILES IDX 75 79 69 80 70 81 73 82 71 83 50 84 51 85 59 86 52 87 53 88
REMARK SMILES IDX 57 89 60 90 54 91 55 92 58 93 56 94
REMARK H PARENT 17 4 7 15 6 22 21 28 80 47 48 58
REMARK Flexibility Score: inf
ROOT
ATOM      1  C   UNL A   1      33.897  29.209  27.000  1.00  0.00     0.252 C 
ATOM      2  O   UNL A   1      34.920  29.135  27.678  1.00  0.00    -0.269 OA
ATOM      3  N   UNL A   1      32.923  30.090  27.389  1.00  0.00    -0.352 N 
ATOM      4  H   UNL A   1      33.098  30.523  28.257  1.00  0.00     0.163 HD
ENDROOT
BRANCH   1   5
ATOM      5  C   UNL A   1      33.787  28.371  25.786  1.00  0.00     0.058 A 
ATOM      6  C   UNL A   1      33.428  26.652  23.681  1.00  0.00     0.170 A 
ATOM      7  C   UNL A   1      33.755  27.975  23.406  1.00  0.00     0.043 A 
ATOM      8  N   UNL A   1      33.260  26.152  24.930  1.00  0.00    -0.243 NA
ATOM      9  C   UNL A   1      33.942  28.843  24.482  1.00  0.00     0.018 A 
ATOM     10  C   UNL A   1      33.416  27.037  25.949  1.00  0.00     0.126 A 
BRANCH   6  11
ATOM     11  S   UNL A   1      33.051  25.525  22.335  1.00  0.00     0.258 S 
ATOM     12  O   UNL A   1      33.463  26.182  21.111  1.00  0.00    -0.205 OA
ATOM     13  O   UNL A   1      31.693  25.042  22.462  1.00  0.00    -0.205 OA
BRANCH  11  14
ATOM     14  N   UNL A   1      34.058  24.164  22.501  1.00  0.00    -0.204 NA
ATOM     15  H   UNL A   1      33.825  23.539  21.729  1.00  0.00     0.141 HD
BRANCH  14  16
ATOM     16  C   UNL A   1      34.050  23.325  23.735  1.00  0.00     0.098 C 
BRANCH  16  17
ATOM     17  C   UNL A   1      35.460  22.860  24.200  1.00  0.00     0.003 C 
ATOM     18  C   UNL A   1      36.562  22.893  23.142  1.00  0.00     0.009 C 
ATOM     19  C   UNL A   1      35.922  23.728  25.384  1.00  0.00     0.009 C 
ENDBRANCH  16  17
BRANCH  16  20
ATOM     20  C   UNL A   1      33.168  22.092  23.395  1.00  0.00     0.176 C 
BRANCH  20  21
ATOM     21  O   UNL A   1      32.618  22.215  22.082  1.00  0.00    -0.395 OA
ATOM     22  H   UNL A   1      31.856  22.816  22.105  1.00  0.00     0.210 HD
ENDBRANCH  20  21
ENDBRANCH  16  20
ENDBRANCH  14  16
ENDBRANCH  11  14
ENDBRANCH   6  11
ENDBRANCH   1   5
BRANCH   3  23
ATOM     23  C   UNL A   1      31.680  30.504  26.762  1.00  0.00     0.118 C 
BRANCH  23  24
ATOM     24  C   UNL A   1      31.468  32.013  26.877  1.00  0.00     0.042 C 
BRANCH  24  25
ATOM     25  C   UNL A   1      32.764  32.811  27.022  1.00  0.00     0.118 C 
BRANCH  25  26
ATOM     26  N   UNL A   1      32.540  34.121  27.614  1.00  0.00    -0.352 N 
ATOM     27  C   UNL A   1      33.120  34.711  28.709  1.00  0.00     0.251 C 
ATOM     28  H   UNL A   1      31.866  34.673  27.155  1.00  0.00     0.163 HD
ATOM     29  O   UNL A   1      32.633  35.742  29.165  1.00  0.00    -0.269 OA
BRANCH  27  30
ATOM     30  C   UNL A   1      34.313  34.120  29.355  1.00  0.00     0.039 A 
ATOM     31  C   UNL A   1      34.126  33.208  30.400  1.00  0.00     0.014 A 
ATOM     32  C   UNL A   1      35.607  34.497  28.985  1.00  0.00     0.014 A 
ATOM     33  C   UNL A   1      35.233  32.639  31.037  1.00  0.00     0.010 A 
ATOM     34  C   UNL A   1      36.709  33.880  29.577  1.00  0.00     0.010 A 
ATOM     35  C   UNL A   1      36.534  32.950  30.612  1.00  0.00    -0.014 A 
BRANCH  35  36
ATOM     36  C   UNL A   1      37.721  32.315  31.240  1.00  0.00     0.031 A 
ATOM     37  C   UNL A   1      38.465  31.223  30.521  1.00  0.00     0.074 A 
ATOM     38  C   UNL A   1      38.092  32.680  32.482  1.00  0.00     0.049 A 
ATOM     39  N   UNL A   1      39.464  30.487  30.938  1.00  0.00    -0.248 NA
ATOM     40  C   UNL A   1      38.009  30.897  29.160  1.00  0.00     0.031 C 
ATOM     41  C   UNL A   1      37.430  33.699  33.297  1.00  0.00     0.029 A 
ATOM     42  N   UNL A   1      39.110  32.223  33.285  1.00  0.00    -0.354 N 
ATOM     43  C   UNL A   1      39.747  29.607  29.902  1.00  0.00     0.074 A 
ATOM     44  C   UNL A   1      38.784  29.867  28.853  1.00  0.00     0.031 C 
ATOM     45  C   UNL A   1      38.065  33.801  34.476  1.00  0.00     0.029 A 
ATOM     46  C   UNL A   1      39.153  32.829  34.517  1.00  0.00     0.049 A 
ATOM     47  H   UNL A   1      39.746  31.528  33.003  1.00  0.00     0.167 HD
ATOM     48  C   UNL A   1      40.732  28.681  29.824  1.00  0.00     0.037 A 
ATOM     49  C   UNL A   1      39.971  32.615  35.564  1.00  0.00     0.037 A 
ATOM     50  C   UNL A   1      41.705  28.443  30.857  1.00  0.00     0.049 A 
ATOM     51  C   UNL A   1      41.054  31.576  35.451  1.00  0.00     0.074 A 
ATOM     52  C   UNL A   1      42.770  27.558  30.853  1.00  0.00     0.029 A 
ATOM     53  N   UNL A   1      41.733  29.096  32.080  1.00  0.00    -0.354 N 
ATOM     54  N   UNL A   1      41.344  30.790  34.444  1.00  0.00    -0.248 NA
ATOM     55  C   UNL A   1      41.928  31.401  36.619  1.00  0.00     0.031 C 
ATOM     56  C   UNL A   1      43.420  27.650  32.088  1.00  0.00     0.029 A 
ATOM     57  C   UNL A   1      42.788  28.623  32.844  1.00  0.00     0.049 A 
ATOM     58  H   UNL A   1      41.097  29.792  32.364  1.00  0.00     0.167 HD
ATOM     59  C   UNL A   1      42.448  30.050  34.843  1.00  0.00     0.074 A 
ATOM     60  C   UNL A   1      42.787  30.492  36.180  1.00  0.00     0.031 C 
ATOM     61  C   UNL A   1      43.121  29.089  34.166  1.00  0.00     0.037 A 
BRANCH  48  62
ATOM     62  C   UNL A   1      40.819  27.859  28.570  1.00  0.00     0.064 A 
ATOM     63  C   UNL A   1      41.602  28.267  27.480  1.00  0.00     0.173 A 
ATOM     64  C   UNL A   1      40.160  26.623  28.479  1.00  0.00     0.173 A 
ATOM     65  F   UNL A   1      42.243  29.445  27.512  1.00  0.00    -0.203 F 
ATOM     66  C   UNL A   1      41.704  27.479  26.336  1.00  0.00     0.198 A 
ATOM     67  C   UNL A   1      40.289  25.824  27.345  1.00  0.00     0.198 A 
ATOM     68  F   UNL A   1      39.405  26.183  29.497  1.00  0.00    -0.203 F 
ATOM     69  F   UNL A   1      42.426  27.908  25.291  1.00  0.00    -0.200 F 
ATOM     70  C   UNL A   1      41.055  26.255  26.273  1.00  0.00     0.200 A 
ATOM     71  F   UNL A   1      39.670  24.637  27.291  1.00  0.00    -0.200 F 
ATOM     72  F   UNL A   1      41.164  25.493  25.177  1.00  0.00    -0.200 F 
ENDBRANCH  48  62
BRANCH  49  73
ATOM     73  C   UNL A   1      39.812  33.410  36.811  1.00  0.00     0.064 A 
ATOM     74  C   UNL A   1      38.935  32.994  37.823  1.00  0.00     0.173 A 
ATOM     75  C   UNL A   1      40.511  34.609  37.008  1.00  0.00     0.173 A 
ATOM     76  F   UNL A   1      38.228  31.864  37.672  1.00  0.00    -0.203 F 
ATOM     77  C   UNL A   1      38.743  33.760  38.971  1.00  0.00     0.198 A 
ATOM     78  C   UNL A   1      40.342  35.360  38.169  1.00  0.00     0.198 A 
ATOM     79  F   UNL A   1      41.368  35.048  36.072  1.00  0.00    -0.203 F 
ATOM     80  F   UNL A   1      37.860  33.365  39.898  1.00  0.00    -0.200 F 
ATOM     81  C   UNL A   1      39.451  34.940  39.145  1.00  0.00     0.200 A 
ATOM     82  F   UNL A   1      41.038  36.491  38.340  1.00  0.00    -0.200 F 
ATOM     83  F   UNL A   1      39.265  35.677  40.248  1.00  0.00    -0.200 F 
ENDBRANCH  49  73
BRANCH  61  84
ATOM     84  C   UNL A   1      44.316  28.481  34.839  1.00  0.00     0.064 A 
ATOM     85  C   UNL A   1      44.211  27.323  35.622  1.00  0.00     0.173 A 
ATOM     86  C   UNL A   1      45.589  29.046  34.667  1.00  0.00     0.173 A 
ATOM     87  F   UNL A   1      43.013  26.756  35.830  1.00  0.00    -0.203 F 
ATOM     88  C   UNL A   1      45.333  26.766  36.229  1.00  0.00     0.198 A 
ATOM     89  C   UNL A   1      46.713  28.470  35.251  1.00  0.00     0.198 A 
ATOM     90  F   UNL A   1      45.744  30.150  33.921  1.00  0.00    -0.203 F 
ATOM     91  F   UNL A   1      45.202  25.687  37.012  1.00  0.00    -0.200 F 
ATOM     92  C   UNL A   1      46.583  27.335  36.038  1.00  0.00     0.200 A 
ATOM     93  F   UNL A   1      47.922  29.013  35.054  1.00  0.00    -0.200 F 
ATOM     94  F   UNL A   1      47.663  26.794  36.618  1.00  0.00    -0.200 F 
ENDBRANCH  61  84
ENDBRANCH  35  36
ENDBRANCH  27  30
ENDBRANCH  25  26
ENDBRANCH  24  25
ENDBRANCH  23  24
ENDBRANCH   3  23
TORSDOF 16
ENDMDL
