MODEL 1
REMARK VINA RESULT:     -14.3      0.000      0.000
REMARK SMILES CS(=O)(=O)c1ccc(-n2nnc(C(=O)NCCCNC(=O)c3ccc(-c4c5nc(c(-c6c(F)c(F)c(F)c(F)c6F)c6ccc([nH]6)c(-c6c(F)c(F)c(F)c(F)c6F)c6nc(c(-c7c(F)c(F)c(F)c(F)c7F)c7ccc4[nH]7)C=C6)C=C5)cc3)c2-c2cc(F)cc(F)c2)cc1
REMARK SMILES IDX 17 1 16 2 15 3 13 4 14 5 12 7 9 8 10 9 85 10 11 11 8 12 5 13
REMARK SMILES IDX 6 14 95 15 7 16 94 17 2 18 1 19 3 20 4 21 86 22 87 23 93 24
REMARK SMILES IDX 88 25 91 26 89 27 90 28 92 29 18 30 19 31 20 32 21 34 22 35
REMARK SMILES IDX 23 36 84 37 24 38 83 39 25 40 26 41 27 42 77 43 28 44 82 45
REMARK SMILES IDX 76 46 78 47 29 48 81 49 75 50 74 51 30 53 62 54 42 55 61 56
REMARK SMILES IDX 43 57 46 58 60 59 79 60 44 61 45 62 59 64 80 65 47 66 31 67
REMARK SMILES IDX 32 68 40 69 33 70 34 71 38 72 41 73 35 74 36 75 39 76 37 77
REMARK SMILES IDX 63 78 64 79 72 80 65 81 66 82 70 83 73 84 67 85 68 86 71 87
REMARK SMILES IDX 69 88 48 89 49 90 57 91 50 92 51 93 55 94 58 95 52 96 53 97
REMARK SMILES IDX 56 98 54 99
REMARK H PARENT 15 6 19 33 78 52 46 63
REMARK Flexibility Score: inf
ROOT
ATOM      1  C   UNL A   1      37.017  22.672  24.418  1.00  0.00     0.042 C 
ENDROOT
BRANCH   1   2
ATOM      2  C   UNL A   1      36.121  23.713  25.049  1.00  0.00     0.118 C 
BRANCH   2   3
ATOM      3  N   UNL A   1      35.292  23.346  26.151  1.00  0.00    -0.351 N 
ATOM      4  C   UNL A   1      33.918  23.238  26.198  1.00  0.00     0.274 C 
ATOM      5  O   UNL A   1      33.482  22.594  27.158  1.00  0.00    -0.267 OA
ATOM      6  H   UNL A   1      35.764  23.142  26.989  1.00  0.00     0.163 HD
BRANCH   4   7
ATOM      7  C   UNL A   1      32.994  23.906  25.258  1.00  0.00     0.178 A 
ATOM      8  N   UNL A   1      31.565  25.035  24.027  1.00  0.00    -0.212 N 
ATOM      9  N   UNL A   1      31.397  23.735  23.744  1.00  0.00    -0.061 NA
ATOM     10  C   UNL A   1      32.530  25.213  25.023  1.00  0.00     0.108 A 
ATOM     11  N   UNL A   1      32.325  23.059  24.390  1.00  0.00    -0.124 NA
BRANCH   8  12
ATOM     12  C   UNL A   1      30.699  26.023  23.507  1.00  0.00     0.067 A 
ATOM     13  C   UNL A   1      29.139  28.231  22.889  1.00  0.00     0.067 A 
ATOM     14  C   UNL A   1      28.598  27.185  23.651  1.00  0.00     0.022 A 
ATOM     15  C   UNL A   1      30.441  28.156  22.395  1.00  0.00     0.022 A 
ATOM     16  C   UNL A   1      29.372  26.062  23.945  1.00  0.00     0.030 A 
ATOM     17  C   UNL A   1      31.218  27.045  22.699  1.00  0.00     0.030 A 
BRANCH  13  18
ATOM     18  S   UNL A   1      28.129  29.663  22.606  1.00  0.00     0.175 S 
ATOM     19  C   UNL A   1      28.873  31.003  23.496  1.00  0.00     0.163 C 
ATOM     20  O   UNL A   1      26.850  29.391  23.236  1.00  0.00    -0.224 OA
ATOM     21  O   UNL A   1      28.230  29.954  21.190  1.00  0.00    -0.224 OA
ENDBRANCH  13  18
ENDBRANCH   8  12
BRANCH  10  22
ATOM     22  C   UNL A   1      32.660  26.515  25.711  1.00  0.00     0.009 A 
ATOM     23  C   UNL A   1      33.827  27.288  25.650  1.00  0.00     0.049 A 
ATOM     24  C   UNL A   1      31.625  26.919  26.585  1.00  0.00     0.049 A 
ATOM     25  C   UNL A   1      33.952  28.406  26.481  1.00  0.00     0.126 A 
ATOM     26  C   UNL A   1      31.776  28.041  27.395  1.00  0.00     0.126 A 
ATOM     27  F   UNL A   1      35.119  29.063  26.515  1.00  0.00    -0.207 F 
ATOM     28  C   UNL A   1      32.938  28.792  27.352  1.00  0.00     0.078 A 
ATOM     29  F   UNL A   1      30.819  28.341  28.281  1.00  0.00    -0.207 F 
ENDBRANCH  10  22
ENDBRANCH   4   7
ENDBRANCH   2   3
ENDBRANCH   1   2
BRANCH   1  30
ATOM     30  C   UNL A   1      38.047  22.218  25.432  1.00  0.00     0.118 C 
BRANCH  30  31
ATOM     31  N   UNL A   1      38.328  20.774  25.585  1.00  0.00    -0.352 N 
ATOM     32  C   UNL A   1      39.570  20.119  25.768  1.00  0.00     0.251 C 
ATOM     33  H   UNL A   1      37.540  20.185  25.557  1.00  0.00     0.163 HD
ATOM     34  O   UNL A   1      39.692  18.932  25.656  1.00  0.00    -0.269 OA
BRANCH  32  35
ATOM     35  C   UNL A   1      40.706  20.973  26.199  1.00  0.00     0.039 A 
ATOM     36  C   UNL A   1      41.661  21.638  25.418  1.00  0.00     0.014 A 
ATOM     37  C   UNL A   1      40.679  21.253  27.525  1.00  0.00     0.014 A 
ATOM     38  C   UNL A   1      42.360  22.712  26.016  1.00  0.00     0.010 A 
ATOM     39  C   UNL A   1      40.746  22.584  27.689  1.00  0.00     0.010 A 
ATOM     40  C   UNL A   1      41.866  23.190  27.224  1.00  0.00    -0.014 A 
BRANCH  40  41
ATOM     41  C   UNL A   1      42.176  24.342  28.048  1.00  0.00     0.031 A 
ATOM     42  C   UNL A   1      41.135  25.384  28.139  1.00  0.00     0.074 A 
ATOM     43  C   UNL A   1      43.132  24.269  29.014  1.00  0.00     0.049 A 
ATOM     44  N   UNL A   1      41.159  26.541  27.577  1.00  0.00    -0.248 NA
ATOM     45  C   UNL A   1      39.875  25.085  28.834  1.00  0.00     0.031 C 
ATOM     46  C   UNL A   1      43.999  23.143  29.423  1.00  0.00     0.029 A 
ATOM     47  N   UNL A   1      43.470  25.223  29.916  1.00  0.00    -0.354 N 
ATOM     48  C   UNL A   1      40.005  27.198  27.981  1.00  0.00     0.074 A 
ATOM     49  C   UNL A   1      39.167  26.191  28.583  1.00  0.00     0.031 C 
ATOM     50  C   UNL A   1      44.618  23.429  30.590  1.00  0.00     0.029 A 
ATOM     51  C   UNL A   1      44.355  24.816  30.904  1.00  0.00     0.049 A 
ATOM     52  H   UNL A   1      43.113  26.140  29.873  1.00  0.00     0.167 HD
ATOM     53  C   UNL A   1      39.935  28.560  27.963  1.00  0.00     0.037 A 
ATOM     54  C   UNL A   1      44.854  25.586  31.897  1.00  0.00     0.037 A 
ATOM     55  C   UNL A   1      41.106  29.116  27.324  1.00  0.00     0.049 A 
ATOM     56  C   UNL A   1      44.687  26.999  31.460  1.00  0.00     0.074 A 
ATOM     57  C   UNL A   1      41.642  29.017  26.053  1.00  0.00     0.029 A 
ATOM     58  N   UNL A   1      42.145  29.520  28.133  1.00  0.00    -0.354 N 
ATOM     59  N   UNL A   1      45.310  27.513  30.431  1.00  0.00    -0.248 NA
ATOM     60  C   UNL A   1      43.456  27.678  31.841  1.00  0.00     0.031 C 
ATOM     61  C   UNL A   1      43.046  28.866  26.260  1.00  0.00     0.029 A 
ATOM     62  C   UNL A   1      43.299  28.967  27.631  1.00  0.00     0.049 A 
ATOM     63  H   UNL A   1      42.074  30.099  28.926  1.00  0.00     0.167 HD
ATOM     64  C   UNL A   1      44.364  28.305  29.791  1.00  0.00     0.074 A 
ATOM     65  C   UNL A   1      43.269  28.434  30.753  1.00  0.00     0.031 C 
ATOM     66  C   UNL A   1      44.419  28.537  28.445  1.00  0.00     0.037 A 
BRANCH  53  67
ATOM     67  C   UNL A   1      38.990  29.420  28.759  1.00  0.00     0.064 A 
ATOM     68  C   UNL A   1      37.991  30.146  28.077  1.00  0.00     0.173 A 
ATOM     69  C   UNL A   1      39.164  29.755  30.116  1.00  0.00     0.173 A 
ATOM     70  F   UNL A   1      37.742  29.913  26.780  1.00  0.00    -0.203 F 
ATOM     71  C   UNL A   1      37.275  31.176  28.690  1.00  0.00     0.198 A 
ATOM     72  C   UNL A   1      38.407  30.745  30.741  1.00  0.00     0.198 A 
ATOM     73  F   UNL A   1      40.139  29.220  30.861  1.00  0.00    -0.203 F 
ATOM     74  F   UNL A   1      36.420  31.913  27.968  1.00  0.00    -0.200 F 
ATOM     75  C   UNL A   1      37.486  31.477  30.022  1.00  0.00     0.200 A 
ATOM     76  F   UNL A   1      38.633  31.033  32.031  1.00  0.00    -0.200 F 
ATOM     77  F   UNL A   1      36.839  32.498  30.599  1.00  0.00    -0.200 F 
ENDBRANCH  53  67
BRANCH  54  78
ATOM     78  C   UNL A   1      45.213  25.174  33.272  1.00  0.00     0.064 A 
ATOM     79  C   UNL A   1      44.239  24.745  34.184  1.00  0.00     0.173 A 
ATOM     80  C   UNL A   1      46.558  24.952  33.636  1.00  0.00     0.173 A 
ATOM     81  F   UNL A   1      42.938  24.892  33.897  1.00  0.00    -0.203 F 
ATOM     82  C   UNL A   1      44.589  24.103  35.378  1.00  0.00     0.198 A 
ATOM     83  C   UNL A   1      46.905  24.314  34.827  1.00  0.00     0.198 A 
ATOM     84  F   UNL A   1      47.557  25.267  32.797  1.00  0.00    -0.203 F 
ATOM     85  F   UNL A   1      43.629  23.655  36.200  1.00  0.00    -0.200 F 
ATOM     86  C   UNL A   1      45.919  23.878  35.692  1.00  0.00     0.200 A 
ATOM     87  F   UNL A   1      48.195  24.073  35.102  1.00  0.00    -0.200 F 
ATOM     88  F   UNL A   1      46.249  23.207  36.805  1.00  0.00    -0.200 F 
ENDBRANCH  54  78
BRANCH  66  89
ATOM     89  C   UNL A   1      45.654  28.092  27.697  1.00  0.00     0.064 A 
ATOM     90  C   UNL A   1      45.739  26.900  26.958  1.00  0.00     0.173 A 
ATOM     91  C   UNL A   1      46.723  28.988  27.573  1.00  0.00     0.173 A 
ATOM     92  F   UNL A   1      44.729  26.028  26.938  1.00  0.00    -0.203 F 
ATOM     93  C   UNL A   1      46.843  26.606  26.159  1.00  0.00     0.198 A 
ATOM     94  C   UNL A   1      47.814  28.710  26.750  1.00  0.00     0.198 A 
ATOM     95  F   UNL A   1      46.682  30.171  28.207  1.00  0.00    -0.203 F 
ATOM     96  F   UNL A   1      46.884  25.459  25.463  1.00  0.00    -0.200 F 
ATOM     97  C   UNL A   1      47.876  27.516  26.049  1.00  0.00     0.200 A 
ATOM     98  F   UNL A   1      48.790  29.617  26.610  1.00  0.00    -0.200 F 
ATOM     99  F   UNL A   1      48.919  27.259  25.246  1.00  0.00    -0.200 F 
ENDBRANCH  66  89
ENDBRANCH  40  41
ENDBRANCH  32  35
ENDBRANCH  30  31
ENDBRANCH   1  30
TORSDOF 13
ENDMDL
MODEL 2
REMARK VINA RESULT:     -14.2      4.065      6.044
REMARK SMILES CS(=O)(=O)c1ccc(-n2nnc(C(=O)NCCCNC(=O)c3ccc(-c4c5nc(c(-c6c(F)c(F)c(F)c(F)c6F)c6ccc([nH]6)c(-c6c(F)c(F)c(F)c(F)c6F)c6nc(c(-c7c(F)c(F)c(F)c(F)c7F)c7ccc4[nH]7)C=C6)C=C5)cc3)c2-c2cc(F)cc(F)c2)cc1
REMARK SMILES IDX 17 1 16 2 15 3 13 4 14 5 12 7 9 8 10 9 85 10 11 11 8 12 5 13
REMARK SMILES IDX 6 14 95 15 7 16 94 17 2 18 1 19 3 20 4 21 86 22 87 23 93 24
REMARK SMILES IDX 88 25 91 26 89 27 90 28 92 29 18 30 19 31 20 32 21 34 22 35
REMARK SMILES IDX 23 36 84 37 24 38 83 39 25 40 26 41 27 42 77 43 28 44 82 45
REMARK SMILES IDX 76 46 78 47 29 48 81 49 75 50 74 51 30 53 62 54 42 55 61 56
REMARK SMILES IDX 43 57 46 58 60 59 79 60 44 61 45 62 59 64 80 65 47 66 31 67
REMARK SMILES IDX 32 68 40 69 33 70 34 71 38 72 41 73 35 74 36 75 39 76 37 77
REMARK SMILES IDX 63 78 64 79 72 80 65 81 66 82 70 83 73 84 67 85 68 86 71 87
REMARK SMILES IDX 69 88 48 89 49 90 57 91 50 92 51 93 55 94 58 95 52 96 53 97
REMARK SMILES IDX 56 98 54 99
REMARK H PARENT 15 6 19 33 78 52 46 63
REMARK Flexibility Score: inf
ROOT
ATOM      1  C   UNL A   1      37.400  23.703  25.546  1.00  0.00     0.042 C 
ENDROOT
BRANCH   1   2
ATOM      2  C   UNL A   1      35.941  24.097  25.533  1.00  0.00     0.118 C 
BRANCH   2   3
ATOM      3  N   UNL A   1      35.041  23.470  26.446  1.00  0.00    -0.351 N 
ATOM      4  C   UNL A   1      33.699  23.198  26.284  1.00  0.00     0.274 C 
ATOM      5  O   UNL A   1      33.240  22.368  27.076  1.00  0.00    -0.267 OA
ATOM      6  H   UNL A   1      35.431  23.196  27.306  1.00  0.00     0.163 HD
BRANCH   4   7
ATOM      7  C   UNL A   1      32.815  23.892  25.325  1.00  0.00     0.178 A 
ATOM      8  N   UNL A   1      31.451  25.064  24.061  1.00  0.00    -0.212 N 
ATOM      9  N   UNL A   1      31.224  23.768  23.800  1.00  0.00    -0.061 NA
ATOM     10  C   UNL A   1      32.415  25.215  25.062  1.00  0.00     0.108 A 
ATOM     11  N   UNL A   1      32.113  23.061  24.466  1.00  0.00    -0.124 NA
BRANCH   8  12
ATOM     12  C   UNL A   1      30.636  26.082  23.516  1.00  0.00     0.067 A 
ATOM     13  C   UNL A   1      29.165  28.339  22.860  1.00  0.00     0.067 A 
ATOM     14  C   UNL A   1      28.561  27.296  23.577  1.00  0.00     0.022 A 
ATOM     15  C   UNL A   1      30.487  28.237  22.427  1.00  0.00     0.022 A 
ATOM     16  C   UNL A   1      29.291  26.150  23.890  1.00  0.00     0.030 A 
ATOM     17  C   UNL A   1      31.220  27.102  22.751  1.00  0.00     0.030 A 
BRANCH  13  18
ATOM     18  S   UNL A   1      28.206  29.801  22.552  1.00  0.00     0.175 S 
ATOM     19  C   UNL A   1      28.963  31.117  23.468  1.00  0.00     0.163 C 
ATOM     20  O   UNL A   1      26.902  29.566  23.141  1.00  0.00    -0.224 OA
ATOM     21  O   UNL A   1      28.359  30.093  21.141  1.00  0.00    -0.224 OA
ENDBRANCH  13  18
ENDBRANCH   8  12
BRANCH  10  22
ATOM     22  C   UNL A   1      32.601  26.522  25.727  1.00  0.00     0.009 A 
ATOM     23  C   UNL A   1      33.802  27.240  25.658  1.00  0.00     0.049 A 
ATOM     24  C   UNL A   1      31.583  26.987  26.591  1.00  0.00     0.049 A 
ATOM     25  C   UNL A   1      33.975  28.366  26.469  1.00  0.00     0.126 A 
ATOM     26  C   UNL A   1      31.781  28.115  27.381  1.00  0.00     0.126 A 
ATOM     27  F   UNL A   1      35.170  28.970  26.496  1.00  0.00    -0.207 F 
ATOM     28  C   UNL A   1      32.976  28.813  27.329  1.00  0.00     0.078 A 
ATOM     29  F   UNL A   1      30.836  28.473  28.258  1.00  0.00    -0.207 F 
ENDBRANCH  10  22
ENDBRANCH   4   7
ENDBRANCH   2   3
ENDBRANCH   1   2
BRANCH   1  30
ATOM     30  C   UNL A   1      38.097  24.402  26.694  1.00  0.00     0.118 C 
BRANCH  30  31
ATOM     31  N   UNL A   1      39.540  24.710  26.591  1.00  0.00    -0.352 N 
ATOM     32  C   UNL A   1      40.259  25.813  27.110  1.00  0.00     0.251 C 
ATOM     33  H   UNL A   1      40.077  24.054  26.089  1.00  0.00     0.163 HD
ATOM     34  O   UNL A   1      41.381  26.066  26.770  1.00  0.00    -0.269 OA
BRANCH  32  35
ATOM     35  C   UNL A   1      39.582  26.597  28.174  1.00  0.00     0.039 A 
ATOM     36  C   UNL A   1      39.225  26.206  29.471  1.00  0.00     0.014 A 
ATOM     37  C   UNL A   1      39.461  27.910  27.862  1.00  0.00     0.014 A 
ATOM     38  C   UNL A   1      38.993  27.229  30.421  1.00  0.00     0.010 A 
ATOM     39  C   UNL A   1      39.982  28.644  28.860  1.00  0.00     0.010 A 
ATOM     40  C   UNL A   1      39.390  28.514  30.072  1.00  0.00    -0.014 A 
BRANCH  40  41
ATOM     41  C   UNL A   1      39.483  29.766  30.796  1.00  0.00     0.031 A 
ATOM     42  C   UNL A   1      38.244  30.563  30.892  1.00  0.00     0.074 A 
ATOM     43  C   UNL A   1      40.484  29.979  31.694  1.00  0.00     0.049 A 
ATOM     44  N   UNL A   1      37.982  31.650  30.256  1.00  0.00    -0.248 NA
ATOM     45  C   UNL A   1      37.122  30.055  31.694  1.00  0.00     0.031 C 
ATOM     46  C   UNL A   1      41.599  29.102  32.113  1.00  0.00     0.029 A 
ATOM     47  N   UNL A   1      40.651  31.052  32.506  1.00  0.00    -0.354 N 
ATOM     48  C   UNL A   1      36.735  32.072  30.698  1.00  0.00     0.074 A 
ATOM     49  C   UNL A   1      36.175  30.959  31.422  1.00  0.00     0.031 C 
ATOM     50  C   UNL A   1      42.203  29.606  33.211  1.00  0.00     0.029 A 
ATOM     51  C   UNL A   1      41.658  30.924  33.452  1.00  0.00     0.049 A 
ATOM     52  H   UNL A   1      40.100  31.863  32.428  1.00  0.00     0.167 HD
ATOM     53  C   UNL A   1      36.365  33.381  30.596  1.00  0.00     0.037 A 
ATOM     54  C   UNL A   1      42.029  31.860  34.355  1.00  0.00     0.037 A 
ATOM     55  C   UNL A   1      37.348  34.124  29.840  1.00  0.00     0.049 A 
ATOM     56  C   UNL A   1      41.530  33.164  33.840  1.00  0.00     0.074 A 
ATOM     57  C   UNL A   1      37.821  34.043  28.544  1.00  0.00     0.029 A 
ATOM     58  N   UNL A   1      38.315  34.806  30.545  1.00  0.00    -0.354 N 
ATOM     59  N   UNL A   1      41.967  33.718  32.737  1.00  0.00    -0.248 NA
ATOM     60  C   UNL A   1      40.203  33.590  34.262  1.00  0.00     0.031 C 
ATOM     61  C   UNL A   1      39.234  34.216  28.659  1.00  0.00     0.029 A 
ATOM     62  C   UNL A   1      39.533  34.477  29.999  1.00  0.00     0.049 A 
ATOM     63  H   UNL A   1      38.162  35.417  31.302  1.00  0.00     0.167 HD
ATOM     64  C   UNL A   1      40.836  34.234  32.117  1.00  0.00     0.074 A 
ATOM     65  C   UNL A   1      39.795  34.199  33.144  1.00  0.00     0.031 C 
ATOM     66  C   UNL A   1      40.764  34.365  30.757  1.00  0.00     0.037 A 
BRANCH  53  67
ATOM     67  C   UNL A   1      35.300  34.077  31.399  1.00  0.00     0.064 A 
ATOM     68  C   UNL A   1      34.181  34.612  30.728  1.00  0.00     0.173 A 
ATOM     69  C   UNL A   1      35.435  34.455  32.749  1.00  0.00     0.173 A 
ATOM     70  F   UNL A   1      33.955  34.322  29.437  1.00  0.00    -0.203 F 
ATOM     71  C   UNL A   1      33.308  35.512  31.342  1.00  0.00     0.198 A 
ATOM     72  C   UNL A   1      34.529  35.310  33.377  1.00  0.00     0.198 A 
ATOM     73  F   UNL A   1      36.499  34.106  33.482  1.00  0.00    -0.203 F 
ATOM     74  F   UNL A   1      32.328  36.081  30.628  1.00  0.00    -0.200 F 
ATOM     75  C   UNL A   1      33.485  35.863  32.667  1.00  0.00     0.200 A 
ATOM     76  F   UNL A   1      34.723  35.649  34.660  1.00  0.00    -0.200 F 
ATOM     77  F   UNL A   1      32.681  36.766  33.244  1.00  0.00    -0.200 F 
ENDBRANCH  53  67
BRANCH  54  78
ATOM     78  C   UNL A   1      42.546  31.646  35.725  1.00  0.00     0.064 A 
ATOM     79  C   UNL A   1      43.911  31.444  35.967  1.00  0.00     0.173 A 
ATOM     80  C   UNL A   1      41.735  31.889  36.853  1.00  0.00     0.173 A 
ATOM     81  F   UNL A   1      44.753  31.238  34.944  1.00  0.00    -0.203 F 
ATOM     82  C   UNL A   1      44.442  31.511  37.261  1.00  0.00     0.198 A 
ATOM     83  C   UNL A   1      42.264  31.954  38.143  1.00  0.00     0.198 A 
ATOM     84  F   UNL A   1      40.428  32.161  36.714  1.00  0.00    -0.203 F 
ATOM     85  F   UNL A   1      45.761  31.370  37.449  1.00  0.00    -0.200 F 
ATOM     86  C   UNL A   1      43.621  31.778  38.344  1.00  0.00     0.200 A 
ATOM     87  F   UNL A   1      41.463  32.246  39.177  1.00  0.00    -0.200 F 
ATOM     88  F   UNL A   1      44.139  31.905  39.574  1.00  0.00    -0.200 F 
ENDBRANCH  54  78
BRANCH  66  89
ATOM     89  C   UNL A   1      42.023  34.139  29.955  1.00  0.00     0.064 A 
ATOM     90  C   UNL A   1      42.470  32.875  29.531  1.00  0.00     0.173 A 
ATOM     91  C   UNL A   1      42.700  35.252  29.441  1.00  0.00     0.173 A 
ATOM     92  F   UNL A   1      41.831  31.762  29.892  1.00  0.00    -0.203 F 
ATOM     93  C   UNL A   1      43.551  32.730  28.662  1.00  0.00     0.198 A 
ATOM     94  C   UNL A   1      43.762  35.109  28.548  1.00  0.00     0.198 A 
ATOM     95  F   UNL A   1      42.291  36.490  29.759  1.00  0.00    -0.203 F 
ATOM     96  F   UNL A   1      43.944  31.507  28.276  1.00  0.00    -0.200 F 
ATOM     97  C   UNL A   1      44.191  33.849  28.164  1.00  0.00     0.200 A 
ATOM     98  F   UNL A   1      44.347  36.198  28.030  1.00  0.00    -0.200 F 
ATOM     99  F   UNL A   1      45.201  33.715  27.293  1.00  0.00    -0.200 F 
ENDBRANCH  66  89
ENDBRANCH  40  41
ENDBRANCH  32  35
ENDBRANCH  30  31
ENDBRANCH   1  30
TORSDOF 13
ENDMDL
MODEL 3
REMARK VINA RESULT:     -14.2      0.753      1.598
REMARK SMILES CS(=O)(=O)c1ccc(-n2nnc(C(=O)NCCCNC(=O)c3ccc(-c4c5nc(c(-c6c(F)c(F)c(F)c(F)c6F)c6ccc([nH]6)c(-c6c(F)c(F)c(F)c(F)c6F)c6nc(c(-c7c(F)c(F)c(F)c(F)c7F)c7ccc4[nH]7)C=C6)C=C5)cc3)c2-c2cc(F)cc(F)c2)cc1
REMARK SMILES IDX 17 1 16 2 15 3 13 4 14 5 12 7 9 8 10 9 85 10 11 11 8 12 5 13
REMARK SMILES IDX 6 14 95 15 7 16 94 17 2 18 1 19 3 20 4 21 86 22 87 23 93 24
REMARK SMILES IDX 88 25 91 26 89 27 90 28 92 29 18 30 19 31 20 32 21 34 22 35
REMARK SMILES IDX 23 36 84 37 24 38 83 39 25 40 26 41 27 42 77 43 28 44 82 45
REMARK SMILES IDX 76 46 78 47 29 48 81 49 75 50 74 51 30 53 62 54 42 55 61 56
REMARK SMILES IDX 43 57 46 58 60 59 79 60 44 61 45 62 59 64 80 65 47 66 31 67
REMARK SMILES IDX 32 68 40 69 33 70 34 71 38 72 41 73 35 74 36 75 39 76 37 77
REMARK SMILES IDX 63 78 64 79 72 80 65 81 66 82 70 83 73 84 67 85 68 86 71 87
REMARK SMILES IDX 69 88 48 89 49 90 57 91 50 92 51 93 55 94 58 95 52 96 53 97
REMARK SMILES IDX 56 98 54 99
REMARK H PARENT 15 6 19 33 78 52 46 63
REMARK Flexibility Score: inf
ROOT
ATOM      1  C   UNL A   1      37.281  22.286  24.781  1.00  0.00     0.042 C 
ENDROOT
BRANCH   1   2
ATOM      2  C   UNL A   1      36.429  23.330  25.465  1.00  0.00     0.118 C 
BRANCH   2   3
ATOM      3  N   UNL A   1      35.497  22.924  26.466  1.00  0.00    -0.351 N 
ATOM      4  C   UNL A   1      34.123  22.844  26.384  1.00  0.00     0.274 C 
ATOM      5  O   UNL A   1      33.591  22.161  27.265  1.00  0.00    -0.267 OA
ATOM      6  H   UNL A   1      35.888  22.665  27.331  1.00  0.00     0.163 HD
BRANCH   4   7
ATOM      7  C   UNL A   1      33.300  23.582  25.403  1.00  0.00     0.178 A 
ATOM      8  N   UNL A   1      32.003  24.800  24.113  1.00  0.00    -0.212 N 
ATOM      9  N   UNL A   1      31.879  23.526  23.715  1.00  0.00    -0.061 NA
ATOM     10  C   UNL A   1      32.852  24.903  25.219  1.00  0.00     0.108 A 
ATOM     11  N   UNL A   1      32.737  22.803  24.405  1.00  0.00    -0.124 NA
BRANCH   8  12
ATOM     12  C   UNL A   1      31.189  25.825  23.579  1.00  0.00     0.067 A 
ATOM     13  C   UNL A   1      29.711  28.085  22.951  1.00  0.00     0.067 A 
ATOM     14  C   UNL A   1      29.104  27.023  23.637  1.00  0.00     0.022 A 
ATOM     15  C   UNL A   1      31.040  28.003  22.536  1.00  0.00     0.022 A 
ATOM     16  C   UNL A   1      29.838  25.875  23.934  1.00  0.00     0.030 A 
ATOM     17  C   UNL A   1      31.777  26.866  22.845  1.00  0.00     0.030 A 
BRANCH  13  18
ATOM     18  S   UNL A   1      28.746  29.548  22.661  1.00  0.00     0.175 S 
ATOM     19  C   UNL A   1      27.070  29.151  23.080  1.00  0.00     0.163 C 
ATOM     20  O   UNL A   1      28.784  29.785  21.231  1.00  0.00    -0.224 OA
ATOM     21  O   UNL A   1      29.222  30.538  23.607  1.00  0.00    -0.224 OA
ENDBRANCH  13  18
ENDBRANCH   8  12
BRANCH  10  22
ATOM     22  C   UNL A   1      32.895  26.148  26.014  1.00  0.00     0.009 A 
ATOM     23  C   UNL A   1      31.830  26.565  26.823  1.00  0.00     0.049 A 
ATOM     24  C   UNL A   1      33.987  27.026  25.829  1.00  0.00     0.049 A 
ATOM     25  C   UNL A   1      31.857  27.844  27.388  1.00  0.00     0.126 A 
ATOM     26  C   UNL A   1      33.990  28.291  26.409  1.00  0.00     0.126 A 
ATOM     27  F   UNL A   1      30.779  28.285  28.049  1.00  0.00    -0.207 F 
ATOM     28  C   UNL A   1      32.927  28.711  27.191  1.00  0.00     0.078 A 
ATOM     29  F   UNL A   1      34.993  29.134  26.137  1.00  0.00    -0.207 F 
ENDBRANCH  10  22
ENDBRANCH   4   7
ENDBRANCH   2   3
ENDBRANCH   1   2
BRANCH   1  30
ATOM     30  C   UNL A   1      38.459  21.940  25.669  1.00  0.00     0.118 C 
BRANCH  30  31
ATOM     31  N   UNL A   1      38.898  20.533  25.779  1.00  0.00    -0.352 N 
ATOM     32  C   UNL A   1      40.207  20.012  25.922  1.00  0.00     0.251 C 
ATOM     33  H   UNL A   1      38.177  19.862  25.749  1.00  0.00     0.163 HD
ATOM     34  O   UNL A   1      40.454  18.848  25.776  1.00  0.00    -0.269 OA
BRANCH  32  35
ATOM     35  C   UNL A   1      41.253  20.973  26.355  1.00  0.00     0.039 A 
ATOM     36  C   UNL A   1      42.120  21.750  25.576  1.00  0.00     0.014 A 
ATOM     37  C   UNL A   1      41.216  21.225  27.687  1.00  0.00     0.014 A 
ATOM     38  C   UNL A   1      42.711  22.881  26.185  1.00  0.00     0.010 A 
ATOM     39  C   UNL A   1      41.144  22.553  27.876  1.00  0.00     0.010 A 
ATOM     40  C   UNL A   1      42.187  23.282  27.408  1.00  0.00    -0.014 A 
BRANCH  40  41
ATOM     41  C   UNL A   1      42.385  24.445  28.251  1.00  0.00     0.031 A 
ATOM     42  C   UNL A   1      41.330  25.476  28.207  1.00  0.00     0.074 A 
ATOM     43  C   UNL A   1      43.221  24.392  29.323  1.00  0.00     0.049 A 
ATOM     44  N   UNL A   1      41.409  26.628  27.640  1.00  0.00    -0.248 NA
ATOM     45  C   UNL A   1      40.000  25.169  28.752  1.00  0.00     0.031 C 
ATOM     46  C   UNL A   1      44.045  23.280  29.845  1.00  0.00     0.029 A 
ATOM     47  N   UNL A   1      43.440  25.359  30.249  1.00  0.00    -0.354 N 
ATOM     48  C   UNL A   1      40.208  27.276  27.898  1.00  0.00     0.074 A 
ATOM     49  C   UNL A   1      39.316  26.265  28.407  1.00  0.00     0.031 C 
ATOM     50  C   UNL A   1      44.519  23.584  31.073  1.00  0.00     0.029 A 
ATOM     51  C   UNL A   1      44.206  24.970  31.338  1.00  0.00     0.049 A 
ATOM     52  H   UNL A   1      43.082  26.271  30.154  1.00  0.00     0.167 HD
ATOM     53  C   UNL A   1      40.127  28.636  27.857  1.00  0.00     0.037 A 
ATOM     54  C   UNL A   1      44.577  25.756  32.376  1.00  0.00     0.037 A 
ATOM     55  C   UNL A   1      41.360  29.200  27.354  1.00  0.00     0.049 A 
ATOM     56  C   UNL A   1      44.448  27.162  31.907  1.00  0.00     0.074 A 
ATOM     57  C   UNL A   1      42.043  29.095  26.157  1.00  0.00     0.029 A 
ATOM     58  N   UNL A   1      42.291  29.623  28.276  1.00  0.00    -0.354 N 
ATOM     59  N   UNL A   1      45.184  27.674  30.953  1.00  0.00    -0.248 NA
ATOM     60  C   UNL A   1      43.174  27.831  32.132  1.00  0.00     0.031 C 
ATOM     61  C   UNL A   1      43.415  28.962  26.530  1.00  0.00     0.029 A 
ATOM     62  C   UNL A   1      43.502  29.079  27.920  1.00  0.00     0.049 A 
ATOM     63  H   UNL A   1      42.121  30.209  29.049  1.00  0.00     0.167 HD
ATOM     64  C   UNL A   1      44.311  28.449  30.198  1.00  0.00     0.074 A 
ATOM     65  C   UNL A   1      43.109  28.575  31.022  1.00  0.00     0.031 C 
ATOM     66  C   UNL A   1      44.523  28.669  28.865  1.00  0.00     0.037 A 
BRANCH  53  67
ATOM     67  C   UNL A   1      39.086  29.493  28.526  1.00  0.00     0.064 A 
ATOM     68  C   UNL A   1      39.062  29.558  29.935  1.00  0.00     0.173 A 
ATOM     69  C   UNL A   1      37.972  30.055  27.874  1.00  0.00     0.173 A 
ATOM     70  F   UNL A   1      40.070  29.050  30.661  1.00  0.00    -0.203 F 
ATOM     71  C   UNL A   1      37.972  30.081  30.635  1.00  0.00     0.198 A 
ATOM     72  C   UNL A   1      36.910  30.629  28.574  1.00  0.00     0.198 A 
ATOM     73  F   UNL A   1      37.810  29.977  26.547  1.00  0.00    -0.203 F 
ATOM     74  F   UNL A   1      37.946  30.015  31.973  1.00  0.00    -0.200 F 
ATOM     75  C   UNL A   1      36.895  30.614  29.953  1.00  0.00     0.200 A 
ATOM     76  F   UNL A   1      35.867  31.130  27.896  1.00  0.00    -0.200 F 
ATOM     77  F   UNL A   1      35.825  31.068  30.619  1.00  0.00    -0.200 F 
ENDBRANCH  53  67
BRANCH  54  78
ATOM     78  C   UNL A   1      44.775  25.361  33.787  1.00  0.00     0.064 A 
ATOM     79  C   UNL A   1      43.698  25.270  34.679  1.00  0.00     0.173 A 
ATOM     80  C   UNL A   1      46.001  24.817  34.224  1.00  0.00     0.173 A 
ATOM     81  F   UNL A   1      42.491  25.735  34.325  1.00  0.00    -0.203 F 
ATOM     82  C   UNL A   1      43.830  24.644  35.924  1.00  0.00     0.198 A 
ATOM     83  C   UNL A   1      46.133  24.196  35.467  1.00  0.00     0.198 A 
ATOM     84  F   UNL A   1      47.071  24.797  33.414  1.00  0.00    -0.203 F 
ATOM     85  F   UNL A   1      42.764  24.524  36.727  1.00  0.00    -0.200 F 
ATOM     86  C   UNL A   1      45.043  24.097  36.311  1.00  0.00     0.200 A 
ATOM     87  F   UNL A   1      47.304  23.642  35.813  1.00  0.00    -0.200 F 
ATOM     88  F   UNL A   1      45.152  23.443  37.476  1.00  0.00    -0.200 F 
ENDBRANCH  54  78
BRANCH  66  89
ATOM     89  C   UNL A   1      45.842  28.231  28.273  1.00  0.00     0.064 A 
ATOM     90  C   UNL A   1      46.038  27.009  27.607  1.00  0.00     0.173 A 
ATOM     91  C   UNL A   1      46.892  29.156  28.217  1.00  0.00     0.173 A 
ATOM     92  F   UNL A   1      45.061  26.104  27.525  1.00  0.00    -0.203 F 
ATOM     93  C   UNL A   1      47.228  26.715  26.942  1.00  0.00     0.198 A 
ATOM     94  C   UNL A   1      48.071  28.875  27.527  1.00  0.00     0.198 A 
ATOM     95  F   UNL A   1      46.751  30.364  28.783  1.00  0.00    -0.203 F 
ATOM     96  F   UNL A   1      47.375  25.540  26.312  1.00  0.00    -0.200 F 
ATOM     97  C   UNL A   1      48.241  27.654  26.896  1.00  0.00     0.200 A 
ATOM     98  F   UNL A   1      49.031  29.807  27.444  1.00  0.00    -0.200 F 
ATOM     99  F   UNL A   1      49.369  27.394  26.220  1.00  0.00    -0.200 F 
ENDBRANCH  66  89
ENDBRANCH  40  41
ENDBRANCH  32  35
ENDBRANCH  30  31
ENDBRANCH   1  30
TORSDOF 13
ENDMDL
