MODEL 1
REMARK VINA RESULT:     -13.4      0.000      0.000
REMARK SMILES Cc1nn([C@H]2CCS(=O)(=O)C2)c(C)c1[C@@H]([NH3+])C(=O)NCCCNC(=O)c1ccc(-c2c3nc(c(-c4c(F)c(F)c(F)c(F)c4F)c4ccc([nH]4)c(-c4c(F)c(F)c(F)c(F)c4F)c4nc(c(-c5c(F)c(F)c(F)c(F)c5F)c5ccc2[nH]5)C=C4)C=C3)cc1
REMARK SMILES IDX 21 1 20 2 19 3 17 4 18 5 15 7 14 8 1 9 2 10 3 11 4 12 12 13
REMARK SMILES IDX 13 14 5 15 6 16 11 17 7 18 8 19 9 20 10 21 16 22 22 26 23 27
REMARK SMILES IDX 24 28 25 30 26 31 27 32 88 33 28 34 87 35 29 36 30 37 31 38
REMARK SMILES IDX 81 39 32 40 86 41 80 42 82 43 33 44 85 45 79 46 78 47 34 49
REMARK SMILES IDX 66 50 46 51 65 52 47 53 50 54 64 55 83 56 48 57 49 58 63 60
REMARK SMILES IDX 84 61 51 62 35 63 36 64 44 65 37 66 38 67 42 68 45 69 39 70
REMARK SMILES IDX 40 71 43 72 41 73 67 74 68 75 76 76 69 77 70 78 74 79 77 80
REMARK SMILES IDX 71 81 72 82 75 83 73 84 52 85 53 86 61 87 54 88 55 89 59 90
REMARK SMILES IDX 62 91 56 92 57 93 60 94 58 95
REMARK H PARENT 19 6 16 23 16 24 16 25 23 29 82 48 50 59
REMARK Flexibility Score: inf
ROOT
ATOM      1  C   UNL A   1      32.526  29.596  27.023  1.00  0.00     0.042 C 
ENDROOT
BRANCH   1   2
ATOM      2  C   UNL A   1      32.499  30.235  25.640  1.00  0.00     0.118 C 
BRANCH   2   3
ATOM      3  N   UNL A   1      31.142  30.476  25.181  1.00  0.00    -0.351 N 
ATOM      4  C   UNL A   1      30.550  30.144  23.991  1.00  0.00     0.283 C 
ATOM      5  O   UNL A   1      29.373  30.495  23.841  1.00  0.00    -0.268 OA
ATOM      6  H   UNL A   1      30.561  30.947  25.820  1.00  0.00     0.163 HD
BRANCH   4   7
ATOM      7  C   UNL A   1      31.281  29.349  22.864  1.00  0.00     0.306 C 
BRANCH   7   8
ATOM      8  C   UNL A   1      31.274  27.863  23.109  1.00  0.00     0.063 A 
ATOM      9  C   UNL A   1      33.568  27.278  21.984  1.00  0.00     0.069 C 
ATOM     10  C   UNL A   1      32.370  26.994  22.819  1.00  0.00     0.069 A 
ATOM     11  N   UNL A   1      32.182  25.770  23.318  1.00  0.00    -0.177 NA
ATOM     12  N   UNL A   1      30.965  25.826  23.889  1.00  0.00    -0.265 N 
ATOM     13  C   UNL A   1      30.279  26.960  23.495  1.00  0.00     0.046 A 
ATOM     14  C   UNL A   1      28.796  27.071  23.499  1.00  0.00     0.067 C 
BRANCH  12  15
ATOM     15  C   UNL A   1      30.563  24.721  24.761  1.00  0.00     0.123 C 
ATOM     16  C   UNL A   1      31.185  23.368  24.327  1.00  0.00     0.044 C 
ATOM     17  C   UNL A   1      31.009  24.875  26.210  1.00  0.00     0.164 C 
ATOM     18  C   UNL A   1      30.918  22.350  25.427  1.00  0.00     0.139 C 
ATOM     19  S   UNL A   1      30.894  23.272  26.942  1.00  0.00     0.152 S 
ATOM     20  O   UNL A   1      29.597  23.145  27.553  1.00  0.00    -0.229 OA
ATOM     21  O   UNL A   1      32.131  23.021  27.665  1.00  0.00    -0.229 OA
ENDBRANCH  12  15
ENDBRANCH   7   8
BRANCH   7  22
ATOM     22  N   UNL A   1      30.775  29.712  21.533  1.00  0.00    -0.343 N 
ATOM     23  H   UNL A   1      31.341  29.255  20.818  1.00  0.00     0.345 HD
ATOM     24  H   UNL A   1      30.830  30.724  21.413  1.00  0.00     0.345 HD
ATOM     25  H   UNL A   1      29.805  29.411  21.444  1.00  0.00     0.345 HD
ENDBRANCH   7  22
ENDBRANCH   4   7
ENDBRANCH   2   3
ENDBRANCH   1   2
BRANCH   1  26
ATOM     26  C   UNL A   1      33.550  30.174  27.966  1.00  0.00     0.118 C 
BRANCH  26  27
ATOM     27  N   UNL A   1      34.106  31.454  27.497  1.00  0.00    -0.352 N 
ATOM     28  C   UNL A   1      35.370  31.977  27.746  1.00  0.00     0.251 C 
ATOM     29  H   UNL A   1      33.510  32.007  26.941  1.00  0.00     0.163 HD
ATOM     30  O   UNL A   1      35.617  33.164  27.577  1.00  0.00    -0.269 OA
BRANCH  28  31
ATOM     31  C   UNL A   1      36.413  31.048  28.215  1.00  0.00     0.039 A 
ATOM     32  C   UNL A   1      36.525  29.723  27.792  1.00  0.00     0.014 A 
ATOM     33  C   UNL A   1      37.379  31.609  29.029  1.00  0.00     0.014 A 
ATOM     34  C   UNL A   1      37.686  29.022  28.127  1.00  0.00     0.010 A 
ATOM     35  C   UNL A   1      38.620  31.060  29.033  1.00  0.00     0.010 A 
ATOM     36  C   UNL A   1      38.747  29.718  28.728  1.00  0.00    -0.014 A 
BRANCH  36  37
ATOM     37  C   UNL A   1      40.041  29.118  29.018  1.00  0.00     0.031 A 
ATOM     38  C   UNL A   1      40.324  28.915  30.456  1.00  0.00     0.074 A 
ATOM     39  C   UNL A   1      40.817  28.570  28.052  1.00  0.00     0.049 A 
ATOM     40  N   UNL A   1      41.221  29.510  31.165  1.00  0.00    -0.248 NA
ATOM     41  C   UNL A   1      39.426  28.045  31.232  1.00  0.00     0.031 C 
ATOM     42  C   UNL A   1      40.528  28.405  26.618  1.00  0.00     0.029 A 
ATOM     43  N   UNL A   1      42.007  27.923  28.178  1.00  0.00    -0.354 N 
ATOM     44  C   UNL A   1      41.143  28.947  32.434  1.00  0.00     0.074 A 
ATOM     45  C   UNL A   1      39.910  28.205  32.467  1.00  0.00     0.031 C 
ATOM     46  C   UNL A   1      41.372  27.502  26.078  1.00  0.00     0.029 A 
ATOM     47  C   UNL A   1      42.383  27.180  27.065  1.00  0.00     0.049 A 
ATOM     48  H   UNL A   1      42.557  27.975  28.992  1.00  0.00     0.167 HD
ATOM     49  C   UNL A   1      42.234  28.934  33.249  1.00  0.00     0.037 A 
ATOM     50  C   UNL A   1      43.448  26.350  26.962  1.00  0.00     0.037 A 
ATOM     51  C   UNL A   1      43.237  29.860  32.778  1.00  0.00     0.049 A 
ATOM     52  C   UNL A   1      44.396  26.738  28.035  1.00  0.00     0.074 A 
ATOM     53  C   UNL A   1      43.264  31.221  32.536  1.00  0.00     0.029 A 
ATOM     54  N   UNL A   1      44.316  29.344  32.100  1.00  0.00    -0.354 N 
ATOM     55  N   UNL A   1      45.041  27.872  28.058  1.00  0.00    -0.248 NA
ATOM     56  C   UNL A   1      44.280  26.060  29.316  1.00  0.00     0.031 C 
ATOM     57  C   UNL A   1      44.044  31.371  31.351  1.00  0.00     0.029 A 
ATOM     58  C   UNL A   1      44.512  30.110  30.979  1.00  0.00     0.049 A 
ATOM     59  H   UNL A   1      44.852  28.564  32.371  1.00  0.00     0.167 HD
ATOM     60  C   UNL A   1      45.012  28.263  29.388  1.00  0.00     0.074 A 
ATOM     61  C   UNL A   1      44.629  27.061  30.128  1.00  0.00     0.031 C 
ATOM     62  C   UNL A   1      45.010  29.585  29.729  1.00  0.00     0.037 A 
BRANCH  49  63
ATOM     63  C   UNL A   1      42.568  27.824  34.220  1.00  0.00     0.064 A 
ATOM     64  C   UNL A   1      43.129  26.632  33.717  1.00  0.00     0.173 A 
ATOM     65  C   UNL A   1      42.084  27.752  35.544  1.00  0.00     0.173 A 
ATOM     66  F   UNL A   1      43.616  26.580  32.467  1.00  0.00    -0.203 F 
ATOM     67  C   UNL A   1      43.109  25.440  34.444  1.00  0.00     0.198 A 
ATOM     68  C   UNL A   1      42.117  26.573  36.287  1.00  0.00     0.198 A 
ATOM     69  F   UNL A   1      41.458  28.772  36.139  1.00  0.00    -0.203 F 
ATOM     70  F   UNL A   1      43.522  24.303  33.867  1.00  0.00    -0.200 F 
ATOM     71  C   UNL A   1      42.593  25.409  35.725  1.00  0.00     0.200 A 
ATOM     72  F   UNL A   1      41.599  26.561  37.524  1.00  0.00    -0.200 F 
ATOM     73  F   UNL A   1      42.508  24.254  36.398  1.00  0.00    -0.200 F 
ENDBRANCH  49  63
BRANCH  50  74
ATOM     74  C   UNL A   1      43.579  25.092  26.191  1.00  0.00     0.064 A 
ATOM     75  C   UNL A   1      44.617  24.928  25.260  1.00  0.00     0.173 A 
ATOM     76  C   UNL A   1      42.875  23.927  26.554  1.00  0.00     0.173 A 
ATOM     77  F   UNL A   1      45.358  25.979  24.884  1.00  0.00    -0.203 F 
ATOM     78  C   UNL A   1      44.962  23.668  24.760  1.00  0.00     0.198 A 
ATOM     79  C   UNL A   1      43.215  22.672  26.049  1.00  0.00     0.198 A 
ATOM     80  F   UNL A   1      41.907  23.968  27.482  1.00  0.00    -0.203 F 
ATOM     81  F   UNL A   1      46.009  23.541  23.933  1.00  0.00    -0.200 F 
ATOM     82  C   UNL A   1      44.271  22.539  25.167  1.00  0.00     0.200 A 
ATOM     83  F   UNL A   1      42.557  21.583  26.474  1.00  0.00    -0.200 F 
ATOM     84  F   UNL A   1      44.647  21.324  24.744  1.00  0.00    -0.200 F 
ENDBRANCH  50  74
BRANCH  62  85
ATOM     85  C   UNL A   1      45.336  30.586  28.653  1.00  0.00     0.064 A 
ATOM     86  C   UNL A   1      44.387  31.162  27.788  1.00  0.00     0.173 A 
ATOM     87  C   UNL A   1      46.647  31.076  28.581  1.00  0.00     0.173 A 
ATOM     88  F   UNL A   1      43.095  30.827  27.857  1.00  0.00    -0.203 F 
ATOM     89  C   UNL A   1      44.747  32.143  26.866  1.00  0.00     0.198 A 
ATOM     90  C   UNL A   1      46.996  32.083  27.685  1.00  0.00     0.198 A 
ATOM     91  F   UNL A   1      47.586  30.604  29.417  1.00  0.00    -0.203 F 
ATOM     92  F   UNL A   1      43.825  32.662  26.041  1.00  0.00    -0.200 F 
ATOM     93  C   UNL A   1      46.050  32.608  26.820  1.00  0.00     0.200 A 
ATOM     94  F   UNL A   1      48.247  32.561  27.679  1.00  0.00    -0.200 F 
ATOM     95  F   UNL A   1      46.390  33.577  25.959  1.00  0.00    -0.200 F 
ENDBRANCH  62  85
ENDBRANCH  36  37
ENDBRANCH  28  31
ENDBRANCH  26  27
ENDBRANCH   1  26
TORSDOF 13
ENDMDL
MODEL 2
REMARK VINA RESULT:     -13.3      3.579      9.054
REMARK SMILES Cc1nn([C@H]2CCS(=O)(=O)C2)c(C)c1[C@@H]([NH3+])C(=O)NCCCNC(=O)c1ccc(-c2c3nc(c(-c4c(F)c(F)c(F)c(F)c4F)c4ccc([nH]4)c(-c4c(F)c(F)c(F)c(F)c4F)c4nc(c(-c5c(F)c(F)c(F)c(F)c5F)c5ccc2[nH]5)C=C4)C=C3)cc1
REMARK SMILES IDX 21 1 20 2 19 3 17 4 18 5 15 7 14 8 1 9 2 10 3 11 4 12 12 13
REMARK SMILES IDX 13 14 5 15 6 16 11 17 7 18 8 19 9 20 10 21 16 22 22 26 23 27
REMARK SMILES IDX 24 28 25 30 26 31 27 32 88 33 28 34 87 35 29 36 30 37 31 38
REMARK SMILES IDX 81 39 32 40 86 41 80 42 82 43 33 44 85 45 79 46 78 47 34 49
REMARK SMILES IDX 66 50 46 51 65 52 47 53 50 54 64 55 83 56 48 57 49 58 63 60
REMARK SMILES IDX 84 61 51 62 35 63 36 64 44 65 37 66 38 67 42 68 45 69 39 70
REMARK SMILES IDX 40 71 43 72 41 73 67 74 68 75 76 76 69 77 70 78 74 79 77 80
REMARK SMILES IDX 71 81 72 82 75 83 73 84 52 85 53 86 61 87 54 88 55 89 59 90
REMARK SMILES IDX 62 91 56 92 57 93 60 94 58 95
REMARK H PARENT 19 6 16 23 16 24 16 25 23 29 82 48 50 59
REMARK Flexibility Score: inf
ROOT
ATOM      1  C   UNL A   1      38.080  21.862  25.293  1.00  0.00     0.042 C 
ENDROOT
BRANCH   1   2
ATOM      2  C   UNL A   1      36.689  21.473  25.775  1.00  0.00     0.118 C 
BRANCH   2   3
ATOM      3  N   UNL A   1      36.157  20.339  25.038  1.00  0.00    -0.351 N 
ATOM      4  C   UNL A   1      34.915  19.766  25.094  1.00  0.00     0.283 C 
ATOM      5  O   UNL A   1      34.728  18.778  24.371  1.00  0.00    -0.268 OA
ATOM      6  H   UNL A   1      36.783  19.922  24.404  1.00  0.00     0.163 HD
BRANCH   4   7
ATOM      7  C   UNL A   1      33.761  20.307  25.995  1.00  0.00     0.306 C 
BRANCH   7   8
ATOM      8  C   UNL A   1      33.039  21.471  25.368  1.00  0.00     0.063 A 
ATOM      9  C   UNL A   1      32.493  22.805  27.559  1.00  0.00     0.069 C 
ATOM     10  C   UNL A   1      32.604  22.628  26.085  1.00  0.00     0.069 A 
ATOM     11  N   UNL A   1      32.179  23.592  25.265  1.00  0.00    -0.177 NA
ATOM     12  N   UNL A   1      32.295  23.059  24.036  1.00  0.00    -0.265 N 
ATOM     13  C   UNL A   1      32.498  21.693  24.099  1.00  0.00     0.046 A 
ATOM     14  C   UNL A   1      32.151  20.755  22.999  1.00  0.00     0.067 C 
BRANCH  12  15
ATOM     15  C   UNL A   1      32.159  23.952  22.883  1.00  0.00     0.123 C 
ATOM     16  C   UNL A   1      31.245  25.169  23.182  1.00  0.00     0.044 C 
ATOM     17  C   UNL A   1      33.468  24.586  22.427  1.00  0.00     0.164 C 
ATOM     18  C   UNL A   1      31.373  26.152  22.026  1.00  0.00     0.139 C 
ATOM     19  S   UNL A   1      33.029  25.967  21.416  1.00  0.00     0.152 S 
ATOM     20  O   UNL A   1      32.983  25.528  20.046  1.00  0.00    -0.229 OA
ATOM     21  O   UNL A   1      33.820  27.108  21.851  1.00  0.00    -0.229 OA
ENDBRANCH  12  15
ENDBRANCH   7   8
BRANCH   7  22
ATOM     22  N   UNL A   1      32.855  19.230  26.416  1.00  0.00    -0.343 N 
ATOM     23  H   UNL A   1      32.970  19.060  27.415  1.00  0.00     0.345 HD
ATOM     24  H   UNL A   1      33.075  18.379  25.899  1.00  0.00     0.345 HD
ATOM     25  H   UNL A   1      31.890  19.503  26.226  1.00  0.00     0.345 HD
ENDBRANCH   7  22
ENDBRANCH   4   7
ENDBRANCH   2   3
ENDBRANCH   1   2
BRANCH   1  26
ATOM     26  C   UNL A   1      39.137  21.888  26.368  1.00  0.00     0.118 C 
BRANCH  26  27
ATOM     27  N   UNL A   1      40.501  21.733  25.837  1.00  0.00    -0.352 N 
ATOM     28  C   UNL A   1      41.544  22.652  25.884  1.00  0.00     0.251 C 
ATOM     29  H   UNL A   1      40.699  20.876  25.395  1.00  0.00     0.163 HD
ATOM     30  O   UNL A   1      42.520  22.551  25.152  1.00  0.00    -0.269 OA
BRANCH  28  31
ATOM     31  C   UNL A   1      41.439  23.755  26.856  1.00  0.00     0.039 A 
ATOM     32  C   UNL A   1      42.194  23.837  28.026  1.00  0.00     0.014 A 
ATOM     33  C   UNL A   1      40.617  24.799  26.476  1.00  0.00     0.014 A 
ATOM     34  C   UNL A   1      42.173  25.038  28.739  1.00  0.00     0.010 A 
ATOM     35  C   UNL A   1      40.885  26.040  26.955  1.00  0.00     0.010 A 
ATOM     36  C   UNL A   1      41.532  26.151  28.171  1.00  0.00    -0.014 A 
BRANCH  36  37
ATOM     37  C   UNL A   1      41.543  27.478  28.769  1.00  0.00     0.031 A 
ATOM     38  C   UNL A   1      42.653  28.350  28.326  1.00  0.00     0.074 A 
ATOM     39  C   UNL A   1      40.495  27.961  29.479  1.00  0.00     0.049 A 
ATOM     40  N   UNL A   1      43.637  28.782  29.039  1.00  0.00    -0.248 NA
ATOM     41  C   UNL A   1      42.761  28.680  26.896  1.00  0.00     0.031 C 
ATOM     42  C   UNL A   1      39.187  27.336  29.733  1.00  0.00     0.029 A 
ATOM     43  N   UNL A   1      40.336  29.191  30.035  1.00  0.00    -0.354 N 
ATOM     44  C   UNL A   1      44.382  29.607  28.205  1.00  0.00     0.074 A 
ATOM     45  C   UNL A   1      43.914  29.352  26.867  1.00  0.00     0.031 C 
ATOM     46  C   UNL A   1      38.305  28.266  30.155  1.00  0.00     0.029 A 
ATOM     47  C   UNL A   1      39.029  29.498  30.397  1.00  0.00     0.049 A 
ATOM     48  H   UNL A   1      41.084  29.815  30.171  1.00  0.00     0.167 HD
ATOM     49  C   UNL A   1      45.137  30.613  28.727  1.00  0.00     0.037 A 
ATOM     50  C   UNL A   1      38.569  30.686  30.855  1.00  0.00     0.037 A 
ATOM     51  C   UNL A   1      45.323  30.430  30.148  1.00  0.00     0.049 A 
ATOM     52  C   UNL A   1      39.746  31.431  31.364  1.00  0.00     0.074 A 
ATOM     53  C   UNL A   1      45.866  29.431  30.934  1.00  0.00     0.029 A 
ATOM     54  N   UNL A   1      44.555  31.191  30.997  1.00  0.00    -0.354 N 
ATOM     55  N   UNL A   1      40.432  31.075  32.415  1.00  0.00    -0.248 NA
ATOM     56  C   UNL A   1      40.437  32.315  30.438  1.00  0.00     0.031 C 
ATOM     57  C   UNL A   1      45.016  29.357  32.078  1.00  0.00     0.029 A 
ATOM     58  C   UNL A   1      44.052  30.360  31.965  1.00  0.00     0.049 A 
ATOM     59  H   UNL A   1      44.395  32.159  30.923  1.00  0.00     0.167 HD
ATOM     60  C   UNL A   1      41.753  31.308  32.066  1.00  0.00     0.074 A 
ATOM     61  C   UNL A   1      41.686  32.169  30.887  1.00  0.00     0.031 C 
ATOM     62  C   UNL A   1      42.759  30.542  32.582  1.00  0.00     0.037 A 
BRANCH  49  63
ATOM     63  C   UNL A   1      45.367  31.950  28.060  1.00  0.00     0.064 A 
ATOM     64  C   UNL A   1      44.250  32.761  27.769  1.00  0.00     0.173 A 
ATOM     65  C   UNL A   1      46.568  32.326  27.422  1.00  0.00     0.173 A 
ATOM     66  F   UNL A   1      43.052  32.496  28.315  1.00  0.00    -0.203 F 
ATOM     67  C   UNL A   1      44.310  33.797  26.834  1.00  0.00     0.198 A 
ATOM     68  C   UNL A   1      46.637  33.396  26.531  1.00  0.00     0.198 A 
ATOM     69  F   UNL A   1      47.695  31.618  27.535  1.00  0.00    -0.203 F 
ATOM     70  F   UNL A   1      43.189  34.443  26.486  1.00  0.00    -0.200 F 
ATOM     71  C   UNL A   1      45.502  34.107  26.208  1.00  0.00     0.200 A 
ATOM     72  F   UNL A   1      47.800  33.672  25.923  1.00  0.00    -0.200 F 
ATOM     73  F   UNL A   1      45.548  35.051  25.259  1.00  0.00    -0.200 F 
ENDBRANCH  49  63
BRANCH  50  74
ATOM     74  C   UNL A   1      37.248  31.322  30.639  1.00  0.00     0.064 A 
ATOM     75  C   UNL A   1      36.355  31.499  31.707  1.00  0.00     0.173 A 
ATOM     76  C   UNL A   1      36.954  32.025  29.454  1.00  0.00     0.173 A 
ATOM     77  F   UNL A   1      36.578  30.892  32.881  1.00  0.00    -0.203 F 
ATOM     78  C   UNL A   1      35.261  32.366  31.613  1.00  0.00     0.198 A 
ATOM     79  C   UNL A   1      35.857  32.883  29.359  1.00  0.00     0.198 A 
ATOM     80  F   UNL A   1      37.778  31.971  28.397  1.00  0.00    -0.203 F 
ATOM     81  F   UNL A   1      34.475  32.568  32.680  1.00  0.00    -0.200 F 
ATOM     82  C   UNL A   1      35.022  33.069  30.444  1.00  0.00     0.200 A 
ATOM     83  F   UNL A   1      35.655  33.581  28.232  1.00  0.00    -0.200 F 
ATOM     84  F   UNL A   1      34.016  33.952  30.378  1.00  0.00    -0.200 F 
ENDBRANCH  50  74
BRANCH  62  85
ATOM     85  C   UNL A   1      42.431  29.651  33.750  1.00  0.00     0.064 A 
ATOM     86  C   UNL A   1      41.917  28.345  33.635  1.00  0.00     0.173 A 
ATOM     87  C   UNL A   1      42.771  30.092  35.035  1.00  0.00     0.173 A 
ATOM     88  F   UNL A   1      41.659  27.807  32.439  1.00  0.00    -0.203 F 
ATOM     89  C   UNL A   1      41.710  27.545  34.758  1.00  0.00     0.198 A 
ATOM     90  C   UNL A   1      42.600  29.277  36.151  1.00  0.00     0.198 A 
ATOM     91  F   UNL A   1      43.315  31.308  35.204  1.00  0.00    -0.203 F 
ATOM     92  F   UNL A   1      41.202  26.311  34.619  1.00  0.00    -0.200 F 
ATOM     93  C   UNL A   1      42.058  28.009  36.014  1.00  0.00     0.200 A 
ATOM     94  F   UNL A   1      42.983  29.714  37.358  1.00  0.00    -0.200 F 
ATOM     95  F   UNL A   1      41.895  27.228  37.090  1.00  0.00    -0.200 F 
ENDBRANCH  62  85
ENDBRANCH  36  37
ENDBRANCH  28  31
ENDBRANCH  26  27
ENDBRANCH   1  26
TORSDOF 13
ENDMDL
MODEL 3
REMARK VINA RESULT:     -12.9      1.168      1.570
REMARK SMILES Cc1nn([C@H]2CCS(=O)(=O)C2)c(C)c1[C@@H]([NH3+])C(=O)NCCCNC(=O)c1ccc(-c2c3nc(c(-c4c(F)c(F)c(F)c(F)c4F)c4ccc([nH]4)c(-c4c(F)c(F)c(F)c(F)c4F)c4nc(c(-c5c(F)c(F)c(F)c(F)c5F)c5ccc2[nH]5)C=C4)C=C3)cc1
REMARK SMILES IDX 21 1 20 2 19 3 17 4 18 5 15 7 14 8 1 9 2 10 3 11 4 12 12 13
REMARK SMILES IDX 13 14 5 15 6 16 11 17 7 18 8 19 9 20 10 21 16 22 22 26 23 27
REMARK SMILES IDX 24 28 25 30 26 31 27 32 88 33 28 34 87 35 29 36 30 37 31 38
REMARK SMILES IDX 81 39 32 40 86 41 80 42 82 43 33 44 85 45 79 46 78 47 34 49
REMARK SMILES IDX 66 50 46 51 65 52 47 53 50 54 64 55 83 56 48 57 49 58 63 60
REMARK SMILES IDX 84 61 51 62 35 63 36 64 44 65 37 66 38 67 42 68 45 69 39 70
REMARK SMILES IDX 40 71 43 72 41 73 67 74 68 75 76 76 69 77 70 78 74 79 77 80
REMARK SMILES IDX 71 81 72 82 75 83 73 84 52 85 53 86 61 87 54 88 55 89 59 90
REMARK SMILES IDX 62 91 56 92 57 93 60 94 58 95
REMARK H PARENT 19 6 16 23 16 24 16 25 23 29 82 48 50 59
REMARK Flexibility Score: inf
ROOT
ATOM      1  C   UNL A   1      32.351  30.499  26.884  1.00  0.00     0.042 C 
ENDROOT
BRANCH   1   2
ATOM      2  C   UNL A   1      32.508  30.082  25.428  1.00  0.00     0.118 C 
BRANCH   2   3
ATOM      3  N   UNL A   1      31.225  29.952  24.759  1.00  0.00    -0.351 N 
ATOM      4  C   UNL A   1      30.816  29.042  23.821  1.00  0.00     0.283 C 
ATOM      5  O   UNL A   1      29.664  29.173  23.388  1.00  0.00    -0.268 OA
ATOM      6  H   UNL A   1      30.548  30.617  25.020  1.00  0.00     0.163 HD
BRANCH   4   7
ATOM      7  C   UNL A   1      31.718  27.876  23.310  1.00  0.00     0.306 C 
BRANCH   7   8
ATOM      8  C   UNL A   1      31.805  26.741  24.297  1.00  0.00     0.063 A 
ATOM      9  C   UNL A   1      29.282  26.029  24.283  1.00  0.00     0.069 C 
ATOM     10  C   UNL A   1      30.724  25.858  24.605  1.00  0.00     0.069 A 
ATOM     11  N   UNL A   1      31.123  24.824  25.349  1.00  0.00    -0.177 NA
ATOM     12  N   UNL A   1      32.432  25.048  25.557  1.00  0.00    -0.265 N 
ATOM     13  C   UNL A   1      32.781  26.341  25.213  1.00  0.00     0.046 A 
ATOM     14  C   UNL A   1      33.951  27.060  25.783  1.00  0.00     0.067 C 
BRANCH  12  15
ATOM     15  C   UNL A   1      33.235  23.960  26.120  1.00  0.00     0.123 C 
ATOM     16  C   UNL A   1      32.458  23.140  27.184  1.00  0.00     0.044 C 
ATOM     17  C   UNL A   1      33.667  22.912  25.102  1.00  0.00     0.164 C 
ATOM     18  C   UNL A   1      33.275  21.899  27.514  1.00  0.00     0.139 C 
ATOM     19  S   UNL A   1      34.147  21.484  26.026  1.00  0.00     0.152 S 
ATOM     20  O   UNL A   1      35.563  21.558  26.270  1.00  0.00    -0.229 OA
ATOM     21  O   UNL A   1      33.513  20.324  25.417  1.00  0.00    -0.229 OA
ENDBRANCH  12  15
ENDBRANCH   7   8
BRANCH   7  22
ATOM     22  N   UNL A   1      31.322  27.437  21.965  1.00  0.00    -0.343 N 
ATOM     23  H   UNL A   1      30.901  26.509  22.020  1.00  0.00     0.345 HD
ATOM     24  H   UNL A   1      32.144  27.401  21.363  1.00  0.00     0.345 HD
ATOM     25  H   UNL A   1      30.645  28.095  21.578  1.00  0.00     0.345 HD
ENDBRANCH   7  22
ENDBRANCH   4   7
ENDBRANCH   2   3
ENDBRANCH   1   2
BRANCH   1  26
ATOM     26  C   UNL A   1      33.645  30.640  27.644  1.00  0.00     0.118 C 
BRANCH  26  27
ATOM     27  N   UNL A   1      34.233  31.985  27.533  1.00  0.00    -0.352 N 
ATOM     28  C   UNL A   1      35.456  32.425  28.030  1.00  0.00     0.251 C 
ATOM     29  H   UNL A   1      33.696  32.654  27.050  1.00  0.00     0.163 HD
ATOM     30  O   UNL A   1      35.705  33.617  28.154  1.00  0.00    -0.269 OA
BRANCH  28  31
ATOM     31  C   UNL A   1      36.452  31.403  28.395  1.00  0.00     0.039 A 
ATOM     32  C   UNL A   1      36.590  30.178  27.739  1.00  0.00     0.014 A 
ATOM     33  C   UNL A   1      37.353  31.780  29.372  1.00  0.00     0.014 A 
ATOM     34  C   UNL A   1      37.715  29.402  28.026  1.00  0.00     0.010 A 
ATOM     35  C   UNL A   1      38.586  31.214  29.369  1.00  0.00     0.010 A 
ATOM     36  C   UNL A   1      38.729  29.951  28.827  1.00  0.00    -0.014 A 
BRANCH  36  37
ATOM     37  C   UNL A   1      39.992  29.280  29.099  1.00  0.00     0.031 A 
ATOM     38  C   UNL A   1      40.275  29.044  30.532  1.00  0.00     0.074 A 
ATOM     39  C   UNL A   1      40.730  28.703  28.120  1.00  0.00     0.049 A 
ATOM     40  N   UNL A   1      41.208  29.583  31.241  1.00  0.00    -0.248 NA
ATOM     41  C   UNL A   1      39.339  28.214  31.306  1.00  0.00     0.031 C 
ATOM     42  C   UNL A   1      40.421  28.572  26.687  1.00  0.00     0.029 A 
ATOM     43  N   UNL A   1      41.885  27.994  28.228  1.00  0.00    -0.354 N 
ATOM     44  C   UNL A   1      41.111  29.009  32.503  1.00  0.00     0.074 A 
ATOM     45  C   UNL A   1      39.840  28.332  32.538  1.00  0.00     0.031 C 
ATOM     46  C   UNL A   1      41.212  27.632  26.129  1.00  0.00     0.029 A 
ATOM     47  C   UNL A   1      42.212  27.246  27.103  1.00  0.00     0.049 A 
ATOM     48  H   UNL A   1      42.444  28.006  29.038  1.00  0.00     0.167 HD
ATOM     49  C   UNL A   1      42.206  28.928  33.309  1.00  0.00     0.037 A 
ATOM     50  C   UNL A   1      43.230  26.362  26.981  1.00  0.00     0.037 A 
ATOM     51  C   UNL A   1      43.253  29.806  32.840  1.00  0.00     0.049 A 
ATOM     52  C   UNL A   1      44.207  26.686  28.050  1.00  0.00     0.074 A 
ATOM     53  C   UNL A   1      43.350  31.166  32.614  1.00  0.00     0.029 A 
ATOM     54  N   UNL A   1      44.297  29.242  32.146  1.00  0.00    -0.354 N 
ATOM     55  N   UNL A   1      44.911  27.783  28.081  1.00  0.00    -0.248 NA
ATOM     56  C   UNL A   1      44.065  25.999  29.324  1.00  0.00     0.031 C 
ATOM     57  C   UNL A   1      44.127  31.290  31.424  1.00  0.00     0.029 A 
ATOM     58  C   UNL A   1      44.524  30.010  31.033  1.00  0.00     0.049 A 
ATOM     59  H   UNL A   1      44.793  28.432  32.403  1.00  0.00     0.167 HD
ATOM     60  C   UNL A   1      44.914  28.159  29.416  1.00  0.00     0.074 A 
ATOM     61  C   UNL A   1      44.474  26.971  30.144  1.00  0.00     0.031 C 
ATOM     62  C   UNL A   1      44.984  29.476  29.772  1.00  0.00     0.037 A 
BRANCH  49  63
ATOM     63  C   UNL A   1      42.488  27.791  34.263  1.00  0.00     0.064 A 
ATOM     64  C   UNL A   1      43.031  26.595  33.748  1.00  0.00     0.173 A 
ATOM     65  C   UNL A   1      41.972  27.703  35.574  1.00  0.00     0.173 A 
ATOM     66  F   UNL A   1      43.547  26.557  32.509  1.00  0.00    -0.203 F 
ATOM     67  C   UNL A   1      42.964  25.389  34.449  1.00  0.00     0.198 A 
ATOM     68  C   UNL A   1      41.957  26.509  36.293  1.00  0.00     0.198 A 
ATOM     69  F   UNL A   1      41.357  28.726  36.175  1.00  0.00    -0.203 F 
ATOM     70  F   UNL A   1      43.363  24.254  33.858  1.00  0.00    -0.200 F 
ATOM     71  C   UNL A   1      42.417  25.345  35.717  1.00  0.00     0.200 A 
ATOM     72  F   UNL A   1      41.409  26.484  37.516  1.00  0.00    -0.200 F 
ATOM     73  F   UNL A   1      42.287  24.179  36.363  1.00  0.00    -0.200 F 
ENDBRANCH  49  63
BRANCH  50  74
ATOM     74  C   UNL A   1      43.289  25.108  26.194  1.00  0.00     0.064 A 
ATOM     75  C   UNL A   1      44.316  24.895  25.261  1.00  0.00     0.173 A 
ATOM     76  C   UNL A   1      42.518  23.981  26.542  1.00  0.00     0.173 A 
ATOM     77  F   UNL A   1      45.118  25.907  24.898  1.00  0.00    -0.203 F 
ATOM     78  C   UNL A   1      44.588  23.624  24.745  1.00  0.00     0.198 A 
ATOM     79  C   UNL A   1      42.785  22.715  26.021  1.00  0.00     0.198 A 
ATOM     80  F   UNL A   1      41.553  24.067  27.471  1.00  0.00    -0.203 F 
ATOM     81  F   UNL A   1      45.626  23.447  23.916  1.00  0.00    -0.200 F 
ATOM     82  C   UNL A   1      43.832  22.532  25.138  1.00  0.00     0.200 A 
ATOM     83  F   UNL A   1      42.065  21.661  26.432  1.00  0.00    -0.200 F 
ATOM     84  F   UNL A   1      44.137  21.303  24.699  1.00  0.00    -0.200 F 
ENDBRANCH  50  74
BRANCH  62  85
ATOM     85  C   UNL A   1      45.354  30.470  28.706  1.00  0.00     0.064 A 
ATOM     86  C   UNL A   1      44.429  31.115  27.863  1.00  0.00     0.173 A 
ATOM     87  C   UNL A   1      46.690  30.883  28.620  1.00  0.00     0.173 A 
ATOM     88  F   UNL A   1      43.120  30.856  27.947  1.00  0.00    -0.203 F 
ATOM     89  C   UNL A   1      44.834  32.086  26.949  1.00  0.00     0.198 A 
ATOM     90  C   UNL A   1      47.086  31.880  27.734  1.00  0.00     0.198 A 
ATOM     91  F   UNL A   1      47.611  30.344  29.436  1.00  0.00    -0.203 F 
ATOM     92  F   UNL A   1      43.933  32.671  26.146  1.00  0.00    -0.200 F 
ATOM     93  C   UNL A   1      46.161  32.473  26.890  1.00  0.00     0.200 A 
ATOM     94  F   UNL A   1      48.364  32.284  27.715  1.00  0.00    -0.200 F 
ATOM     95  F   UNL A   1      46.546  33.433  26.037  1.00  0.00    -0.200 F 
ENDBRANCH  62  85
ENDBRANCH  36  37
ENDBRANCH  28  31
ENDBRANCH  26  27
ENDBRANCH   1  26
TORSDOF 13
ENDMDL
