MODEL 1
REMARK VINA RESULT:     -14.0      0.000      0.000
REMARK SMILES Cc1cc(C(=O)NCCCNC(=O)c2ccc(-c3c4nc(c(-c5c(F)c(F)c(F)c(F)c5F)c5ccc([nH]5)c(-c5c(F)c(F)c(F)c(F)c5F)c5nc(c(-c6c(F)c(F)c(F)c(F)c6F)c6ccc3[nH]6)C=C5)C=C4)cc2)ccc1-c1ccc(C(=O)N2CCCCC2)cc1
REMARK SMILES IDX 9 1 8 2 7 3 5 4 6 5 4 7 1 8 2 9 3 10 79 11 78 12 77 13 80 14
REMARK SMILES IDX 81 15 93 16 82 17 92 18 83 19 84 20 85 21 86 22 87 23 91 24
REMARK SMILES IDX 88 25 90 26 89 27 10 28 11 29 12 30 13 32 14 33 15 34 76 35
REMARK SMILES IDX 16 36 75 37 17 38 18 39 19 40 69 41 20 42 74 43 68 44 70 45
REMARK SMILES IDX 21 46 73 47 67 48 66 49 22 51 54 52 34 53 53 54 35 55 38 56
REMARK SMILES IDX 52 57 71 58 36 59 37 60 51 62 72 63 39 64 23 65 24 66 32 67
REMARK SMILES IDX 25 68 26 69 30 70 33 71 27 72 28 73 31 74 29 75 55 76 56 77
REMARK SMILES IDX 64 78 57 79 58 80 62 81 65 82 59 83 60 84 63 85 61 86 40 87
REMARK SMILES IDX 41 88 49 89 42 90 43 91 47 92 50 93 44 94 45 95 48 96 46 97
REMARK H PARENT 7 6 11 31 70 50 38 61
REMARK Flexibility Score: inf
ROOT
ATOM      1  C   UNL A   1      44.378  18.592  25.348  1.00  0.00     0.042 C 
ENDROOT
BRANCH   1   2
ATOM      2  C   UNL A   1      42.986  19.119  25.710  1.00  0.00     0.118 C 
BRANCH   2   3
ATOM      3  N   UNL A   1      43.035  20.042  26.836  1.00  0.00    -0.352 N 
ATOM      4  C   UNL A   1      42.118  20.928  27.354  1.00  0.00     0.251 C 
ATOM      5  O   UNL A   1      42.443  21.527  28.382  1.00  0.00    -0.269 OA
ATOM      6  H   UNL A   1      43.892  20.031  27.320  1.00  0.00     0.163 HD
BRANCH   4   7
ATOM      7  C   UNL A   1      40.772  21.193  26.758  1.00  0.00     0.040 A 
ATOM      8  C   UNL A   1      38.512  24.252  26.501  1.00  0.00     0.045 C 
ATOM      9  C   UNL A   1      38.975  22.826  26.353  1.00  0.00    -0.042 A 
ATOM     10  C   UNL A   1      40.235  22.484  26.891  1.00  0.00     0.018 A 
ATOM     11  C   UNL A   1      38.234  21.845  25.664  1.00  0.00    -0.015 A 
ATOM     12  C   UNL A   1      38.784  20.571  25.518  1.00  0.00     0.010 A 
ATOM     13  C   UNL A   1      40.033  20.261  26.040  1.00  0.00     0.014 A 
BRANCH  11  14
ATOM     14  C   UNL A   1      36.930  22.072  25.046  1.00  0.00    -0.018 A 
ATOM     15  C   UNL A   1      36.838  22.749  23.826  1.00  0.00     0.009 A 
ATOM     16  C   UNL A   1      35.760  21.555  25.627  1.00  0.00     0.009 A 
ATOM     17  C   UNL A   1      35.600  22.952  23.226  1.00  0.00     0.014 A 
ATOM     18  C   UNL A   1      34.522  21.729  25.010  1.00  0.00     0.014 A 
ATOM     19  C   UNL A   1      34.434  22.435  23.805  1.00  0.00     0.040 A 
BRANCH  19  20
ATOM     20  C   UNL A   1      33.085  22.780  23.278  1.00  0.00     0.253 C 
ATOM     21  O   UNL A   1      32.494  21.956  22.572  1.00  0.00    -0.269 OA
ATOM     22  N   UNL A   1      32.473  23.932  23.738  1.00  0.00    -0.339 N 
ATOM     23  C   UNL A   1      31.078  23.861  24.134  1.00  0.00     0.120 C 
ATOM     24  C   UNL A   1      33.098  25.254  23.733  1.00  0.00     0.120 C 
ATOM     25  C   UNL A   1      30.220  24.827  23.337  1.00  0.00     0.022 C 
ATOM     26  C   UNL A   1      32.257  26.248  22.933  1.00  0.00     0.022 C 
ATOM     27  C   UNL A   1      30.799  26.240  23.396  1.00  0.00     0.004 C 
ENDBRANCH  19  20
ENDBRANCH  11  14
ENDBRANCH   4   7
ENDBRANCH   2   3
ENDBRANCH   1   2
BRANCH   1  28
ATOM     28  C   UNL A   1      45.322  19.676  24.876  1.00  0.00     0.118 C 
BRANCH  28  29
ATOM     29  N   UNL A   1      44.744  20.591  23.894  1.00  0.00    -0.352 N 
ATOM     30  C   UNL A   1      44.713  21.976  23.894  1.00  0.00     0.251 C 
ATOM     31  H   UNL A   1      44.314  20.160  23.120  1.00  0.00     0.163 HD
ATOM     32  O   UNL A   1      44.153  22.587  22.989  1.00  0.00    -0.269 OA
BRANCH  30  33
ATOM     33  C   UNL A   1      45.520  22.710  24.898  1.00  0.00     0.039 A 
ATOM     34  C   UNL A   1      45.346  22.317  26.229  1.00  0.00     0.014 A 
ATOM     35  C   UNL A   1      45.999  23.976  24.592  1.00  0.00     0.014 A 
ATOM     36  C   UNL A   1      45.278  23.293  27.209  1.00  0.00     0.010 A 
ATOM     37  C   UNL A   1      45.790  24.965  25.523  1.00  0.00     0.010 A 
ATOM     38  C   UNL A   1      45.343  24.621  26.803  1.00  0.00    -0.014 A 
BRANCH  38  39
ATOM     39  C   UNL A   1      45.044  25.738  27.672  1.00  0.00     0.031 A 
ATOM     40  C   UNL A   1      43.699  26.316  27.556  1.00  0.00     0.074 A 
ATOM     41  C   UNL A   1      45.936  26.161  28.594  1.00  0.00     0.049 A 
ATOM     42  N   UNL A   1      43.387  27.506  27.925  1.00  0.00    -0.248 NA
ATOM     43  C   UNL A   1      42.600  25.603  26.915  1.00  0.00     0.031 C 
ATOM     44  C   UNL A   1      45.695  27.065  29.713  1.00  0.00     0.029 A 
ATOM     45  N   UNL A   1      47.327  25.963  28.606  1.00  0.00    -0.354 N 
ATOM     46  C   UNL A   1      42.019  27.622  27.835  1.00  0.00     0.074 A 
ATOM     47  C   UNL A   1      41.595  26.461  27.095  1.00  0.00     0.031 C 
ATOM     48  C   UNL A   1      46.868  27.577  30.121  1.00  0.00     0.029 A 
ATOM     49  C   UNL A   1      47.884  27.136  29.186  1.00  0.00     0.049 A 
ATOM     50  H   UNL A   1      47.817  25.174  28.280  1.00  0.00     0.167 HD
ATOM     51  C   UNL A   1      41.418  28.630  28.528  1.00  0.00     0.037 A 
ATOM     52  C   UNL A   1      48.691  27.961  28.449  1.00  0.00     0.037 A 
ATOM     53  C   UNL A   1      42.438  29.503  29.125  1.00  0.00     0.049 A 
ATOM     54  C   UNL A   1      48.060  29.296  28.132  1.00  0.00     0.074 A 
ATOM     55  C   UNL A   1      43.022  29.581  30.379  1.00  0.00     0.029 A 
ATOM     56  N   UNL A   1      43.273  30.213  28.278  1.00  0.00    -0.354 N 
ATOM     57  N   UNL A   1      46.871  29.660  28.522  1.00  0.00    -0.248 NA
ATOM     58  C   UNL A   1      48.685  30.278  27.250  1.00  0.00     0.031 C 
ATOM     59  C   UNL A   1      44.230  30.334  30.261  1.00  0.00     0.029 A 
ATOM     60  C   UNL A   1      44.361  30.745  28.946  1.00  0.00     0.049 A 
ATOM     61  H   UNL A   1      43.111  30.326  27.314  1.00  0.00     0.167 HD
ATOM     62  C   UNL A   1      46.549  30.861  27.953  1.00  0.00     0.074 A 
ATOM     63  C   UNL A   1      47.704  31.186  27.133  1.00  0.00     0.031 C 
ATOM     64  C   UNL A   1      45.353  31.487  28.179  1.00  0.00     0.037 A 
BRANCH  51  65
ATOM     65  C   UNL A   1      39.945  28.689  28.883  1.00  0.00     0.064 A 
ATOM     66  C   UNL A   1      39.008  29.115  27.916  1.00  0.00     0.173 A 
ATOM     67  C   UNL A   1      39.384  28.415  30.147  1.00  0.00     0.173 A 
ATOM     68  F   UNL A   1      39.366  29.328  26.644  1.00  0.00    -0.203 F 
ATOM     69  C   UNL A   1      37.660  29.342  28.217  1.00  0.00     0.198 A 
ATOM     70  C   UNL A   1      38.045  28.679  30.460  1.00  0.00     0.198 A 
ATOM     71  F   UNL A   1      40.077  27.825  31.121  1.00  0.00    -0.203 F 
ATOM     72  F   UNL A   1      36.827  29.762  27.255  1.00  0.00    -0.200 F 
ATOM     73  C   UNL A   1      37.185  29.154  29.497  1.00  0.00     0.200 A 
ATOM     74  F   UNL A   1      37.602  28.461  31.708  1.00  0.00    -0.200 F 
ATOM     75  F   UNL A   1      35.902  29.400  29.794  1.00  0.00    -0.200 F 
ENDBRANCH  51  65
BRANCH  52  76
ATOM     76  C   UNL A   1      49.576  27.184  27.529  1.00  0.00     0.064 A 
ATOM     77  C   UNL A   1      49.212  27.231  26.170  1.00  0.00     0.173 A 
ATOM     78  C   UNL A   1      50.929  27.032  27.842  1.00  0.00     0.173 A 
ATOM     79  F   UNL A   1      47.915  27.272  25.822  1.00  0.00    -0.203 F 
ATOM     80  C   UNL A   1      50.173  27.495  25.204  1.00  0.00     0.198 A 
ATOM     81  C   UNL A   1      51.892  27.221  26.855  1.00  0.00     0.198 A 
ATOM     82  F   UNL A   1      51.326  26.872  29.112  1.00  0.00    -0.203 F 
ATOM     83  F   UNL A   1      49.795  27.827  23.961  1.00  0.00    -0.200 F 
ATOM     84  C   UNL A   1      51.509  27.554  25.562  1.00  0.00     0.200 A 
ATOM     85  F   UNL A   1      53.190  27.195  27.185  1.00  0.00    -0.200 F 
ATOM     86  F   UNL A   1      52.414  27.990  24.677  1.00  0.00    -0.200 F 
ENDBRANCH  52  76
BRANCH  64  87
ATOM     87  C   UNL A   1      45.021  32.857  27.639  1.00  0.00     0.064 A 
ATOM     88  C   UNL A   1      44.235  33.050  26.491  1.00  0.00     0.173 A 
ATOM     89  C   UNL A   1      45.551  34.038  28.209  1.00  0.00     0.173 A 
ATOM     90  F   UNL A   1      43.835  32.012  25.742  1.00  0.00    -0.203 F 
ATOM     91  C   UNL A   1      43.865  34.323  26.052  1.00  0.00     0.198 A 
ATOM     92  C   UNL A   1      45.233  35.307  27.731  1.00  0.00     0.198 A 
ATOM     93  F   UNL A   1      46.388  34.017  29.254  1.00  0.00    -0.203 F 
ATOM     94  F   UNL A   1      43.028  34.446  25.013  1.00  0.00    -0.200 F 
ATOM     95  C   UNL A   1      44.358  35.450  26.677  1.00  0.00     0.200 A 
ATOM     96  F   UNL A   1      45.776  36.386  28.311  1.00  0.00    -0.200 F 
ATOM     97  F   UNL A   1      44.005  36.671  26.256  1.00  0.00    -0.200 F 
ENDBRANCH  64  87
ENDBRANCH  38  39
ENDBRANCH  30  33
ENDBRANCH  28  29
ENDBRANCH   1  28
TORSDOF 12
ENDMDL
MODEL 2
REMARK VINA RESULT:     -13.9      6.082     11.745
REMARK SMILES Cc1cc(C(=O)NCCCNC(=O)c2ccc(-c3c4nc(c(-c5c(F)c(F)c(F)c(F)c5F)c5ccc([nH]5)c(-c5c(F)c(F)c(F)c(F)c5F)c5nc(c(-c6c(F)c(F)c(F)c(F)c6F)c6ccc3[nH]6)C=C5)C=C4)cc2)ccc1-c1ccc(C(=O)N2CCCCC2)cc1
REMARK SMILES IDX 9 1 8 2 7 3 5 4 6 5 4 7 1 8 2 9 3 10 79 11 78 12 77 13 80 14
REMARK SMILES IDX 81 15 93 16 82 17 92 18 83 19 84 20 85 21 86 22 87 23 91 24
REMARK SMILES IDX 88 25 90 26 89 27 10 28 11 29 12 30 13 32 14 33 15 34 76 35
REMARK SMILES IDX 16 36 75 37 17 38 18 39 19 40 69 41 20 42 74 43 68 44 70 45
REMARK SMILES IDX 21 46 73 47 67 48 66 49 22 51 54 52 34 53 53 54 35 55 38 56
REMARK SMILES IDX 52 57 71 58 36 59 37 60 51 62 72 63 39 64 23 65 24 66 32 67
REMARK SMILES IDX 25 68 26 69 30 70 33 71 27 72 28 73 31 74 29 75 55 76 56 77
REMARK SMILES IDX 64 78 57 79 58 80 62 81 65 82 59 83 60 84 63 85 61 86 40 87
REMARK SMILES IDX 41 88 49 89 42 90 43 91 47 92 50 93 44 94 45 95 48 96 46 97
REMARK H PARENT 7 6 11 31 70 50 38 61
REMARK Flexibility Score: inf
ROOT
ATOM      1  C   UNL A   1      32.950  36.644  30.597  1.00  0.00     0.042 C 
ENDROOT
BRANCH   1   2
ATOM      2  C   UNL A   1      33.183  35.532  29.570  1.00  0.00     0.118 C 
BRANCH   2   3
ATOM      3  N   UNL A   1      34.598  35.223  29.418  1.00  0.00    -0.352 N 
ATOM      4  C   UNL A   1      35.265  34.167  28.840  1.00  0.00     0.251 C 
ATOM      5  O   UNL A   1      36.495  34.237  28.810  1.00  0.00    -0.269 OA
ATOM      6  H   UNL A   1      35.195  35.903  29.807  1.00  0.00     0.163 HD
BRANCH   4   7
ATOM      7  C   UNL A   1      34.593  32.969  28.250  1.00  0.00     0.040 A 
ATOM      8  C   UNL A   1      35.636  29.358  27.611  1.00  0.00     0.045 C 
ATOM      9  C   UNL A   1      34.777  30.596  27.619  1.00  0.00    -0.042 A 
ATOM     10  C   UNL A   1      35.333  31.778  28.155  1.00  0.00     0.018 A 
ATOM     11  C   UNL A   1      33.444  30.610  27.165  1.00  0.00    -0.015 A 
ATOM     12  C   UNL A   1      32.708  31.790  27.282  1.00  0.00     0.010 A 
ATOM     13  C   UNL A   1      33.269  32.937  27.828  1.00  0.00     0.014 A 
BRANCH  11  14
ATOM     14  C   UNL A   1      32.745  29.454  26.607  1.00  0.00    -0.018 A 
ATOM     15  C   UNL A   1      32.088  28.555  27.452  1.00  0.00     0.009 A 
ATOM     16  C   UNL A   1      32.661  29.267  25.217  1.00  0.00     0.009 A 
ATOM     17  C   UNL A   1      31.408  27.463  26.925  1.00  0.00     0.014 A 
ATOM     18  C   UNL A   1      31.951  28.191  24.685  1.00  0.00     0.014 A 
ATOM     19  C   UNL A   1      31.323  27.278  25.538  1.00  0.00     0.040 A 
BRANCH  19  20
ATOM     20  C   UNL A   1      30.751  26.034  24.953  1.00  0.00     0.253 C 
ATOM     21  O   UNL A   1      29.526  25.956  24.805  1.00  0.00    -0.269 OA
ATOM     22  N   UNL A   1      31.619  25.087  24.440  1.00  0.00    -0.339 N 
ATOM     23  C   UNL A   1      31.320  24.510  23.141  1.00  0.00     0.120 C 
ATOM     24  C   UNL A   1      32.754  24.528  25.172  1.00  0.00     0.120 C 
ATOM     25  C   UNL A   1      31.183  22.999  23.218  1.00  0.00     0.022 C 
ATOM     26  C   UNL A   1      32.641  23.007  25.270  1.00  0.00     0.022 C 
ATOM     27  C   UNL A   1      32.405  22.380  23.895  1.00  0.00     0.004 C 
ENDBRANCH  19  20
ENDBRANCH  11  14
ENDBRANCH   4   7
ENDBRANCH   2   3
ENDBRANCH   1   2
BRANCH   1  28
ATOM     28  C   UNL A   1      33.432  36.284  31.985  1.00  0.00     0.118 C 
BRANCH  28  29
ATOM     29  N   UNL A   1      33.017  34.958  32.440  1.00  0.00    -0.352 N 
ATOM     30  C   UNL A   1      33.781  33.932  32.971  1.00  0.00     0.251 C 
ATOM     31  H   UNL A   1      32.055  34.766  32.356  1.00  0.00     0.163 HD
ATOM     32  O   UNL A   1      33.263  32.862  33.277  1.00  0.00    -0.269 OA
BRANCH  30  33
ATOM     33  C   UNL A   1      35.192  34.204  33.336  1.00  0.00     0.039 A 
ATOM     34  C   UNL A   1      35.943  34.910  32.390  1.00  0.00     0.014 A 
ATOM     35  C   UNL A   1      35.818  33.403  34.280  1.00  0.00     0.014 A 
ATOM     36  C   UNL A   1      37.249  34.516  32.147  1.00  0.00     0.010 A 
ATOM     37  C   UNL A   1      37.056  32.904  33.955  1.00  0.00     0.010 A 
ATOM     38  C   UNL A   1      37.725  33.404  32.833  1.00  0.00    -0.014 A 
BRANCH  38  39
ATOM     39  C   UNL A   1      38.968  32.737  32.508  1.00  0.00     0.031 A 
ATOM     40  C   UNL A   1      38.858  31.480  31.758  1.00  0.00     0.074 A 
ATOM     41  C   UNL A   1      40.159  33.297  32.813  1.00  0.00     0.049 A 
ATOM     42  N   UNL A   1      39.767  30.573  31.728  1.00  0.00    -0.248 NA
ATOM     43  C   UNL A   1      37.645  31.107  31.041  1.00  0.00     0.031 C 
ATOM     44  C   UNL A   1      41.474  32.908  32.319  1.00  0.00     0.029 A 
ATOM     45  N   UNL A   1      40.433  34.272  33.786  1.00  0.00    -0.354 N 
ATOM     46  C   UNL A   1      39.392  29.642  30.787  1.00  0.00     0.074 A 
ATOM     47  C   UNL A   1      38.020  29.957  30.479  1.00  0.00     0.031 C 
ATOM     48  C   UNL A   1      42.413  33.385  33.152  1.00  0.00     0.029 A 
ATOM     49  C   UNL A   1      41.729  33.970  34.289  1.00  0.00     0.049 A 
ATOM     50  H   UNL A   1      39.847  35.013  34.065  1.00  0.00     0.167 HD
ATOM     51  C   UNL A   1      40.352  28.810  30.295  1.00  0.00     0.037 A 
ATOM     52  C   UNL A   1      41.899  33.593  35.593  1.00  0.00     0.037 A 
ATOM     53  C   UNL A   1      41.608  29.005  31.032  1.00  0.00     0.049 A 
ATOM     54  C   UNL A   1      42.295  32.144  35.756  1.00  0.00     0.074 A 
ATOM     55  C   UNL A   1      42.754  29.749  30.800  1.00  0.00     0.029 A 
ATOM     56  N   UNL A   1      41.635  28.688  32.381  1.00  0.00    -0.354 N 
ATOM     57  N   UNL A   1      42.478  31.316  34.767  1.00  0.00    -0.248 NA
ATOM     58  C   UNL A   1      42.401  31.494  37.059  1.00  0.00     0.031 C 
ATOM     59  C   UNL A   1      43.454  29.885  32.037  1.00  0.00     0.029 A 
ATOM     60  C   UNL A   1      42.755  29.194  33.012  1.00  0.00     0.049 A 
ATOM     61  H   UNL A   1      40.937  28.163  32.836  1.00  0.00     0.167 HD
ATOM     62  C   UNL A   1      42.689  30.057  35.256  1.00  0.00     0.074 A 
ATOM     63  C   UNL A   1      42.591  30.215  36.698  1.00  0.00     0.031 C 
ATOM     64  C   UNL A   1      42.905  28.976  34.445  1.00  0.00     0.037 A 
BRANCH  51  65
ATOM     65  C   UNL A   1      40.246  28.018  29.006  1.00  0.00     0.064 A 
ATOM     66  C   UNL A   1      39.541  26.794  28.992  1.00  0.00     0.173 A 
ATOM     67  C   UNL A   1      40.852  28.348  27.776  1.00  0.00     0.173 A 
ATOM     68  F   UNL A   1      38.836  26.382  30.052  1.00  0.00    -0.203 F 
ATOM     69  C   UNL A   1      39.535  25.938  27.885  1.00  0.00     0.198 A 
ATOM     70  C   UNL A   1      40.879  27.476  26.682  1.00  0.00     0.198 A 
ATOM     71  F   UNL A   1      41.393  29.545  27.548  1.00  0.00    -0.203 F 
ATOM     72  F   UNL A   1      38.858  24.782  27.944  1.00  0.00    -0.200 F 
ATOM     73  C   UNL A   1      40.229  26.265  26.740  1.00  0.00     0.200 A 
ATOM     74  F   UNL A   1      41.540  27.829  25.569  1.00  0.00    -0.200 F 
ATOM     75  F   UNL A   1      40.248  25.433  25.690  1.00  0.00    -0.200 F 
ENDBRANCH  51  65
BRANCH  52  76
ATOM     76  C   UNL A   1      40.987  34.347  36.506  1.00  0.00     0.064 A 
ATOM     77  C   UNL A   1      39.903  33.604  37.012  1.00  0.00     0.173 A 
ATOM     78  C   UNL A   1      41.502  35.379  37.294  1.00  0.00     0.173 A 
ATOM     79  F   UNL A   1      39.310  32.672  36.248  1.00  0.00    -0.203 F 
ATOM     80  C   UNL A   1      39.610  33.644  38.369  1.00  0.00     0.198 A 
ATOM     81  C   UNL A   1      41.148  35.465  38.638  1.00  0.00     0.198 A 
ATOM     82  F   UNL A   1      42.459  36.190  36.823  1.00  0.00    -0.203 F 
ATOM     83  F   UNL A   1      38.783  32.731  38.898  1.00  0.00    -0.200 F 
ATOM     84  C   UNL A   1      40.283  34.531  39.192  1.00  0.00     0.200 A 
ATOM     85  F   UNL A   1      41.737  36.381  39.418  1.00  0.00    -0.200 F 
ATOM     86  F   UNL A   1      40.139  34.443  40.520  1.00  0.00    -0.200 F 
ENDBRANCH  52  76
BRANCH  64  87
ATOM     87  C   UNL A   1      43.238  27.600  34.969  1.00  0.00     0.064 A 
ATOM     88  C   UNL A   1      44.542  27.219  35.328  1.00  0.00     0.173 A 
ATOM     89  C   UNL A   1      42.268  26.574  35.056  1.00  0.00     0.173 A 
ATOM     90  F   UNL A   1      45.587  28.030  35.107  1.00  0.00    -0.203 F 
ATOM     91  C   UNL A   1      44.821  25.973  35.890  1.00  0.00     0.198 A 
ATOM     92  C   UNL A   1      42.561  25.308  35.558  1.00  0.00     0.198 A 
ATOM     93  F   UNL A   1      40.999  26.754  34.669  1.00  0.00    -0.203 F 
ATOM     94  F   UNL A   1      46.064  25.700  36.310  1.00  0.00    -0.200 F 
ATOM     95  C   UNL A   1      43.829  25.020  36.012  1.00  0.00     0.200 A 
ATOM     96  F   UNL A   1      41.598  24.378  35.606  1.00  0.00    -0.200 F 
ATOM     97  F   UNL A   1      44.095  23.824  36.551  1.00  0.00    -0.200 F 
ENDBRANCH  64  87
ENDBRANCH  38  39
ENDBRANCH  30  33
ENDBRANCH  28  29
ENDBRANCH   1  28
TORSDOF 12
ENDMDL
MODEL 3
REMARK VINA RESULT:     -13.9      1.876      3.047
REMARK SMILES Cc1cc(C(=O)NCCCNC(=O)c2ccc(-c3c4nc(c(-c5c(F)c(F)c(F)c(F)c5F)c5ccc([nH]5)c(-c5c(F)c(F)c(F)c(F)c5F)c5nc(c(-c6c(F)c(F)c(F)c(F)c6F)c6ccc3[nH]6)C=C5)C=C4)cc2)ccc1-c1ccc(C(=O)N2CCCCC2)cc1
REMARK SMILES IDX 9 1 8 2 7 3 5 4 6 5 4 7 1 8 2 9 3 10 79 11 78 12 77 13 80 14
REMARK SMILES IDX 81 15 93 16 82 17 92 18 83 19 84 20 85 21 86 22 87 23 91 24
REMARK SMILES IDX 88 25 90 26 89 27 10 28 11 29 12 30 13 32 14 33 15 34 76 35
REMARK SMILES IDX 16 36 75 37 17 38 18 39 19 40 69 41 20 42 74 43 68 44 70 45
REMARK SMILES IDX 21 46 73 47 67 48 66 49 22 51 54 52 34 53 53 54 35 55 38 56
REMARK SMILES IDX 52 57 71 58 36 59 37 60 51 62 72 63 39 64 23 65 24 66 32 67
REMARK SMILES IDX 25 68 26 69 30 70 33 71 27 72 28 73 31 74 29 75 55 76 56 77
REMARK SMILES IDX 64 78 57 79 58 80 62 81 65 82 59 83 60 84 63 85 61 86 40 87
REMARK SMILES IDX 41 88 49 89 42 90 43 91 47 92 50 93 44 94 45 95 48 96 46 97
REMARK H PARENT 7 6 11 31 70 50 38 61
REMARK Flexibility Score: inf
ROOT
ATOM      1  C   UNL A   1      41.623  22.259  26.990  1.00  0.00     0.042 C 
ENDROOT
BRANCH   1   2
ATOM      2  C   UNL A   1      40.096  22.349  26.912  1.00  0.00     0.118 C 
BRANCH   2   3
ATOM      3  N   UNL A   1      39.526  21.230  26.172  1.00  0.00    -0.352 N 
ATOM      4  C   UNL A   1      38.360  21.084  25.456  1.00  0.00     0.251 C 
ATOM      5  O   UNL A   1      38.197  20.011  24.873  1.00  0.00    -0.269 OA
ATOM      6  H   UNL A   1      40.084  20.420  26.189  1.00  0.00     0.163 HD
BRANCH   4   7
ATOM      7  C   UNL A   1      37.305  22.138  25.341  1.00  0.00     0.040 A 
ATOM      8  C   UNL A   1      33.736  22.218  24.004  1.00  0.00     0.045 C 
ATOM      9  C   UNL A   1      35.026  22.711  24.604  1.00  0.00    -0.042 A 
ATOM     10  C   UNL A   1      36.081  21.783  24.748  1.00  0.00     0.018 A 
ATOM     11  C   UNL A   1      35.204  24.029  25.068  1.00  0.00    -0.015 A 
ATOM     12  C   UNL A   1      36.414  24.368  25.676  1.00  0.00     0.010 A 
ATOM     13  C   UNL A   1      37.433  23.435  25.822  1.00  0.00     0.014 A 
BRANCH  11  14
ATOM     14  C   UNL A   1      34.189  25.078  24.997  1.00  0.00    -0.018 A 
ATOM     15  C   UNL A   1      34.015  25.809  23.819  1.00  0.00     0.009 A 
ATOM     16  C   UNL A   1      33.330  25.320  26.082  1.00  0.00     0.009 A 
ATOM     17  C   UNL A   1      33.038  26.796  23.742  1.00  0.00     0.014 A 
ATOM     18  C   UNL A   1      32.329  26.287  25.995  1.00  0.00     0.014 A 
ATOM     19  C   UNL A   1      32.180  27.036  24.823  1.00  0.00     0.040 A 
BRANCH  19  20
ATOM     20  C   UNL A   1      31.245  28.194  24.831  1.00  0.00     0.253 C 
ATOM     21  O   UNL A   1      31.430  29.102  25.650  1.00  0.00    -0.269 OA
ATOM     22  N   UNL A   1      30.312  28.295  23.815  1.00  0.00    -0.339 N 
ATOM     23  C   UNL A   1      30.136  29.582  23.166  1.00  0.00     0.120 C 
ATOM     24  C   UNL A   1      29.392  27.225  23.432  1.00  0.00     0.120 C 
ATOM     25  C   UNL A   1      28.704  30.075  23.278  1.00  0.00     0.022 C 
ATOM     26  C   UNL A   1      27.941  27.692  23.540  1.00  0.00     0.022 C 
ATOM     27  C   UNL A   1      27.726  29.008  22.792  1.00  0.00     0.004 C 
ENDBRANCH  19  20
ENDBRANCH  11  14
ENDBRANCH   4   7
ENDBRANCH   2   3
ENDBRANCH   1   2
BRANCH   1  28
ATOM     28  C   UNL A   1      42.322  22.988  25.863  1.00  0.00     0.118 C 
BRANCH  28  29
ATOM     29  N   UNL A   1      43.135  22.128  25.004  1.00  0.00    -0.352 N 
ATOM     30  C   UNL A   1      44.470  22.246  24.654  1.00  0.00     0.251 C 
ATOM     31  H   UNL A   1      42.665  21.354  24.619  1.00  0.00     0.163 HD
ATOM     32  O   UNL A   1      44.988  21.437  23.890  1.00  0.00    -0.269 OA
BRANCH  30  33
ATOM     33  C   UNL A   1      45.308  23.249  25.354  1.00  0.00     0.039 A 
ATOM     34  C   UNL A   1      45.580  22.985  26.701  1.00  0.00     0.014 A 
ATOM     35  C   UNL A   1      45.377  24.543  24.860  1.00  0.00     0.014 A 
ATOM     36  C   UNL A   1      45.536  24.032  27.608  1.00  0.00     0.010 A 
ATOM     37  C   UNL A   1      45.185  25.566  25.757  1.00  0.00     0.010 A 
ATOM     38  C   UNL A   1      45.176  25.286  27.127  1.00  0.00    -0.014 A 
BRANCH  38  39
ATOM     39  C   UNL A   1      44.853  26.407  27.983  1.00  0.00     0.031 A 
ATOM     40  C   UNL A   1      43.461  26.872  27.955  1.00  0.00     0.074 A 
ATOM     41  C   UNL A   1      45.775  26.931  28.821  1.00  0.00     0.049 A 
ATOM     42  N   UNL A   1      43.082  28.046  28.311  1.00  0.00    -0.248 NA
ATOM     43  C   UNL A   1      42.379  26.052  27.421  1.00  0.00     0.031 C 
ATOM     44  C   UNL A   1      45.545  27.852  29.928  1.00  0.00     0.029 A 
ATOM     45  N   UNL A   1      47.174  26.843  28.732  1.00  0.00    -0.354 N 
ATOM     46  C   UNL A   1      41.707  28.052  28.323  1.00  0.00     0.074 A 
ATOM     47  C   UNL A   1      41.324  26.835  27.652  1.00  0.00     0.031 C 
ATOM     48  C   UNL A   1      46.699  28.469  30.229  1.00  0.00     0.029 A 
ATOM     49  C   UNL A   1      47.676  28.077  29.232  1.00  0.00     0.049 A 
ATOM     50  H   UNL A   1      47.700  26.083  28.392  1.00  0.00     0.167 HD
ATOM     51  C   UNL A   1      41.079  29.034  29.030  1.00  0.00     0.037 A 
ATOM     52  C   UNL A   1      48.356  28.935  28.411  1.00  0.00     0.037 A 
ATOM     53  C   UNL A   1      42.066  30.005  29.520  1.00  0.00     0.049 A 
ATOM     54  C   UNL A   1      47.597  30.205  28.104  1.00  0.00     0.074 A 
ATOM     55  C   UNL A   1      42.734  30.174  30.723  1.00  0.00     0.029 A 
ATOM     56  N   UNL A   1      42.776  30.747  28.591  1.00  0.00    -0.354 N 
ATOM     57  N   UNL A   1      46.415  30.487  28.574  1.00  0.00    -0.248 NA
ATOM     58  C   UNL A   1      48.073  31.200  27.147  1.00  0.00     0.031 C 
ATOM     59  C   UNL A   1      43.864  31.014  30.490  1.00  0.00     0.029 A 
ATOM     60  C   UNL A   1      43.864  31.386  29.156  1.00  0.00     0.049 A 
ATOM     61  H   UNL A   1      42.534  30.813  27.639  1.00  0.00     0.167 HD
ATOM     62  C   UNL A   1      45.955  31.638  27.996  1.00  0.00     0.074 A 
ATOM     63  C   UNL A   1      47.016  32.024  27.079  1.00  0.00     0.031 C 
ATOM     64  C   UNL A   1      44.733  32.177  28.294  1.00  0.00     0.037 A 
BRANCH  51  65
ATOM     65  C   UNL A   1      39.636  28.989  29.494  1.00  0.00     0.064 A 
ATOM     66  C   UNL A   1      38.605  29.395  28.619  1.00  0.00     0.173 A 
ATOM     67  C   UNL A   1      39.190  28.633  30.784  1.00  0.00     0.173 A 
ATOM     68  F   UNL A   1      38.852  29.679  27.334  1.00  0.00    -0.203 F 
ATOM     69  C   UNL A   1      37.274  29.528  29.029  1.00  0.00     0.198 A 
ATOM     70  C   UNL A   1      37.866  28.803  31.206  1.00  0.00     0.198 A 
ATOM     71  F   UNL A   1      39.989  28.049  31.677  1.00  0.00    -0.203 F 
ATOM     72  F   UNL A   1      36.347  29.934  28.150  1.00  0.00    -0.200 F 
ATOM     73  C   UNL A   1      36.909  29.262  30.331  1.00  0.00     0.200 A 
ATOM     74  F   UNL A   1      37.533  28.511  32.473  1.00  0.00    -0.200 F 
ATOM     75  F   UNL A   1      35.641  29.418  30.733  1.00  0.00    -0.200 F 
ENDBRANCH  51  65
BRANCH  52  76
ATOM     76  C   UNL A   1      49.230  28.197  27.449  1.00  0.00     0.064 A 
ATOM     77  C   UNL A   1      50.461  27.761  27.975  1.00  0.00     0.173 A 
ATOM     78  C   UNL A   1      48.645  27.440  26.431  1.00  0.00     0.173 A 
ATOM     79  F   UNL A   1      51.109  28.511  28.881  1.00  0.00    -0.203 F 
ATOM     80  C   UNL A   1      50.881  26.455  27.762  1.00  0.00     0.198 A 
ATOM     81  C   UNL A   1      49.116  26.158  26.165  1.00  0.00     0.198 A 
ATOM     82  F   UNL A   1      47.531  27.862  25.816  1.00  0.00    -0.203 F 
ATOM     83  F   UNL A   1      51.889  25.953  28.490  1.00  0.00    -0.200 F 
ATOM     84  C   UNL A   1      50.167  25.634  26.906  1.00  0.00     0.200 A 
ATOM     85  F   UNL A   1      48.476  25.391  25.273  1.00  0.00    -0.200 F 
ATOM     86  F   UNL A   1      50.457  24.329  26.843  1.00  0.00    -0.200 F 
ENDBRANCH  52  76
BRANCH  64  87
ATOM     87  C   UNL A   1      44.252  33.496  27.741  1.00  0.00     0.064 A 
ATOM     88  C   UNL A   1      43.804  33.646  26.418  1.00  0.00     0.173 A 
ATOM     89  C   UNL A   1      44.298  34.690  28.497  1.00  0.00     0.173 A 
ATOM     90  F   UNL A   1      43.896  32.640  25.536  1.00  0.00    -0.203 F 
ATOM     91  C   UNL A   1      43.283  34.851  25.944  1.00  0.00     0.198 A 
ATOM     92  C   UNL A   1      43.837  35.907  28.002  1.00  0.00     0.198 A 
ATOM     93  F   UNL A   1      44.781  34.729  29.746  1.00  0.00    -0.203 F 
ATOM     94  F   UNL A   1      42.775  34.911  24.706  1.00  0.00    -0.200 F 
ATOM     95  C   UNL A   1      43.292  35.980  26.740  1.00  0.00     0.200 A 
ATOM     96  F   UNL A   1      43.916  37.004  28.769  1.00  0.00    -0.200 F 
ATOM     97  F   UNL A   1      42.793  37.136  26.287  1.00  0.00    -0.200 F 
ENDBRANCH  64  87
ENDBRANCH  38  39
ENDBRANCH  30  33
ENDBRANCH  28  29
ENDBRANCH   1  28
TORSDOF 12
ENDMDL
