MODEL 1
REMARK VINA RESULT:     -13.1      0.000      0.000
REMARK SMILES Cc1cc2n(n1)[C@H](C(F)(F)F)CCN2C(=O)c1cnn([C@@H](C)C(=O)NCCCNC(=O)c2ccc(-c3c4nc(c(-c5c(F)c(F)c(F)c(F)c5F)c5ccc([nH]5)c(-c5c(F)c(F)c(F)c(F)c5F)c5nc(c(-c6c(F)c(F)c(F)c(F)c6F)c6ccc3[nH]6)C=C5)C=C4)cc2)c1
REMARK SMILES IDX 26 1 25 2 23 3 24 4 21 6 22 7 20 8 17 9 18 10 95 11 19 12
REMARK SMILES IDX 15 13 16 14 14 15 1 16 2 17 3 18 6 19 4 20 5 21 7 22 13 23
REMARK SMILES IDX 12 24 8 25 9 26 10 27 11 28 27 29 28 30 29 31 30 32 31 34
REMARK SMILES IDX 32 35 33 36 94 37 34 38 93 39 35 40 36 41 37 42 87 43 38 44
REMARK SMILES IDX 92 45 86 46 88 47 39 48 91 49 85 50 84 51 40 53 72 54 52 55
REMARK SMILES IDX 71 56 53 57 56 58 70 59 89 60 54 61 55 62 69 64 90 65 57 66
REMARK SMILES IDX 41 67 42 68 50 69 43 70 44 71 48 72 51 73 45 74 46 75 49 76
REMARK SMILES IDX 47 77 73 78 74 79 82 80 75 81 76 82 80 83 83 84 77 85 78 86
REMARK SMILES IDX 81 87 79 88 58 89 59 90 67 91 60 92 61 93 65 94 68 95 62 96
REMARK SMILES IDX 63 97 66 98 64 99
REMARK H PARENT 25 5 29 33 88 52 56 63
REMARK Flexibility Score: inf
ROOT
ATOM      1  C   UNL A   1      40.067  21.343  26.709  1.00  0.00     0.117 C 
ENDROOT
BRANCH   1   2
ATOM      2  N   UNL A   1      39.242  22.200  25.866  1.00  0.00    -0.354 N 
ATOM      3  C   UNL A   1      37.989  22.040  25.353  1.00  0.00     0.244 C 
ATOM      4  O   UNL A   1      37.584  22.943  24.609  1.00  0.00    -0.273 OA
ATOM      5  H   UNL A   1      39.669  23.053  25.620  1.00  0.00     0.163 HD
BRANCH   3   6
ATOM      6  C   UNL A   1      37.071  20.852  25.647  1.00  0.00     0.193 C 
ATOM      7  C   UNL A   1      37.402  19.569  24.893  1.00  0.00     0.044 C 
BRANCH   6   8
ATOM      8  N   UNL A   1      35.661  21.221  25.598  1.00  0.00    -0.260 N 
ATOM      9  C   UNL A   1      33.699  22.173  25.930  1.00  0.00     0.078 A 
ATOM     10  C   UNL A   1      33.695  21.294  24.835  1.00  0.00     0.149 A 
ATOM     11  C   UNL A   1      35.012  22.151  26.368  1.00  0.00     0.123 A 
ATOM     12  N   UNL A   1      34.815  20.584  24.770  1.00  0.00    -0.180 NA
BRANCH   9  13
ATOM     13  C   UNL A   1      32.618  22.965  26.438  1.00  0.00     0.262 C 
ATOM     14  O   UNL A   1      32.194  22.882  27.590  1.00  0.00    -0.269 OA
BRANCH  13  15
ATOM     15  N   UNL A   1      32.031  23.860  25.448  1.00  0.00    -0.293 N 
ATOM     16  C   UNL A   1      34.130  28.390  26.029  1.00  0.00     0.069 C 
ATOM     17  C   UNL A   1      33.362  27.209  25.567  1.00  0.00     0.062 A 
ATOM     18  C   UNL A   1      33.430  25.879  26.058  1.00  0.00     0.072 A 
ATOM     19  N   UNL A   1      32.462  27.328  24.583  1.00  0.00    -0.176 NA
ATOM     20  C   UNL A   1      32.462  25.191  25.365  1.00  0.00     0.134 A 
ATOM     21  N   UNL A   1      31.913  26.112  24.512  1.00  0.00    -0.237 N 
ATOM     22  C   UNL A   1      30.812  25.834  23.612  1.00  0.00     0.216 C 
ATOM     23  C   UNL A   1      30.815  23.499  24.665  1.00  0.00     0.130 C 
ATOM     24  C   UNL A   1      30.712  24.322  23.381  1.00  0.00     0.059 C 
BRANCH  22  25
ATOM     25  C   UNL A   1      29.536  26.416  24.179  1.00  0.00     0.410 C 
ATOM     26  F   UNL A   1      28.443  25.761  23.726  1.00  0.00    -0.169 F 
ATOM     27  F   UNL A   1      29.510  26.411  25.524  1.00  0.00    -0.169 F 
ATOM     28  F   UNL A   1      29.401  27.707  23.784  1.00  0.00    -0.169 F 
ENDBRANCH  22  25
ENDBRANCH  13  15
ENDBRANCH   9  13
ENDBRANCH   6   8
ENDBRANCH   3   6
ENDBRANCH   1   2
BRANCH   1  29
ATOM     29  C   UNL A   1      40.962  20.379  25.921  1.00  0.00     0.042 C 
BRANCH  29  30
ATOM     30  C   UNL A   1      42.262  20.044  26.615  1.00  0.00     0.118 C 
BRANCH  30  31
ATOM     31  N   UNL A   1      43.321  19.630  25.701  1.00  0.00    -0.352 N 
ATOM     32  C   UNL A   1      44.154  20.447  24.960  1.00  0.00     0.251 C 
ATOM     33  H   UNL A   1      43.458  18.660  25.600  1.00  0.00     0.163 HD
ATOM     34  O   UNL A   1      44.783  20.013  24.004  1.00  0.00    -0.269 OA
BRANCH  32  35
ATOM     35  C   UNL A   1      44.232  21.872  25.330  1.00  0.00     0.039 A 
ATOM     36  C   UNL A   1      43.436  22.824  24.693  1.00  0.00     0.014 A 
ATOM     37  C   UNL A   1      45.025  22.216  26.418  1.00  0.00     0.014 A 
ATOM     38  C   UNL A   1      43.362  24.107  25.233  1.00  0.00     0.010 A 
ATOM     39  C   UNL A   1      44.810  23.419  27.047  1.00  0.00     0.010 A 
ATOM     40  C   UNL A   1      44.023  24.394  26.438  1.00  0.00    -0.014 A 
BRANCH  40  41
ATOM     41  C   UNL A   1      43.833  25.683  27.108  1.00  0.00     0.031 A 
ATOM     42  C   UNL A   1      44.802  26.763  26.761  1.00  0.00     0.074 A 
ATOM     43  C   UNL A   1      42.734  25.981  27.836  1.00  0.00     0.049 A 
ATOM     44  N   UNL A   1      45.614  27.385  27.553  1.00  0.00    -0.248 NA
ATOM     45  C   UNL A   1      44.932  27.159  25.351  1.00  0.00     0.031 C 
ATOM     46  C   UNL A   1      41.535  25.156  28.040  1.00  0.00     0.029 A 
ATOM     47  N   UNL A   1      42.405  27.149  28.461  1.00  0.00    -0.354 N 
ATOM     48  C   UNL A   1      46.239  28.367  26.785  1.00  0.00     0.074 A 
ATOM     49  C   UNL A   1      45.885  28.091  25.417  1.00  0.00     0.031 C 
ATOM     50  C   UNL A   1      40.533  25.921  28.515  1.00  0.00     0.029 A 
ATOM     51  C   UNL A   1      41.074  27.225  28.842  1.00  0.00     0.049 A 
ATOM     52  H   UNL A   1      43.053  27.872  28.624  1.00  0.00     0.167 HD
ATOM     53  C   UNL A   1      46.814  29.457  27.368  1.00  0.00     0.037 A 
ATOM     54  C   UNL A   1      40.437  28.272  29.408  1.00  0.00     0.037 A 
ATOM     55  C   UNL A   1      46.996  29.246  28.782  1.00  0.00     0.049 A 
ATOM     56  C   UNL A   1      41.458  29.124  30.050  1.00  0.00     0.074 A 
ATOM     57  C   UNL A   1      47.783  28.441  29.577  1.00  0.00     0.029 A 
ATOM     58  N   UNL A   1      46.009  29.751  29.586  1.00  0.00    -0.354 N 
ATOM     59  N   UNL A   1      42.167  28.752  31.080  1.00  0.00    -0.248 NA
ATOM     60  C   UNL A   1      41.946  30.304  29.350  1.00  0.00     0.031 C 
ATOM     61  C   UNL A   1      47.030  28.225  30.770  1.00  0.00     0.029 A 
ATOM     62  C   UNL A   1      45.828  28.925  30.661  1.00  0.00     0.049 A 
ATOM     63  H   UNL A   1      45.507  30.580  29.415  1.00  0.00     0.167 HD
ATOM     64  C   UNL A   1      43.390  29.370  30.899  1.00  0.00     0.074 A 
ATOM     65  C   UNL A   1      43.134  30.441  29.945  1.00  0.00     0.031 C 
ATOM     66  C   UNL A   1      44.542  28.760  31.301  1.00  0.00     0.037 A 
BRANCH  53  67
ATOM     67  C   UNL A   1      46.822  30.865  26.796  1.00  0.00     0.064 A 
ATOM     68  C   UNL A   1      48.023  31.611  26.844  1.00  0.00     0.173 A 
ATOM     69  C   UNL A   1      45.660  31.620  26.530  1.00  0.00     0.173 A 
ATOM     70  F   UNL A   1      49.197  31.007  27.082  1.00  0.00    -0.203 F 
ATOM     71  C   UNL A   1      48.038  33.007  26.753  1.00  0.00     0.198 A 
ATOM     72  C   UNL A   1      45.686  33.008  26.387  1.00  0.00     0.198 A 
ATOM     73  F   UNL A   1      44.442  31.070  26.504  1.00  0.00    -0.203 F 
ATOM     74  F   UNL A   1      49.183  33.677  26.949  1.00  0.00    -0.200 F 
ATOM     75  C   UNL A   1      46.866  33.706  26.539  1.00  0.00     0.200 A 
ATOM     76  F   UNL A   1      44.538  33.670  26.189  1.00  0.00    -0.200 F 
ATOM     77  F   UNL A   1      46.862  35.045  26.524  1.00  0.00    -0.200 F 
ENDBRANCH  53  67
BRANCH  54  78
ATOM     78  C   UNL A   1      39.014  28.643  29.293  1.00  0.00     0.064 A 
ATOM     79  C   UNL A   1      38.193  28.762  30.423  1.00  0.00     0.173 A 
ATOM     80  C   UNL A   1      38.495  29.133  28.079  1.00  0.00     0.173 A 
ATOM     81  F   UNL A   1      38.632  28.351  31.621  1.00  0.00    -0.203 F 
ATOM     82  C   UNL A   1      36.934  29.364  30.347  1.00  0.00     0.198 A 
ATOM     83  C   UNL A   1      37.236  29.727  28.002  1.00  0.00     0.198 A 
ATOM     84  F   UNL A   1      39.239  29.124  26.961  1.00  0.00    -0.203 F 
ATOM     85  F   UNL A   1      36.201  29.517  31.458  1.00  0.00    -0.200 F 
ATOM     86  C   UNL A   1      36.462  29.856  29.140  1.00  0.00     0.200 A 
ATOM     87  F   UNL A   1      36.806  30.228  26.836  1.00  0.00    -0.200 F 
ATOM     88  F   UNL A   1      35.282  30.489  29.081  1.00  0.00    -0.200 F 
ENDBRANCH  54  78
BRANCH  66  89
ATOM     89  C   UNL A   1      44.419  27.675  32.329  1.00  0.00     0.064 A 
ATOM     90  C   UNL A   1      44.312  26.308  32.026  1.00  0.00     0.173 A 
ATOM     91  C   UNL A   1      44.513  28.034  33.679  1.00  0.00     0.173 A 
ATOM     92  F   UNL A   1      44.311  25.880  30.760  1.00  0.00    -0.203 F 
ATOM     93  C   UNL A   1      44.253  25.350  33.036  1.00  0.00     0.198 A 
ATOM     94  C   UNL A   1      44.491  27.072  34.684  1.00  0.00     0.198 A 
ATOM     95  F   UNL A   1      44.669  29.322  34.023  1.00  0.00    -0.203 F 
ATOM     96  F   UNL A   1      44.131  24.050  32.723  1.00  0.00    -0.200 F 
ATOM     97  C   UNL A   1      44.348  25.732  34.363  1.00  0.00     0.200 A 
ATOM     98  F   UNL A   1      44.630  27.444  35.965  1.00  0.00    -0.200 F 
ATOM     99  F   UNL A   1      44.327  24.807  35.334  1.00  0.00    -0.200 F 
ENDBRANCH  66  89
ENDBRANCH  40  41
ENDBRANCH  32  35
ENDBRANCH  30  31
ENDBRANCH  29  30
ENDBRANCH   1  29
TORSDOF 14
ENDMDL
MODEL 2
REMARK VINA RESULT:     -13.1      5.085     11.124
REMARK SMILES Cc1cc2n(n1)[C@H](C(F)(F)F)CCN2C(=O)c1cnn([C@@H](C)C(=O)NCCCNC(=O)c2ccc(-c3c4nc(c(-c5c(F)c(F)c(F)c(F)c5F)c5ccc([nH]5)c(-c5c(F)c(F)c(F)c(F)c5F)c5nc(c(-c6c(F)c(F)c(F)c(F)c6F)c6ccc3[nH]6)C=C5)C=C4)cc2)c1
REMARK SMILES IDX 26 1 25 2 23 3 24 4 21 6 22 7 20 8 17 9 18 10 95 11 19 12
REMARK SMILES IDX 15 13 16 14 14 15 1 16 2 17 3 18 6 19 4 20 5 21 7 22 13 23
REMARK SMILES IDX 12 24 8 25 9 26 10 27 11 28 27 29 28 30 29 31 30 32 31 34
REMARK SMILES IDX 32 35 33 36 94 37 34 38 93 39 35 40 36 41 37 42 87 43 38 44
REMARK SMILES IDX 92 45 86 46 88 47 39 48 91 49 85 50 84 51 40 53 72 54 52 55
REMARK SMILES IDX 71 56 53 57 56 58 70 59 89 60 54 61 55 62 69 64 90 65 57 66
REMARK SMILES IDX 41 67 42 68 50 69 43 70 44 71 48 72 51 73 45 74 46 75 49 76
REMARK SMILES IDX 47 77 73 78 74 79 82 80 75 81 76 82 80 83 83 84 77 85 78 86
REMARK SMILES IDX 81 87 79 88 58 89 59 90 67 91 60 92 61 93 65 94 68 95 62 96
REMARK SMILES IDX 63 97 66 98 64 99
REMARK H PARENT 25 5 29 33 88 52 56 63
REMARK Flexibility Score: inf
ROOT
ATOM      1  C   UNL A   1      33.654  34.832  28.917  1.00  0.00     0.117 C 
ENDROOT
BRANCH   1   2
ATOM      2  N   UNL A   1      33.472  36.137  29.543  1.00  0.00    -0.354 N 
ATOM      3  C   UNL A   1      32.987  36.502  30.763  1.00  0.00     0.244 C 
ATOM      4  O   UNL A   1      32.903  37.719  30.974  1.00  0.00    -0.273 OA
ATOM      5  H   UNL A   1      33.749  36.895  28.978  1.00  0.00     0.163 HD
BRANCH   3   6
ATOM      6  C   UNL A   1      32.568  35.526  31.864  1.00  0.00     0.193 C 
ATOM      7  C   UNL A   1      31.565  36.073  32.875  1.00  0.00     0.044 C 
BRANCH   6   8
ATOM      8  N   UNL A   1      33.713  34.854  32.469  1.00  0.00    -0.260 N 
ATOM      9  C   UNL A   1      35.696  34.369  33.303  1.00  0.00     0.078 A 
ATOM     10  C   UNL A   1      34.751  33.357  33.532  1.00  0.00     0.149 A 
ATOM     11  C   UNL A   1      34.972  35.360  32.662  1.00  0.00     0.123 A 
ATOM     12  N   UNL A   1      33.627  33.571  32.857  1.00  0.00    -0.180 NA
BRANCH   9  13
ATOM     13  C   UNL A   1      37.073  34.406  33.700  1.00  0.00     0.262 C 
ATOM     14  O   UNL A   1      37.472  34.953  34.727  1.00  0.00    -0.269 OA
BRANCH  13  15
ATOM     15  N   UNL A   1      37.975  33.767  32.748  1.00  0.00    -0.293 N 
ATOM     16  C   UNL A   1      41.335  31.099  35.366  1.00  0.00     0.069 C 
ATOM     17  C   UNL A   1      40.502  31.725  34.311  1.00  0.00     0.062 A 
ATOM     18  C   UNL A   1      39.340  32.522  34.478  1.00  0.00     0.072 A 
ATOM     19  N   UNL A   1      40.825  31.585  33.020  1.00  0.00    -0.176 NA
ATOM     20  C   UNL A   1      39.000  32.930  33.210  1.00  0.00     0.134 A 
ATOM     21  N   UNL A   1      39.930  32.350  32.388  1.00  0.00    -0.237 N 
ATOM     22  C   UNL A   1      39.984  32.546  30.954  1.00  0.00     0.216 C 
ATOM     23  C   UNL A   1      38.017  34.147  31.307  1.00  0.00     0.130 C 
ATOM     24  C   UNL A   1      38.619  33.032  30.453  1.00  0.00     0.059 C 
BRANCH  22  25
ATOM     25  C   UNL A   1      41.100  33.511  30.617  1.00  0.00     0.410 C 
ATOM     26  F   UNL A   1      41.296  34.412  31.606  1.00  0.00    -0.169 F 
ATOM     27  F   UNL A   1      42.268  32.893  30.364  1.00  0.00    -0.169 F 
ATOM     28  F   UNL A   1      40.778  34.222  29.507  1.00  0.00    -0.169 F 
ENDBRANCH  22  25
ENDBRANCH  13  15
ENDBRANCH   9  13
ENDBRANCH   6   8
ENDBRANCH   3   6
ENDBRANCH   1   2
BRANCH   1  29
ATOM     29  C   UNL A   1      35.043  34.225  29.149  1.00  0.00     0.042 C 
BRANCH  29  30
ATOM     30  C   UNL A   1      35.012  32.818  29.700  1.00  0.00     0.118 C 
BRANCH  30  31
ATOM     31  N   UNL A   1      34.403  31.851  28.792  1.00  0.00    -0.352 N 
ATOM     32  C   UNL A   1      35.008  30.752  28.212  1.00  0.00     0.251 C 
ATOM     33  H   UNL A   1      33.455  31.996  28.570  1.00  0.00     0.163 HD
ATOM     34  O   UNL A   1      34.516  30.196  27.239  1.00  0.00    -0.269 OA
BRANCH  32  35
ATOM     35  C   UNL A   1      36.291  30.292  28.774  1.00  0.00     0.039 A 
ATOM     36  C   UNL A   1      36.335  29.571  29.967  1.00  0.00     0.014 A 
ATOM     37  C   UNL A   1      37.438  30.486  28.014  1.00  0.00     0.014 A 
ATOM     38  C   UNL A   1      37.528  28.950  30.334  1.00  0.00     0.010 A 
ATOM     39  C   UNL A   1      38.553  29.729  28.283  1.00  0.00     0.010 A 
ATOM     40  C   UNL A   1      38.631  28.999  29.468  1.00  0.00    -0.014 A 
BRANCH  40  41
ATOM     41  C   UNL A   1      39.842  28.224  29.754  1.00  0.00     0.031 A 
ATOM     42  C   UNL A   1      40.254  28.136  31.185  1.00  0.00     0.074 A 
ATOM     43  C   UNL A   1      40.454  27.445  28.834  1.00  0.00     0.049 A 
ATOM     44  N   UNL A   1      41.360  28.541  31.719  1.00  0.00    -0.248 NA
ATOM     45  C   UNL A   1      39.295  27.588  32.155  1.00  0.00     0.031 C 
ATOM     46  C   UNL A   1      40.024  27.167  27.457  1.00  0.00     0.029 A 
ATOM     47  N   UNL A   1      41.544  26.637  28.978  1.00  0.00    -0.354 N 
ATOM     48  C   UNL A   1      41.317  28.152  33.058  1.00  0.00     0.074 A 
ATOM     49  C   UNL A   1      39.973  27.696  33.299  1.00  0.00     0.031 C 
ATOM     50  C   UNL A   1      40.682  26.090  26.985  1.00  0.00     0.029 A 
ATOM     51  C   UNL A   1      41.715  25.737  27.937  1.00  0.00     0.049 A 
ATOM     52  H   UNL A   1      42.152  26.686  29.751  1.00  0.00     0.167 HD
ATOM     53  C   UNL A   1      42.460  28.031  33.793  1.00  0.00     0.037 A 
ATOM     54  C   UNL A   1      42.648  24.767  27.830  1.00  0.00     0.037 A 
ATOM     55  C   UNL A   1      43.562  28.687  33.137  1.00  0.00     0.049 A 
ATOM     56  C   UNL A   1      43.779  25.135  28.706  1.00  0.00     0.074 A 
ATOM     57  C   UNL A   1      43.920  29.986  32.847  1.00  0.00     0.029 A 
ATOM     58  N   UNL A   1      44.362  27.877  32.375  1.00  0.00    -0.354 N 
ATOM     59  N   UNL A   1      44.550  26.166  28.498  1.00  0.00    -0.248 NA
ATOM     60  C   UNL A   1      43.878  24.539  30.031  1.00  0.00     0.031 C 
ATOM     61  C   UNL A   1      44.703  29.912  31.656  1.00  0.00     0.029 A 
ATOM     62  C   UNL A   1      44.807  28.572  31.284  1.00  0.00     0.049 A 
ATOM     63  H   UNL A   1      44.582  26.940  32.581  1.00  0.00     0.167 HD
ATOM     64  C   UNL A   1      44.894  26.601  29.764  1.00  0.00     0.074 A 
ATOM     65  C   UNL A   1      44.618  25.470  30.640  1.00  0.00     0.031 C 
ATOM     66  C   UNL A   1      45.076  27.930  30.017  1.00  0.00     0.037 A 
BRANCH  53  67
ATOM     67  C   UNL A   1      42.718  26.980  34.860  1.00  0.00     0.064 A 
ATOM     68  C   UNL A   1      43.017  27.406  36.175  1.00  0.00     0.173 A 
ATOM     69  C   UNL A   1      43.019  25.629  34.586  1.00  0.00     0.173 A 
ATOM     70  F   UNL A   1      42.768  28.667  36.560  1.00  0.00    -0.203 F 
ATOM     71  C   UNL A   1      43.672  26.582  37.095  1.00  0.00     0.198 A 
ATOM     72  C   UNL A   1      43.627  24.794  35.525  1.00  0.00     0.198 A 
ATOM     73  F   UNL A   1      42.844  25.089  33.377  1.00  0.00    -0.203 F 
ATOM     74  F   UNL A   1      44.063  27.079  38.277  1.00  0.00    -0.200 F 
ATOM     75  C   UNL A   1      43.990  25.279  36.764  1.00  0.00     0.200 A 
ATOM     76  F   UNL A   1      43.935  23.535  35.183  1.00  0.00    -0.200 F 
ATOM     77  F   UNL A   1      44.683  24.508  37.612  1.00  0.00    -0.200 F 
ENDBRANCH  53  67
BRANCH  54  78
ATOM     78  C   UNL A   1      42.544  23.476  27.124  1.00  0.00     0.064 A 
ATOM     79  C   UNL A   1      43.398  23.150  26.062  1.00  0.00     0.173 A 
ATOM     80  C   UNL A   1      41.759  22.432  27.650  1.00  0.00     0.173 A 
ATOM     81  F   UNL A   1      44.202  24.083  25.532  1.00  0.00    -0.203 F 
ATOM     82  C   UNL A   1      43.482  21.845  25.570  1.00  0.00     0.198 A 
ATOM     83  C   UNL A   1      41.838  21.131  27.155  1.00  0.00     0.198 A 
ATOM     84  F   UNL A   1      40.967  22.638  28.714  1.00  0.00    -0.203 F 
ATOM     85  F   UNL A   1      44.353  21.554  24.595  1.00  0.00    -0.200 F 
ATOM     86  C   UNL A   1      42.711  20.834  26.125  1.00  0.00     0.200 A 
ATOM     87  F   UNL A   1      41.113  20.158  27.723  1.00  0.00    -0.200 F 
ATOM     88  F   UNL A   1      42.839  19.571  25.696  1.00  0.00    -0.200 F 
ENDBRANCH  54  78
BRANCH  66  89
ATOM     89  C   UNL A   1      45.355  28.817  28.841  1.00  0.00     0.064 A 
ATOM     90  C   UNL A   1      44.378  29.570  28.170  1.00  0.00     0.173 A 
ATOM     91  C   UNL A   1      46.687  28.985  28.443  1.00  0.00     0.173 A 
ATOM     92  F   UNL A   1      43.097  29.535  28.552  1.00  0.00    -0.203 F 
ATOM     93  C   UNL A   1      44.718  30.415  27.115  1.00  0.00     0.198 A 
ATOM     94  C   UNL A   1      47.028  29.856  27.414  1.00  0.00     0.198 A 
ATOM     95  F   UNL A   1      47.667  28.329  29.084  1.00  0.00    -0.203 F 
ATOM     96  F   UNL A   1      43.763  31.109  26.476  1.00  0.00    -0.200 F 
ATOM     97  C   UNL A   1      46.042  30.562  26.742  1.00  0.00     0.200 A 
ATOM     98  F   UNL A   1      48.317  30.030  27.088  1.00  0.00    -0.200 F 
ATOM     99  F   UNL A   1      46.374  31.402  25.751  1.00  0.00    -0.200 F 
ENDBRANCH  66  89
ENDBRANCH  40  41
ENDBRANCH  32  35
ENDBRANCH  30  31
ENDBRANCH  29  30
ENDBRANCH   1  29
TORSDOF 14
ENDMDL
MODEL 3
REMARK VINA RESULT:     -13.0      2.630      3.594
REMARK SMILES Cc1cc2n(n1)[C@H](C(F)(F)F)CCN2C(=O)c1cnn([C@@H](C)C(=O)NCCCNC(=O)c2ccc(-c3c4nc(c(-c5c(F)c(F)c(F)c(F)c5F)c5ccc([nH]5)c(-c5c(F)c(F)c(F)c(F)c5F)c5nc(c(-c6c(F)c(F)c(F)c(F)c6F)c6ccc3[nH]6)C=C5)C=C4)cc2)c1
REMARK SMILES IDX 26 1 25 2 23 3 24 4 21 6 22 7 20 8 17 9 18 10 95 11 19 12
REMARK SMILES IDX 15 13 16 14 14 15 1 16 2 17 3 18 6 19 4 20 5 21 7 22 13 23
REMARK SMILES IDX 12 24 8 25 9 26 10 27 11 28 27 29 28 30 29 31 30 32 31 34
REMARK SMILES IDX 32 35 33 36 94 37 34 38 93 39 35 40 36 41 37 42 87 43 38 44
REMARK SMILES IDX 92 45 86 46 88 47 39 48 91 49 85 50 84 51 40 53 72 54 52 55
REMARK SMILES IDX 71 56 53 57 56 58 70 59 89 60 54 61 55 62 69 64 90 65 57 66
REMARK SMILES IDX 41 67 42 68 50 69 43 70 44 71 48 72 51 73 45 74 46 75 49 76
REMARK SMILES IDX 47 77 73 78 74 79 82 80 75 81 76 82 80 83 83 84 77 85 78 86
REMARK SMILES IDX 81 87 79 88 58 89 59 90 67 91 60 92 61 93 65 94 68 95 62 96
REMARK SMILES IDX 63 97 66 98 64 99
REMARK H PARENT 25 5 29 33 88 52 56 63
REMARK Flexibility Score: inf
ROOT
ATOM      1  C   UNL A   1      37.810  23.406  25.683  1.00  0.00     0.117 C 
ENDROOT
BRANCH   1   2
ATOM      2  N   UNL A   1      37.003  23.540  24.476  1.00  0.00    -0.354 N 
ATOM      3  C   UNL A   1      35.781  23.039  24.136  1.00  0.00     0.244 C 
ATOM      4  O   UNL A   1      35.388  23.290  22.989  1.00  0.00    -0.273 OA
ATOM      5  H   UNL A   1      37.417  24.094  23.775  1.00  0.00     0.163 HD
BRANCH   3   6
ATOM      6  C   UNL A   1      34.884  22.221  25.067  1.00  0.00     0.193 C 
ATOM      7  C   UNL A   1      34.954  20.709  24.879  1.00  0.00     0.044 C 
BRANCH   6   8
ATOM      8  N   UNL A   1      33.525  22.748  25.125  1.00  0.00    -0.260 N 
ATOM      9  C   UNL A   1      31.757  24.051  25.326  1.00  0.00     0.078 A 
ATOM     10  C   UNL A   1      31.435  22.773  24.839  1.00  0.00     0.149 A 
ATOM     11  C   UNL A   1      33.137  24.023  25.443  1.00  0.00     0.123 A 
ATOM     12  N   UNL A   1      32.470  21.944  24.912  1.00  0.00    -0.180 NA
BRANCH   9  13
ATOM     13  C   UNL A   1      30.877  25.153  25.578  1.00  0.00     0.262 C 
ATOM     14  O   UNL A   1      30.034  25.163  26.474  1.00  0.00    -0.269 OA
BRANCH  13  15
ATOM     15  N   UNL A   1      31.042  26.260  24.643  1.00  0.00    -0.293 N 
ATOM     16  C   UNL A   1      32.734  30.223  27.230  1.00  0.00     0.069 C 
ATOM     17  C   UNL A   1      32.295  29.270  26.183  1.00  0.00     0.062 A 
ATOM     18  C   UNL A   1      31.968  27.898  26.336  1.00  0.00     0.072 A 
ATOM     19  N   UNL A   1      32.146  29.676  24.917  1.00  0.00    -0.176 NA
ATOM     20  C   UNL A   1      31.536  27.491  25.096  1.00  0.00     0.134 A 
ATOM     21  N   UNL A   1      31.653  28.599  24.298  1.00  0.00    -0.237 N 
ATOM     22  C   UNL A   1      31.263  28.643  22.903  1.00  0.00     0.216 C 
ATOM     23  C   UNL A   1      30.485  26.230  23.260  1.00  0.00     0.130 C 
ATOM     24  C   UNL A   1      31.208  27.216  22.344  1.00  0.00     0.059 C 
BRANCH  22  25
ATOM     25  C   UNL A   1      29.942  29.367  22.770  1.00  0.00     0.410 C 
ATOM     26  F   UNL A   1      29.968  30.271  21.764  1.00  0.00    -0.169 F 
ATOM     27  F   UNL A   1      28.906  28.533  22.569  1.00  0.00    -0.169 F 
ATOM     28  F   UNL A   1      29.678  30.062  23.904  1.00  0.00    -0.169 F 
ENDBRANCH  22  25
ENDBRANCH  13  15
ENDBRANCH   9  13
ENDBRANCH   6   8
ENDBRANCH   3   6
ENDBRANCH   1   2
BRANCH   1  29
ATOM     29  C   UNL A   1      38.618  22.104  25.744  1.00  0.00     0.042 C 
BRANCH  29  30
ATOM     30  C   UNL A   1      39.781  22.150  26.708  1.00  0.00     0.118 C 
BRANCH  30  31
ATOM     31  N   UNL A   1      41.079  22.248  26.050  1.00  0.00    -0.352 N 
ATOM     32  C   UNL A   1      41.853  23.382  25.888  1.00  0.00     0.251 C 
ATOM     33  H   UNL A   1      41.447  21.412  25.680  1.00  0.00     0.163 HD
ATOM     34  O   UNL A   1      42.756  23.422  25.063  1.00  0.00    -0.269 OA
BRANCH  32  35
ATOM     35  C   UNL A   1      41.530  24.561  26.712  1.00  0.00     0.039 A 
ATOM     36  C   UNL A   1      42.039  24.696  28.004  1.00  0.00     0.014 A 
ATOM     37  C   UNL A   1      40.813  25.591  26.115  1.00  0.00     0.014 A 
ATOM     38  C   UNL A   1      41.912  25.924  28.651  1.00  0.00     0.010 A 
ATOM     39  C   UNL A   1      40.850  26.844  26.679  1.00  0.00     0.010 A 
ATOM     40  C   UNL A   1      41.349  27.014  27.970  1.00  0.00    -0.014 A 
BRANCH  40  41
ATOM     41  C   UNL A   1      41.349  28.352  28.567  1.00  0.00     0.031 A 
ATOM     42  C   UNL A   1      42.475  29.252  28.184  1.00  0.00     0.074 A 
ATOM     43  C   UNL A   1      40.299  28.852  29.256  1.00  0.00     0.049 A 
ATOM     44  N   UNL A   1      43.362  29.787  28.959  1.00  0.00    -0.248 NA
ATOM     45  C   UNL A   1      42.681  29.546  26.758  1.00  0.00     0.031 C 
ATOM     46  C   UNL A   1      38.987  28.230  29.479  1.00  0.00     0.029 A 
ATOM     47  N   UNL A   1      40.144  30.088  29.812  1.00  0.00    -0.354 N 
ATOM     48  C   UNL A   1      44.139  30.619  28.153  1.00  0.00     0.074 A 
ATOM     49  C   UNL A   1      43.763  30.325  26.794  1.00  0.00     0.031 C 
ATOM     50  C   UNL A   1      38.107  29.163  29.893  1.00  0.00     0.029 A 
ATOM     51  C   UNL A   1      38.836  30.385  30.162  1.00  0.00     0.049 A 
ATOM     52  H   UNL A   1      40.892  30.714  29.951  1.00  0.00     0.167 HD
ATOM     53  C   UNL A   1      44.865  31.641  28.689  1.00  0.00     0.037 A 
ATOM     54  C   UNL A   1      38.358  31.546  30.659  1.00  0.00     0.037 A 
ATOM     55  C   UNL A   1      44.996  31.482  30.116  1.00  0.00     0.049 A 
ATOM     56  C   UNL A   1      39.489  32.268  31.276  1.00  0.00     0.074 A 
ATOM     57  C   UNL A   1      45.642  30.613  30.967  1.00  0.00     0.029 A 
ATOM     58  N   UNL A   1      44.087  32.174  30.872  1.00  0.00    -0.354 N 
ATOM     59  N   UNL A   1      40.121  31.851  32.338  1.00  0.00    -0.248 NA
ATOM     60  C   UNL A   1      40.159  33.321  30.526  1.00  0.00     0.031 C 
ATOM     61  C   UNL A   1      44.850  30.578  32.155  1.00  0.00     0.029 A 
ATOM     62  C   UNL A   1      43.770  31.445  31.985  1.00  0.00     0.049 A 
ATOM     63  H   UNL A   1      43.720  33.059  30.648  1.00  0.00     0.167 HD
ATOM     64  C   UNL A   1      41.425  32.266  32.150  1.00  0.00     0.074 A 
ATOM     65  C   UNL A   1      41.347  33.309  31.136  1.00  0.00     0.031 C 
ATOM     66  C   UNL A   1      42.467  31.511  32.607  1.00  0.00     0.037 A 
BRANCH  53  67
ATOM     67  C   UNL A   1      45.094  32.998  28.045  1.00  0.00     0.064 A 
ATOM     68  C   UNL A   1      46.419  33.395  27.749  1.00  0.00     0.173 A 
ATOM     69  C   UNL A   1      44.141  34.037  28.025  1.00  0.00     0.173 A 
ATOM     70  F   UNL A   1      47.416  32.497  27.728  1.00  0.00    -0.203 F 
ATOM     71  C   UNL A   1      46.773  34.736  27.568  1.00  0.00     0.198 A 
ATOM     72  C   UNL A   1      44.490  35.369  27.793  1.00  0.00     0.198 A 
ATOM     73  F   UNL A   1      42.856  33.834  28.334  1.00  0.00    -0.203 F 
ATOM     74  F   UNL A   1      48.064  35.074  27.434  1.00  0.00    -0.200 F 
ATOM     75  C   UNL A   1      45.809  35.724  27.605  1.00  0.00     0.200 A 
ATOM     76  F   UNL A   1      43.542  36.315  27.841  1.00  0.00    -0.200 F 
ATOM     77  F   UNL A   1      46.150  37.016  27.506  1.00  0.00    -0.200 F 
ENDBRANCH  53  67
BRANCH  54  78
ATOM     78  C   UNL A   1      37.009  32.121  30.496  1.00  0.00     0.064 A 
ATOM     79  C   UNL A   1      36.044  32.025  31.507  1.00  0.00     0.173 A 
ATOM     80  C   UNL A   1      36.726  32.998  29.431  1.00  0.00     0.173 A 
ATOM     81  F   UNL A   1      36.258  31.238  32.571  1.00  0.00    -0.203 F 
ATOM     82  C   UNL A   1      34.872  32.786  31.469  1.00  0.00     0.198 A 
ATOM     83  C   UNL A   1      35.554  33.752  29.390  1.00  0.00     0.198 A 
ATOM     84  F   UNL A   1      37.625  33.206  28.456  1.00  0.00    -0.203 F 
ATOM     85  F   UNL A   1      33.999  32.716  32.483  1.00  0.00    -0.200 F 
ATOM     86  C   UNL A   1      34.634  33.657  30.417  1.00  0.00     0.200 A 
ATOM     87  F   UNL A   1      35.353  34.615  28.385  1.00  0.00    -0.200 F 
ATOM     88  F   UNL A   1      33.541  34.432  30.413  1.00  0.00    -0.200 F 
ENDBRANCH  54  78
BRANCH  66  89
ATOM     89  C   UNL A   1      42.168  30.516  33.688  1.00  0.00     0.064 A 
ATOM     90  C   UNL A   1      41.778  29.188  33.452  1.00  0.00     0.173 A 
ATOM     91  C   UNL A   1      42.383  30.902  35.016  1.00  0.00     0.173 A 
ATOM     92  F   UNL A   1      41.642  28.719  32.208  1.00  0.00    -0.203 F 
ATOM     93  C   UNL A   1      41.566  28.302  34.507  1.00  0.00     0.198 A 
ATOM     94  C   UNL A   1      42.206  30.006  36.065  1.00  0.00     0.198 A 
ATOM     95  F   UNL A   1      42.806  32.145  35.294  1.00  0.00    -0.203 F 
ATOM     96  F   UNL A   1      41.174  27.043  34.259  1.00  0.00    -0.200 F 
ATOM     97  C   UNL A   1      41.786  28.710  35.811  1.00  0.00     0.200 A 
ATOM     98  F   UNL A   1      42.466  30.393  37.322  1.00  0.00    -0.200 F 
ATOM     99  F   UNL A   1      41.617  27.848  36.825  1.00  0.00    -0.200 F 
ENDBRANCH  66  89
ENDBRANCH  40  41
ENDBRANCH  32  35
ENDBRANCH  30  31
ENDBRANCH  29  30
ENDBRANCH   1  29
TORSDOF 14
ENDMDL
