MODEL 1
REMARK VINA RESULT:     -12.7      0.000      0.000
REMARK SMILES CN1CCN(C(=O)N2CC[C@@H](CC(=O)NCCCNC(=O)c3ccc(-c4c5nc(c(-c6c(F)c(F)c(F)c(F)c6F)c6ccc([nH]6)c(-c6c(F)c(F)c(F)c(F)c6F)c6nc(c(-c7c(F)c(F)c(F)c(F)c7F)c7ccc4[nH]7)C=C6)C=C5)cc3)C2)C(C)(C)C1=O
REMARK SMILES IDX 16 1 15 2 13 3 14 4 12 6 11 7 8 8 9 9 85 10 10 11 6 12 7 13
REMARK SMILES IDX 5 14 1 15 2 16 3 17 89 18 4 19 86 20 90 21 87 22 88 23 17 24
REMARK SMILES IDX 18 25 19 26 20 27 21 29 22 30 23 31 84 32 24 33 83 34 25 35
REMARK SMILES IDX 26 36 27 37 77 38 28 39 82 40 76 41 78 42 29 43 81 44 75 45
REMARK SMILES IDX 74 46 30 48 62 49 42 50 61 51 43 52 46 53 60 54 79 55 44 56
REMARK SMILES IDX 45 57 59 59 80 60 47 61 31 62 32 63 40 64 33 65 34 66 38 67
REMARK SMILES IDX 41 68 35 69 36 70 39 71 37 72 63 73 64 74 72 75 65 76 66 77
REMARK SMILES IDX 70 78 73 79 67 80 68 81 71 82 69 83 48 84 49 85 57 86 50 87
REMARK SMILES IDX 51 88 55 89 58 90 52 91 53 92 56 93 54 94
REMARK H PARENT 15 5 19 28 78 47 46 58
REMARK Flexibility Score: inf
ROOT
ATOM      1  C   UNL A   1      31.543  30.820  26.573  1.00  0.00     0.117 C 
ENDROOT
BRANCH   1   2
ATOM      2  N   UNL A   1      32.849  30.345  26.995  1.00  0.00    -0.356 N 
ATOM      3  C   UNL A   1      33.660  29.411  26.420  1.00  0.00     0.220 C 
ATOM      4  O   UNL A   1      34.730  29.140  26.964  1.00  0.00    -0.275 OA
ATOM      5  H   UNL A   1      33.200  30.756  27.816  1.00  0.00     0.163 HD
BRANCH   3   6
ATOM      6  C   UNL A   1      33.220  28.716  25.152  1.00  0.00     0.105 C 
BRANCH   6   7
ATOM      7  C   UNL A   1      33.737  27.274  25.108  1.00  0.00     0.020 C 
ATOM      8  N   UNL A   1      32.695  25.179  25.429  1.00  0.00    -0.324 N 
ATOM      9  C   UNL A   1      32.416  25.527  24.053  1.00  0.00     0.122 C 
ATOM     10  C   UNL A   1      33.063  26.372  26.151  1.00  0.00     0.125 C 
ATOM     11  C   UNL A   1      33.474  26.575  23.752  1.00  0.00     0.027 C 
BRANCH   8  12
ATOM     12  C   UNL A   1      32.245  24.074  26.094  1.00  0.00     0.320 C 
ATOM     13  O   UNL A   1      31.416  24.184  27.000  1.00  0.00    -0.248 OA
BRANCH  12  14
ATOM     14  N   UNL A   1      32.742  22.840  25.705  1.00  0.00    -0.309 N 
ATOM     15  C   UNL A   1      33.856  18.853  24.486  1.00  0.00     0.146 C 
ATOM     16  N   UNL A   1      33.488  20.156  25.004  1.00  0.00    -0.342 N 
ATOM     17  C   UNL A   1      32.150  20.648  24.715  1.00  0.00     0.140 C 
ATOM     18  C   UNL A   1      34.507  21.043  25.351  1.00  0.00     0.247 C 
ATOM     19  C   UNL A   1      31.716  21.802  25.602  1.00  0.00     0.144 C 
ATOM     20  C   UNL A   1      34.090  22.328  26.145  1.00  0.00     0.118 C 
ATOM     21  O   UNL A   1      35.692  20.721  25.221  1.00  0.00    -0.272 OA
ATOM     22  C   UNL A   1      34.021  21.891  27.630  1.00  0.00     0.045 C 
ATOM     23  C   UNL A   1      35.266  23.318  26.046  1.00  0.00     0.045 C 
ENDBRANCH  12  14
ENDBRANCH   8  12
ENDBRANCH   6   7
ENDBRANCH   3   6
ENDBRANCH   1   2
BRANCH   1  24
ATOM     24  C   UNL A   1      31.404  32.332  26.726  1.00  0.00     0.042 C 
BRANCH  24  25
ATOM     25  C   UNL A   1      32.689  33.040  27.148  1.00  0.00     0.118 C 
BRANCH  25  26
ATOM     26  N   UNL A   1      32.448  34.374  27.678  1.00  0.00    -0.352 N 
ATOM     27  C   UNL A   1      33.008  35.021  28.751  1.00  0.00     0.251 C 
ATOM     28  H   UNL A   1      31.775  34.898  27.186  1.00  0.00     0.163 HD
ATOM     29  O   UNL A   1      32.528  36.082  29.136  1.00  0.00    -0.269 OA
BRANCH  27  30
ATOM     30  C   UNL A   1      34.173  34.445  29.460  1.00  0.00     0.039 A 
ATOM     31  C   UNL A   1      33.961  33.799  30.682  1.00  0.00     0.014 A 
ATOM     32  C   UNL A   1      35.470  34.579  28.957  1.00  0.00     0.014 A 
ATOM     33  C   UNL A   1      35.040  33.234  31.368  1.00  0.00     0.010 A 
ATOM     34  C   UNL A   1      36.534  33.956  29.606  1.00  0.00     0.010 A 
ATOM     35  C   UNL A   1      36.330  33.280  30.818  1.00  0.00    -0.014 A 
BRANCH  35  36
ATOM     36  C   UNL A   1      37.480  32.631  31.498  1.00  0.00     0.031 A 
ATOM     37  C   UNL A   1      38.184  31.470  30.851  1.00  0.00     0.074 A 
ATOM     38  C   UNL A   1      37.847  33.042  32.727  1.00  0.00     0.049 A 
ATOM     39  N   UNL A   1      39.143  30.714  31.324  1.00  0.00    -0.248 NA
ATOM     40  C   UNL A   1      37.734  31.093  29.502  1.00  0.00     0.031 C 
ATOM     41  C   UNL A   1      37.218  34.131  33.477  1.00  0.00     0.029 A 
ATOM     42  N   UNL A   1      38.829  32.583  33.569  1.00  0.00    -0.354 N 
ATOM     43  C   UNL A   1      39.398  29.767  30.340  1.00  0.00     0.074 A 
ATOM     44  C   UNL A   1      38.462  30.013  29.264  1.00  0.00     0.031 C 
ATOM     45  C   UNL A   1      37.838  34.265  34.660  1.00  0.00     0.029 A 
ATOM     46  C   UNL A   1      38.881  33.250  34.769  1.00  0.00     0.049 A 
ATOM     47  H   UNL A   1      39.438  31.846  33.336  1.00  0.00     0.167 HD
ATOM     48  C   UNL A   1      40.341  28.795  30.329  1.00  0.00     0.037 A 
ATOM     49  C   UNL A   1      39.673  33.056  35.841  1.00  0.00     0.037 A 
ATOM     50  C   UNL A   1      41.288  28.570  31.388  1.00  0.00     0.049 A 
ATOM     51  C   UNL A   1      40.708  31.964  35.802  1.00  0.00     0.074 A 
ATOM     52  C   UNL A   1      42.316  27.644  31.446  1.00  0.00     0.029 A 
ATOM     53  N   UNL A   1      41.326  29.284  32.577  1.00  0.00    -0.354 N 
ATOM     54  N   UNL A   1      40.978  31.113  34.843  1.00  0.00    -0.248 NA
ATOM     55  C   UNL A   1      41.555  31.811  36.994  1.00  0.00     0.031 C 
ATOM     56  C   UNL A   1      42.950  27.770  32.686  1.00  0.00     0.029 A 
ATOM     57  C   UNL A   1      42.348  28.806  33.382  1.00  0.00     0.049 A 
ATOM     58  H   UNL A   1      40.716  30.019  32.814  1.00  0.00     0.167 HD
ATOM     59  C   UNL A   1      42.040  30.345  35.301  1.00  0.00     0.074 A 
ATOM     60  C   UNL A   1      42.376  30.841  36.620  1.00  0.00     0.031 C 
ATOM     61  C   UNL A   1      42.679  29.322  34.685  1.00  0.00     0.037 A 
BRANCH  48  62
ATOM     62  C   UNL A   1      40.402  27.899  29.126  1.00  0.00     0.064 A 
ATOM     63  C   UNL A   1      39.650  26.715  29.054  1.00  0.00     0.173 A 
ATOM     64  C   UNL A   1      41.179  28.251  28.013  1.00  0.00     0.173 A 
ATOM     65  F   UNL A   1      38.899  26.328  30.095  1.00  0.00    -0.203 F 
ATOM     66  C   UNL A   1      39.695  25.906  27.921  1.00  0.00     0.198 A 
ATOM     67  C   UNL A   1      41.199  27.454  26.870  1.00  0.00     0.198 A 
ATOM     68  F   UNL A   1      41.912  29.374  28.027  1.00  0.00    -0.203 F 
ATOM     69  F   UNL A   1      39.003  24.760  27.892  1.00  0.00    -0.200 F 
ATOM     70  C   UNL A   1      40.462  26.280  26.828  1.00  0.00     0.200 A 
ATOM     71  F   UNL A   1      41.930  27.823  25.810  1.00  0.00    -0.200 F 
ATOM     72  F   UNL A   1      40.495  25.506  25.735  1.00  0.00    -0.200 F 
ENDBRANCH  48  62
BRANCH  49  73
ATOM     73  C   UNL A   1      39.533  33.926  37.038  1.00  0.00     0.064 A 
ATOM     74  C   UNL A   1      38.770  33.515  38.139  1.00  0.00     0.173 A 
ATOM     75  C   UNL A   1      40.144  35.186  37.100  1.00  0.00     0.173 A 
ATOM     76  F   UNL A   1      38.150  32.326  38.118  1.00  0.00    -0.203 F 
ATOM     77  C   UNL A   1      38.603  34.342  39.249  1.00  0.00     0.198 A 
ATOM     78  C   UNL A   1      40.000  36.001  38.221  1.00  0.00     0.198 A 
ATOM     79  F   UNL A   1      40.888  35.624  36.074  1.00  0.00    -0.203 F 
ATOM     80  F   UNL A   1      37.829  33.945  40.267  1.00  0.00    -0.200 F 
ATOM     81  C   UNL A   1      39.222  35.583  39.291  1.00  0.00     0.200 A 
ATOM     82  F   UNL A   1      40.610  37.193  38.263  1.00  0.00    -0.200 F 
ATOM     83  F   UNL A   1      39.062  36.377  40.356  1.00  0.00    -0.200 F 
ENDBRANCH  49  73
BRANCH  61  84
ATOM     84  C   UNL A   1      43.835  28.696  35.410  1.00  0.00     0.064 A 
ATOM     85  C   UNL A   1      43.652  27.639  36.314  1.00  0.00     0.173 A 
ATOM     86  C   UNL A   1      45.145  29.134  35.164  1.00  0.00     0.173 A 
ATOM     87  F   UNL A   1      42.418  27.196  36.594  1.00  0.00    -0.203 F 
ATOM     88  C   UNL A   1      44.739  27.060  36.963  1.00  0.00     0.198 A 
ATOM     89  C   UNL A   1      46.232  28.532  35.793  1.00  0.00     0.198 A 
ATOM     90  F   UNL A   1      45.373  30.138  34.304  1.00  0.00    -0.203 F 
ATOM     91  F   UNL A   1      44.538  26.082  37.857  1.00  0.00    -0.200 F 
ATOM     92  C   UNL A   1      46.027  27.501  36.697  1.00  0.00     0.200 A 
ATOM     93  F   UNL A   1      47.476  28.951  35.525  1.00  0.00    -0.200 F 
ATOM     94  F   UNL A   1      47.072  26.936  37.318  1.00  0.00    -0.200 F 
ENDBRANCH  61  84
ENDBRANCH  35  36
ENDBRANCH  27  30
ENDBRANCH  25  26
ENDBRANCH  24  25
ENDBRANCH   1  24
TORSDOF 13
ENDMDL
MODEL 2
REMARK VINA RESULT:     -12.6      0.168      1.591
REMARK SMILES CN1CCN(C(=O)N2CC[C@@H](CC(=O)NCCCNC(=O)c3ccc(-c4c5nc(c(-c6c(F)c(F)c(F)c(F)c6F)c6ccc([nH]6)c(-c6c(F)c(F)c(F)c(F)c6F)c6nc(c(-c7c(F)c(F)c(F)c(F)c7F)c7ccc4[nH]7)C=C6)C=C5)cc3)C2)C(C)(C)C1=O
REMARK SMILES IDX 16 1 15 2 13 3 14 4 12 6 11 7 8 8 9 9 85 10 10 11 6 12 7 13
REMARK SMILES IDX 5 14 1 15 2 16 3 17 89 18 4 19 86 20 90 21 87 22 88 23 17 24
REMARK SMILES IDX 18 25 19 26 20 27 21 29 22 30 23 31 84 32 24 33 83 34 25 35
REMARK SMILES IDX 26 36 27 37 77 38 28 39 82 40 76 41 78 42 29 43 81 44 75 45
REMARK SMILES IDX 74 46 30 48 62 49 42 50 61 51 43 52 46 53 60 54 79 55 44 56
REMARK SMILES IDX 45 57 59 59 80 60 47 61 31 62 32 63 40 64 33 65 34 66 38 67
REMARK SMILES IDX 41 68 35 69 36 70 39 71 37 72 63 73 64 74 72 75 65 76 66 77
REMARK SMILES IDX 70 78 73 79 67 80 68 81 71 82 69 83 48 84 49 85 57 86 50 87
REMARK SMILES IDX 51 88 55 89 58 90 52 91 53 92 56 93 54 94
REMARK H PARENT 15 5 19 28 78 47 46 58
REMARK Flexibility Score: inf
ROOT
ATOM      1  C   UNL A   1      31.596  30.820  26.201  1.00  0.00     0.117 C 
ENDROOT
BRANCH   1   2
ATOM      2  N   UNL A   1      32.843  30.256  26.686  1.00  0.00    -0.356 N 
ATOM      3  C   UNL A   1      33.641  29.304  26.125  1.00  0.00     0.220 C 
ATOM      4  O   UNL A   1      34.657  28.952  26.724  1.00  0.00    -0.275 OA
ATOM      5  H   UNL A   1      33.159  30.614  27.546  1.00  0.00     0.163 HD
BRANCH   3   6
ATOM      6  C   UNL A   1      33.252  28.687  24.800  1.00  0.00     0.105 C 
BRANCH   6   7
ATOM      7  C   UNL A   1      33.716  27.229  24.717  1.00  0.00     0.020 C 
ATOM      8  N   UNL A   1      32.675  25.175  25.242  1.00  0.00    -0.324 N 
ATOM      9  C   UNL A   1      32.204  25.503  23.915  1.00  0.00     0.122 C 
ATOM     10  C   UNL A   1      33.181  26.371  25.871  1.00  0.00     0.125 C 
ATOM     11  C   UNL A   1      33.234  26.511  23.433  1.00  0.00     0.027 C 
BRANCH   8  12
ATOM     12  C   UNL A   1      32.297  24.099  25.995  1.00  0.00     0.320 C 
ATOM     13  O   UNL A   1      31.524  24.240  26.944  1.00  0.00    -0.248 OA
BRANCH  12  14
ATOM     14  N   UNL A   1      32.804  22.858  25.645  1.00  0.00    -0.309 N 
ATOM     15  C   UNL A   1      33.948  18.850  24.525  1.00  0.00     0.146 C 
ATOM     16  N   UNL A   1      33.564  20.161  25.010  1.00  0.00    -0.342 N 
ATOM     17  C   UNL A   1      32.246  20.658  24.650  1.00  0.00     0.140 C 
ATOM     18  C   UNL A   1      34.572  21.045  25.398  1.00  0.00     0.247 C 
ATOM     19  C   UNL A   1      31.777  21.826  25.502  1.00  0.00     0.144 C 
ATOM     20  C   UNL A   1      34.126  22.341  26.156  1.00  0.00     0.118 C 
ATOM     21  O   UNL A   1      35.759  20.714  25.330  1.00  0.00    -0.272 OA
ATOM     22  C   UNL A   1      33.980  21.921  27.640  1.00  0.00     0.045 C 
ATOM     23  C   UNL A   1      35.312  23.322  26.105  1.00  0.00     0.045 C 
ENDBRANCH  12  14
ENDBRANCH   8  12
ENDBRANCH   6   7
ENDBRANCH   3   6
ENDBRANCH   1   2
BRANCH   1  24
ATOM     24  C   UNL A   1      31.403  32.265  26.653  1.00  0.00     0.042 C 
BRANCH  24  25
ATOM     25  C   UNL A   1      32.681  32.947  27.134  1.00  0.00     0.118 C 
BRANCH  25  26
ATOM     26  N   UNL A   1      32.443  34.286  27.653  1.00  0.00    -0.352 N 
ATOM     27  C   UNL A   1      33.011  34.944  28.715  1.00  0.00     0.251 C 
ATOM     28  H   UNL A   1      31.764  34.804  27.163  1.00  0.00     0.163 HD
ATOM     29  O   UNL A   1      32.533  36.007  29.094  1.00  0.00    -0.269 OA
BRANCH  27  30
ATOM     30  C   UNL A   1      34.184  34.377  29.418  1.00  0.00     0.039 A 
ATOM     31  C   UNL A   1      33.975  33.677  30.611  1.00  0.00     0.014 A 
ATOM     32  C   UNL A   1      35.483  34.570  28.941  1.00  0.00     0.014 A 
ATOM     33  C   UNL A   1      35.062  33.119  31.291  1.00  0.00     0.010 A 
ATOM     34  C   UNL A   1      36.556  33.955  29.581  1.00  0.00     0.010 A 
ATOM     35  C   UNL A   1      36.358  33.226  30.763  1.00  0.00    -0.014 A 
BRANCH  35  36
ATOM     36  C   UNL A   1      37.517  32.586  31.434  1.00  0.00     0.031 A 
ATOM     37  C   UNL A   1      38.233  31.438  30.777  1.00  0.00     0.074 A 
ATOM     38  C   UNL A   1      37.884  32.993  32.664  1.00  0.00     0.049 A 
ATOM     39  N   UNL A   1      39.203  30.691  31.241  1.00  0.00    -0.248 NA
ATOM     40  C   UNL A   1      37.782  31.064  29.427  1.00  0.00     0.031 C 
ATOM     41  C   UNL A   1      37.245  34.070  33.424  1.00  0.00     0.029 A 
ATOM     42  N   UNL A   1      38.875  32.541  33.500  1.00  0.00    -0.354 N 
ATOM     43  C   UNL A   1      39.465  29.753  30.250  1.00  0.00     0.074 A 
ATOM     44  C   UNL A   1      38.523  29.994  29.179  1.00  0.00     0.031 C 
ATOM     45  C   UNL A   1      37.869  34.204  34.605  1.00  0.00     0.029 A 
ATOM     46  C   UNL A   1      38.924  33.201  34.704  1.00  0.00     0.049 A 
ATOM     47  H   UNL A   1      39.492  31.812  33.260  1.00  0.00     0.167 HD
ATOM     48  C   UNL A   1      40.420  28.792  30.229  1.00  0.00     0.037 A 
ATOM     49  C   UNL A   1      39.722  33.009  35.771  1.00  0.00     0.037 A 
ATOM     50  C   UNL A   1      41.374  28.572  31.284  1.00  0.00     0.049 A 
ATOM     51  C   UNL A   1      40.770  31.930  35.722  1.00  0.00     0.074 A 
ATOM     52  C   UNL A   1      42.412  27.658  31.331  1.00  0.00     0.029 A 
ATOM     53  N   UNL A   1      41.408  29.278  32.477  1.00  0.00    -0.354 N 
ATOM     54  N   UNL A   1      41.046  31.089  34.756  1.00  0.00    -0.248 NA
ATOM     55  C   UNL A   1      41.623  31.780  36.909  1.00  0.00     0.031 C 
ATOM     56  C   UNL A   1      43.049  27.783  32.570  1.00  0.00     0.029 A 
ATOM     57  C   UNL A   1      42.438  28.807  33.275  1.00  0.00     0.049 A 
ATOM     58  H   UNL A   1      40.790  30.005  32.721  1.00  0.00     0.167 HD
ATOM     59  C   UNL A   1      42.119  30.330  35.205  1.00  0.00     0.074 A 
ATOM     60  C   UNL A   1      42.454  30.822  36.525  1.00  0.00     0.031 C 
ATOM     61  C   UNL A   1      42.768  29.319  34.580  1.00  0.00     0.037 A 
BRANCH  48  62
ATOM     62  C   UNL A   1      40.487  27.905  29.020  1.00  0.00     0.064 A 
ATOM     63  C   UNL A   1      41.340  28.196  27.943  1.00  0.00     0.173 A 
ATOM     64  C   UNL A   1      39.731  26.726  28.957  1.00  0.00     0.173 A 
ATOM     65  F   UNL A   1      42.077  29.317  27.950  1.00  0.00    -0.203 F 
ATOM     66  C   UNL A   1      41.413  27.351  26.839  1.00  0.00     0.198 A 
ATOM     67  C   UNL A   1      39.828  25.868  27.863  1.00  0.00     0.198 A 
ATOM     68  F   UNL A   1      38.904  26.398  29.961  1.00  0.00    -0.203 F 
ATOM     69  F   UNL A   1      42.202  27.672  25.805  1.00  0.00    -0.200 F 
ATOM     70  C   UNL A   1      40.664  26.185  26.803  1.00  0.00     0.200 A 
ATOM     71  F   UNL A   1      39.113  24.735  27.836  1.00  0.00    -0.200 F 
ATOM     72  F   UNL A   1      40.744  25.368  25.744  1.00  0.00    -0.200 F 
ENDBRANCH  48  62
BRANCH  49  73
ATOM     73  C   UNL A   1      39.576  33.870  36.975  1.00  0.00     0.064 A 
ATOM     74  C   UNL A   1      38.786  33.462  38.058  1.00  0.00     0.173 A 
ATOM     75  C   UNL A   1      40.209  35.118  37.060  1.00  0.00     0.173 A 
ATOM     76  F   UNL A   1      38.146  32.285  38.014  1.00  0.00    -0.203 F 
ATOM     77  C   UNL A   1      38.615  34.281  39.172  1.00  0.00     0.198 A 
ATOM     78  C   UNL A   1      40.059  35.924  38.187  1.00  0.00     0.198 A 
ATOM     79  F   UNL A   1      40.979  35.553  36.052  1.00  0.00    -0.203 F 
ATOM     80  F   UNL A   1      37.815  33.888  40.172  1.00  0.00    -0.200 F 
ATOM     81  C   UNL A   1      39.255  35.509  39.238  1.00  0.00     0.200 A 
ATOM     82  F   UNL A   1      40.690  37.105  38.252  1.00  0.00    -0.200 F 
ATOM     83  F   UNL A   1      39.090  36.296  40.309  1.00  0.00    -0.200 F 
ENDBRANCH  49  73
BRANCH  61  84
ATOM     84  C   UNL A   1      43.934  28.702  35.297  1.00  0.00     0.064 A 
ATOM     85  C   UNL A   1      45.231  29.219  35.173  1.00  0.00     0.173 A 
ATOM     86  C   UNL A   1      43.740  27.607  36.151  1.00  0.00     0.173 A 
ATOM     87  F   UNL A   1      45.470  30.255  34.356  1.00  0.00    -0.203 F 
ATOM     88  C   UNL A   1      46.297  28.644  35.860  1.00  0.00     0.198 A 
ATOM     89  C   UNL A   1      44.803  27.053  36.860  1.00  0.00     0.198 A 
ATOM     90  F   UNL A   1      42.516  27.079  36.309  1.00  0.00    -0.203 F 
ATOM     91  F   UNL A   1      47.537  29.126  35.692  1.00  0.00    -0.200 F 
ATOM     92  C   UNL A   1      46.081  27.568  36.709  1.00  0.00     0.200 A 
ATOM     93  F   UNL A   1      44.590  26.022  37.689  1.00  0.00    -0.200 F 
ATOM     94  F   UNL A   1      47.107  27.022  37.375  1.00  0.00    -0.200 F 
ENDBRANCH  61  84
ENDBRANCH  35  36
ENDBRANCH  27  30
ENDBRANCH  25  26
ENDBRANCH  24  25
ENDBRANCH   1  24
TORSDOF 13
ENDMDL
MODEL 3
REMARK VINA RESULT:     -12.5      5.646     11.390
REMARK SMILES CN1CCN(C(=O)N2CC[C@@H](CC(=O)NCCCNC(=O)c3ccc(-c4c5nc(c(-c6c(F)c(F)c(F)c(F)c6F)c6ccc([nH]6)c(-c6c(F)c(F)c(F)c(F)c6F)c6nc(c(-c7c(F)c(F)c(F)c(F)c7F)c7ccc4[nH]7)C=C6)C=C5)cc3)C2)C(C)(C)C1=O
REMARK SMILES IDX 16 1 15 2 13 3 14 4 12 6 11 7 8 8 9 9 85 10 10 11 6 12 7 13
REMARK SMILES IDX 5 14 1 15 2 16 3 17 89 18 4 19 86 20 90 21 87 22 88 23 17 24
REMARK SMILES IDX 18 25 19 26 20 27 21 29 22 30 23 31 84 32 24 33 83 34 25 35
REMARK SMILES IDX 26 36 27 37 77 38 28 39 82 40 76 41 78 42 29 43 81 44 75 45
REMARK SMILES IDX 74 46 30 48 62 49 42 50 61 51 43 52 46 53 60 54 79 55 44 56
REMARK SMILES IDX 45 57 59 59 80 60 47 61 31 62 32 63 40 64 33 65 34 66 38 67
REMARK SMILES IDX 41 68 35 69 36 70 39 71 37 72 63 73 64 74 72 75 65 76 66 77
REMARK SMILES IDX 70 78 73 79 67 80 68 81 71 82 69 83 48 84 49 85 57 86 50 87
REMARK SMILES IDX 51 88 55 89 58 90 52 91 53 92 56 93 54 94
REMARK H PARENT 15 5 19 28 78 47 46 58
REMARK Flexibility Score: inf
ROOT
ATOM      1  C   UNL A   1      37.464  20.530  24.751  1.00  0.00     0.117 C 
ENDROOT
BRANCH   1   2
ATOM      2  N   UNL A   1      37.887  21.802  25.309  1.00  0.00    -0.356 N 
ATOM      3  C   UNL A   1      37.136  22.815  25.826  1.00  0.00     0.220 C 
ATOM      4  O   UNL A   1      37.705  23.830  26.229  1.00  0.00    -0.275 OA
ATOM      5  H   UNL A   1      38.858  21.956  25.313  1.00  0.00     0.163 HD
BRANCH   3   6
ATOM      6  C   UNL A   1      35.630  22.684  25.870  1.00  0.00     0.105 C 
BRANCH   6   7
ATOM      7  C   UNL A   1      34.956  24.058  25.791  1.00  0.00     0.020 C 
ATOM      8  N   UNL A   1      33.542  25.068  24.192  1.00  0.00    -0.324 N 
ATOM      9  C   UNL A   1      32.664  24.258  25.007  1.00  0.00     0.122 C 
ATOM     10  C   UNL A   1      34.898  24.607  24.359  1.00  0.00     0.125 C 
ATOM     11  C   UNL A   1      33.484  24.041  26.268  1.00  0.00     0.027 C 
BRANCH   8  12
ATOM     12  C   UNL A   1      33.186  25.799  23.094  1.00  0.00     0.320 C 
ATOM     13  O   UNL A   1      33.601  25.490  21.975  1.00  0.00    -0.248 OA
BRANCH  12  14
ATOM     14  N   UNL A   1      32.340  26.880  23.286  1.00  0.00    -0.309 N 
ATOM     15  C   UNL A   1      29.490  30.113  23.502  1.00  0.00     0.146 C 
ATOM     16  N   UNL A   1      30.512  29.095  23.364  1.00  0.00    -0.342 N 
ATOM     17  C   UNL A   1      30.168  27.882  22.639  1.00  0.00     0.140 C 
ATOM     18  C   UNL A   1      31.580  29.103  24.261  1.00  0.00     0.247 C 
ATOM     19  C   UNL A   1      31.374  27.066  22.203  1.00  0.00     0.144 C 
ATOM     20  C   UNL A   1      32.792  28.166  23.932  1.00  0.00     0.118 C 
ATOM     21  O   UNL A   1      31.651  29.960  25.148  1.00  0.00    -0.272 OA
ATOM     22  C   UNL A   1      33.673  28.964  22.938  1.00  0.00     0.045 C 
ATOM     23  C   UNL A   1      33.620  28.031  25.223  1.00  0.00     0.045 C 
ENDBRANCH  12  14
ENDBRANCH   8  12
ENDBRANCH   6   7
ENDBRANCH   3   6
ENDBRANCH   1   2
BRANCH   1  24
ATOM     24  C   UNL A   1      38.397  19.389  25.149  1.00  0.00     0.042 C 
BRANCH  24  25
ATOM     25  C   UNL A   1      39.546  19.809  26.062  1.00  0.00     0.118 C 
BRANCH  25  26
ATOM     26  N   UNL A   1      40.688  18.909  25.978  1.00  0.00    -0.352 N 
ATOM     27  C   UNL A   1      42.035  19.174  26.005  1.00  0.00     0.251 C 
ATOM     28  H   UNL A   1      40.457  17.957  25.887  1.00  0.00     0.163 HD
ATOM     29  O   UNL A   1      42.832  18.283  25.736  1.00  0.00    -0.269 OA
BRANCH  27  30
ATOM     30  C   UNL A   1      42.535  20.526  26.340  1.00  0.00     0.039 A 
ATOM     31  C   UNL A   1      43.049  21.324  25.313  1.00  0.00     0.014 A 
ATOM     32  C   UNL A   1      42.546  20.993  27.657  1.00  0.00     0.014 A 
ATOM     33  C   UNL A   1      43.516  22.610  25.596  1.00  0.00     0.010 A 
ATOM     34  C   UNL A   1      42.947  22.300  27.927  1.00  0.00     0.010 A 
ATOM     35  C   UNL A   1      43.438  23.120  26.901  1.00  0.00    -0.014 A 
BRANCH  35  36
ATOM     36  C   UNL A   1      43.869  24.507  27.212  1.00  0.00     0.031 A 
ATOM     37  C   UNL A   1      42.864  25.524  27.681  1.00  0.00     0.074 A 
ATOM     38  C   UNL A   1      45.150  24.869  27.009  1.00  0.00     0.049 A 
ATOM     39  N   UNL A   1      43.026  26.802  27.912  1.00  0.00    -0.248 NA
ATOM     40  C   UNL A   1      41.489  25.045  27.893  1.00  0.00     0.031 C 
ATOM     41  C   UNL A   1      46.211  23.985  26.521  1.00  0.00     0.029 A 
ATOM     42  N   UNL A   1      45.776  26.079  27.174  1.00  0.00    -0.354 N 
ATOM     43  C   UNL A   1      41.775  27.281  28.281  1.00  0.00     0.074 A 
ATOM     44  C   UNL A   1      40.855  26.167  28.197  1.00  0.00     0.031 C 
ATOM     45  C   UNL A   1      47.357  24.679  26.440  1.00  0.00     0.029 A 
ATOM     46  C   UNL A   1      47.107  26.062  26.833  1.00  0.00     0.049 A 
ATOM     47  H   UNL A   1      45.316  26.883  27.506  1.00  0.00     0.167 HD
ATOM     48  C   UNL A   1      41.431  28.531  28.674  1.00  0.00     0.037 A 
ATOM     49  C   UNL A   1      48.018  27.053  26.826  1.00  0.00     0.037 A 
ATOM     50  C   UNL A   1      42.354  29.629  28.784  1.00  0.00     0.049 A 
ATOM     51  C   UNL A   1      47.606  28.433  27.262  1.00  0.00     0.074 A 
ATOM     52  C   UNL A   1      42.111  30.920  29.223  1.00  0.00     0.029 A 
ATOM     53  N   UNL A   1      43.699  29.566  28.453  1.00  0.00    -0.354 N 
ATOM     54  N   UNL A   1      46.434  28.859  27.664  1.00  0.00    -0.248 NA
ATOM     55  C   UNL A   1      48.648  29.470  27.250  1.00  0.00     0.031 C 
ATOM     56  C   UNL A   1      43.301  31.648  29.120  1.00  0.00     0.029 A 
ATOM     57  C   UNL A   1      44.296  30.800  28.662  1.00  0.00     0.049 A 
ATOM     58  H   UNL A   1      44.161  28.764  28.118  1.00  0.00     0.167 HD
ATOM     59  C   UNL A   1      46.602  30.201  27.980  1.00  0.00     0.074 A 
ATOM     60  C   UNL A   1      47.995  30.515  27.736  1.00  0.00     0.031 C 
ATOM     61  C   UNL A   1      45.686  31.091  28.430  1.00  0.00     0.037 A 
BRANCH  48  62
ATOM     62  C   UNL A   1      39.992  28.779  29.024  1.00  0.00     0.064 A 
ATOM     63  C   UNL A   1      39.073  29.232  28.065  1.00  0.00     0.173 A 
ATOM     64  C   UNL A   1      39.516  28.514  30.316  1.00  0.00     0.173 A 
ATOM     65  F   UNL A   1      39.479  29.511  26.817  1.00  0.00    -0.203 F 
ATOM     66  C   UNL A   1      37.735  29.434  28.395  1.00  0.00     0.198 A 
ATOM     67  C   UNL A   1      38.171  28.689  30.635  1.00  0.00     0.198 A 
ATOM     68  F   UNL A   1      40.352  28.074  31.268  1.00  0.00    -0.203 F 
ATOM     69  F   UNL A   1      36.884  29.908  27.475  1.00  0.00    -0.200 F 
ATOM     70  C   UNL A   1      37.284  29.155  29.676  1.00  0.00     0.200 A 
ATOM     71  F   UNL A   1      37.734  28.406  31.870  1.00  0.00    -0.200 F 
ATOM     72  F   UNL A   1      35.994  29.339  29.989  1.00  0.00    -0.200 F 
ENDBRANCH  48  62
BRANCH  49  73
ATOM     73  C   UNL A   1      49.418  26.775  26.409  1.00  0.00     0.064 A 
ATOM     74  C   UNL A   1      49.811  26.922  25.072  1.00  0.00     0.173 A 
ATOM     75  C   UNL A   1      50.382  26.346  27.331  1.00  0.00     0.173 A 
ATOM     76  F   UNL A   1      48.918  27.310  24.150  1.00  0.00    -0.203 F 
ATOM     77  C   UNL A   1      51.112  26.626  24.668  1.00  0.00     0.198 A 
ATOM     78  C   UNL A   1      51.690  26.078  26.931  1.00  0.00     0.198 A 
ATOM     79  F   UNL A   1      50.058  26.194  28.623  1.00  0.00    -0.203 F 
ATOM     80  F   UNL A   1      51.448  26.727  23.375  1.00  0.00    -0.200 F 
ATOM     81  C   UNL A   1      52.052  26.209  25.598  1.00  0.00     0.200 A 
ATOM     82  F   UNL A   1      52.599  25.687  27.835  1.00  0.00    -0.200 F 
ATOM     83  F   UNL A   1      53.301  25.924  25.210  1.00  0.00    -0.200 F 
ENDBRANCH  49  73
BRANCH  61  84
ATOM     84  C   UNL A   1      46.168  32.481  28.731  1.00  0.00     0.064 A 
ATOM     85  C   UNL A   1      46.142  33.495  27.764  1.00  0.00     0.173 A 
ATOM     86  C   UNL A   1      46.621  32.809  30.018  1.00  0.00     0.173 A 
ATOM     87  F   UNL A   1      45.732  33.227  26.515  1.00  0.00    -0.203 F 
ATOM     88  C   UNL A   1      46.575  34.782  28.067  1.00  0.00     0.198 A 
ATOM     89  C   UNL A   1      47.026  34.105  30.326  1.00  0.00     0.198 A 
ATOM     90  F   UNL A   1      46.659  31.875  30.981  1.00  0.00    -0.203 F 
ATOM     91  F   UNL A   1      46.585  35.725  27.115  1.00  0.00    -0.200 F 
ATOM     92  C   UNL A   1      47.009  35.089  29.349  1.00  0.00     0.200 A 
ATOM     93  F   UNL A   1      47.432  34.401  31.568  1.00  0.00    -0.200 F 
ATOM     94  F   UNL A   1      47.419  36.330  29.641  1.00  0.00    -0.200 F 
ENDBRANCH  61  84
ENDBRANCH  35  36
ENDBRANCH  27  30
ENDBRANCH  25  26
ENDBRANCH  24  25
ENDBRANCH   1  24
TORSDOF 13
ENDMDL
