MODEL 1
REMARK VINA RESULT:     -11.2      0.000      0.000
REMARK SMILES C[NH+](C)CC(C)(C)CNC(=O)NCC(=O)NCCCNC(=O)c1ccc(-c2c3nc(c(-c4c(F)c(F)c(F)c(F)c4F)c4ccc([nH]4)c(-c4c(F)c(F)c(F)c(F)c4F)c4nc(c(-c5c(F)c(F)c(F)c(F)c5F)c5ccc2[nH]5)C=C4)C=C3)cc1
REMARK SMILES IDX 14 1 15 2 16 3 13 5 12 6 9 7 10 8 11 10 8 12 5 13 6 14 7 15
REMARK SMILES IDX 4 16 2 17 1 18 3 19 17 21 18 22 19 23 20 24 21 25 22 27
REMARK SMILES IDX 23 28 24 29 85 30 25 31 84 32 26 33 27 34 28 35 78 36 29 37
REMARK SMILES IDX 83 38 77 39 79 40 30 41 82 42 76 43 75 44 31 46 63 47 43 48
REMARK SMILES IDX 62 49 44 50 47 51 61 52 80 53 45 54 46 55 60 57 81 58 48 59
REMARK SMILES IDX 32 60 33 61 41 62 34 63 35 64 39 65 42 66 36 67 37 68 40 69
REMARK SMILES IDX 38 70 64 71 65 72 73 73 66 74 67 75 71 76 74 77 68 78 69 79
REMARK SMILES IDX 72 80 70 81 49 82 50 83 58 84 51 85 52 86 56 87 59 88 53 89
REMARK SMILES IDX 54 90 57 91 55 92
REMARK H PARENT 16 4 9 9 12 11 2 20 20 26 79 45 47 56
REMARK Flexibility Score: inf
ROOT
ATOM      1  C   UNL A   1      34.022  29.285  26.933  1.00  0.00     0.239 C 
ATOM      2  O   UNL A   1      35.167  29.231  27.389  1.00  0.00    -0.273 OA
ATOM      3  N   UNL A   1      33.290  30.400  27.197  1.00  0.00    -0.355 N 
ATOM      4  H   UNL A   1      33.748  31.098  27.716  1.00  0.00     0.163 HD
ENDROOT
BRANCH   1   5
ATOM      5  C   UNL A   1      33.526  28.244  25.930  1.00  0.00     0.217 C 
BRANCH   5   6
ATOM      6  N   UNL A   1      34.030  28.330  24.564  1.00  0.00    -0.329 N 
ATOM      7  N   UNL A   1      32.378  29.251  23.122  1.00  0.00    -0.337 N 
ATOM      8  C   UNL A   1      33.606  28.797  23.388  1.00  0.00     0.315 C 
ATOM      9  H   UNL A   1      32.330  29.709  22.252  1.00  0.00     0.165 HD
ATOM     10  O   UNL A   1      34.419  28.795  22.460  1.00  0.00    -0.249 OA
ATOM     11  H   UNL A   1      34.929  27.936  24.489  1.00  0.00     0.165 HD
BRANCH   7  12
ATOM     12  C   UNL A   1      31.096  29.231  23.805  1.00  0.00     0.130 C 
BRANCH  12  13
ATOM     13  C   UNL A   1      30.082  28.183  23.288  1.00  0.00     0.031 C 
ATOM     14  C   UNL A   1      29.891  27.132  24.405  1.00  0.00     0.019 C 
ATOM     15  C   UNL A   1      30.702  27.427  22.083  1.00  0.00     0.019 C 
BRANCH  13  16
ATOM     16  C   UNL A   1      28.721  28.775  22.792  1.00  0.00     0.269 C 
BRANCH  16  17
ATOM     17  N   UNL A   1      28.474  30.184  22.481  1.00  0.00    -0.339 N 
ATOM     18  C   UNL A   1      28.071  30.498  21.124  1.00  0.00     0.332 C 
ATOM     19  C   UNL A   1      27.673  30.890  23.465  1.00  0.00     0.332 C 
ATOM     20  H   UNL A   1      29.420  30.558  22.546  1.00  0.00     0.347 HD
ENDBRANCH  16  17
ENDBRANCH  13  16
ENDBRANCH  12  13
ENDBRANCH   7  12
ENDBRANCH   5   6
ENDBRANCH   1   5
BRANCH   3  21
ATOM     21  C   UNL A   1      31.927  30.697  26.816  1.00  0.00     0.117 C 
BRANCH  21  22
ATOM     22  C   UNL A   1      31.643  32.190  26.890  1.00  0.00     0.042 C 
BRANCH  22  23
ATOM     23  C   UNL A   1      32.889  32.994  27.220  1.00  0.00     0.118 C 
BRANCH  23  24
ATOM     24  N   UNL A   1      32.569  34.349  27.649  1.00  0.00    -0.352 N 
ATOM     25  C   UNL A   1      33.035  35.044  28.733  1.00  0.00     0.251 C 
ATOM     26  H   UNL A   1      31.927  34.833  27.080  1.00  0.00     0.163 HD
ATOM     27  O   UNL A   1      32.500  36.085  29.082  1.00  0.00    -0.269 OA
BRANCH  25  28
ATOM     28  C   UNL A   1      34.189  34.506  29.477  1.00  0.00     0.039 A 
ATOM     29  C   UNL A   1      33.969  33.864  30.695  1.00  0.00     0.014 A 
ATOM     30  C   UNL A   1      35.479  34.626  28.952  1.00  0.00     0.014 A 
ATOM     31  C   UNL A   1      35.047  33.292  31.367  1.00  0.00     0.010 A 
ATOM     32  C   UNL A   1      36.533  33.974  29.573  1.00  0.00     0.010 A 
ATOM     33  C   UNL A   1      36.330  33.315  30.794  1.00  0.00    -0.014 A 
BRANCH  33  34
ATOM     34  C   UNL A   1      37.483  32.672  31.465  1.00  0.00     0.031 A 
ATOM     35  C   UNL A   1      38.191  31.529  30.796  1.00  0.00     0.074 A 
ATOM     36  C   UNL A   1      37.842  33.077  32.697  1.00  0.00     0.049 A 
ATOM     37  N   UNL A   1      39.174  30.789  31.243  1.00  0.00    -0.248 NA
ATOM     38  C   UNL A   1      37.712  31.144  29.459  1.00  0.00     0.031 C 
ATOM     39  C   UNL A   1      37.190  34.143  33.461  1.00  0.00     0.029 A 
ATOM     40  N   UNL A   1      38.838  32.634  33.528  1.00  0.00    -0.354 N 
ATOM     41  C   UNL A   1      39.416  29.849  30.252  1.00  0.00     0.074 A 
ATOM     42  C   UNL A   1      38.439  30.065  29.209  1.00  0.00     0.031 C 
ATOM     43  C   UNL A   1      37.821  34.289  34.636  1.00  0.00     0.029 A 
ATOM     44  C   UNL A   1      38.890  33.301  34.727  1.00  0.00     0.049 A 
ATOM     45  H   UNL A   1      39.458  31.907  33.287  1.00  0.00     0.167 HD
ATOM     46  C   UNL A   1      40.386  28.906  30.206  1.00  0.00     0.037 A 
ATOM     47  C   UNL A   1      39.705  33.124  35.784  1.00  0.00     0.037 A 
ATOM     48  C   UNL A   1      41.365  28.712  31.242  1.00  0.00     0.049 A 
ATOM     49  C   UNL A   1      40.766  32.058  35.713  1.00  0.00     0.074 A 
ATOM     50  C   UNL A   1      42.427  27.827  31.270  1.00  0.00     0.029 A 
ATOM     51  N   UNL A   1      41.397  29.415  32.439  1.00  0.00    -0.354 N 
ATOM     52  N   UNL A   1      41.036  31.222  34.739  1.00  0.00    -0.248 NA
ATOM     53  C   UNL A   1      41.637  31.915  36.886  1.00  0.00     0.031 C 
ATOM     54  C   UNL A   1      43.065  27.952  32.508  1.00  0.00     0.029 A 
ATOM     55  C   UNL A   1      42.443  28.962  33.225  1.00  0.00     0.049 A 
ATOM     56  H   UNL A   1      40.768  30.130  32.690  1.00  0.00     0.167 HD
ATOM     57  C   UNL A   1      42.127  30.478  35.167  1.00  0.00     0.074 A 
ATOM     58  C   UNL A   1      42.476  30.972  36.483  1.00  0.00     0.031 C 
ATOM     59  C   UNL A   1      42.780  29.474  34.529  1.00  0.00     0.037 A 
BRANCH  46  60
ATOM     60  C   UNL A   1      40.433  28.014  28.998  1.00  0.00     0.064 A 
ATOM     61  C   UNL A   1      39.720  26.806  28.942  1.00  0.00     0.173 A 
ATOM     62  C   UNL A   1      41.180  28.385  27.869  1.00  0.00     0.173 A 
ATOM     63  F   UNL A   1      39.001  26.396  29.997  1.00  0.00    -0.203 F 
ATOM     64  C   UNL A   1      39.779  25.989  27.815  1.00  0.00     0.198 A 
ATOM     65  C   UNL A   1      41.208  27.582  26.731  1.00  0.00     0.198 A 
ATOM     66  F   UNL A   1      41.878  29.531  27.866  1.00  0.00    -0.203 F 
ATOM     67  F   UNL A   1      39.135  24.813  27.810  1.00  0.00    -0.200 F 
ATOM     68  C   UNL A   1      40.516  26.381  26.709  1.00  0.00     0.200 A 
ATOM     69  F   UNL A   1      41.908  27.970  25.657  1.00  0.00    -0.200 F 
ATOM     70  F   UNL A   1      40.564  25.598  25.622  1.00  0.00    -0.200 F 
ENDBRANCH  46  60
BRANCH  47  71
ATOM     71  C   UNL A   1      39.564  33.988  36.985  1.00  0.00     0.064 A 
ATOM     72  C   UNL A   1      38.815  33.565  38.092  1.00  0.00     0.173 A 
ATOM     73  C   UNL A   1      40.170  35.250  37.053  1.00  0.00     0.173 A 
ATOM     74  F   UNL A   1      38.201  32.372  38.070  1.00  0.00    -0.203 F 
ATOM     75  C   UNL A   1      38.655  34.382  39.210  1.00  0.00     0.198 A 
ATOM     76  C   UNL A   1      40.037  36.053  38.183  1.00  0.00     0.198 A 
ATOM     77  F   UNL A   1      40.904  35.700  36.024  1.00  0.00    -0.203 F 
ATOM     78  F   UNL A   1      37.891  33.975  40.231  1.00  0.00    -0.200 F 
ATOM     79  C   UNL A   1      39.271  35.623  39.257  1.00  0.00     0.200 A 
ATOM     80  F   UNL A   1      40.649  37.245  38.232  1.00  0.00    -0.200 F 
ATOM     81  F   UNL A   1      39.121  36.408  40.333  1.00  0.00    -0.200 F 
ENDBRANCH  47  71
BRANCH  59  82
ATOM     82  C   UNL A   1      43.967  28.873  35.226  1.00  0.00     0.064 A 
ATOM     83  C   UNL A   1      43.832  27.806  36.128  1.00  0.00     0.173 A 
ATOM     84  C   UNL A   1      45.260  29.342  34.951  1.00  0.00     0.173 A 
ATOM     85  F   UNL A   1      42.616  27.332  36.436  1.00  0.00    -0.203 F 
ATOM     86  C   UNL A   1      44.947  27.251  36.749  1.00  0.00     0.198 A 
ATOM     87  C   UNL A   1      46.376  28.760  35.546  1.00  0.00     0.198 A 
ATOM     88  F   UNL A   1      45.445  30.353  34.089  1.00  0.00    -0.203 F 
ATOM     89  F   UNL A   1      44.792  26.268  37.646  1.00  0.00    -0.200 F 
ATOM     90  C   UNL A   1      46.218  27.721  36.451  1.00  0.00     0.200 A 
ATOM     91  F   UNL A   1      47.603  29.203  35.241  1.00  0.00    -0.200 F 
ATOM     92  F   UNL A   1      47.291  27.177  37.041  1.00  0.00    -0.200 F 
ENDBRANCH  59  82
ENDBRANCH  33  34
ENDBRANCH  25  28
ENDBRANCH  23  24
ENDBRANCH  22  23
ENDBRANCH  21  22
ENDBRANCH   3  21
TORSDOF 15
ENDMDL
MODEL 2
REMARK VINA RESULT:     -11.1      6.728     11.895
REMARK SMILES C[NH+](C)CC(C)(C)CNC(=O)NCC(=O)NCCCNC(=O)c1ccc(-c2c3nc(c(-c4c(F)c(F)c(F)c(F)c4F)c4ccc([nH]4)c(-c4c(F)c(F)c(F)c(F)c4F)c4nc(c(-c5c(F)c(F)c(F)c(F)c5F)c5ccc2[nH]5)C=C4)C=C3)cc1
REMARK SMILES IDX 14 1 15 2 16 3 13 5 12 6 9 7 10 8 11 10 8 12 5 13 6 14 7 15
REMARK SMILES IDX 4 16 2 17 1 18 3 19 17 21 18 22 19 23 20 24 21 25 22 27
REMARK SMILES IDX 23 28 24 29 85 30 25 31 84 32 26 33 27 34 28 35 78 36 29 37
REMARK SMILES IDX 83 38 77 39 79 40 30 41 82 42 76 43 75 44 31 46 63 47 43 48
REMARK SMILES IDX 62 49 44 50 47 51 61 52 80 53 45 54 46 55 60 57 81 58 48 59
REMARK SMILES IDX 32 60 33 61 41 62 34 63 35 64 39 65 42 66 36 67 37 68 40 69
REMARK SMILES IDX 38 70 64 71 65 72 73 73 66 74 67 75 71 76 74 77 68 78 69 79
REMARK SMILES IDX 72 80 70 81 49 82 50 83 58 84 51 85 52 86 56 87 59 88 53 89
REMARK SMILES IDX 54 90 57 91 55 92
REMARK H PARENT 16 4 9 9 12 11 2 20 20 26 79 45 47 56
REMARK Flexibility Score: inf
ROOT
ATOM      1  C   UNL A   1      37.550  23.330  25.665  1.00  0.00     0.239 C 
ATOM      2  O   UNL A   1      38.225  24.218  26.192  1.00  0.00    -0.273 OA
ATOM      3  N   UNL A   1      38.164  22.146  25.398  1.00  0.00    -0.355 N 
ATOM      4  H   UNL A   1      39.105  22.081  25.676  1.00  0.00     0.163 HD
ENDROOT
BRANCH   1   5
ATOM      5  C   UNL A   1      36.036  23.475  25.520  1.00  0.00     0.217 C 
BRANCH   5   6
ATOM      6  N   UNL A   1      35.218  23.217  26.700  1.00  0.00    -0.329 N 
ATOM      7  N   UNL A   1      34.154  21.096  26.531  1.00  0.00    -0.337 N 
ATOM      8  C   UNL A   1      34.475  22.219  27.182  1.00  0.00     0.315 C 
ATOM      9  H   UNL A   1      33.753  20.422  27.126  1.00  0.00     0.165 HD
ATOM     10  O   UNL A   1      34.030  22.353  28.325  1.00  0.00    -0.249 OA
ATOM     11  H   UNL A   1      35.214  23.991  27.308  1.00  0.00     0.165 HD
BRANCH   7  12
ATOM     12  C   UNL A   1      34.254  20.630  25.159  1.00  0.00     0.130 C 
BRANCH  12  13
ATOM     13  C   UNL A   1      32.919  20.551  24.383  1.00  0.00     0.031 C 
ATOM     14  C   UNL A   1      32.999  21.561  23.216  1.00  0.00     0.019 C 
ATOM     15  C   UNL A   1      31.767  21.042  25.301  1.00  0.00     0.019 C 
BRANCH  13  16
ATOM     16  C   UNL A   1      32.523  19.116  23.899  1.00  0.00     0.269 C 
BRANCH  16  17
ATOM     17  N   UNL A   1      33.201  17.876  24.284  1.00  0.00    -0.339 N 
ATOM     18  C   UNL A   1      32.532  17.038  25.260  1.00  0.00     0.332 C 
ATOM     19  C   UNL A   1      33.730  17.106  23.174  1.00  0.00     0.332 C 
ATOM     20  H   UNL A   1      34.001  18.252  24.793  1.00  0.00     0.347 HD
ENDBRANCH  16  17
ENDBRANCH  13  16
ENDBRANCH  12  13
ENDBRANCH   7  12
ENDBRANCH   5   6
ENDBRANCH   1   5
BRANCH   3  21
ATOM     21  C   UNL A   1      37.618  20.969  24.760  1.00  0.00     0.117 C 
BRANCH  21  22
ATOM     22  C   UNL A   1      38.450  19.733  25.071  1.00  0.00     0.042 C 
BRANCH  22  23
ATOM     23  C   UNL A   1      39.509  20.005  26.126  1.00  0.00     0.118 C 
BRANCH  23  24
ATOM     24  N   UNL A   1      40.557  18.994  26.124  1.00  0.00    -0.352 N 
ATOM     25  C   UNL A   1      41.917  19.160  26.110  1.00  0.00     0.251 C 
ATOM     26  H   UNL A   1      40.244  18.060  26.135  1.00  0.00     0.163 HD
ATOM     27  O   UNL A   1      42.656  18.215  25.881  1.00  0.00    -0.269 OA
BRANCH  25  28
ATOM     28  C   UNL A   1      42.470  20.502  26.364  1.00  0.00     0.039 A 
ATOM     29  C   UNL A   1      42.911  21.269  25.286  1.00  0.00     0.014 A 
ATOM     30  C   UNL A   1      42.529  21.001  27.670  1.00  0.00     0.014 A 
ATOM     31  C   UNL A   1      43.368  22.565  25.515  1.00  0.00     0.010 A 
ATOM     32  C   UNL A   1      42.892  22.321  27.882  1.00  0.00     0.010 A 
ATOM     33  C   UNL A   1      43.331  23.110  26.809  1.00  0.00    -0.014 A 
BRANCH  33  34
ATOM     34  C   UNL A   1      43.765  24.501  27.069  1.00  0.00     0.031 A 
ATOM     35  C   UNL A   1      42.772  25.511  27.568  1.00  0.00     0.074 A 
ATOM     36  C   UNL A   1      45.033  24.861  26.794  1.00  0.00     0.049 A 
ATOM     37  N   UNL A   1      42.934  26.790  27.792  1.00  0.00    -0.248 NA
ATOM     38  C   UNL A   1      41.405  25.027  27.820  1.00  0.00     0.031 C 
ATOM     39  C   UNL A   1      46.067  23.975  26.256  1.00  0.00     0.029 A 
ATOM     40  N   UNL A   1      45.665  26.072  26.919  1.00  0.00    -0.354 N 
ATOM     41  C   UNL A   1      41.692  27.261  28.193  1.00  0.00     0.074 A 
ATOM     42  C   UNL A   1      40.770  26.149  28.121  1.00  0.00     0.031 C 
ATOM     43  C   UNL A   1      47.210  24.664  26.125  1.00  0.00     0.029 A 
ATOM     44  C   UNL A   1      46.980  26.047  26.524  1.00  0.00     0.049 A 
ATOM     45  H   UNL A   1      45.218  26.881  27.259  1.00  0.00     0.167 HD
ATOM     46  C   UNL A   1      41.358  28.504  28.611  1.00  0.00     0.037 A 
ATOM     47  C   UNL A   1      47.890  27.038  26.481  1.00  0.00     0.037 A 
ATOM     48  C   UNL A   1      42.288  29.598  28.697  1.00  0.00     0.049 A 
ATOM     49  C   UNL A   1      47.489  28.415  26.937  1.00  0.00     0.074 A 
ATOM     50  C   UNL A   1      42.070  30.882  29.163  1.00  0.00     0.029 A 
ATOM     51  N   UNL A   1      43.618  29.534  28.302  1.00  0.00    -0.354 N 
ATOM     52  N   UNL A   1      46.331  28.834  27.388  1.00  0.00    -0.248 NA
ATOM     53  C   UNL A   1      48.524  29.456  26.884  1.00  0.00     0.031 C 
ATOM     54  C   UNL A   1      43.250  31.612  28.993  1.00  0.00     0.029 A 
ATOM     55  C   UNL A   1      44.224  30.766  28.485  1.00  0.00     0.049 A 
ATOM     56  H   UNL A   1      44.063  28.733  27.944  1.00  0.00     0.167 HD
ATOM     57  C   UNL A   1      46.505  30.174  27.701  1.00  0.00     0.074 A 
ATOM     58  C   UNL A   1      47.886  30.495  27.403  1.00  0.00     0.031 C 
ATOM     59  C   UNL A   1      45.603  31.062  28.190  1.00  0.00     0.037 A 
BRANCH  46  60
ATOM     60  C   UNL A   1      39.928  28.745  29.005  1.00  0.00     0.064 A 
ATOM     61  C   UNL A   1      39.486  28.571  30.327  1.00  0.00     0.173 A 
ATOM     62  C   UNL A   1      38.992  29.183  28.056  1.00  0.00     0.173 A 
ATOM     63  F   UNL A   1      40.335  28.141  31.272  1.00  0.00    -0.203 F 
ATOM     64  C   UNL A   1      38.156  28.794  30.675  1.00  0.00     0.198 A 
ATOM     65  C   UNL A   1      37.672  29.440  28.415  1.00  0.00     0.198 A 
ATOM     66  F   UNL A   1      39.360  29.370  26.779  1.00  0.00    -0.203 F 
ATOM     67  F   UNL A   1      37.747  28.565  31.930  1.00  0.00    -0.200 F 
ATOM     68  C   UNL A   1      37.253  29.236  29.721  1.00  0.00     0.200 A 
ATOM     69  F   UNL A   1      36.803  29.881  27.496  1.00  0.00    -0.200 F 
ATOM     70  F   UNL A   1      35.975  29.459  30.059  1.00  0.00    -0.200 F 
ENDBRANCH  46  60
BRANCH  47  71
ATOM     71  C   UNL A   1      49.273  26.757  26.011  1.00  0.00     0.064 A 
ATOM     72  C   UNL A   1      50.247  26.266  26.891  1.00  0.00     0.173 A 
ATOM     73  C   UNL A   1      49.649  26.975  24.677  1.00  0.00     0.173 A 
ATOM     74  F   UNL A   1      49.941  26.057  28.180  1.00  0.00    -0.203 F 
ATOM     75  C   UNL A   1      51.551  26.028  26.462  1.00  0.00     0.198 A 
ATOM     76  C   UNL A   1      50.945  26.706  24.242  1.00  0.00     0.198 A 
ATOM     77  F   UNL A   1      48.753  27.437  23.793  1.00  0.00    -0.203 F 
ATOM     78  F   UNL A   1      52.476  25.609  27.336  1.00  0.00    -0.200 F 
ATOM     79  C   UNL A   1      51.898  26.243  25.137  1.00  0.00     0.200 A 
ATOM     80  F   UNL A   1      51.271  26.898  22.956  1.00  0.00    -0.200 F 
ATOM     81  F   UNL A   1      53.151  26.011  24.723  1.00  0.00    -0.200 F 
ENDBRANCH  47  71
BRANCH  59  82
ATOM     82  C   UNL A   1      46.092  32.453  28.477  1.00  0.00     0.064 A 
ATOM     83  C   UNL A   1      45.996  33.481  27.526  1.00  0.00     0.173 A 
ATOM     84  C   UNL A   1      46.621  32.771  29.737  1.00  0.00     0.173 A 
ATOM     85  F   UNL A   1      45.512  33.225  26.302  1.00  0.00    -0.203 F 
ATOM     86  C   UNL A   1      46.437  34.768  27.818  1.00  0.00     0.198 A 
ATOM     87  C   UNL A   1      47.027  34.067  30.038  1.00  0.00     0.198 A 
ATOM     88  F   UNL A   1      46.725  31.827  30.685  1.00  0.00    -0.203 F 
ATOM     89  F   UNL A   1      46.385  35.722  26.879  1.00  0.00    -0.200 F 
ATOM     90  C   UNL A   1      46.944  35.063  29.076  1.00  0.00     0.200 A 
ATOM     91  F   UNL A   1      47.498  34.354  31.259  1.00  0.00    -0.200 F 
ATOM     92  F   UNL A   1      47.357  36.305  29.359  1.00  0.00    -0.200 F 
ENDBRANCH  59  82
ENDBRANCH  33  34
ENDBRANCH  25  28
ENDBRANCH  23  24
ENDBRANCH  22  23
ENDBRANCH  21  22
ENDBRANCH   3  21
TORSDOF 15
ENDMDL
MODEL 3
REMARK VINA RESULT:     -11.1      0.880      2.256
REMARK SMILES C[NH+](C)CC(C)(C)CNC(=O)NCC(=O)NCCCNC(=O)c1ccc(-c2c3nc(c(-c4c(F)c(F)c(F)c(F)c4F)c4ccc([nH]4)c(-c4c(F)c(F)c(F)c(F)c4F)c4nc(c(-c5c(F)c(F)c(F)c(F)c5F)c5ccc2[nH]5)C=C4)C=C3)cc1
REMARK SMILES IDX 14 1 15 2 16 3 13 5 12 6 9 7 10 8 11 10 8 12 5 13 6 14 7 15
REMARK SMILES IDX 4 16 2 17 1 18 3 19 17 21 18 22 19 23 20 24 21 25 22 27
REMARK SMILES IDX 23 28 24 29 85 30 25 31 84 32 26 33 27 34 28 35 78 36 29 37
REMARK SMILES IDX 83 38 77 39 79 40 30 41 82 42 76 43 75 44 31 46 63 47 43 48
REMARK SMILES IDX 62 49 44 50 47 51 61 52 80 53 45 54 46 55 60 57 81 58 48 59
REMARK SMILES IDX 32 60 33 61 41 62 34 63 35 64 39 65 42 66 36 67 37 68 40 69
REMARK SMILES IDX 38 70 64 71 65 72 73 73 66 74 67 75 71 76 74 77 68 78 69 79
REMARK SMILES IDX 72 80 70 81 49 82 50 83 58 84 51 85 52 86 56 87 59 88 53 89
REMARK SMILES IDX 54 90 57 91 55 92
REMARK H PARENT 16 4 9 9 12 11 2 20 20 26 79 45 47 56
REMARK Flexibility Score: inf
ROOT
ATOM      1  C   UNL A   1      33.988  29.240  27.266  1.00  0.00     0.239 C 
ATOM      2  O   UNL A   1      35.053  29.186  27.887  1.00  0.00    -0.273 OA
ATOM      3  N   UNL A   1      33.218  30.349  27.429  1.00  0.00    -0.355 N 
ATOM      4  H   UNL A   1      33.590  31.044  28.017  1.00  0.00     0.163 HD
ENDROOT
BRANCH   1   5
ATOM      5  C   UNL A   1      33.652  28.206  26.192  1.00  0.00     0.217 C 
BRANCH   5   6
ATOM      6  N   UNL A   1      32.843  27.059  26.589  1.00  0.00    -0.329 N 
ATOM      7  N   UNL A   1      30.858  26.946  25.285  1.00  0.00    -0.337 N 
ATOM      8  C   UNL A   1      31.712  26.471  26.196  1.00  0.00     0.315 C 
ATOM      9  H   UNL A   1      30.187  26.277  25.018  1.00  0.00     0.165 HD
ATOM     10  O   UNL A   1      31.422  25.400  26.736  1.00  0.00    -0.249 OA
ATOM     11  H   UNL A   1      33.241  26.591  27.358  1.00  0.00     0.165 HD
BRANCH   7  12
ATOM     12  C   UNL A   1      30.678  28.211  24.594  1.00  0.00     0.130 C 
BRANCH  12  13
ATOM     13  C   UNL A   1      30.012  28.121  23.201  1.00  0.00     0.031 C 
ATOM     14  C   UNL A   1      28.666  27.382  23.376  1.00  0.00     0.019 C 
ATOM     15  C   UNL A   1      30.881  27.224  22.279  1.00  0.00     0.019 C 
BRANCH  13  16
ATOM     16  C   UNL A   1      29.845  29.491  22.463  1.00  0.00     0.269 C 
BRANCH  16  17
ATOM     17  N   UNL A   1      28.647  30.332  22.502  1.00  0.00    -0.339 N 
ATOM     18  C   UNL A   1      28.689  31.497  23.363  1.00  0.00     0.332 C 
ATOM     19  C   UNL A   1      28.078  30.635  21.201  1.00  0.00     0.332 C 
ATOM     20  H   UNL A   1      27.994  29.706  22.972  1.00  0.00     0.347 HD
ENDBRANCH  16  17
ENDBRANCH  13  16
ENDBRANCH  12  13
ENDBRANCH   7  12
ENDBRANCH   5   6
ENDBRANCH   1   5
BRANCH   3  21
ATOM     21  C   UNL A   1      31.925  30.643  26.854  1.00  0.00     0.117 C 
BRANCH  21  22
ATOM     22  C   UNL A   1      31.627  32.135  26.893  1.00  0.00     0.042 C 
BRANCH  22  23
ATOM     23  C   UNL A   1      32.871  32.960  27.176  1.00  0.00     0.118 C 
BRANCH  23  24
ATOM     24  N   UNL A   1      32.544  34.313  27.606  1.00  0.00    -0.352 N 
ATOM     25  C   UNL A   1      33.005  35.008  28.693  1.00  0.00     0.251 C 
ATOM     26  H   UNL A   1      31.903  34.796  27.035  1.00  0.00     0.163 HD
ATOM     27  O   UNL A   1      32.464  36.047  29.042  1.00  0.00    -0.269 OA
BRANCH  25  28
ATOM     28  C   UNL A   1      34.157  34.473  29.440  1.00  0.00     0.039 A 
ATOM     29  C   UNL A   1      33.934  33.812  30.648  1.00  0.00     0.014 A 
ATOM     30  C   UNL A   1      35.451  34.613  28.929  1.00  0.00     0.014 A 
ATOM     31  C   UNL A   1      35.012  33.243  31.321  1.00  0.00     0.010 A 
ATOM     32  C   UNL A   1      36.506  33.964  29.550  1.00  0.00     0.010 A 
ATOM     33  C   UNL A   1      36.299  33.287  30.761  1.00  0.00    -0.014 A 
BRANCH  33  34
ATOM     34  C   UNL A   1      37.453  32.647  31.434  1.00  0.00     0.031 A 
ATOM     35  C   UNL A   1      38.164  31.505  30.768  1.00  0.00     0.074 A 
ATOM     36  C   UNL A   1      37.810  33.056  32.666  1.00  0.00     0.049 A 
ATOM     37  N   UNL A   1      39.148  30.768  31.217  1.00  0.00    -0.248 NA
ATOM     38  C   UNL A   1      37.687  31.117  29.430  1.00  0.00     0.031 C 
ATOM     39  C   UNL A   1      37.155  34.121  33.427  1.00  0.00     0.029 A 
ATOM     40  N   UNL A   1      38.807  32.616  33.498  1.00  0.00    -0.354 N 
ATOM     41  C   UNL A   1      39.393  29.826  30.228  1.00  0.00     0.074 A 
ATOM     42  C   UNL A   1      38.416  30.039  29.184  1.00  0.00     0.031 C 
ATOM     43  C   UNL A   1      37.785  34.271  34.602  1.00  0.00     0.029 A 
ATOM     44  C   UNL A   1      38.856  33.286  34.696  1.00  0.00     0.049 A 
ATOM     45  H   UNL A   1      39.428  31.890  33.259  1.00  0.00     0.167 HD
ATOM     46  C   UNL A   1      40.365  28.885  30.184  1.00  0.00     0.037 A 
ATOM     47  C   UNL A   1      39.671  33.111  35.754  1.00  0.00     0.037 A 
ATOM     48  C   UNL A   1      41.344  28.695  31.221  1.00  0.00     0.049 A 
ATOM     49  C   UNL A   1      40.733  32.047  35.685  1.00  0.00     0.074 A 
ATOM     50  C   UNL A   1      42.407  27.812  31.252  1.00  0.00     0.029 A 
ATOM     51  N   UNL A   1      41.373  29.401  32.416  1.00  0.00    -0.354 N 
ATOM     52  N   UNL A   1      41.007  31.211  34.713  1.00  0.00    -0.248 NA
ATOM     53  C   UNL A   1      41.604  31.908  36.860  1.00  0.00     0.031 C 
ATOM     54  C   UNL A   1      43.044  27.940  32.490  1.00  0.00     0.029 A 
ATOM     55  C   UNL A   1      42.419  28.951  33.205  1.00  0.00     0.049 A 
ATOM     56  H   UNL A   1      40.742  30.114  32.666  1.00  0.00     0.167 HD
ATOM     57  C   UNL A   1      42.098  30.469  35.144  1.00  0.00     0.074 A 
ATOM     58  C   UNL A   1      42.446  30.966  36.459  1.00  0.00     0.031 C 
ATOM     59  C   UNL A   1      42.754  29.466  34.508  1.00  0.00     0.037 A 
BRANCH  46  60
ATOM     60  C   UNL A   1      40.415  27.991  28.977  1.00  0.00     0.064 A 
ATOM     61  C   UNL A   1      41.217  28.295  27.865  1.00  0.00     0.173 A 
ATOM     62  C   UNL A   1      39.673  26.801  28.941  1.00  0.00     0.173 A 
ATOM     63  F   UNL A   1      41.936  29.427  27.840  1.00  0.00    -0.203 F 
ATOM     64  C   UNL A   1      41.248  27.459  26.752  1.00  0.00     0.198 A 
ATOM     65  C   UNL A   1      39.734  25.949  27.842  1.00  0.00     0.198 A 
ATOM     66  F   UNL A   1      38.892  26.459  29.978  1.00  0.00    -0.203 F 
ATOM     67  F   UNL A   1      41.976  27.800  25.681  1.00  0.00    -0.200 F 
ATOM     68  C   UNL A   1      40.514  26.283  26.745  1.00  0.00     0.200 A 
ATOM     69  F   UNL A   1      39.036  24.806  27.842  1.00  0.00    -0.200 F 
ATOM     70  F   UNL A   1      40.551  25.474  25.676  1.00  0.00    -0.200 F 
ENDBRANCH  46  60
BRANCH  47  71
ATOM     71  C   UNL A   1      39.527  33.977  36.954  1.00  0.00     0.064 A 
ATOM     72  C   UNL A   1      40.151  35.231  37.016  1.00  0.00     0.173 A 
ATOM     73  C   UNL A   1      38.767  33.572  38.061  1.00  0.00     0.173 A 
ATOM     74  F   UNL A   1      40.902  35.657  35.990  1.00  0.00    -0.203 F 
ATOM     75  C   UNL A   1      40.043  36.034  38.150  1.00  0.00     0.198 A 
ATOM     76  C   UNL A   1      38.633  34.389  39.180  1.00  0.00     0.198 A 
ATOM     77  F   UNL A   1      38.143  32.385  38.049  1.00  0.00    -0.203 F 
ATOM     78  F   UNL A   1      40.693  37.204  38.203  1.00  0.00    -0.200 F 
ATOM     79  C   UNL A   1      39.280  35.616  39.229  1.00  0.00     0.200 A 
ATOM     80  F   UNL A   1      37.880  33.989  40.214  1.00  0.00    -0.200 F 
ATOM     81  F   UNL A   1      39.173  36.390  40.317  1.00  0.00    -0.200 F 
ENDBRANCH  47  71
BRANCH  59  82
ATOM     82  C   UNL A   1      43.941  28.868  35.207  1.00  0.00     0.064 A 
ATOM     83  C   UNL A   1      45.239  29.369  35.020  1.00  0.00     0.173 A 
ATOM     84  C   UNL A   1      43.769  27.810  36.112  1.00  0.00     0.173 A 
ATOM     85  F   UNL A   1      45.458  30.369  34.154  1.00  0.00    -0.203 F 
ATOM     86  C   UNL A   1      46.323  28.812  35.692  1.00  0.00     0.198 A 
ATOM     87  C   UNL A   1      44.851  27.280  36.810  1.00  0.00     0.198 A 
ATOM     88  F   UNL A   1      42.548  27.301  36.335  1.00  0.00    -0.203 F 
ATOM     89  F   UNL A   1      47.560  29.271  35.459  1.00  0.00    -0.200 F 
ATOM     90  C   UNL A   1      46.128  27.776  36.594  1.00  0.00     0.200 A 
ATOM     91  F   UNL A   1      44.657  26.292  37.694  1.00  0.00    -0.200 F 
ATOM     92  F   UNL A   1      47.172  27.250  37.248  1.00  0.00    -0.200 F 
ENDBRANCH  59  82
ENDBRANCH  33  34
ENDBRANCH  25  28
ENDBRANCH  23  24
ENDBRANCH  22  23
ENDBRANCH  21  22
ENDBRANCH   3  21
TORSDOF 15
ENDMDL
