MODEL 1
REMARK VINA RESULT:     -12.7      0.000      0.000
REMARK SMILES O=C(NCCCNC(=O)c1cn(C[C@@H]2CCS(=O)(=O)C2)c(=O)[nH]c1=O)c1ccc(-c2c3nc(c(-c4c(F)c(F)c(F)c(F)c4F)c4ccc([nH]4)c(-c4c(F)c(F)c(F)c(F)c4F)c4nc(c(-c5c(F)c(F)c(F)c(F)c5F)c5ccc2[nH]5)C=C4)C=C3)cc1
REMARK SMILES IDX 5 1 4 2 3 3 1 4 2 5 26 7 27 8 88 9 28 10 87 11 29 12 30 13
REMARK SMILES IDX 31 14 81 15 32 16 86 17 80 18 82 19 33 20 85 21 79 22 78 23
REMARK SMILES IDX 34 25 66 26 46 27 65 28 47 29 50 30 64 31 83 32 48 33 49 34
REMARK SMILES IDX 63 36 84 37 51 38 35 39 36 40 44 41 37 42 38 43 42 44 45 45
REMARK SMILES IDX 39 46 40 47 43 48 41 49 67 50 68 51 76 52 69 53 70 54 74 55
REMARK SMILES IDX 77 56 71 57 72 58 75 59 73 60 52 61 53 62 61 63 54 64 55 65
REMARK SMILES IDX 59 66 62 67 56 68 57 69 60 70 58 71 6 72 7 73 8 74 9 76
REMARK SMILES IDX 10 77 11 78 24 79 12 80 23 81 25 82 21 83 22 85 13 86 14 87
REMARK SMILES IDX 15 88 20 89 16 90 17 91 18 92 19 93
REMARK H PARENT 3 6 82 24 50 35 7 75 23 84
REMARK Flexibility Score: inf
ROOT
ATOM      1  C   UNL A   1      33.258  29.097  24.994  1.00  0.00     0.042 C 
ENDROOT
BRANCH   1   2
ATOM      2  C   UNL A   1      32.563  29.454  26.297  1.00  0.00     0.118 C 
BRANCH   2   3
ATOM      3  N   UNL A   1      32.491  30.894  26.506  1.00  0.00    -0.352 N 
ATOM      4  O   UNL A   1      32.869  32.879  27.476  1.00  0.00    -0.269 OA
ATOM      5  C   UNL A   1      33.268  31.739  27.255  1.00  0.00     0.251 C 
ATOM      6  H   UNL A   1      31.755  31.339  26.025  1.00  0.00     0.163 HD
BRANCH   5   7
ATOM      7  C   UNL A   1      34.574  31.302  27.793  1.00  0.00     0.039 A 
ATOM      8  C   UNL A   1      34.728  29.970  28.190  1.00  0.00     0.014 A 
ATOM      9  C   UNL A   1      35.619  32.206  27.991  1.00  0.00     0.014 A 
ATOM     10  C   UNL A   1      35.924  29.553  28.776  1.00  0.00     0.010 A 
ATOM     11  C   UNL A   1      36.852  31.763  28.453  1.00  0.00     0.010 A 
ATOM     12  C   UNL A   1      36.998  30.448  28.908  1.00  0.00    -0.014 A 
BRANCH  12  13
ATOM     13  C   UNL A   1      38.236  30.061  29.628  1.00  0.00     0.031 A 
ATOM     14  C   UNL A   1      38.458  30.550  31.037  1.00  0.00     0.074 A 
ATOM     15  C   UNL A   1      39.160  29.292  29.024  1.00  0.00     0.049 A 
ATOM     16  N   UNL A   1      39.476  30.345  31.834  1.00  0.00    -0.248 NA
ATOM     17  C   UNL A   1      37.412  31.409  31.618  1.00  0.00     0.031 C 
ATOM     18  C   UNL A   1      39.074  28.792  27.653  1.00  0.00     0.029 A 
ATOM     19  N   UNL A   1      40.350  28.793  29.489  1.00  0.00    -0.354 N 
ATOM     20  C   UNL A   1      39.197  31.062  32.991  1.00  0.00     0.074 A 
ATOM     21  C   UNL A   1      37.959  31.769  32.768  1.00  0.00     0.031 C 
ATOM     22  C   UNL A   1      40.143  28.020  27.401  1.00  0.00     0.029 A 
ATOM     23  C   UNL A   1      41.009  28.003  28.578  1.00  0.00     0.049 A 
ATOM     24  H   UNL A   1      40.699  28.981  30.390  1.00  0.00     0.167 HD
ATOM     25  C   UNL A   1      39.889  31.093  34.152  1.00  0.00     0.037 A 
ATOM     26  C   UNL A   1      42.176  27.341  28.684  1.00  0.00     0.037 A 
ATOM     27  C   UNL A   1      41.094  30.348  34.385  1.00  0.00     0.049 A 
ATOM     28  C   UNL A   1      42.941  27.403  29.978  1.00  0.00     0.074 A 
ATOM     29  C   UNL A   1      41.831  30.248  35.550  1.00  0.00     0.029 A 
ATOM     30  N   UNL A   1      41.737  29.572  33.431  1.00  0.00    -0.354 N 
ATOM     31  N   UNL A   1      42.629  28.019  31.092  1.00  0.00    -0.248 NA
ATOM     32  C   UNL A   1      44.219  26.680  30.032  1.00  0.00     0.031 C 
ATOM     33  C   UNL A   1      42.956  29.463  35.284  1.00  0.00     0.029 A 
ATOM     34  C   UNL A   1      42.889  29.024  33.970  1.00  0.00     0.049 A 
ATOM     35  H   UNL A   1      41.423  29.433  32.509  1.00  0.00     0.167 HD
ATOM     36  C   UNL A   1      43.659  27.751  31.982  1.00  0.00     0.074 A 
ATOM     37  C   UNL A   1      44.599  26.898  31.285  1.00  0.00     0.031 C 
ATOM     38  C   UNL A   1      43.814  28.177  33.260  1.00  0.00     0.037 A 
BRANCH  25  39
ATOM     39  C   UNL A   1      39.353  31.949  35.264  1.00  0.00     0.064 A 
ATOM     40  C   UNL A   1      38.518  31.424  36.263  1.00  0.00     0.173 A 
ATOM     41  C   UNL A   1      39.715  33.301  35.357  1.00  0.00     0.173 A 
ATOM     42  F   UNL A   1      38.132  30.140  36.215  1.00  0.00    -0.203 F 
ATOM     43  C   UNL A   1      38.040  32.228  37.294  1.00  0.00     0.198 A 
ATOM     44  C   UNL A   1      39.264  34.094  36.411  1.00  0.00     0.198 A 
ATOM     45  F   UNL A   1      40.516  33.853  34.434  1.00  0.00    -0.203 F 
ATOM     46  F   UNL A   1      37.201  31.717  38.205  1.00  0.00    -0.200 F 
ATOM     47  C   UNL A   1      38.422  33.559  37.374  1.00  0.00     0.200 A 
ATOM     48  F   UNL A   1      39.647  35.375  36.494  1.00  0.00    -0.200 F 
ATOM     49  F   UNL A   1      37.972  34.328  38.374  1.00  0.00    -0.200 F 
ENDBRANCH  25  39
BRANCH  26  50
ATOM     50  C   UNL A   1      42.658  26.531  27.534  1.00  0.00     0.064 A 
ATOM     51  C   UNL A   1      43.593  27.052  26.630  1.00  0.00     0.173 A 
ATOM     52  C   UNL A   1      42.242  25.204  27.351  1.00  0.00     0.173 A 
ATOM     53  F   UNL A   1      44.009  28.321  26.755  1.00  0.00    -0.203 F 
ATOM     54  C   UNL A   1      44.097  26.276  25.588  1.00  0.00     0.198 A 
ATOM     55  C   UNL A   1      42.766  24.421  26.324  1.00  0.00     0.198 A 
ATOM     56  F   UNL A   1      41.353  24.656  28.192  1.00  0.00    -0.203 F 
ATOM     57  F   UNL A   1      44.976  26.805  24.727  1.00  0.00    -0.200 F 
ATOM     58  C   UNL A   1      43.692  24.958  25.443  1.00  0.00     0.200 A 
ATOM     59  F   UNL A   1      42.387  23.141  26.199  1.00  0.00    -0.200 F 
ATOM     60  F   UNL A   1      44.195  24.205  24.456  1.00  0.00    -0.200 F 
ENDBRANCH  26  50
BRANCH  38  61
ATOM     61  C   UNL A   1      45.045  27.746  34.003  1.00  0.00     0.064 A 
ATOM     62  C   UNL A   1      45.083  26.532  34.701  1.00  0.00     0.173 A 
ATOM     63  C   UNL A   1      46.231  28.489  33.906  1.00  0.00     0.173 A 
ATOM     64  F   UNL A   1      43.971  25.791  34.829  1.00  0.00    -0.203 F 
ATOM     65  C   UNL A   1      46.266  26.076  35.276  1.00  0.00     0.198 A 
ATOM     66  C   UNL A   1      47.419  28.016  34.456  1.00  0.00     0.198 A 
ATOM     67  F   UNL A   1      46.249  29.653  33.239  1.00  0.00    -0.203 F 
ATOM     68  F   UNL A   1      46.276  24.919  35.954  1.00  0.00    -0.200 F 
ATOM     69  C   UNL A   1      47.435  26.809  35.139  1.00  0.00     0.200 A 
ATOM     70  F   UNL A   1      48.551  28.715  34.305  1.00  0.00    -0.200 F 
ATOM     71  F   UNL A   1      48.579  26.351  35.664  1.00  0.00    -0.200 F 
ENDBRANCH  38  61
ENDBRANCH  12  13
ENDBRANCH   5   7
ENDBRANCH   2   3
ENDBRANCH   1   2
BRANCH   1  72
ATOM     72  C   UNL A   1      33.603  27.623  24.881  1.00  0.00     0.118 C 
BRANCH  72  73
ATOM     73  N   UNL A   1      33.929  27.210  23.521  1.00  0.00    -0.352 N 
ATOM     74  C   UNL A   1      33.140  26.654  22.543  1.00  0.00     0.258 C 
ATOM     75  H   UNL A   1      34.867  27.353  23.260  1.00  0.00     0.163 HD
ATOM     76  O   UNL A   1      33.639  26.350  21.466  1.00  0.00    -0.269 OA
BRANCH  74  77
ATOM     77  C   UNL A   1      31.716  26.429  22.850  1.00  0.00     0.121 A 
ATOM     78  C   UNL A   1      30.815  27.352  22.484  1.00  0.00     0.110 A 
ATOM     79  C   UNL A   1      31.247  25.259  23.611  1.00  0.00     0.266 A 
ATOM     80  N   UNL A   1      29.524  27.362  22.979  1.00  0.00    -0.299 N 
ATOM     81  N   UNL A   1      29.943  25.315  24.025  1.00  0.00    -0.273 N 
ATOM     82  O   UNL A   1      31.973  24.325  23.934  1.00  0.00    -0.268 OA
ATOM     83  C   UNL A   1      29.085  26.365  23.846  1.00  0.00     0.328 A 
ATOM     84  H   UNL A   1      29.590  24.526  24.496  1.00  0.00     0.175 HD
ATOM     85  O   UNL A   1      28.002  26.392  24.426  1.00  0.00    -0.248 OA
BRANCH  80  86
ATOM     86  C   UNL A   1      28.685  28.535  22.749  1.00  0.00     0.131 C 
BRANCH  86  87
ATOM     87  C   UNL A   1      29.390  29.824  22.289  1.00  0.00     0.025 C 
ATOM     88  C   UNL A   1      30.271  30.513  23.341  1.00  0.00     0.022 C 
ATOM     89  C   UNL A   1      28.454  30.900  21.737  1.00  0.00     0.142 C 
ATOM     90  C   UNL A   1      29.421  31.479  24.159  1.00  0.00     0.137 C 
ATOM     91  S   UNL A   1      28.120  32.030  23.076  1.00  0.00     0.150 S 
ATOM     92  O   UNL A   1      26.841  31.684  23.665  1.00  0.00    -0.229 OA
ATOM     93  O   UNL A   1      28.420  33.371  22.627  1.00  0.00    -0.229 OA
ENDBRANCH  86  87
ENDBRANCH  80  86
ENDBRANCH  74  77
ENDBRANCH  72  73
ENDBRANCH   1  72
TORSDOF 12
ENDMDL
MODEL 2
REMARK VINA RESULT:     -12.7      2.056      3.803
REMARK SMILES O=C(NCCCNC(=O)c1cn(C[C@@H]2CCS(=O)(=O)C2)c(=O)[nH]c1=O)c1ccc(-c2c3nc(c(-c4c(F)c(F)c(F)c(F)c4F)c4ccc([nH]4)c(-c4c(F)c(F)c(F)c(F)c4F)c4nc(c(-c5c(F)c(F)c(F)c(F)c5F)c5ccc2[nH]5)C=C4)C=C3)cc1
REMARK SMILES IDX 5 1 4 2 3 3 1 4 2 5 26 7 27 8 88 9 28 10 87 11 29 12 30 13
REMARK SMILES IDX 31 14 81 15 32 16 86 17 80 18 82 19 33 20 85 21 79 22 78 23
REMARK SMILES IDX 34 25 66 26 46 27 65 28 47 29 50 30 64 31 83 32 48 33 49 34
REMARK SMILES IDX 63 36 84 37 51 38 35 39 36 40 44 41 37 42 38 43 42 44 45 45
REMARK SMILES IDX 39 46 40 47 43 48 41 49 67 50 68 51 76 52 69 53 70 54 74 55
REMARK SMILES IDX 77 56 71 57 72 58 75 59 73 60 52 61 53 62 61 63 54 64 55 65
REMARK SMILES IDX 59 66 62 67 56 68 57 69 60 70 58 71 6 72 7 73 8 74 9 76
REMARK SMILES IDX 10 77 11 78 24 79 12 80 23 81 25 82 21 83 22 85 13 86 14 87
REMARK SMILES IDX 15 88 20 89 16 90 17 91 18 92 19 93
REMARK H PARENT 3 6 82 24 50 35 7 75 23 84
REMARK Flexibility Score: inf
ROOT
ATOM      1  C   UNL A   1      31.972  28.756  25.388  1.00  0.00     0.042 C 
ENDROOT
BRANCH   1   2
ATOM      2  C   UNL A   1      33.269  29.466  25.740  1.00  0.00     0.118 C 
BRANCH   2   3
ATOM      3  N   UNL A   1      33.040  30.812  26.248  1.00  0.00    -0.352 N 
ATOM      4  O   UNL A   1      33.134  32.548  27.662  1.00  0.00    -0.269 OA
ATOM      5  C   UNL A   1      33.659  31.520  27.245  1.00  0.00     0.251 C 
ATOM      6  H   UNL A   1      32.314  31.300  25.795  1.00  0.00     0.163 HD
BRANCH   5   7
ATOM      7  C   UNL A   1      34.944  31.068  27.820  1.00  0.00     0.039 A 
ATOM      8  C   UNL A   1      35.050  29.753  28.284  1.00  0.00     0.014 A 
ATOM      9  C   UNL A   1      36.016  31.946  27.985  1.00  0.00     0.014 A 
ATOM     10  C   UNL A   1      36.226  29.328  28.904  1.00  0.00     0.010 A 
ATOM     11  C   UNL A   1      37.229  31.487  28.483  1.00  0.00     0.010 A 
ATOM     12  C   UNL A   1      37.328  30.192  29.004  1.00  0.00    -0.014 A 
BRANCH  12  13
ATOM     13  C   UNL A   1      38.545  29.802  29.757  1.00  0.00     0.031 A 
ATOM     14  C   UNL A   1      38.760  30.340  31.149  1.00  0.00     0.074 A 
ATOM     15  C   UNL A   1      39.456  28.986  29.198  1.00  0.00     0.049 A 
ATOM     16  N   UNL A   1      39.761  30.141  31.968  1.00  0.00    -0.248 NA
ATOM     17  C   UNL A   1      37.729  31.248  31.681  1.00  0.00     0.031 C 
ATOM     18  C   UNL A   1      39.375  28.434  27.846  1.00  0.00     0.029 A 
ATOM     19  N   UNL A   1      40.626  28.474  29.699  1.00  0.00    -0.354 N 
ATOM     20  C   UNL A   1      39.486  30.909  33.092  1.00  0.00     0.074 A 
ATOM     21  C   UNL A   1      38.270  31.639  32.823  1.00  0.00     0.031 C 
ATOM     22  C   UNL A   1      40.426  27.625  27.640  1.00  0.00     0.029 A 
ATOM     23  C   UNL A   1      41.275  27.632  28.830  1.00  0.00     0.049 A 
ATOM     24  H   UNL A   1      40.967  28.689  30.597  1.00  0.00     0.167 HD
ATOM     25  C   UNL A   1      40.162  30.968  34.261  1.00  0.00     0.037 A 
ATOM     26  C   UNL A   1      42.423  26.944  28.979  1.00  0.00     0.037 A 
ATOM     27  C   UNL A   1      41.343  30.201  34.541  1.00  0.00     0.049 A 
ATOM     28  C   UNL A   1      43.172  27.038  30.280  1.00  0.00     0.074 A 
ATOM     29  C   UNL A   1      42.062  30.128  35.720  1.00  0.00     0.029 A 
ATOM     30  N   UNL A   1      41.979  29.372  33.627  1.00  0.00    -0.354 N 
ATOM     31  N   UNL A   1      42.860  27.705  31.365  1.00  0.00    -0.248 NA
ATOM     32  C   UNL A   1      44.429  26.284  30.382  1.00  0.00     0.031 C 
ATOM     33  C   UNL A   1      43.168  29.305  35.502  1.00  0.00     0.029 A 
ATOM     34  C   UNL A   1      43.108  28.816  34.205  1.00  0.00     0.049 A 
ATOM     35  H   UNL A   1      41.673  29.205  32.707  1.00  0.00     0.167 HD
ATOM     36  C   UNL A   1      43.871  27.445  32.280  1.00  0.00     0.074 A 
ATOM     37  C   UNL A   1      44.797  26.541  31.631  1.00  0.00     0.031 C 
ATOM     38  C   UNL A   1      44.019  27.917  33.542  1.00  0.00     0.037 A 
BRANCH  25  39
ATOM     39  C   UNL A   1      39.634  31.881  35.331  1.00  0.00     0.064 A 
ATOM     40  C   UNL A   1      38.690  31.444  36.274  1.00  0.00     0.173 A 
ATOM     41  C   UNL A   1      40.111  33.196  35.442  1.00  0.00     0.173 A 
ATOM     42  F   UNL A   1      38.191  30.201  36.206  1.00  0.00    -0.203 F 
ATOM     43  C   UNL A   1      38.220  32.300  37.267  1.00  0.00     0.198 A 
ATOM     44  C   UNL A   1      39.666  34.037  36.460  1.00  0.00     0.198 A 
ATOM     45  F   UNL A   1      41.019  33.662  34.572  1.00  0.00    -0.203 F 
ATOM     46  F   UNL A   1      37.279  31.877  38.122  1.00  0.00    -0.200 F 
ATOM     47  C   UNL A   1      38.716  33.591  37.366  1.00  0.00     0.200 A 
ATOM     48  F   UNL A   1      40.157  35.279  36.563  1.00  0.00    -0.200 F 
ATOM     49  F   UNL A   1      38.272  34.409  38.331  1.00  0.00    -0.200 F 
ENDBRANCH  25  39
BRANCH  26  50
ATOM     50  C   UNL A   1      42.899  26.078  27.869  1.00  0.00     0.064 A 
ATOM     51  C   UNL A   1      42.440  24.760  27.738  1.00  0.00     0.173 A 
ATOM     52  C   UNL A   1      43.771  26.565  26.884  1.00  0.00     0.173 A 
ATOM     53  F   UNL A   1      41.618  24.244  28.663  1.00  0.00    -0.203 F 
ATOM     54  C   UNL A   1      42.833  23.965  26.663  1.00  0.00     0.198 A 
ATOM     55  C   UNL A   1      44.142  25.777  25.796  1.00  0.00     0.198 A 
ATOM     56  F   UNL A   1      44.235  27.822  26.959  1.00  0.00    -0.203 F 
ATOM     57  F   UNL A   1      42.394  22.702  26.573  1.00  0.00    -0.200 F 
ATOM     58  C   UNL A   1      43.673  24.477  25.688  1.00  0.00     0.200 A 
ATOM     59  F   UNL A   1      44.939  26.284  24.845  1.00  0.00    -0.200 F 
ATOM     60  F   UNL A   1      44.030  23.719  24.642  1.00  0.00    -0.200 F 
ENDBRANCH  26  50
BRANCH  38  61
ATOM     61  C   UNL A   1      45.228  27.484  34.319  1.00  0.00     0.064 A 
ATOM     62  C   UNL A   1      46.396  28.259  34.335  1.00  0.00     0.173 A 
ATOM     63  C   UNL A   1      45.171  26.358  35.155  1.00  0.00     0.173 A 
ATOM     64  F   UNL A   1      46.501  29.339  33.546  1.00  0.00    -0.203 F 
ATOM     65  C   UNL A   1      47.465  27.921  35.161  1.00  0.00     0.198 A 
ATOM     66  C   UNL A   1      46.230  26.042  36.002  1.00  0.00     0.198 A 
ATOM     67  F   UNL A   1      44.070  25.592  35.184  1.00  0.00    -0.203 F 
ATOM     68  F   UNL A   1      48.579  28.667  35.148  1.00  0.00    -0.200 F 
ATOM     69  C   UNL A   1      47.375  26.824  36.005  1.00  0.00     0.200 A 
ATOM     70  F   UNL A   1      46.132  24.994  36.831  1.00  0.00    -0.200 F 
ATOM     71  F   UNL A   1      48.391  26.522  36.823  1.00  0.00    -0.200 F 
ENDBRANCH  38  61
ENDBRANCH  12  13
ENDBRANCH   5   7
ENDBRANCH   2   3
ENDBRANCH   1   2
BRANCH   1  72
ATOM     72  C   UNL A   1      31.552  28.951  23.942  1.00  0.00     0.118 C 
BRANCH  72  73
ATOM     73  N   UNL A   1      32.680  29.054  23.024  1.00  0.00    -0.352 N 
ATOM     74  C   UNL A   1      33.422  28.075  22.408  1.00  0.00     0.258 C 
ATOM     75  H   UNL A   1      32.955  29.974  22.810  1.00  0.00     0.163 HD
ATOM     76  O   UNL A   1      34.363  28.394  21.690  1.00  0.00    -0.269 OA
BRANCH  74  77
ATOM     77  C   UNL A   1      33.057  26.669  22.662  1.00  0.00     0.121 A 
ATOM     78  C   UNL A   1      33.861  25.913  23.423  1.00  0.00     0.110 A 
ATOM     79  C   UNL A   1      31.876  26.037  22.051  1.00  0.00     0.266 A 
ATOM     80  N   UNL A   1      33.752  24.535  23.472  1.00  0.00    -0.299 N 
ATOM     81  N   UNL A   1      31.809  24.676  22.183  1.00  0.00    -0.273 N 
ATOM     82  O   UNL A   1      31.041  26.651  21.397  1.00  0.00    -0.268 OA
ATOM     83  C   UNL A   1      32.751  23.874  22.766  1.00  0.00     0.328 A 
ATOM     84  H   UNL A   1      31.006  24.232  21.824  1.00  0.00     0.175 HD
ATOM     85  O   UNL A   1      32.686  22.653  22.657  1.00  0.00    -0.248 OA
BRANCH  80  86
ATOM     86  C   UNL A   1      34.817  23.762  24.105  1.00  0.00     0.131 C 
BRANCH  86  87
ATOM     87  C   UNL A   1      34.901  23.806  25.641  1.00  0.00     0.025 C 
ATOM     88  C   UNL A   1      35.528  22.574  26.311  1.00  0.00     0.022 C 
ATOM     89  C   UNL A   1      33.565  24.048  26.346  1.00  0.00     0.142 C 
ATOM     90  C   UNL A   1      34.444  21.535  26.575  1.00  0.00     0.137 C 
ATOM     91  S   UNL A   1      32.934  22.448  26.820  1.00  0.00     0.150 S 
ATOM     92  O   UNL A   1      31.962  22.022  25.832  1.00  0.00    -0.229 OA
ATOM     93  O   UNL A   1      32.629  22.479  28.233  1.00  0.00    -0.229 OA
ENDBRANCH  86  87
ENDBRANCH  80  86
ENDBRANCH  74  77
ENDBRANCH  72  73
ENDBRANCH   1  72
TORSDOF 12
ENDMDL
MODEL 3
REMARK VINA RESULT:     -12.7      3.789      8.489
REMARK SMILES O=C(NCCCNC(=O)c1cn(C[C@@H]2CCS(=O)(=O)C2)c(=O)[nH]c1=O)c1ccc(-c2c3nc(c(-c4c(F)c(F)c(F)c(F)c4F)c4ccc([nH]4)c(-c4c(F)c(F)c(F)c(F)c4F)c4nc(c(-c5c(F)c(F)c(F)c(F)c5F)c5ccc2[nH]5)C=C4)C=C3)cc1
REMARK SMILES IDX 5 1 4 2 3 3 1 4 2 5 26 7 27 8 88 9 28 10 87 11 29 12 30 13
REMARK SMILES IDX 31 14 81 15 32 16 86 17 80 18 82 19 33 20 85 21 79 22 78 23
REMARK SMILES IDX 34 25 66 26 46 27 65 28 47 29 50 30 64 31 83 32 48 33 49 34
REMARK SMILES IDX 63 36 84 37 51 38 35 39 36 40 44 41 37 42 38 43 42 44 45 45
REMARK SMILES IDX 39 46 40 47 43 48 41 49 67 50 68 51 76 52 69 53 70 54 74 55
REMARK SMILES IDX 77 56 71 57 72 58 75 59 73 60 52 61 53 62 61 63 54 64 55 65
REMARK SMILES IDX 59 66 62 67 56 68 57 69 60 70 58 71 6 72 7 73 8 74 9 76
REMARK SMILES IDX 10 77 11 78 24 79 12 80 23 81 25 82 21 83 22 85 13 86 14 87
REMARK SMILES IDX 15 88 20 89 16 90 17 91 18 92 19 93
REMARK H PARENT 3 6 82 24 50 35 7 75 23 84
REMARK Flexibility Score: inf
ROOT
ATOM      1  C   UNL A   1      35.754  23.297  26.097  1.00  0.00     0.042 C 
ENDROOT
BRANCH   1   2
ATOM      2  C   UNL A   1      36.995  23.694  25.316  1.00  0.00     0.118 C 
BRANCH   2   3
ATOM      3  N   UNL A   1      38.138  22.845  25.628  1.00  0.00    -0.352 N 
ATOM      4  O   UNL A   1      40.248  22.305  26.159  1.00  0.00    -0.269 OA
ATOM      5  C   UNL A   1      39.340  23.130  26.223  1.00  0.00     0.251 C 
ATOM      6  H   UNL A   1      38.028  21.902  25.366  1.00  0.00     0.163 HD
BRANCH   5   7
ATOM      7  C   UNL A   1      39.556  24.404  26.940  1.00  0.00     0.039 A 
ATOM      8  C   UNL A   1      40.224  25.443  26.283  1.00  0.00     0.014 A 
ATOM      9  C   UNL A   1      39.188  24.558  28.277  1.00  0.00     0.014 A 
ATOM     10  C   UNL A   1      40.511  26.625  26.966  1.00  0.00     0.010 A 
ATOM     11  C   UNL A   1      39.358  25.780  28.916  1.00  0.00     0.010 A 
ATOM     12  C   UNL A   1      40.076  26.804  28.289  1.00  0.00    -0.014 A 
BRANCH  12  13
ATOM     13  C   UNL A   1      40.467  28.003  29.071  1.00  0.00     0.031 A 
ATOM     14  C   UNL A   1      41.880  28.126  29.582  1.00  0.00     0.074 A 
ATOM     15  C   UNL A   1      39.565  28.965  29.333  1.00  0.00     0.049 A 
ATOM     16  N   UNL A   1      42.421  29.078  30.299  1.00  0.00    -0.248 NA
ATOM     17  C   UNL A   1      42.800  27.018  29.275  1.00  0.00     0.031 C 
ATOM     18  C   UNL A   1      38.161  28.938  28.924  1.00  0.00     0.029 A 
ATOM     19  N   UNL A   1      39.696  30.156  30.002  1.00  0.00    -0.354 N 
ATOM     20  C   UNL A   1      43.727  28.672  30.539  1.00  0.00     0.074 A 
ATOM     21  C   UNL A   1      43.879  27.357  29.963  1.00  0.00     0.031 C 
ATOM     22  C   UNL A   1      37.571  30.080  29.311  1.00  0.00     0.029 A 
ATOM     23  C   UNL A   1      38.543  30.901  30.031  1.00  0.00     0.049 A 
ATOM     24  H   UNL A   1      40.538  30.449  30.420  1.00  0.00     0.167 HD
ATOM     25  C   UNL A   1      44.725  29.352  31.147  1.00  0.00     0.037 A 
ATOM     26  C   UNL A   1      38.300  32.110  30.573  1.00  0.00     0.037 A 
ATOM     27  C   UNL A   1      44.583  30.680  31.673  1.00  0.00     0.049 A 
ATOM     28  C   UNL A   1      39.419  32.843  31.262  1.00  0.00     0.074 A 
ATOM     29  C   UNL A   1      45.550  31.489  32.239  1.00  0.00     0.029 A 
ATOM     30  N   UNL A   1      43.393  31.394  31.697  1.00  0.00    -0.354 N 
ATOM     31  N   UNL A   1      40.671  32.484  31.413  1.00  0.00    -0.248 NA
ATOM     32  C   UNL A   1      39.095  34.148  31.855  1.00  0.00     0.031 C 
ATOM     33  C   UNL A   1      44.934  32.669  32.663  1.00  0.00     0.029 A 
ATOM     34  C   UNL A   1      43.594  32.621  32.307  1.00  0.00     0.049 A 
ATOM     35  H   UNL A   1      42.535  31.076  31.334  1.00  0.00     0.167 HD
ATOM     36  C   UNL A   1      41.287  33.517  32.104  1.00  0.00     0.074 A 
ATOM     37  C   UNL A   1      40.275  34.530  32.327  1.00  0.00     0.031 C 
ATOM     38  C   UNL A   1      42.573  33.616  32.521  1.00  0.00     0.037 A 
BRANCH  25  39
ATOM     39  C   UNL A   1      46.063  28.679  31.262  1.00  0.00     0.064 A 
ATOM     40  C   UNL A   1      46.400  27.893  32.377  1.00  0.00     0.173 A 
ATOM     41  C   UNL A   1      47.003  28.783  30.226  1.00  0.00     0.173 A 
ATOM     42  F   UNL A   1      45.544  27.770  33.401  1.00  0.00    -0.203 F 
ATOM     43  C   UNL A   1      47.641  27.265  32.462  1.00  0.00     0.198 A 
ATOM     44  C   UNL A   1      48.228  28.124  30.299  1.00  0.00     0.198 A 
ATOM     45  F   UNL A   1      46.730  29.515  29.136  1.00  0.00    -0.203 F 
ATOM     46  F   UNL A   1      47.960  26.566  33.559  1.00  0.00    -0.200 F 
ATOM     47  C   UNL A   1      48.548  27.372  31.420  1.00  0.00     0.200 A 
ATOM     48  F   UNL A   1      49.097  28.215  29.284  1.00  0.00    -0.200 F 
ATOM     49  F   UNL A   1      49.736  26.756  31.497  1.00  0.00    -0.200 F 
ENDBRANCH  25  39
BRANCH  26  50
ATOM     50  C   UNL A   1      36.945  32.706  30.441  1.00  0.00     0.064 A 
ATOM     51  C   UNL A   1      36.002  32.582  31.470  1.00  0.00     0.173 A 
ATOM     52  C   UNL A   1      36.587  33.461  29.314  1.00  0.00     0.173 A 
ATOM     53  F   UNL A   1      36.293  31.856  32.560  1.00  0.00    -0.203 F 
ATOM     54  C   UNL A   1      34.753  33.193  31.378  1.00  0.00     0.198 A 
ATOM     55  C   UNL A   1      35.347  34.093  29.236  1.00  0.00     0.198 A 
ATOM     56  F   UNL A   1      37.455  33.615  28.304  1.00  0.00    -0.203 F 
ATOM     57  F   UNL A   1      33.863  33.043  32.369  1.00  0.00    -0.200 F 
ATOM     58  C   UNL A   1      34.432  33.958  30.268  1.00  0.00     0.200 A 
ATOM     59  F   UNL A   1      35.048  34.848  28.170  1.00  0.00    -0.200 F 
ATOM     60  F   UNL A   1      33.240  34.565  30.193  1.00  0.00    -0.200 F 
ENDBRANCH  26  50
BRANCH  38  61
ATOM     61  C   UNL A   1      42.978  34.851  33.272  1.00  0.00     0.064 A 
ATOM     62  C   UNL A   1      43.359  36.018  32.596  1.00  0.00     0.173 A 
ATOM     63  C   UNL A   1      42.860  34.906  34.669  1.00  0.00     0.173 A 
ATOM     64  F   UNL A   1      43.495  36.012  31.262  1.00  0.00    -0.203 F 
ATOM     65  C   UNL A   1      43.606  37.198  33.293  1.00  0.00     0.198 A 
ATOM     66  C   UNL A   1      43.077  36.094  35.360  1.00  0.00     0.198 A 
ATOM     67  F   UNL A   1      42.488  33.817  35.360  1.00  0.00    -0.203 F 
ATOM     68  F   UNL A   1      43.984  38.299  32.629  1.00  0.00    -0.200 F 
ATOM     69  C   UNL A   1      43.449  37.239  34.671  1.00  0.00     0.200 A 
ATOM     70  F   UNL A   1      42.905  36.137  36.687  1.00  0.00    -0.200 F 
ATOM     71  F   UNL A   1      43.654  38.384  35.335  1.00  0.00    -0.200 F 
ENDBRANCH  38  61
ENDBRANCH  12  13
ENDBRANCH   5   7
ENDBRANCH   2   3
ENDBRANCH   1   2
BRANCH   1  72
ATOM     72  C   UNL A   1      35.059  22.069  25.537  1.00  0.00     0.118 C 
BRANCH  72  73
ATOM     73  N   UNL A   1      34.717  22.195  24.125  1.00  0.00    -0.352 N 
ATOM     74  C   UNL A   1      33.526  22.514  23.520  1.00  0.00     0.258 C 
ATOM     75  H   UNL A   1      35.460  22.022  23.504  1.00  0.00     0.163 HD
ATOM     76  O   UNL A   1      33.456  22.529  22.296  1.00  0.00    -0.269 OA
BRANCH  74  77
ATOM     77  C   UNL A   1      32.368  22.808  24.385  1.00  0.00     0.121 A 
ATOM     78  C   UNL A   1      31.972  24.080  24.535  1.00  0.00     0.110 A 
ATOM     79  C   UNL A   1      31.670  21.763  25.152  1.00  0.00     0.266 A 
ATOM     80  N   UNL A   1      31.099  24.468  25.535  1.00  0.00    -0.299 N 
ATOM     81  N   UNL A   1      30.783  22.221  26.089  1.00  0.00    -0.273 N 
ATOM     82  O   UNL A   1      31.906  20.566  25.037  1.00  0.00    -0.268 OA
ATOM     83  C   UNL A   1      30.545  23.531  26.402  1.00  0.00     0.328 A 
ATOM     84  H   UNL A   1      30.268  21.543  26.584  1.00  0.00     0.175 HD
ATOM     85  O   UNL A   1      29.877  23.825  27.389  1.00  0.00    -0.248 OA
BRANCH  80  86
ATOM     86  C   UNL A   1      30.920  25.893  25.806  1.00  0.00     0.131 C 
BRANCH  86  87
ATOM     87  C   UNL A   1      31.923  26.557  26.766  1.00  0.00     0.025 C 
ATOM     88  C   UNL A   1      31.456  27.869  27.414  1.00  0.00     0.022 C 
ATOM     89  C   UNL A   1      33.297  26.841  26.157  1.00  0.00     0.142 C 
ATOM     90  C   UNL A   1      31.818  29.039  26.507  1.00  0.00     0.137 C 
ATOM     91  S   UNL A   1      33.283  28.543  25.623  1.00  0.00     0.150 S 
ATOM     92  O   UNL A   1      33.007  28.580  24.200  1.00  0.00    -0.229 OA
ATOM     93  O   UNL A   1      34.428  29.211  26.200  1.00  0.00    -0.229 OA
ENDBRANCH  86  87
ENDBRANCH  80  86
ENDBRANCH  74  77
ENDBRANCH  72  73
ENDBRANCH   1  72
TORSDOF 12
ENDMDL
