MODEL 1
REMARK VINA RESULT:     -13.2      0.000      0.000
REMARK SMILES Cc1cc2nc(SCC(=O)NCCCNC(=O)c3ccc(-c4c5nc(c(-c6c(F)c(F)c(F)c(F)c6F)c6ccc([nH]6)c(-c6c(F)c(F)c(F)c(F)c6F)c6nc(c(-c7c(F)c(F)c(F)c(F)c7F)c7ccc4[nH]7)C=C6)C=C5)cc3)n(CC(C)C)c(=O)c2[nH]1
REMARK SMILES IDX 12 1 11 2 9 3 10 4 8 6 7 7 6 8 1 9 2 10 3 11 89 12 4 13
REMARK SMILES IDX 88 14 5 16 86 17 81 18 87 19 82 20 83 21 84 22 85 23 13 24
REMARK SMILES IDX 14 25 15 26 16 27 17 29 18 30 19 31 80 32 20 33 79 34 21 35
REMARK SMILES IDX 22 36 23 37 73 38 24 39 78 40 72 41 74 42 25 43 77 44 71 45
REMARK SMILES IDX 70 46 26 48 58 49 38 50 57 51 39 52 42 53 56 54 75 55 40 56
REMARK SMILES IDX 41 57 55 59 76 60 43 61 27 62 28 63 36 64 29 65 30 66 34 67
REMARK SMILES IDX 37 68 31 69 32 70 35 71 33 72 59 73 60 74 68 75 61 76 62 77
REMARK SMILES IDX 66 78 69 79 63 80 64 81 67 82 65 83 44 84 45 85 53 86 46 87
REMARK SMILES IDX 47 88 51 89 54 90 48 91 49 92 52 93 50 94
REMARK H PARENT 11 5 89 15 15 28 74 47 42 58
REMARK Flexibility Score: inf
ROOT
ATOM      1  C   UNL A   1      34.482  30.448  27.831  1.00  0.00     0.117 C 
ENDROOT
BRANCH   1   2
ATOM      2  N   UNL A   1      34.002  30.389  26.476  1.00  0.00    -0.355 N 
ATOM      3  C   UNL A   1      33.320  29.321  26.034  1.00  0.00     0.230 C 
ATOM      4  O   UNL A   1      32.319  29.545  25.327  1.00  0.00    -0.274 OA
ATOM      5  H   UNL A   1      34.178  31.140  25.865  1.00  0.00     0.163 HD
BRANCH   3   6
ATOM      6  C   UNL A   1      33.649  27.921  26.473  1.00  0.00     0.178 C 
BRANCH   6   7
ATOM      7  S   UNL A   1      33.474  26.623  25.252  1.00  0.00    -0.078 SA
BRANCH   7   8
ATOM      8  C   UNL A   1      33.992  24.992  25.687  1.00  0.00     0.172 A 
ATOM      9  C   UNL A   1      37.684  20.413  24.910  1.00  0.00     0.064 C 
ATOM     10  C   UNL A   1      36.890  21.591  25.361  1.00  0.00     0.014 A 
ATOM     11  C   UNL A   1      36.942  22.932  24.986  1.00  0.00     0.052 A 
ATOM     12  N   UNL A   1      35.854  21.472  26.265  1.00  0.00    -0.353 N 
ATOM     13  C   UNL A   1      35.745  23.521  25.446  1.00  0.00     0.097 A 
ATOM     14  C   UNL A   1      35.125  22.628  26.263  1.00  0.00     0.131 A 
ATOM     15  H   UNL A   1      35.671  20.682  26.823  1.00  0.00     0.166 HD
ATOM     16  N   UNL A   1      35.189  24.768  25.192  1.00  0.00    -0.222 NA
ATOM     17  C   UNL A   1      33.937  22.942  26.939  1.00  0.00     0.278 A 
ATOM     18  N   UNL A   1      33.268  24.082  26.485  1.00  0.00    -0.286 N 
ATOM     19  O   UNL A   1      33.552  22.229  27.901  1.00  0.00    -0.267 OA
BRANCH  18  20
ATOM     20  C   UNL A   1      31.914  24.239  27.053  1.00  0.00     0.131 C 
BRANCH  20  21
ATOM     21  C   UNL A   1      30.746  23.640  26.201  1.00  0.00     0.003 C 
ATOM     22  C   UNL A   1      31.260  22.589  25.221  1.00  0.00     0.009 C 
ATOM     23  C   UNL A   1      29.679  22.884  27.024  1.00  0.00     0.009 C 
ENDBRANCH  20  21
ENDBRANCH  18  20
ENDBRANCH   7   8
ENDBRANCH   6   7
ENDBRANCH   3   6
ENDBRANCH   1   2
BRANCH   1  24
ATOM     24  C   UNL A   1      35.885  30.966  27.868  1.00  0.00     0.042 C 
BRANCH  24  25
ATOM     25  C   UNL A   1      36.831  29.820  27.759  1.00  0.00     0.118 C 
BRANCH  25  26
ATOM     26  N   UNL A   1      37.220  29.290  29.071  1.00  0.00    -0.352 N 
ATOM     27  C   UNL A   1      38.381  28.643  29.365  1.00  0.00     0.251 C 
ATOM     28  H   UNL A   1      36.580  29.416  29.809  1.00  0.00     0.163 HD
ATOM     29  O   UNL A   1      38.502  27.984  30.434  1.00  0.00    -0.269 OA
BRANCH  27  30
ATOM     30  C   UNL A   1      39.550  28.955  28.549  1.00  0.00     0.039 A 
ATOM     31  C   UNL A   1      39.578  29.244  27.200  1.00  0.00     0.014 A 
ATOM     32  C   UNL A   1      40.765  28.581  29.114  1.00  0.00     0.014 A 
ATOM     33  C   UNL A   1      40.787  28.812  26.522  1.00  0.00     0.010 A 
ATOM     34  C   UNL A   1      41.895  28.639  28.393  1.00  0.00     0.010 A 
ATOM     35  C   UNL A   1      41.756  27.959  27.221  1.00  0.00    -0.014 A 
BRANCH  35  36
ATOM     36  C   UNL A   1      43.281  27.283  26.926  1.00  0.00     0.031 A 
ATOM     37  C   UNL A   1      42.531  25.626  26.906  1.00  0.00     0.074 A 
ATOM     38  C   UNL A   1      44.743  27.913  26.680  1.00  0.00     0.049 A 
ATOM     39  N   UNL A   1      42.282  24.922  27.991  1.00  0.00    -0.248 NA
ATOM     40  C   UNL A   1      41.456  24.935  25.890  1.00  0.00     0.031 C 
ATOM     41  C   UNL A   1      45.546  29.388  26.450  1.00  0.00     0.029 A 
ATOM     42  N   UNL A   1      46.095  27.323  26.606  1.00  0.00    -0.354 N 
ATOM     43  C   UNL A   1      42.003  23.619  27.521  1.00  0.00     0.074 A 
ATOM     44  C   UNL A   1      41.212  23.706  26.377  1.00  0.00     0.031 C 
ATOM     45  C   UNL A   1      46.813  29.302  25.827  1.00  0.00     0.029 A 
ATOM     46  C   UNL A   1      47.238  27.933  25.825  1.00  0.00     0.049 A 
ATOM     47  H   UNL A   1      46.262  26.484  27.094  1.00  0.00     0.167 HD
ATOM     48  C   UNL A   1      42.923  22.648  27.701  1.00  0.00     0.037 A 
ATOM     49  C   UNL A   1      48.476  27.371  25.407  1.00  0.00     0.037 A 
ATOM     50  C   UNL A   1      43.834  23.138  28.680  1.00  0.00     0.049 A 
ATOM     51  C   UNL A   1      48.383  26.014  26.006  1.00  0.00     0.074 A 
ATOM     52  C   UNL A   1      43.629  23.592  29.970  1.00  0.00     0.029 A 
ATOM     53  N   UNL A   1      44.797  23.925  28.124  1.00  0.00    -0.354 N 
ATOM     54  N   UNL A   1      48.419  25.842  27.302  1.00  0.00    -0.248 NA
ATOM     55  C   UNL A   1      47.485  25.171  25.210  1.00  0.00     0.031 C 
ATOM     56  C   UNL A   1      44.468  24.724  30.140  1.00  0.00     0.029 A 
ATOM     57  C   UNL A   1      45.283  24.817  29.024  1.00  0.00     0.049 A 
ATOM     58  H   UNL A   1      45.101  23.856  27.191  1.00  0.00     0.167 HD
ATOM     59  C   UNL A   1      47.200  25.245  27.579  1.00  0.00     0.074 A 
ATOM     60  C   UNL A   1      46.678  24.797  26.217  1.00  0.00     0.031 C 
ATOM     61  C   UNL A   1      46.465  25.557  28.718  1.00  0.00     0.037 A 
BRANCH  48  62
ATOM     62  C   UNL A   1      43.241  21.560  26.725  1.00  0.00     0.064 A 
ATOM     63  C   UNL A   1      42.635  20.335  27.002  1.00  0.00     0.173 A 
ATOM     64  C   UNL A   1      44.153  21.583  25.638  1.00  0.00     0.173 A 
ATOM     65  F   UNL A   1      41.793  20.228  28.040  1.00  0.00    -0.203 F 
ATOM     66  C   UNL A   1      42.875  19.209  26.227  1.00  0.00     0.198 A 
ATOM     67  C   UNL A   1      44.364  20.459  24.836  1.00  0.00     0.198 A 
ATOM     68  F   UNL A   1      44.892  22.663  25.337  1.00  0.00    -0.203 F 
ATOM     69  F   UNL A   1      42.265  18.061  26.543  1.00  0.00    -0.200 F 
ATOM     70  C   UNL A   1      43.725  19.272  25.136  1.00  0.00     0.200 A 
ATOM     71  F   UNL A   1      45.193  20.527  23.783  1.00  0.00    -0.200 F 
ATOM     72  F   UNL A   1      43.927  18.186  24.380  1.00  0.00    -0.200 F 
ENDBRANCH  48  62
BRANCH  49  73
ATOM     73  C   UNL A   1      49.305  27.557  24.073  1.00  0.00     0.064 A 
ATOM     74  C   UNL A   1      50.696  27.326  23.767  1.00  0.00     0.173 A 
ATOM     75  C   UNL A   1      48.513  27.659  22.921  1.00  0.00     0.173 A 
ATOM     76  F   UNL A   1      51.627  27.245  24.732  1.00  0.00    -0.203 F 
ATOM     77  C   UNL A   1      51.180  27.160  22.423  1.00  0.00     0.198 A 
ATOM     78  C   UNL A   1      48.981  27.471  21.609  1.00  0.00     0.198 A 
ATOM     79  F   UNL A   1      47.199  27.862  23.057  1.00  0.00    -0.203 F 
ATOM     80  F   UNL A   1      52.479  26.919  22.167  1.00  0.00    -0.200 F 
ATOM     81  C   UNL A   1      50.306  27.200  21.353  1.00  0.00     0.200 A 
ATOM     82  F   UNL A   1      48.100  27.497  20.599  1.00  0.00    -0.200 F 
ATOM     83  F   UNL A   1      50.716  26.958  20.096  1.00  0.00    -0.200 F 
ENDBRANCH  49  73
BRANCH  61  84
ATOM     84  C   UNL A   1      46.925  26.522  29.829  1.00  0.00     0.064 A 
ATOM     85  C   UNL A   1      46.284  27.683  30.346  1.00  0.00     0.173 A 
ATOM     86  C   UNL A   1      48.003  26.074  30.590  1.00  0.00     0.173 A 
ATOM     87  F   UNL A   1      45.096  28.092  29.894  1.00  0.00    -0.203 F 
ATOM     88  C   UNL A   1      46.803  28.431  31.418  1.00  0.00     0.198 A 
ATOM     89  C   UNL A   1      48.479  26.771  31.701  1.00  0.00     0.198 A 
ATOM     90  F   UNL A   1      48.551  24.885  30.304  1.00  0.00    -0.203 F 
ATOM     91  F   UNL A   1      46.217  29.579  31.802  1.00  0.00    -0.200 F 
ATOM     92  C   UNL A   1      47.914  27.972  32.090  1.00  0.00     0.200 A 
ATOM     93  F   UNL A   1      49.491  26.255  32.407  1.00  0.00    -0.200 F 
ATOM     94  F   UNL A   1      48.423  28.663  33.119  1.00  0.00    -0.200 F 
ENDBRANCH  61  84
ENDBRANCH  35  36
ENDBRANCH  27  30
ENDBRANCH  25  26
ENDBRANCH  24  25
ENDBRANCH   1  24
TORSDOF 14
ENDMDL
MODEL 2
REMARK VINA RESULT:     -13.1      1.906      3.415
REMARK SMILES Cc1cc2nc(SCC(=O)NCCCNC(=O)c3ccc(-c4c5nc(c(-c6c(F)c(F)c(F)c(F)c6F)c6ccc([nH]6)c(-c6c(F)c(F)c(F)c(F)c6F)c6nc(c(-c7c(F)c(F)c(F)c(F)c7F)c7ccc4[nH]7)C=C6)C=C5)cc3)n(CC(C)C)c(=O)c2[nH]1
REMARK SMILES IDX 12 1 11 2 9 3 10 4 8 6 7 7 6 8 1 9 2 10 3 11 89 12 4 13
REMARK SMILES IDX 88 14 5 16 86 17 81 18 87 19 82 20 83 21 84 22 85 23 13 24
REMARK SMILES IDX 14 25 15 26 16 27 17 29 18 30 19 31 80 32 20 33 79 34 21 35
REMARK SMILES IDX 22 36 23 37 73 38 24 39 78 40 72 41 74 42 25 43 77 44 71 45
REMARK SMILES IDX 70 46 26 48 58 49 38 50 57 51 39 52 42 53 56 54 75 55 40 56
REMARK SMILES IDX 41 57 55 59 76 60 43 61 27 62 28 63 36 64 29 65 30 66 34 67
REMARK SMILES IDX 37 68 31 69 32 70 35 71 33 72 59 73 60 74 68 75 61 76 62 77
REMARK SMILES IDX 66 78 69 79 63 80 64 81 67 82 65 83 44 84 45 85 53 86 46 87
REMARK SMILES IDX 47 88 51 89 54 90 48 91 49 92 52 93 50 94
REMARK H PARENT 11 5 89 15 15 28 74 47 42 58
REMARK Flexibility Score: inf
ROOT
ATOM      1  C   UNL A   1      35.625  30.316  27.876  1.00  0.00     0.117 C 
ENDROOT
BRANCH   1   2
ATOM      2  N   UNL A   1      34.510  30.659  27.035  1.00  0.00    -0.355 N 
ATOM      3  C   UNL A   1      33.472  29.820  26.894  1.00  0.00     0.230 C 
ATOM      4  O   UNL A   1      32.332  30.324  26.917  1.00  0.00    -0.274 OA
ATOM      5  H   UNL A   1      34.508  31.519  26.555  1.00  0.00     0.163 HD
BRANCH   3   6
ATOM      6  C   UNL A   1      33.647  28.328  26.849  1.00  0.00     0.178 C 
BRANCH   6   7
ATOM      7  S   UNL A   1      33.324  27.516  25.286  1.00  0.00    -0.078 SA
BRANCH   7   8
ATOM      8  C   UNL A   1      31.734  27.724  24.548  1.00  0.00     0.172 A 
ATOM      9  C   UNL A   1      28.007  30.937  21.234  1.00  0.00     0.064 C 
ATOM     10  C   UNL A   1      28.937  29.945  21.843  1.00  0.00     0.014 A 
ATOM     11  C   UNL A   1      30.319  29.970  22.020  1.00  0.00     0.052 A 
ATOM     12  N   UNL A   1      28.485  28.776  22.420  1.00  0.00    -0.353 N 
ATOM     13  C   UNL A   1      30.618  28.962  22.962  1.00  0.00     0.097 A 
ATOM     14  C   UNL A   1      29.496  28.219  23.151  1.00  0.00     0.131 A 
ATOM     15  H   UNL A   1      27.579  28.403  22.320  1.00  0.00     0.166 HD
ATOM     16  N   UNL A   1      31.795  28.673  23.641  1.00  0.00    -0.222 NA
ATOM     17  C   UNL A   1      29.487  27.089  23.983  1.00  0.00     0.278 A 
ATOM     18  N   UNL A   1      30.583  26.962  24.840  1.00  0.00    -0.286 N 
ATOM     19  O   UNL A   1      28.543  26.260  23.910  1.00  0.00    -0.267 OA
BRANCH  18  20
ATOM     20  C   UNL A   1      30.419  25.905  25.858  1.00  0.00     0.131 C 
BRANCH  20  21
ATOM     21  C   UNL A   1      31.268  24.610  25.636  1.00  0.00     0.003 C 
ATOM     22  C   UNL A   1      30.975  23.566  26.711  1.00  0.00     0.009 C 
ATOM     23  C   UNL A   1      30.966  23.869  24.314  1.00  0.00     0.009 C 
ENDBRANCH  20  21
ENDBRANCH  18  20
ENDBRANCH   7   8
ENDBRANCH   6   7
ENDBRANCH   3   6
ENDBRANCH   1   2
BRANCH   1  24
ATOM     24  C   UNL A   1      36.084  31.512  28.650  1.00  0.00     0.042 C 
BRANCH  24  25
ATOM     25  C   UNL A   1      37.516  31.334  29.020  1.00  0.00     0.118 C 
BRANCH  25  26
ATOM     26  N   UNL A   1      37.729  30.163  29.879  1.00  0.00    -0.352 N 
ATOM     27  C   UNL A   1      38.452  29.054  29.561  1.00  0.00     0.251 C 
ATOM     28  H   UNL A   1      37.312  30.182  30.770  1.00  0.00     0.163 HD
ATOM     29  O   UNL A   1      38.346  27.996  30.239  1.00  0.00    -0.269 OA
BRANCH  27  30
ATOM     30  C   UNL A   1      39.535  29.210  28.594  1.00  0.00     0.039 A 
ATOM     31  C   UNL A   1      39.437  29.199  27.218  1.00  0.00     0.014 A 
ATOM     32  C   UNL A   1      40.808  28.999  29.113  1.00  0.00     0.014 A 
ATOM     33  C   UNL A   1      40.603  28.660  26.542  1.00  0.00     0.010 A 
ATOM     34  C   UNL A   1      41.870  28.927  28.298  1.00  0.00     0.010 A 
ATOM     35  C   UNL A   1      41.664  28.005  27.317  1.00  0.00    -0.014 A 
BRANCH  35  36
ATOM     36  C   UNL A   1      43.188  27.319  27.037  1.00  0.00     0.031 A 
ATOM     37  C   UNL A   1      42.436  25.663  27.061  1.00  0.00     0.074 A 
ATOM     38  C   UNL A   1      44.650  27.941  26.771  1.00  0.00     0.049 A 
ATOM     39  N   UNL A   1      42.188  24.988  28.164  1.00  0.00    -0.248 NA
ATOM     40  C   UNL A   1      41.358  24.947  26.065  1.00  0.00     0.031 C 
ATOM     41  C   UNL A   1      45.454  29.409  26.501  1.00  0.00     0.029 A 
ATOM     42  N   UNL A   1      46.001  27.347  26.711  1.00  0.00    -0.354 N 
ATOM     43  C   UNL A   1      41.907  23.674  27.729  1.00  0.00     0.074 A 
ATOM     44  C   UNL A   1      41.114  23.732  26.585  1.00  0.00     0.031 C 
ATOM     45  C   UNL A   1      46.720  29.305  25.879  1.00  0.00     0.029 A 
ATOM     46  C   UNL A   1      47.143  27.936  25.911  1.00  0.00     0.049 A 
ATOM     47  H   UNL A   1      46.169  26.521  27.220  1.00  0.00     0.167 HD
ATOM     48  C   UNL A   1      42.826  22.707  27.932  1.00  0.00     0.037 A 
ATOM     49  C   UNL A   1      48.380  27.362  25.506  1.00  0.00     0.037 A 
ATOM     50  C   UNL A   1      43.740  23.221  28.897  1.00  0.00     0.049 A 
ATOM     51  C   UNL A   1      48.286  26.021  26.140  1.00  0.00     0.074 A 
ATOM     52  C   UNL A   1      43.537  23.709  30.175  1.00  0.00     0.029 A 
ATOM     53  N   UNL A   1      44.702  23.992  28.319  1.00  0.00    -0.354 N 
ATOM     54  N   UNL A   1      48.325  25.883  27.440  1.00  0.00    -0.248 NA
ATOM     55  C   UNL A   1      47.385  25.158  25.368  1.00  0.00     0.031 C 
ATOM     56  C   UNL A   1      44.378  24.843  30.314  1.00  0.00     0.029 A 
ATOM     57  C   UNL A   1      45.191  24.907  29.194  1.00  0.00     0.049 A 
ATOM     58  H   UNL A   1      45.004  23.899  27.386  1.00  0.00     0.167 HD
ATOM     59  C   UNL A   1      47.105  25.294  27.734  1.00  0.00     0.074 A 
ATOM     60  C   UNL A   1      46.581  24.811  26.386  1.00  0.00     0.031 C 
ATOM     61  C   UNL A   1      46.373  25.637  28.866  1.00  0.00     0.037 A 
BRANCH  48  62
ATOM     62  C   UNL A   1      43.140  21.593  26.985  1.00  0.00     0.064 A 
ATOM     63  C   UNL A   1      43.934  21.959  25.898  1.00  0.00     0.173 A 
ATOM     64  C   UNL A   1      42.649  20.261  26.990  1.00  0.00     0.173 A 
ATOM     65  F   UNL A   1      44.399  23.212  25.806  1.00  0.00    -0.203 F 
ATOM     66  C   UNL A   1      44.264  21.056  24.898  1.00  0.00     0.198 A 
ATOM     67  C   UNL A   1      43.014  19.343  26.002  1.00  0.00     0.198 A 
ATOM     68  F   UNL A   1      41.781  19.814  27.911  1.00  0.00    -0.203 F 
ATOM     69  F   UNL A   1      45.029  21.465  23.880  1.00  0.00    -0.200 F 
ATOM     70  C   UNL A   1      43.821  19.746  24.955  1.00  0.00     0.200 A 
ATOM     71  F   UNL A   1      42.575  18.076  26.063  1.00  0.00    -0.200 F 
ATOM     72  F   UNL A   1      44.169  18.876  23.999  1.00  0.00    -0.200 F 
ENDBRANCH  48  62
BRANCH  49  73
ATOM     73  C   UNL A   1      49.207  27.512  24.165  1.00  0.00     0.064 A 
ATOM     74  C   UNL A   1      50.594  27.260  23.860  1.00  0.00     0.173 A 
ATOM     75  C   UNL A   1      48.412  27.599  23.014  1.00  0.00     0.173 A 
ATOM     76  F   UNL A   1      51.527  27.189  24.824  1.00  0.00    -0.203 F 
ATOM     77  C   UNL A   1      51.072  27.062  22.519  1.00  0.00     0.198 A 
ATOM     78  C   UNL A   1      48.873  27.379  21.705  1.00  0.00     0.198 A 
ATOM     79  F   UNL A   1      47.100  27.818  23.150  1.00  0.00    -0.203 F 
ATOM     80  F   UNL A   1      52.368  26.802  22.264  1.00  0.00    -0.200 F 
ATOM     81  C   UNL A   1      50.195  27.089  21.450  1.00  0.00     0.200 A 
ATOM     82  F   UNL A   1      47.990  27.393  20.698  1.00  0.00    -0.200 F 
ATOM     83  F   UNL A   1      50.599  26.818  20.198  1.00  0.00    -0.200 F 
ENDBRANCH  49  73
BRANCH  61  84
ATOM     84  C   UNL A   1      46.836  26.630  29.951  1.00  0.00     0.064 A 
ATOM     85  C   UNL A   1      46.210  27.819  30.421  1.00  0.00     0.173 A 
ATOM     86  C   UNL A   1      47.896  26.188  30.741  1.00  0.00     0.173 A 
ATOM     87  F   UNL A   1      45.036  28.234  29.939  1.00  0.00    -0.203 F 
ATOM     88  C   UNL A   1      46.729  28.593  31.474  1.00  0.00     0.198 A 
ATOM     89  C   UNL A   1      48.370  26.913  31.835  1.00  0.00     0.198 A 
ATOM     90  F   UNL A   1      48.425  24.980  30.503  1.00  0.00    -0.203 F 
ATOM     91  F   UNL A   1      46.159  29.763  31.812  1.00  0.00    -0.200 F 
ATOM     92  C   UNL A   1      47.822  28.137  32.176  1.00  0.00     0.200 A 
ATOM     93  F   UNL A   1      49.363  26.402  32.571  1.00  0.00    -0.200 F 
ATOM     94  F   UNL A   1      48.330  28.852  33.189  1.00  0.00    -0.200 F 
ENDBRANCH  61  84
ENDBRANCH  35  36
ENDBRANCH  27  30
ENDBRANCH  25  26
ENDBRANCH  24  25
ENDBRANCH   1  24
TORSDOF 14
ENDMDL
MODEL 3
REMARK VINA RESULT:     -13.0      6.813     12.767
REMARK SMILES Cc1cc2nc(SCC(=O)NCCCNC(=O)c3ccc(-c4c5nc(c(-c6c(F)c(F)c(F)c(F)c6F)c6ccc([nH]6)c(-c6c(F)c(F)c(F)c(F)c6F)c6nc(c(-c7c(F)c(F)c(F)c(F)c7F)c7ccc4[nH]7)C=C6)C=C5)cc3)n(CC(C)C)c(=O)c2[nH]1
REMARK SMILES IDX 12 1 11 2 9 3 10 4 8 6 7 7 6 8 1 9 2 10 3 11 89 12 4 13
REMARK SMILES IDX 88 14 5 16 86 17 81 18 87 19 82 20 83 21 84 22 85 23 13 24
REMARK SMILES IDX 14 25 15 26 16 27 17 29 18 30 19 31 80 32 20 33 79 34 21 35
REMARK SMILES IDX 22 36 23 37 73 38 24 39 78 40 72 41 74 42 25 43 77 44 71 45
REMARK SMILES IDX 70 46 26 48 58 49 38 50 57 51 39 52 42 53 56 54 75 55 40 56
REMARK SMILES IDX 41 57 55 59 76 60 43 61 27 62 28 63 36 64 29 65 30 66 34 67
REMARK SMILES IDX 37 68 31 69 32 70 35 71 33 72 59 73 60 74 68 75 61 76 62 77
REMARK SMILES IDX 66 78 69 79 63 80 64 81 67 82 65 83 44 84 45 85 53 86 46 87
REMARK SMILES IDX 47 88 51 89 54 90 48 91 49 92 52 93 50 94
REMARK H PARENT 11 5 89 15 15 28 74 47 42 58
REMARK Flexibility Score: inf
ROOT
ATOM      1  C   UNL A   1      38.362  24.064  26.662  1.00  0.00     0.117 C 
ENDROOT
BRANCH   1   2
ATOM      2  N   UNL A   1      38.104  23.739  25.284  1.00  0.00    -0.355 N 
ATOM      3  C   UNL A   1      36.927  23.214  24.911  1.00  0.00     0.230 C 
ATOM      4  O   UNL A   1      36.414  23.663  23.867  1.00  0.00    -0.274 OA
ATOM      5  H   UNL A   1      38.799  23.903  24.606  1.00  0.00     0.163 HD
BRANCH   3   6
ATOM      6  C   UNL A   1      36.179  22.232  25.768  1.00  0.00     0.178 C 
BRANCH   6   7
ATOM      7  S   UNL A   1      34.786  22.860  26.703  1.00  0.00    -0.078 SA
BRANCH   7   8
ATOM      8  C   UNL A   1      33.589  23.844  25.858  1.00  0.00     0.172 A 
ATOM      9  C   UNL A   1      31.292  29.172  24.617  1.00  0.00     0.064 C 
ATOM     10  C   UNL A   1      31.954  27.837  24.652  1.00  0.00     0.014 A 
ATOM     11  C   UNL A   1      33.164  27.426  25.207  1.00  0.00     0.052 A 
ATOM     12  N   UNL A   1      31.356  26.710  24.128  1.00  0.00    -0.353 N 
ATOM     13  C   UNL A   1      33.117  26.017  25.267  1.00  0.00     0.097 A 
ATOM     14  C   UNL A   1      32.032  25.604  24.560  1.00  0.00     0.131 A 
ATOM     15  H   UNL A   1      30.568  26.704  23.537  1.00  0.00     0.166 HD
ATOM     16  N   UNL A   1      33.958  25.105  25.892  1.00  0.00    -0.222 NA
ATOM     17  C   UNL A   1      31.745  24.244  24.370  1.00  0.00     0.278 A 
ATOM     18  N   UNL A   1      32.439  23.360  25.200  1.00  0.00    -0.286 N 
ATOM     19  O   UNL A   1      30.928  23.890  23.482  1.00  0.00    -0.267 OA
BRANCH  18  20
ATOM     20  C   UNL A   1      31.936  21.972  25.139  1.00  0.00     0.131 C 
BRANCH  20  21
ATOM     21  C   UNL A   1      32.769  20.986  24.255  1.00  0.00     0.003 C 
ATOM     22  C   UNL A   1      32.859  19.606  24.902  1.00  0.00     0.009 C 
ATOM     23  C   UNL A   1      32.155  20.700  22.866  1.00  0.00     0.009 C 
ENDBRANCH  20  21
ENDBRANCH  18  20
ENDBRANCH   7   8
ENDBRANCH   6   7
ENDBRANCH   3   6
ENDBRANCH   1   2
BRANCH   1  24
ATOM     24  C   UNL A   1      39.698  23.536  27.081  1.00  0.00     0.042 C 
BRANCH  24  25
ATOM     25  C   UNL A   1      40.371  24.545  27.947  1.00  0.00     0.118 C 
BRANCH  25  26
ATOM     26  N   UNL A   1      40.590  25.819  27.253  1.00  0.00    -0.352 N 
ATOM     27  C   UNL A   1      40.148  27.041  27.657  1.00  0.00     0.251 C 
ATOM     28  H   UNL A   1      41.108  25.787  26.416  1.00  0.00     0.163 HD
ATOM     29  O   UNL A   1      40.141  28.022  26.864  1.00  0.00    -0.269 OA
BRANCH  27  30
ATOM     30  C   UNL A   1      39.941  27.243  29.088  1.00  0.00     0.039 A 
ATOM     31  C   UNL A   1      38.967  26.675  29.882  1.00  0.00     0.014 A 
ATOM     32  C   UNL A   1      40.566  28.372  29.609  1.00  0.00     0.014 A 
ATOM     33  C   UNL A   1      38.527  27.517  30.980  1.00  0.00     0.010 A 
ATOM     34  C   UNL A   1      40.305  28.774  30.861  1.00  0.00     0.010 A 
ATOM     35  C   UNL A   1      38.964  28.916  31.054  1.00  0.00    -0.014 A 
BRANCH  35  36
ATOM     36  C   UNL A   1      38.813  30.228  32.114  1.00  0.00     0.031 A 
ATOM     37  C   UNL A   1      37.596  30.982  30.992  1.00  0.00     0.074 A 
ATOM     38  C   UNL A   1      39.445  30.565  33.558  1.00  0.00     0.049 A 
ATOM     39  N   UNL A   1      37.920  31.701  29.937  1.00  0.00    -0.248 NA
ATOM     40  C   UNL A   1      36.100  30.510  30.540  1.00  0.00     0.031 C 
ATOM     41  C   UNL A   1      40.383  29.894  34.800  1.00  0.00     0.029 A 
ATOM     42  N   UNL A   1      39.457  31.783  34.393  1.00  0.00    -0.354 N 
ATOM     43  C   UNL A   1      36.718  32.332  29.545  1.00  0.00     0.074 A 
ATOM     44  C   UNL A   1      35.670  31.420  29.649  1.00  0.00     0.031 C 
ATOM     45  C   UNL A   1      40.253  30.514  36.065  1.00  0.00     0.029 A 
ATOM     46  C   UNL A   1      39.578  31.768  35.901  1.00  0.00     0.049 A 
ATOM     47  H   UNL A   1      39.382  32.655  33.942  1.00  0.00     0.167 HD
ATOM     48  C   UNL A   1      36.565  33.652  29.782  1.00  0.00     0.037 A 
ATOM     49  C   UNL A   1      39.314  32.784  36.860  1.00  0.00     0.037 A 
ATOM     50  C   UNL A   1      37.865  34.161  30.064  1.00  0.00     0.049 A 
ATOM     51  C   UNL A   1      38.938  33.915  35.972  1.00  0.00     0.074 A 
ATOM     52  C   UNL A   1      39.036  34.127  29.329  1.00  0.00     0.029 A 
ATOM     53  N   UNL A   1      38.205  33.981  31.371  1.00  0.00    -0.354 N 
ATOM     54  N   UNL A   1      39.820  34.486  35.193  1.00  0.00    -0.248 NA
ATOM     55  C   UNL A   1      37.572  33.732  35.470  1.00  0.00     0.031 C 
ATOM     56  C   UNL A   1      40.084  33.860  30.248  1.00  0.00     0.029 A 
ATOM     57  C   UNL A   1      39.551  33.915  31.525  1.00  0.00     0.049 A 
ATOM     58  H   UNL A   1      37.557  33.909  32.109  1.00  0.00     0.167 HD
ATOM     59  C   UNL A   1      39.305  34.281  33.923  1.00  0.00     0.074 A 
ATOM     60  C   UNL A   1      37.861  33.850  34.164  1.00  0.00     0.031 C 
ATOM     61  C   UNL A   1      40.117  33.984  32.834  1.00  0.00     0.037 A 
BRANCH  48  62
ATOM     62  C   UNL A   1      35.292  34.318  30.197  1.00  0.00     0.064 A 
ATOM     63  C   UNL A   1      34.623  34.984  29.172  1.00  0.00     0.173 A 
ATOM     64  C   UNL A   1      34.747  34.453  31.502  1.00  0.00     0.173 A 
ATOM     65  F   UNL A   1      35.104  34.936  27.921  1.00  0.00    -0.203 F 
ATOM     66  C   UNL A   1      33.458  35.703  29.405  1.00  0.00     0.198 A 
ATOM     67  C   UNL A   1      33.555  35.145  31.727  1.00  0.00     0.198 A 
ATOM     68  F   UNL A   1      35.355  33.963  32.593  1.00  0.00    -0.203 F 
ATOM     69  F   UNL A   1      32.861  36.322  28.380  1.00  0.00    -0.200 F 
ATOM     70  C   UNL A   1      32.914  35.771  30.676  1.00  0.00     0.200 A 
ATOM     71  F   UNL A   1      33.036  35.210  32.964  1.00  0.00    -0.200 F 
ATOM     72  F   UNL A   1      31.776  36.444  30.883  1.00  0.00    -0.200 F 
ENDBRANCH  48  62
BRANCH  49  73
ATOM     73  C   UNL A   1      38.676  32.710  38.306  1.00  0.00     0.064 A 
ATOM     74  C   UNL A   1      38.757  33.601  39.438  1.00  0.00     0.173 A 
ATOM     75  C   UNL A   1      37.610  31.806  38.411  1.00  0.00     0.173 A 
ATOM     76  F   UNL A   1      39.739  34.511  39.551  1.00  0.00    -0.203 F 
ATOM     77  C   UNL A   1      37.801  33.584  40.511  1.00  0.00     0.198 A 
ATOM     78  C   UNL A   1      36.659  31.807  39.446  1.00  0.00     0.198 A 
ATOM     79  F   UNL A   1      37.408  30.928  37.424  1.00  0.00    -0.203 F 
ATOM     80  F   UNL A   1      37.886  34.444  41.543  1.00  0.00    -0.200 F 
ATOM     81  C   UNL A   1      36.735  32.704  40.487  1.00  0.00     0.200 A 
ATOM     82  F   UNL A   1      35.629  30.953  39.378  1.00  0.00    -0.200 F 
ATOM     83  F   UNL A   1      35.778  32.729  41.430  1.00  0.00    -0.200 F 
ENDBRANCH  49  73
BRANCH  61  84
ATOM     84  C   UNL A   1      41.657  33.918  32.872  1.00  0.00     0.064 A 
ATOM     85  C   UNL A   1      42.530  32.855  32.506  1.00  0.00     0.173 A 
ATOM     86  C   UNL A   1      42.295  35.141  33.076  1.00  0.00     0.173 A 
ATOM     87  F   UNL A   1      42.067  31.697  32.030  1.00  0.00    -0.203 F 
ATOM     88  C   UNL A   1      43.932  32.971  32.536  1.00  0.00     0.198 A 
ATOM     89  C   UNL A   1      43.683  35.281  33.033  1.00  0.00     0.198 A 
ATOM     90  F   UNL A   1      41.551  36.245  33.230  1.00  0.00    -0.203 F 
ATOM     91  F   UNL A   1      44.714  31.907  32.282  1.00  0.00    -0.200 F 
ATOM     92  C   UNL A   1      44.506  34.191  32.811  1.00  0.00     0.200 A 
ATOM     93  F   UNL A   1      44.218  36.495  33.196  1.00  0.00    -0.200 F 
ATOM     94  F   UNL A   1      45.839  34.328  32.837  1.00  0.00    -0.200 F 
ENDBRANCH  61  84
ENDBRANCH  35  36
ENDBRANCH  27  30
ENDBRANCH  25  26
ENDBRANCH  24  25
ENDBRANCH   1  24
TORSDOF 14
ENDMDL
