MODEL 1
REMARK VINA RESULT:     -12.4      0.000      0.000
REMARK SMILES Cc1cc(C(=O)NCCCNC(=O)c2ccc(-c3c4nc(c(-c5c(F)c(F)c(F)c(F)c5F)c5ccc([nH]5)c(-c5c(F)c(F)c(F)c(F)c5F)c5nc(c(-c6c(F)c(F)c(F)c(F)c6F)c6ccc3[nH]6)C=C5)C=C4)cc2)c(NC(=O)c2nc(C(C)(C)C)n[nH]2)s1
REMARK SMILES IDX 8 1 7 2 5 3 6 4 4 6 1 7 2 8 3 9 90 10 77 11 78 12 79 13
REMARK SMILES IDX 80 15 81 16 82 17 89 18 83 19 88 20 84 22 85 23 86 24 87 25
REMARK SMILES IDX 9 26 10 27 11 28 12 29 13 31 14 32 15 33 76 34 16 35 75 36
REMARK SMILES IDX 17 37 18 38 19 39 69 40 20 41 74 42 68 43 70 44 21 45 73 46
REMARK SMILES IDX 67 47 66 48 22 50 54 51 34 52 53 53 35 54 38 55 52 56 71 57
REMARK SMILES IDX 36 58 37 59 51 61 72 62 39 63 23 64 24 65 32 66 25 67 26 68
REMARK SMILES IDX 30 69 33 70 27 71 28 72 31 73 29 74 55 75 56 76 64 77 57 78
REMARK SMILES IDX 58 79 62 80 65 81 59 82 60 83 63 84 61 85 40 86 41 87 49 88
REMARK SMILES IDX 42 89 43 90 47 91 50 92 44 93 45 94 48 95 46 96
REMARK H PARENT 7 5 78 14 89 21 11 30 70 49 38 60
REMARK Flexibility Score: inf
ROOT
ATOM      1  C   UNL A   1      31.762  27.678  26.608  1.00  0.00     0.118 C 
ENDROOT
BRANCH   1   2
ATOM      2  N   UNL A   1      31.247  26.350  26.862  1.00  0.00    -0.352 N 
ATOM      3  C   UNL A   1      31.365  25.167  26.181  1.00  0.00     0.254 C 
ATOM      4  O   UNL A   1      30.878  24.178  26.732  1.00  0.00    -0.269 OA
ATOM      5  H   UNL A   1      30.709  26.283  27.683  1.00  0.00     0.163 HD
BRANCH   3   6
ATOM      6  C   UNL A   1      32.053  25.046  24.885  1.00  0.00     0.074 A 
ATOM      7  C   UNL A   1      32.528  25.595  21.146  1.00  0.00     0.056 C 
ATOM      8  C   UNL A   1      32.564  25.221  22.588  1.00  0.00     0.004 A 
ATOM      9  C   UNL A   1      31.623  25.446  23.568  1.00  0.00     0.031 A 
ATOM     10  S   UNL A   1      33.894  24.380  23.211  1.00  0.00    -0.122 S 
ATOM     11  C   UNL A   1      33.317  24.456  24.801  1.00  0.00     0.108 A 
BRANCH  11  12
ATOM     12  N   UNL A   1      34.038  23.937  25.868  1.00  0.00    -0.310 N 
ATOM     13  C   UNL A   1      34.089  22.698  26.474  1.00  0.00     0.293 C 
ATOM     14  H   UNL A   1      34.644  24.594  26.281  1.00  0.00     0.171 HD
ATOM     15  O   UNL A   1      34.782  22.604  27.490  1.00  0.00    -0.265 OA
BRANCH  13  16
ATOM     16  C   UNL A   1      33.432  21.554  25.900  1.00  0.00     0.214 A 
ATOM     17  N   UNL A   1      34.034  20.488  25.413  1.00  0.00    -0.207 NA
ATOM     18  N   UNL A   1      32.087  21.411  25.739  1.00  0.00    -0.255 N 
ATOM     19  C   UNL A   1      32.993  19.676  25.034  1.00  0.00     0.156 A 
ATOM     20  N   UNL A   1      31.778  20.217  25.206  1.00  0.00    -0.158 NA
ATOM     21  H   UNL A   1      31.424  22.097  25.982  1.00  0.00     0.192 HD
BRANCH  19  22
ATOM     22  C   UNL A   1      33.225  18.308  24.442  1.00  0.00     0.024 C 
ATOM     23  C   UNL A   1      32.623  17.243  25.376  1.00  0.00     0.019 C 
ATOM     24  C   UNL A   1      32.547  18.200  23.060  1.00  0.00     0.019 C 
ATOM     25  C   UNL A   1      34.728  18.018  24.251  1.00  0.00     0.019 C 
ENDBRANCH  19  22
ENDBRANCH  13  16
ENDBRANCH  11  12
ENDBRANCH   3   6
ENDBRANCH   1   2
BRANCH   1  26
ATOM     26  C   UNL A   1      33.264  27.768  26.876  1.00  0.00     0.042 C 
BRANCH  26  27
ATOM     27  C   UNL A   1      33.980  28.791  25.994  1.00  0.00     0.118 C 
BRANCH  27  28
ATOM     28  N   UNL A   1      33.845  30.144  26.515  1.00  0.00    -0.352 N 
ATOM     29  C   UNL A   1      34.554  30.810  27.480  1.00  0.00     0.251 C 
ATOM     30  H   UNL A   1      33.120  30.669  26.105  1.00  0.00     0.163 HD
ATOM     31  O   UNL A   1      34.112  31.871  27.912  1.00  0.00    -0.269 OA
BRANCH  29  32
ATOM     32  C   UNL A   1      35.835  30.286  28.005  1.00  0.00     0.039 A 
ATOM     33  C   UNL A   1      35.837  29.703  29.277  1.00  0.00     0.014 A 
ATOM     34  C   UNL A   1      37.039  30.444  27.313  1.00  0.00     0.014 A 
ATOM     35  C   UNL A   1      37.033  29.257  29.842  1.00  0.00     0.010 A 
ATOM     36  C   UNL A   1      38.225  29.939  27.850  1.00  0.00     0.010 A 
ATOM     37  C   UNL A   1      38.236  29.357  29.125  1.00  0.00    -0.014 A 
BRANCH  37  38
ATOM     38  C   UNL A   1      39.511  28.875  29.713  1.00  0.00     0.031 A 
ATOM     39  C   UNL A   1      40.127  29.589  30.884  1.00  0.00     0.074 A 
ATOM     40  C   UNL A   1      40.134  27.814  29.166  1.00  0.00     0.049 A 
ATOM     41  N   UNL A   1      41.248  29.337  31.513  1.00  0.00    -0.248 NA
ATOM     42  C   UNL A   1      39.399  30.758  31.403  1.00  0.00     0.031 C 
ATOM     43  C   UNL A   1      39.659  27.065  28.001  1.00  0.00     0.029 A 
ATOM     44  N   UNL A   1      41.301  27.182  29.515  1.00  0.00    -0.354 N 
ATOM     45  C   UNL A   1      41.366  30.322  32.487  1.00  0.00     0.074 A 
ATOM     46  C   UNL A   1      40.228  31.203  32.335  1.00  0.00     0.031 C 
ATOM     47  C   UNL A   1      40.515  26.064  27.745  1.00  0.00     0.029 A 
ATOM     48  C   UNL A   1      41.611  26.116  28.708  1.00  0.00     0.049 A 
ATOM     49  H   UNL A   1      41.863  27.468  30.271  1.00  0.00     0.167 HD
ATOM     50  C   UNL A   1      42.326  30.465  33.432  1.00  0.00     0.037 A 
ATOM     51  C   UNL A   1      42.659  25.273  28.745  1.00  0.00     0.037 A 
ATOM     52  C   UNL A   1      43.442  29.570  33.597  1.00  0.00     0.049 A 
ATOM     53  C   UNL A   1      43.695  25.436  29.823  1.00  0.00     0.074 A 
ATOM     54  C   UNL A   1      44.441  29.600  34.554  1.00  0.00     0.029 A 
ATOM     55  N   UNL A   1      43.701  28.477  32.782  1.00  0.00    -0.354 N 
ATOM     56  N   UNL A   1      43.764  26.335  30.774  1.00  0.00    -0.248 NA
ATOM     57  C   UNL A   1      44.791  24.458  29.840  1.00  0.00     0.031 C 
ATOM     58  C   UNL A   1      45.324  28.546  34.298  1.00  0.00     0.029 A 
ATOM     59  C   UNL A   1      44.850  27.831  33.210  1.00  0.00     0.049 A 
ATOM     60  H   UNL A   1      43.150  28.201  32.015  1.00  0.00     0.167 HD
ATOM     61  C   UNL A   1      44.889  26.015  31.521  1.00  0.00     0.074 A 
ATOM     62  C   UNL A   1      45.464  24.828  30.919  1.00  0.00     0.031 C 
ATOM     63  C   UNL A   1      45.401  26.644  32.607  1.00  0.00     0.037 A 
BRANCH  50  64
ATOM     64  C   UNL A   1      42.209  31.634  34.367  1.00  0.00     0.064 A 
ATOM     65  C   UNL A   1      42.826  32.864  34.088  1.00  0.00     0.173 A 
ATOM     66  C   UNL A   1      41.446  31.536  35.541  1.00  0.00     0.173 A 
ATOM     67  F   UNL A   1      43.576  33.008  32.986  1.00  0.00    -0.203 F 
ATOM     68  C   UNL A   1      42.706  33.941  34.963  1.00  0.00     0.198 A 
ATOM     69  C   UNL A   1      41.305  32.625  36.398  1.00  0.00     0.198 A 
ATOM     70  F   UNL A   1      40.831  30.385  35.854  1.00  0.00    -0.203 F 
ATOM     71  F   UNL A   1      43.345  35.090  34.698  1.00  0.00    -0.200 F 
ATOM     72  C   UNL A   1      41.942  33.823  36.113  1.00  0.00     0.200 A 
ATOM     73  F   UNL A   1      40.556  32.512  37.504  1.00  0.00    -0.200 F 
ATOM     74  F   UNL A   1      41.824  34.862  36.951  1.00  0.00    -0.200 F 
ENDBRANCH  50  64
BRANCH  51  75
ATOM     75  C   UNL A   1      42.756  24.171  27.754  1.00  0.00     0.064 A 
ATOM     76  C   UNL A   1      42.357  22.868  28.087  1.00  0.00     0.173 A 
ATOM     77  C   UNL A   1      43.242  24.394  26.458  1.00  0.00     0.173 A 
ATOM     78  F   UNL A   1      41.903  22.603  29.321  1.00  0.00    -0.203 F 
ATOM     79  C   UNL A   1      42.459  21.827  27.167  1.00  0.00     0.198 A 
ATOM     80  C   UNL A   1      43.318  23.357  25.530  1.00  0.00     0.198 A 
ATOM     81  F   UNL A   1      43.629  25.624  26.088  1.00  0.00    -0.203 F 
ATOM     82  F   UNL A   1      42.110  20.585  27.524  1.00  0.00    -0.200 F 
ATOM     83  C   UNL A   1      42.935  22.074  25.888  1.00  0.00     0.200 A 
ATOM     84  F   UNL A   1      43.764  23.603  24.290  1.00  0.00    -0.200 F 
ATOM     85  F   UNL A   1      43.028  21.073  25.001  1.00  0.00    -0.200 F 
ENDBRANCH  51  75
BRANCH  63  86
ATOM     86  C   UNL A   1      46.618  26.037  33.239  1.00  0.00     0.064 A 
ATOM     87  C   UNL A   1      47.914  26.427  32.868  1.00  0.00     0.173 A 
ATOM     88  C   UNL A   1      46.485  25.067  34.244  1.00  0.00     0.173 A 
ATOM     89  F   UNL A   1      48.093  27.339  31.901  1.00  0.00    -0.203 F 
ATOM     90  C   UNL A   1      49.031  25.844  33.459  1.00  0.00     0.198 A 
ATOM     91  C   UNL A   1      47.604  24.508  34.853  1.00  0.00     0.198 A 
ATOM     92  F   UNL A   1      45.266  24.665  34.638  1.00  0.00    -0.203 F 
ATOM     93  F   UNL A   1      50.260  26.194  33.054  1.00  0.00    -0.200 F 
ATOM     94  C   UNL A   1      48.876  24.890  34.455  1.00  0.00     0.200 A 
ATOM     95  F   UNL A   1      47.452  23.594  35.822  1.00  0.00    -0.200 F 
ATOM     96  F   UNL A   1      49.953  24.331  35.023  1.00  0.00    -0.200 F 
ENDBRANCH  63  86
ENDBRANCH  37  38
ENDBRANCH  29  32
ENDBRANCH  27  28
ENDBRANCH  26  27
ENDBRANCH   1  26
TORSDOF 13
ENDMDL
MODEL 2
REMARK VINA RESULT:     -12.4      4.012      9.382
REMARK SMILES Cc1cc(C(=O)NCCCNC(=O)c2ccc(-c3c4nc(c(-c5c(F)c(F)c(F)c(F)c5F)c5ccc([nH]5)c(-c5c(F)c(F)c(F)c(F)c5F)c5nc(c(-c6c(F)c(F)c(F)c(F)c6F)c6ccc3[nH]6)C=C5)C=C4)cc2)c(NC(=O)c2nc(C(C)(C)C)n[nH]2)s1
REMARK SMILES IDX 8 1 7 2 5 3 6 4 4 6 1 7 2 8 3 9 90 10 77 11 78 12 79 13
REMARK SMILES IDX 80 15 81 16 82 17 89 18 83 19 88 20 84 22 85 23 86 24 87 25
REMARK SMILES IDX 9 26 10 27 11 28 12 29 13 31 14 32 15 33 76 34 16 35 75 36
REMARK SMILES IDX 17 37 18 38 19 39 69 40 20 41 74 42 68 43 70 44 21 45 73 46
REMARK SMILES IDX 67 47 66 48 22 50 54 51 34 52 53 53 35 54 38 55 52 56 71 57
REMARK SMILES IDX 36 58 37 59 51 61 72 62 39 63 23 64 24 65 32 66 25 67 26 68
REMARK SMILES IDX 30 69 33 70 27 71 28 72 31 73 29 74 55 75 56 76 64 77 57 78
REMARK SMILES IDX 58 79 62 80 65 81 59 82 60 83 63 84 61 85 40 86 41 87 49 88
REMARK SMILES IDX 42 89 43 90 47 91 50 92 44 93 45 94 48 95 46 96
REMARK H PARENT 7 5 78 14 89 21 11 30 70 49 38 60
REMARK Flexibility Score: inf
ROOT
ATOM      1  C   UNL A   1      34.342  24.668  24.951  1.00  0.00     0.118 C 
ENDROOT
BRANCH   1   2
ATOM      2  N   UNL A   1      34.088  25.503  23.797  1.00  0.00    -0.352 N 
ATOM      3  C   UNL A   1      33.682  26.805  23.671  1.00  0.00     0.254 C 
ATOM      4  O   UNL A   1      33.658  27.252  22.521  1.00  0.00    -0.269 OA
ATOM      5  H   UNL A   1      34.237  25.048  22.938  1.00  0.00     0.163 HD
BRANCH   3   6
ATOM      6  C   UNL A   1      33.320  27.655  24.817  1.00  0.00     0.074 A 
ATOM      7  C   UNL A   1      33.873  30.362  27.437  1.00  0.00     0.056 C 
ATOM      8  C   UNL A   1      33.423  29.257  26.546  1.00  0.00     0.004 A 
ATOM      9  C   UNL A   1      34.120  28.596  25.560  1.00  0.00     0.031 A 
ATOM     10  S   UNL A   1      31.857  28.634  26.697  1.00  0.00    -0.122 S 
ATOM     11  C   UNL A   1      32.032  27.612  25.358  1.00  0.00     0.108 A 
BRANCH  11  12
ATOM     12  N   UNL A   1      30.995  26.806  24.909  1.00  0.00    -0.310 N 
ATOM     13  C   UNL A   1      29.927  27.007  24.058  1.00  0.00     0.293 C 
ATOM     14  H   UNL A   1      31.028  25.894  25.278  1.00  0.00     0.171 HD
ATOM     15  O   UNL A   1      29.115  26.084  23.956  1.00  0.00    -0.265 OA
BRANCH  13  16
ATOM     16  C   UNL A   1      29.813  28.203  23.268  1.00  0.00     0.214 A 
ATOM     17  N   UNL A   1      28.949  29.177  23.470  1.00  0.00    -0.207 NA
ATOM     18  N   UNL A   1      30.557  28.500  22.166  1.00  0.00    -0.255 N 
ATOM     19  C   UNL A   1      29.264  30.095  22.499  1.00  0.00     0.156 A 
ATOM     20  N   UNL A   1      30.242  29.706  21.666  1.00  0.00    -0.158 NA
ATOM     21  H   UNL A   1      31.241  27.904  21.783  1.00  0.00     0.192 HD
BRANCH  19  22
ATOM     22  C   UNL A   1      28.534  31.409  22.376  1.00  0.00     0.024 C 
ATOM     23  C   UNL A   1      28.023  31.573  20.934  1.00  0.00     0.019 C 
ATOM     24  C   UNL A   1      27.329  31.444  23.340  1.00  0.00     0.019 C 
ATOM     25  C   UNL A   1      29.447  32.602  22.725  1.00  0.00     0.019 C 
ENDBRANCH  19  22
ENDBRANCH  13  16
ENDBRANCH  11  12
ENDBRANCH   3   6
ENDBRANCH   1   2
BRANCH   1  26
ATOM     26  C   UNL A   1      35.712  23.995  24.877  1.00  0.00     0.042 C 
BRANCH  26  27
ATOM     27  C   UNL A   1      36.232  23.518  26.233  1.00  0.00     0.118 C 
BRANCH  27  28
ATOM     28  N   UNL A   1      37.375  22.628  26.094  1.00  0.00    -0.352 N 
ATOM     29  C   UNL A   1      38.720  22.869  26.205  1.00  0.00     0.251 C 
ATOM     30  H   UNL A   1      37.144  21.695  25.883  1.00  0.00     0.163 HD
ATOM     31  O   UNL A   1      39.508  22.010  25.820  1.00  0.00    -0.269 OA
BRANCH  29  32
ATOM     32  C   UNL A   1      39.239  24.131  26.778  1.00  0.00     0.039 A 
ATOM     33  C   UNL A   1      38.949  24.416  28.117  1.00  0.00     0.014 A 
ATOM     34  C   UNL A   1      39.918  25.074  26.000  1.00  0.00     0.014 A 
ATOM     35  C   UNL A   1      39.360  25.626  28.681  1.00  0.00     0.010 A 
ATOM     36  C   UNL A   1      40.384  26.254  26.581  1.00  0.00     0.010 A 
ATOM     37  C   UNL A   1      40.095  26.549  27.921  1.00  0.00    -0.014 A 
BRANCH  37  38
ATOM     38  C   UNL A   1      40.545  27.832  28.515  1.00  0.00     0.031 A 
ATOM     39  C   UNL A   1      41.989  28.036  28.883  1.00  0.00     0.074 A 
ATOM     40  C   UNL A   1      39.643  28.803  28.758  1.00  0.00     0.049 A 
ATOM     41  N   UNL A   1      42.565  29.073  29.438  1.00  0.00    -0.248 NA
ATOM     42  C   UNL A   1      42.904  26.916  28.612  1.00  0.00     0.031 C 
ATOM     43  C   UNL A   1      38.209  28.708  28.487  1.00  0.00     0.029 A 
ATOM     44  N   UNL A   1      39.800  30.058  29.290  1.00  0.00    -0.354 N 
ATOM     45  C   UNL A   1      43.901  28.724  29.599  1.00  0.00     0.074 A 
ATOM     46  C   UNL A   1      44.041  27.363  29.125  1.00  0.00     0.031 C 
ATOM     47  C   UNL A   1      37.619  29.862  28.835  1.00  0.00     0.029 A 
ATOM     48  C   UNL A   1      38.628  30.768  29.377  1.00  0.00     0.049 A 
ATOM     49  H   UNL A   1      40.669  30.414  29.583  1.00  0.00     0.167 HD
ATOM     50  C   UNL A   1      44.920  29.477  30.078  1.00  0.00     0.037 A 
ATOM     51  C   UNL A   1      38.396  32.010  29.839  1.00  0.00     0.037 A 
ATOM     52  C   UNL A   1      44.782  30.840  30.522  1.00  0.00     0.049 A 
ATOM     53  C   UNL A   1      39.550  32.835  30.338  1.00  0.00     0.074 A 
ATOM     54  C   UNL A   1      45.761  31.704  30.979  1.00  0.00     0.029 A 
ATOM     55  N   UNL A   1      43.583  31.538  30.559  1.00  0.00    -0.354 N 
ATOM     56  N   UNL A   1      40.817  32.515  30.429  1.00  0.00    -0.248 NA
ATOM     57  C   UNL A   1      39.241  34.200  30.785  1.00  0.00     0.031 C 
ATOM     58  C   UNL A   1      45.150  32.914  31.325  1.00  0.00     0.029 A 
ATOM     59  C   UNL A   1      43.798  32.820  31.040  1.00  0.00     0.049 A 
ATOM     60  H   UNL A   1      42.710  31.177  30.284  1.00  0.00     0.167 HD
ATOM     61  C   UNL A   1      41.462  33.645  30.912  1.00  0.00     0.074 A 
ATOM     62  C   UNL A   1      40.446  34.664  31.082  1.00  0.00     0.031 C 
ATOM     63  C   UNL A   1      42.777  33.825  31.191  1.00  0.00     0.037 A 
BRANCH  50  64
ATOM     64  C   UNL A   1      46.280  28.842  30.144  1.00  0.00     0.064 A 
ATOM     65  C   UNL A   1      47.168  28.894  29.059  1.00  0.00     0.173 A 
ATOM     66  C   UNL A   1      46.712  28.202  31.315  1.00  0.00     0.173 A 
ATOM     67  F   UNL A   1      46.800  29.484  27.912  1.00  0.00    -0.203 F 
ATOM     68  C   UNL A   1      48.427  28.304  29.135  1.00  0.00     0.198 A 
ATOM     69  C   UNL A   1      47.984  27.639  31.397  1.00  0.00     0.198 A 
ATOM     70  F   UNL A   1      45.905  28.128  32.384  1.00  0.00    -0.203 F 
ATOM     71  F   UNL A   1      49.240  28.325  28.068  1.00  0.00    -0.200 F 
ATOM     72  C   UNL A   1      48.837  27.683  30.305  1.00  0.00     0.200 A 
ATOM     73  F   UNL A   1      48.382  27.049  32.532  1.00  0.00    -0.200 F 
ATOM     74  F   UNL A   1      50.051  27.120  30.377  1.00  0.00    -0.200 F 
ENDBRANCH  50  64
BRANCH  51  75
ATOM     75  C   UNL A   1      37.018  32.564  29.808  1.00  0.00     0.064 A 
ATOM     76  C   UNL A   1      36.546  33.253  28.682  1.00  0.00     0.173 A 
ATOM     77  C   UNL A   1      36.145  32.413  30.894  1.00  0.00     0.173 A 
ATOM     78  F   UNL A   1      37.351  33.439  27.625  1.00  0.00    -0.203 F 
ATOM     79  C   UNL A   1      35.260  33.788  28.652  1.00  0.00     0.198 A 
ATOM     80  C   UNL A   1      34.850  32.925  30.853  1.00  0.00     0.198 A 
ATOM     81  F   UNL A   1      36.546  31.755  31.992  1.00  0.00    -0.203 F 
ATOM     82  F   UNL A   1      34.849  34.478  27.579  1.00  0.00    -0.200 F 
ATOM     83  C   UNL A   1      34.411  33.619  29.735  1.00  0.00     0.200 A 
ATOM     84  F   UNL A   1      34.027  32.746  31.896  1.00  0.00    -0.200 F 
ATOM     85  F   UNL A   1      33.172  34.129  29.704  1.00  0.00    -0.200 F 
ENDBRANCH  51  75
BRANCH  63  86
ATOM     86  C   UNL A   1      43.196  35.184  31.665  1.00  0.00     0.064 A 
ATOM     87  C   UNL A   1      43.128  35.546  33.020  1.00  0.00     0.173 A 
ATOM     88  C   UNL A   1      43.691  36.130  30.756  1.00  0.00     0.173 A 
ATOM     89  F   UNL A   1      42.647  34.681  33.925  1.00  0.00    -0.203 F 
ATOM     90  C   UNL A   1      43.513  36.816  33.440  1.00  0.00     0.198 A 
ATOM     91  C   UNL A   1      44.102  37.390  31.184  1.00  0.00     0.198 A 
ATOM     92  F   UNL A   1      43.780  35.831  29.450  1.00  0.00    -0.203 F 
ATOM     93  F   UNL A   1      43.391  37.158  34.730  1.00  0.00    -0.200 F 
ATOM     94  C   UNL A   1      44.004  37.734  32.523  1.00  0.00     0.200 A 
ATOM     95  F   UNL A   1      44.586  38.272  30.299  1.00  0.00    -0.200 F 
ATOM     96  F   UNL A   1      44.374  38.956  32.930  1.00  0.00    -0.200 F 
ENDBRANCH  63  86
ENDBRANCH  37  38
ENDBRANCH  29  32
ENDBRANCH  27  28
ENDBRANCH  26  27
ENDBRANCH   1  26
TORSDOF 13
ENDMDL
MODEL 3
REMARK VINA RESULT:     -12.3      0.398      1.693
REMARK SMILES Cc1cc(C(=O)NCCCNC(=O)c2ccc(-c3c4nc(c(-c5c(F)c(F)c(F)c(F)c5F)c5ccc([nH]5)c(-c5c(F)c(F)c(F)c(F)c5F)c5nc(c(-c6c(F)c(F)c(F)c(F)c6F)c6ccc3[nH]6)C=C5)C=C4)cc2)c(NC(=O)c2nc(C(C)(C)C)n[nH]2)s1
REMARK SMILES IDX 8 1 7 2 5 3 6 4 4 6 1 7 2 8 3 9 90 10 77 11 78 12 79 13
REMARK SMILES IDX 80 15 81 16 82 17 89 18 83 19 88 20 84 22 85 23 86 24 87 25
REMARK SMILES IDX 9 26 10 27 11 28 12 29 13 31 14 32 15 33 76 34 16 35 75 36
REMARK SMILES IDX 17 37 18 38 19 39 69 40 20 41 74 42 68 43 70 44 21 45 73 46
REMARK SMILES IDX 67 47 66 48 22 50 54 51 34 52 53 53 35 54 38 55 52 56 71 57
REMARK SMILES IDX 36 58 37 59 51 61 72 62 39 63 23 64 24 65 32 66 25 67 26 68
REMARK SMILES IDX 30 69 33 70 27 71 28 72 31 73 29 74 55 75 56 76 64 77 57 78
REMARK SMILES IDX 58 79 62 80 65 81 59 82 60 83 63 84 61 85 40 86 41 87 49 88
REMARK SMILES IDX 42 89 43 90 47 91 50 92 44 93 45 94 48 95 46 96
REMARK H PARENT 7 5 78 14 89 21 11 30 70 49 38 60
REMARK Flexibility Score: inf
ROOT
ATOM      1  C   UNL A   1      31.758  27.651  26.523  1.00  0.00     0.118 C 
ENDROOT
BRANCH   1   2
ATOM      2  N   UNL A   1      31.259  26.320  26.793  1.00  0.00    -0.352 N 
ATOM      3  C   UNL A   1      31.385  25.132  26.123  1.00  0.00     0.254 C 
ATOM      4  O   UNL A   1      30.911  24.143  26.687  1.00  0.00    -0.269 OA
ATOM      5  H   UNL A   1      30.726  26.256  27.618  1.00  0.00     0.163 HD
BRANCH   3   6
ATOM      6  C   UNL A   1      32.066  25.005  24.824  1.00  0.00     0.074 A 
ATOM      7  C   UNL A   1      32.532  25.553  21.085  1.00  0.00     0.056 C 
ATOM      8  C   UNL A   1      32.570  25.177  22.526  1.00  0.00     0.004 A 
ATOM      9  C   UNL A   1      31.636  25.411  23.510  1.00  0.00     0.031 A 
ATOM     10  S   UNL A   1      33.892  24.320  23.142  1.00  0.00    -0.122 S 
ATOM     11  C   UNL A   1      33.323  24.401  24.735  1.00  0.00     0.108 A 
BRANCH  11  12
ATOM     12  N   UNL A   1      34.042  23.872  25.798  1.00  0.00    -0.310 N 
ATOM     13  C   UNL A   1      34.091  22.628  26.395  1.00  0.00     0.293 C 
ATOM     14  H   UNL A   1      34.649  24.525  26.217  1.00  0.00     0.171 HD
ATOM     15  O   UNL A   1      34.783  22.526  27.411  1.00  0.00    -0.265 OA
BRANCH  13  16
ATOM     16  C   UNL A   1      33.433  21.490  25.812  1.00  0.00     0.214 A 
ATOM     17  N   UNL A   1      34.030  20.409  25.354  1.00  0.00    -0.207 NA
ATOM     18  N   UNL A   1      32.091  21.368  25.610  1.00  0.00    -0.255 N 
ATOM     19  C   UNL A   1      32.989  19.611  24.950  1.00  0.00     0.156 A 
ATOM     20  N   UNL A   1      31.778  20.174  25.079  1.00  0.00    -0.158 NA
ATOM     21  H   UNL A   1      31.432  22.067  25.826  1.00  0.00     0.192 HD
BRANCH  19  22
ATOM     22  C   UNL A   1      33.215  18.233  24.378  1.00  0.00     0.024 C 
ATOM     23  C   UNL A   1      34.728  17.978  24.254  1.00  0.00     0.019 C 
ATOM     24  C   UNL A   1      32.604  17.162  25.306  1.00  0.00     0.019 C 
ATOM     25  C   UNL A   1      32.563  18.079  22.990  1.00  0.00     0.019 C 
ENDBRANCH  19  22
ENDBRANCH  13  16
ENDBRANCH  11  12
ENDBRANCH   3   6
ENDBRANCH   1   2
BRANCH   1  26
ATOM     26  C   UNL A   1      33.255  27.766  26.806  1.00  0.00     0.042 C 
BRANCH  26  27
ATOM     27  C   UNL A   1      33.956  28.827  25.958  1.00  0.00     0.118 C 
BRANCH  27  28
ATOM     28  N   UNL A   1      33.835  30.155  26.541  1.00  0.00    -0.352 N 
ATOM     29  C   UNL A   1      34.559  30.772  27.528  1.00  0.00     0.251 C 
ATOM     30  H   UNL A   1      33.110  30.703  26.164  1.00  0.00     0.163 HD
ATOM     31  O   UNL A   1      34.128  31.815  28.014  1.00  0.00    -0.269 OA
BRANCH  29  32
ATOM     32  C   UNL A   1      35.841  30.216  28.016  1.00  0.00     0.039 A 
ATOM     33  C   UNL A   1      35.886  29.704  29.317  1.00  0.00     0.014 A 
ATOM     34  C   UNL A   1      37.012  30.278  27.255  1.00  0.00     0.014 A 
ATOM     35  C   UNL A   1      37.090  29.232  29.843  1.00  0.00     0.010 A 
ATOM     36  C   UNL A   1      38.201  29.748  27.757  1.00  0.00     0.010 A 
ATOM     37  C   UNL A   1      38.256  29.236  29.061  1.00  0.00    -0.014 A 
BRANCH  37  38
ATOM     38  C   UNL A   1      39.537  28.726  29.609  1.00  0.00     0.031 A 
ATOM     39  C   UNL A   1      40.235  29.459  30.721  1.00  0.00     0.074 A 
ATOM     40  C   UNL A   1      40.092  27.620  29.077  1.00  0.00     0.049 A 
ATOM     41  N   UNL A   1      41.374  29.186  31.308  1.00  0.00    -0.248 NA
ATOM     42  C   UNL A   1      39.578  30.675  31.226  1.00  0.00     0.031 C 
ATOM     43  C   UNL A   1      39.535  26.847  27.966  1.00  0.00     0.029 A 
ATOM     44  N   UNL A   1      41.250  26.956  29.397  1.00  0.00    -0.354 N 
ATOM     45  C   UNL A   1      41.576  30.202  32.234  1.00  0.00     0.074 A 
ATOM     46  C   UNL A   1      40.467  31.121  32.100  1.00  0.00     0.031 C 
ATOM     47  C   UNL A   1      40.338  25.803  27.711  1.00  0.00     0.029 A 
ATOM     48  C   UNL A   1      41.480  25.847  28.620  1.00  0.00     0.049 A 
ATOM     49  H   UNL A   1      41.857  27.247  30.114  1.00  0.00     0.167 HD
ATOM     50  C   UNL A   1      42.585  30.343  33.128  1.00  0.00     0.037 A 
ATOM     51  C   UNL A   1      42.496  24.965  28.643  1.00  0.00     0.037 A 
ATOM     52  C   UNL A   1      43.672  29.410  33.277  1.00  0.00     0.049 A 
ATOM     53  C   UNL A   1      43.587  25.128  29.665  1.00  0.00     0.074 A 
ATOM     54  C   UNL A   1      44.715  29.437  34.186  1.00  0.00     0.029 A 
ATOM     55  N   UNL A   1      43.849  28.277  32.496  1.00  0.00    -0.354 N 
ATOM     56  N   UNL A   1      43.736  26.059  30.575  1.00  0.00    -0.248 NA
ATOM     57  C   UNL A   1      44.644  24.108  29.671  1.00  0.00     0.031 C 
ATOM     58  C   UNL A   1      45.544  28.339  33.932  1.00  0.00     0.029 A 
ATOM     59  C   UNL A   1      44.992  27.603  32.897  1.00  0.00     0.049 A 
ATOM     60  H   UNL A   1      43.253  27.994  31.767  1.00  0.00     0.167 HD
ATOM     61  C   UNL A   1      44.882  25.723  31.282  1.00  0.00     0.074 A 
ATOM     62  C   UNL A   1      45.381  24.492  30.703  1.00  0.00     0.031 C 
ATOM     63  C   UNL A   1      45.468  26.372  32.317  1.00  0.00     0.037 A 
BRANCH  50  64
ATOM     64  C   UNL A   1      42.557  31.551  34.020  1.00  0.00     0.064 A 
ATOM     65  C   UNL A   1      41.843  31.556  35.228  1.00  0.00     0.173 A 
ATOM     66  C   UNL A   1      43.277  32.706  33.680  1.00  0.00     0.173 A 
ATOM     67  F   UNL A   1      41.128  30.482  35.595  1.00  0.00    -0.203 F 
ATOM     68  C   UNL A   1      41.828  32.683  36.047  1.00  0.00     0.198 A 
ATOM     69  C   UNL A   1      43.283  33.820  34.516  1.00  0.00     0.198 A 
ATOM     70  F   UNL A   1      43.981  32.753  32.538  1.00  0.00    -0.203 F 
ATOM     71  F   UNL A   1      41.099  32.680  37.173  1.00  0.00    -0.200 F 
ATOM     72  C   UNL A   1      42.553  33.810  35.694  1.00  0.00     0.200 A 
ATOM     73  F   UNL A   1      43.994  34.905  34.179  1.00  0.00    -0.200 F 
ATOM     74  F   UNL A   1      42.542  34.891  36.486  1.00  0.00    -0.200 F 
ENDBRANCH  50  64
BRANCH  51  75
ATOM     75  C   UNL A   1      42.503  23.823  27.694  1.00  0.00     0.064 A 
ATOM     76  C   UNL A   1      43.012  23.972  26.395  1.00  0.00     0.173 A 
ATOM     77  C   UNL A   1      42.011  22.563  28.062  1.00  0.00     0.173 A 
ATOM     78  F   UNL A   1      43.477  25.163  25.992  1.00  0.00    -0.203 F 
ATOM     79  C   UNL A   1      43.009  22.908  25.495  1.00  0.00     0.198 A 
ATOM     80  C   UNL A   1      42.034  21.493  27.170  1.00  0.00     0.198 A 
ATOM     81  F   UNL A   1      41.522  22.367  29.296  1.00  0.00    -0.203 F 
ATOM     82  F   UNL A   1      43.462  23.089  24.248  1.00  0.00    -0.200 F 
ATOM     83  C   UNL A   1      42.525  21.668  25.885  1.00  0.00     0.200 A 
ATOM     84  F   UNL A   1      41.579  20.293  27.556  1.00  0.00    -0.200 F 
ATOM     85  F   UNL A   1      42.527  20.644  25.021  1.00  0.00    -0.200 F 
ENDBRANCH  51  75
BRANCH  63  86
ATOM     86  C   UNL A   1      46.690  25.741  32.916  1.00  0.00     0.064 A 
ATOM     87  C   UNL A   1      47.979  26.044  32.452  1.00  0.00     0.173 A 
ATOM     88  C   UNL A   1      46.569  24.838  33.983  1.00  0.00     0.173 A 
ATOM     89  F   UNL A   1      48.145  26.889  31.425  1.00  0.00    -0.203 F 
ATOM     90  C   UNL A   1      49.100  25.440  33.015  1.00  0.00     0.198 A 
ATOM     91  C   UNL A   1      47.694  24.259  34.562  1.00  0.00     0.198 A 
ATOM     92  F   UNL A   1      45.358  24.521  34.467  1.00  0.00    -0.203 F 
ATOM     93  F   UNL A   1      50.318  25.703  32.523  1.00  0.00    -0.200 F 
ATOM     94  C   UNL A   1      48.957  24.553  34.073  1.00  0.00     0.200 A 
ATOM     95  F   UNL A   1      47.555  23.411  35.591  1.00  0.00    -0.200 F 
ATOM     96  F   UNL A   1      50.038  23.974  34.613  1.00  0.00    -0.200 F 
ENDBRANCH  63  86
ENDBRANCH  37  38
ENDBRANCH  29  32
ENDBRANCH  27  28
ENDBRANCH  26  27
ENDBRANCH   1  26
TORSDOF 13
ENDMDL
