MODEL 1
REMARK VINA RESULT:     -10.8      0.000      0.000
REMARK SMILES CN(CC(C)(C)O)S(=O)(=O)CCCC(=O)NCCCNC(=O)c1ccc(-c2c3nc(c(-c4c(F)c(F)c(F)c(F)c4F)c4ccc([nH]4)c(-c4c(F)c(F)c(F)c(F)c4F)c4nc(c(-c5c(F)c(F)c(F)c(F)c5F)c5ccc2[nH]5)C=C4)C=C3)cc1
REMARK SMILES IDX 14 1 15 2 16 3 13 5 12 6 11 7 8 8 9 9 10 10 2 11 1 12 3 13
REMARK SMILES IDX 4 14 5 15 6 16 7 17 17 19 18 20 19 21 20 22 21 23 22 25
REMARK SMILES IDX 23 26 24 27 85 28 25 29 84 30 26 31 27 32 28 33 78 34 29 35
REMARK SMILES IDX 83 36 77 37 79 38 30 39 82 40 76 41 75 42 31 44 63 45 43 46
REMARK SMILES IDX 62 47 44 48 47 49 61 50 80 51 45 52 46 53 60 55 81 56 48 57
REMARK SMILES IDX 32 58 33 59 41 60 34 61 35 62 39 63 42 64 36 65 37 66 40 67
REMARK SMILES IDX 38 68 64 69 65 70 73 71 66 72 67 73 71 74 74 75 68 76 69 77
REMARK SMILES IDX 72 78 70 79 49 80 50 81 58 82 51 83 52 84 56 85 59 86 53 87
REMARK SMILES IDX 54 88 57 89 55 90
REMARK H PARENT 16 4 7 18 20 24 79 43 47 54
REMARK Flexibility Score: inf
ROOT
ATOM      1  C   UNL A   1      33.958  29.312  27.157  1.00  0.00     0.220 C 
ATOM      2  O   UNL A   1      34.953  29.235  27.880  1.00  0.00    -0.275 OA
ATOM      3  N   UNL A   1      33.024  30.249  27.474  1.00  0.00    -0.356 N 
ATOM      4  H   UNL A   1      33.154  30.688  28.346  1.00  0.00     0.163 HD
ENDROOT
BRANCH   1   5
ATOM      5  C   UNL A   1      33.804  28.395  25.950  1.00  0.00     0.101 C 
BRANCH   5   6
ATOM      6  C   UNL A   1      33.110  27.063  26.227  1.00  0.00     0.027 C 
BRANCH   6   7
ATOM      7  C   UNL A   1      31.591  27.054  26.279  1.00  0.00     0.155 C 
BRANCH   7   8
ATOM      8  S   UNL A   1      30.683  25.773  25.415  1.00  0.00     0.213 S 
ATOM      9  O   UNL A   1      29.593  26.444  24.741  1.00  0.00    -0.212 OA
ATOM     10  O   UNL A   1      30.378  24.768  26.415  1.00  0.00    -0.212 OA
BRANCH   8  11
ATOM     11  N   UNL A   1      31.628  25.016  24.247  1.00  0.00    -0.202 NA
ATOM     12  C   UNL A   1      32.065  23.653  24.656  1.00  0.00     0.124 C 
BRANCH  11  13
ATOM     13  C   UNL A   1      31.442  25.081  22.768  1.00  0.00     0.136 C 
BRANCH  13  14
ATOM     14  C   UNL A   1      32.099  26.197  21.912  1.00  0.00     0.073 C 
ATOM     15  C   UNL A   1      33.312  26.866  22.545  1.00  0.00     0.043 C 
ATOM     16  C   UNL A   1      32.533  25.557  20.574  1.00  0.00     0.043 C 
BRANCH  14  17
ATOM     17  O   UNL A   1      31.131  27.198  21.583  1.00  0.00    -0.389 OA
ATOM     18  H   UNL A   1      31.353  27.591  20.724  1.00  0.00     0.211 HD
ENDBRANCH  14  17
ENDBRANCH  13  14
ENDBRANCH  11  13
ENDBRANCH   8  11
ENDBRANCH   7   8
ENDBRANCH   6   7
ENDBRANCH   5   6
ENDBRANCH   1   5
BRANCH   3  19
ATOM     19  C   UNL A   1      31.875  30.699  26.732  1.00  0.00     0.117 C 
BRANCH  19  20
ATOM     20  C   UNL A   1      31.625  32.194  26.831  1.00  0.00     0.042 C 
BRANCH  20  21
ATOM     21  C   UNL A   1      32.838  32.957  27.329  1.00  0.00     0.118 C 
BRANCH  21  22
ATOM     22  N   UNL A   1      32.542  34.334  27.721  1.00  0.00    -0.352 N 
ATOM     23  C   UNL A   1      33.059  35.105  28.741  1.00  0.00     0.251 C 
ATOM     24  H   UNL A   1      31.864  34.784  27.167  1.00  0.00     0.163 HD
ATOM     25  O   UNL A   1      32.589  36.209  28.972  1.00  0.00    -0.269 OA
BRANCH  23  26
ATOM     26  C   UNL A   1      34.160  34.568  29.567  1.00  0.00     0.039 A 
ATOM     27  C   UNL A   1      33.872  33.961  30.792  1.00  0.00     0.014 A 
ATOM     28  C   UNL A   1      35.469  34.609  29.093  1.00  0.00     0.014 A 
ATOM     29  C   UNL A   1      34.885  33.288  31.480  1.00  0.00     0.010 A 
ATOM     30  C   UNL A   1      36.441  33.838  29.708  1.00  0.00     0.010 A 
ATOM     31  C   UNL A   1      36.159  33.165  30.906  1.00  0.00    -0.014 A 
BRANCH  31  32
ATOM     32  C   UNL A   1      37.234  32.340  31.510  1.00  0.00     0.031 A 
ATOM     33  C   UNL A   1      37.743  32.687  32.882  1.00  0.00     0.074 A 
ATOM     34  C   UNL A   1      37.846  31.393  30.772  1.00  0.00     0.049 A 
ATOM     35  N   UNL A   1      38.814  32.267  33.503  1.00  0.00    -0.248 NA
ATOM     36  C   UNL A   1      36.968  33.689  33.632  1.00  0.00     0.031 C 
ATOM     37  C   UNL A   1      37.487  31.015  29.403  1.00  0.00     0.029 A 
ATOM     38  N   UNL A   1      38.923  30.593  31.063  1.00  0.00    -0.354 N 
ATOM     39  C   UNL A   1      38.868  32.990  34.686  1.00  0.00     0.074 A 
ATOM     40  C   UNL A   1      37.754  33.912  34.675  1.00  0.00     0.031 C 
ATOM     41  C   UNL A   1      38.312  30.044  28.982  1.00  0.00     0.029 A 
ATOM     42  C   UNL A   1      39.287  29.763  30.030  1.00  0.00     0.049 A 
ATOM     43  H   UNL A   1      39.390  30.611  31.930  1.00  0.00     0.167 HD
ATOM     44  C   UNL A   1      39.754  32.876  35.704  1.00  0.00     0.037 A 
ATOM     45  C   UNL A   1      40.304  28.886  29.937  1.00  0.00     0.037 A 
ATOM     46  C   UNL A   1      40.817  31.908  35.732  1.00  0.00     0.049 A 
ATOM     47  C   UNL A   1      41.242  28.738  31.103  1.00  0.00     0.074 A 
ATOM     48  C   UNL A   1      41.718  31.642  36.747  1.00  0.00     0.029 A 
ATOM     49  N   UNL A   1      41.111  31.036  34.693  1.00  0.00    -0.354 N 
ATOM     50  N   UNL A   1      41.253  29.387  32.243  1.00  0.00    -0.248 NA
ATOM     51  C   UNL A   1      42.308  27.737  30.973  1.00  0.00     0.031 C 
ATOM     52  C   UNL A   1      42.575  30.625  36.312  1.00  0.00     0.029 A 
ATOM     53  C   UNL A   1      42.185  30.234  35.040  1.00  0.00     0.049 A 
ATOM     54  H   UNL A   1      40.626  30.992  33.837  1.00  0.00     0.167 HD
ATOM     55  C   UNL A   1      42.309  28.862  32.971  1.00  0.00     0.074 A 
ATOM     56  C   UNL A   1      42.906  27.828  32.152  1.00  0.00     0.031 C 
ATOM     57  C   UNL A   1      42.752  29.206  34.205  1.00  0.00     0.037 A 
BRANCH  44  58
ATOM     58  C   UNL A   1      39.596  33.810  36.869  1.00  0.00     0.064 A 
ATOM     59  C   UNL A   1      38.837  33.459  37.996  1.00  0.00     0.173 A 
ATOM     60  C   UNL A   1      40.217  35.069  36.862  1.00  0.00     0.173 A 
ATOM     61  F   UNL A   1      38.210  32.275  38.046  1.00  0.00    -0.203 F 
ATOM     62  C   UNL A   1      38.674  34.348  39.056  1.00  0.00     0.198 A 
ATOM     63  C   UNL A   1      40.078  35.941  37.939  1.00  0.00     0.198 A 
ATOM     64  F   UNL A   1      40.956  35.453  35.811  1.00  0.00    -0.203 F 
ATOM     65  F   UNL A   1      37.894  34.014  40.092  1.00  0.00    -0.200 F 
ATOM     66  C   UNL A   1      39.299  35.585  39.029  1.00  0.00     0.200 A 
ATOM     67  F   UNL A   1      40.692  37.133  37.916  1.00  0.00    -0.200 F 
ATOM     68  F   UNL A   1      39.142  36.439  40.050  1.00  0.00    -0.200 F 
ENDBRANCH  44  58
BRANCH  45  69
ATOM     69  C   UNL A   1      40.467  28.062  28.711  1.00  0.00     0.064 A 
ATOM     70  C   UNL A   1      39.827  26.820  28.598  1.00  0.00     0.173 A 
ATOM     71  C   UNL A   1      41.250  28.494  27.632  1.00  0.00     0.173 A 
ATOM     72  F   UNL A   1      39.082  26.357  29.613  1.00  0.00    -0.203 F 
ATOM     73  C   UNL A   1      39.978  26.034  27.458  1.00  0.00     0.198 A 
ATOM     74  C   UNL A   1      41.380  27.717  26.482  1.00  0.00     0.198 A 
ATOM     75  F   UNL A   1      41.878  29.678  27.688  1.00  0.00    -0.203 F 
ATOM     76  F   UNL A   1      39.386  24.833  27.393  1.00  0.00    -0.200 F 
ATOM     77  C   UNL A   1      40.750  26.485  26.398  1.00  0.00     0.200 A 
ATOM     78  F   UNL A   1      42.117  28.162  25.455  1.00  0.00    -0.200 F 
ATOM     79  F   UNL A   1      40.892  25.729  25.301  1.00  0.00    -0.200 F 
ENDBRANCH  45  69
BRANCH  57  80
ATOM     80  C   UNL A   1      43.919  28.441  34.750  1.00  0.00     0.064 A 
ATOM     81  C   UNL A   1      43.741  27.240  35.450  1.00  0.00     0.173 A 
ATOM     82  C   UNL A   1      45.229  28.889  34.526  1.00  0.00     0.173 A 
ATOM     83  F   UNL A   1      42.506  26.781  35.702  1.00  0.00    -0.203 F 
ATOM     84  C   UNL A   1      44.835  26.523  35.924  1.00  0.00     0.198 A 
ATOM     85  C   UNL A   1      46.321  28.157  34.978  1.00  0.00     0.198 A 
ATOM     86  F   UNL A   1      45.448  30.029  33.856  1.00  0.00    -0.203 F 
ATOM     87  F   UNL A   1      44.643  25.397  36.626  1.00  0.00    -0.200 F 
ATOM     88  C   UNL A   1      46.124  26.977  35.682  1.00  0.00     0.200 A 
ATOM     89  F   UNL A   1      47.565  28.590  34.734  1.00  0.00    -0.200 F 
ATOM     90  F   UNL A   1      47.177  26.280  36.131  1.00  0.00    -0.200 F 
ENDBRANCH  57  80
ENDBRANCH  31  32
ENDBRANCH  23  26
ENDBRANCH  21  22
ENDBRANCH  20  21
ENDBRANCH  19  20
ENDBRANCH   3  19
TORSDOF 17
ENDMDL
MODEL 2
REMARK VINA RESULT:     -10.8      1.100      2.196
REMARK SMILES CN(CC(C)(C)O)S(=O)(=O)CCCC(=O)NCCCNC(=O)c1ccc(-c2c3nc(c(-c4c(F)c(F)c(F)c(F)c4F)c4ccc([nH]4)c(-c4c(F)c(F)c(F)c(F)c4F)c4nc(c(-c5c(F)c(F)c(F)c(F)c5F)c5ccc2[nH]5)C=C4)C=C3)cc1
REMARK SMILES IDX 14 1 15 2 16 3 13 5 12 6 11 7 8 8 9 9 10 10 2 11 1 12 3 13
REMARK SMILES IDX 4 14 5 15 6 16 7 17 17 19 18 20 19 21 20 22 21 23 22 25
REMARK SMILES IDX 23 26 24 27 85 28 25 29 84 30 26 31 27 32 28 33 78 34 29 35
REMARK SMILES IDX 83 36 77 37 79 38 30 39 82 40 76 41 75 42 31 44 63 45 43 46
REMARK SMILES IDX 62 47 44 48 47 49 61 50 80 51 45 52 46 53 60 55 81 56 48 57
REMARK SMILES IDX 32 58 33 59 41 60 34 61 35 62 39 63 42 64 36 65 37 66 40 67
REMARK SMILES IDX 38 68 64 69 65 70 73 71 66 72 67 73 71 74 74 75 68 76 69 77
REMARK SMILES IDX 72 78 70 79 49 80 50 81 58 82 51 83 52 84 56 85 59 86 53 87
REMARK SMILES IDX 54 88 57 89 55 90
REMARK H PARENT 16 4 7 18 20 24 79 43 47 54
REMARK Flexibility Score: inf
ROOT
ATOM      1  C   UNL A   1      33.920  29.312  26.919  1.00  0.00     0.220 C 
ATOM      2  O   UNL A   1      34.898  29.198  27.660  1.00  0.00    -0.275 OA
ATOM      3  N   UNL A   1      32.917  30.136  27.329  1.00  0.00    -0.356 N 
ATOM      4  H   UNL A   1      32.995  30.456  28.257  1.00  0.00     0.163 HD
ENDROOT
BRANCH   1   5
ATOM      5  C   UNL A   1      33.860  28.565  25.593  1.00  0.00     0.101 C 
BRANCH   5   6
ATOM      6  C   UNL A   1      33.508  27.082  25.695  1.00  0.00     0.027 C 
BRANCH   6   7
ATOM      7  C   UNL A   1      33.545  26.257  24.419  1.00  0.00     0.155 C 
BRANCH   7   8
ATOM      8  S   UNL A   1      32.369  26.598  23.110  1.00  0.00     0.213 S 
ATOM      9  O   UNL A   1      32.295  25.389  22.318  1.00  0.00    -0.212 OA
ATOM     10  O   UNL A   1      32.827  27.822  22.482  1.00  0.00    -0.212 OA
BRANCH   8  11
ATOM     11  N   UNL A   1      30.833  26.916  23.717  1.00  0.00    -0.202 NA
ATOM     12  C   UNL A   1      30.387  25.902  24.712  1.00  0.00     0.124 C 
BRANCH  11  13
ATOM     13  C   UNL A   1      30.262  28.254  24.045  1.00  0.00     0.136 C 
BRANCH  13  14
ATOM     14  C   UNL A   1      29.425  29.060  23.016  1.00  0.00     0.073 C 
ATOM     15  C   UNL A   1      27.974  28.615  22.875  1.00  0.00     0.043 C 
ATOM     16  C   UNL A   1      29.445  30.539  23.462  1.00  0.00     0.043 C 
BRANCH  14  17
ATOM     17  O   UNL A   1      30.053  29.019  21.732  1.00  0.00    -0.389 OA
ATOM     18  H   UNL A   1      29.440  29.360  21.062  1.00  0.00     0.211 HD
ENDBRANCH  14  17
ENDBRANCH  13  14
ENDBRANCH  11  13
ENDBRANCH   8  11
ENDBRANCH   7   8
ENDBRANCH   6   7
ENDBRANCH   5   6
ENDBRANCH   1   5
BRANCH   3  19
ATOM     19  C   UNL A   1      31.761  30.612  26.616  1.00  0.00     0.117 C 
BRANCH  19  20
ATOM     20  C   UNL A   1      31.564  32.116  26.697  1.00  0.00     0.042 C 
BRANCH  20  21
ATOM     21  C   UNL A   1      32.753  32.828  27.315  1.00  0.00     0.118 C 
BRANCH  21  22
ATOM     22  N   UNL A   1      32.481  34.220  27.670  1.00  0.00    -0.352 N 
ATOM     23  C   UNL A   1      33.017  35.011  28.664  1.00  0.00     0.251 C 
ATOM     24  H   UNL A   1      31.805  34.664  27.108  1.00  0.00     0.163 HD
ATOM     25  O   UNL A   1      32.566  36.128  28.867  1.00  0.00    -0.269 OA
BRANCH  23  26
ATOM     26  C   UNL A   1      34.118  34.481  29.495  1.00  0.00     0.039 A 
ATOM     27  C   UNL A   1      33.823  33.843  30.703  1.00  0.00     0.014 A 
ATOM     28  C   UNL A   1      35.432  34.560  29.043  1.00  0.00     0.014 A 
ATOM     29  C   UNL A   1      34.840  33.178  31.394  1.00  0.00     0.010 A 
ATOM     30  C   UNL A   1      36.411  33.798  29.658  1.00  0.00     0.010 A 
ATOM     31  C   UNL A   1      36.126  33.094  30.837  1.00  0.00    -0.014 A 
BRANCH  31  32
ATOM     32  C   UNL A   1      37.209  32.280  31.441  1.00  0.00     0.031 A 
ATOM     33  C   UNL A   1      37.717  32.634  32.812  1.00  0.00     0.074 A 
ATOM     34  C   UNL A   1      37.828  31.337  30.705  1.00  0.00     0.049 A 
ATOM     35  N   UNL A   1      38.793  32.226  33.431  1.00  0.00    -0.248 NA
ATOM     36  C   UNL A   1      36.934  33.632  33.561  1.00  0.00     0.031 C 
ATOM     37  C   UNL A   1      37.470  30.953  29.337  1.00  0.00     0.029 A 
ATOM     38  N   UNL A   1      38.912  30.548  30.995  1.00  0.00    -0.354 N 
ATOM     39  C   UNL A   1      38.842  32.952  34.613  1.00  0.00     0.074 A 
ATOM     40  C   UNL A   1      37.720  33.863  34.602  1.00  0.00     0.031 C 
ATOM     41  C   UNL A   1      38.303  29.988  28.917  1.00  0.00     0.029 A 
ATOM     42  C   UNL A   1      39.282  29.718  29.964  1.00  0.00     0.049 A 
ATOM     43  H   UNL A   1      39.381  30.572  31.861  1.00  0.00     0.167 HD
ATOM     44  C   UNL A   1      39.731  32.848  35.629  1.00  0.00     0.037 A 
ATOM     45  C   UNL A   1      40.307  28.850  29.871  1.00  0.00     0.037 A 
ATOM     46  C   UNL A   1      40.803  31.890  35.658  1.00  0.00     0.049 A 
ATOM     47  C   UNL A   1      41.248  28.713  31.036  1.00  0.00     0.074 A 
ATOM     48  C   UNL A   1      41.708  31.634  36.672  1.00  0.00     0.029 A 
ATOM     49  N   UNL A   1      41.102  31.018  34.621  1.00  0.00    -0.354 N 
ATOM     50  N   UNL A   1      41.255  29.365  32.174  1.00  0.00    -0.248 NA
ATOM     51  C   UNL A   1      42.322  27.721  30.906  1.00  0.00     0.031 C 
ATOM     52  C   UNL A   1      42.573  30.624  36.238  1.00  0.00     0.029 A 
ATOM     53  C   UNL A   1      42.185  30.226  34.968  1.00  0.00     0.049 A 
ATOM     54  H   UNL A   1      40.617  30.968  33.766  1.00  0.00     0.167 HD
ATOM     55  C   UNL A   1      42.317  28.851  32.902  1.00  0.00     0.074 A 
ATOM     56  C   UNL A   1      42.922  27.820  32.084  1.00  0.00     0.031 C 
ATOM     57  C   UNL A   1      42.759  29.202  34.134  1.00  0.00     0.037 A 
BRANCH  44  58
ATOM     58  C   UNL A   1      39.567  33.783  36.793  1.00  0.00     0.064 A 
ATOM     59  C   UNL A   1      40.138  35.065  36.794  1.00  0.00     0.173 A 
ATOM     60  C   UNL A   1      38.824  33.396  37.918  1.00  0.00     0.173 A 
ATOM     61  F   UNL A   1      40.871  35.478  35.749  1.00  0.00    -0.203 F 
ATOM     62  C   UNL A   1      40.003  35.910  37.893  1.00  0.00     0.198 A 
ATOM     63  C   UNL A   1      38.664  34.256  39.002  1.00  0.00     0.198 A 
ATOM     64  F   UNL A   1      38.254  32.182  37.969  1.00  0.00    -0.203 F 
ATOM     65  F   UNL A   1      40.610  37.104  37.894  1.00  0.00    -0.200 F 
ATOM     66  C   UNL A   1      39.262  35.507  38.992  1.00  0.00     0.200 A 
ATOM     67  F   UNL A   1      37.939  33.869  40.061  1.00  0.00    -0.200 F 
ATOM     68  F   UNL A   1      39.133  36.321  40.050  1.00  0.00    -0.200 F 
ENDBRANCH  44  58
BRANCH  45  69
ATOM     69  C   UNL A   1      40.475  28.025  28.647  1.00  0.00     0.064 A 
ATOM     70  C   UNL A   1      39.872  26.763  28.550  1.00  0.00     0.173 A 
ATOM     71  C   UNL A   1      41.226  28.474  27.552  1.00  0.00     0.173 A 
ATOM     72  F   UNL A   1      39.159  26.282  29.580  1.00  0.00    -0.203 F 
ATOM     73  C   UNL A   1      40.029  25.975  27.412  1.00  0.00     0.198 A 
ATOM     74  C   UNL A   1      41.361  27.695  26.404  1.00  0.00     0.198 A 
ATOM     75  F   UNL A   1      41.817  29.678  27.592  1.00  0.00    -0.203 F 
ATOM     76  F   UNL A   1      39.474  24.755  27.364  1.00  0.00    -0.200 F 
ATOM     77  C   UNL A   1      40.769  26.444  26.337  1.00  0.00     0.200 A 
ATOM     78  F   UNL A   1      42.067  28.158  25.362  1.00  0.00    -0.200 F 
ATOM     79  F   UNL A   1      40.916  25.687  25.241  1.00  0.00    -0.200 F 
ENDBRANCH  45  69
BRANCH  57  80
ATOM     80  C   UNL A   1      43.933  28.448  34.678  1.00  0.00     0.064 A 
ATOM     81  C   UNL A   1      45.243  28.918  34.514  1.00  0.00     0.173 A 
ATOM     82  C   UNL A   1      43.741  27.268  35.413  1.00  0.00     0.173 A 
ATOM     83  F   UNL A   1      45.476  30.033  33.805  1.00  0.00    -0.203 F 
ATOM     84  C   UNL A   1      46.323  28.224  35.051  1.00  0.00     0.198 A 
ATOM     85  C   UNL A   1      44.820  26.590  35.971  1.00  0.00     0.198 A 
ATOM     86  F   UNL A   1      42.505  26.783  35.601  1.00  0.00    -0.203 F 
ATOM     87  F   UNL A   1      47.571  28.670  34.850  1.00  0.00    -0.200 F 
ATOM     88  C   UNL A   1      46.110  27.066  35.785  1.00  0.00     0.200 A 
ATOM     89  F   UNL A   1      44.613  25.479  36.689  1.00  0.00    -0.200 F 
ATOM     90  F   UNL A   1      47.150  26.404  36.310  1.00  0.00    -0.200 F 
ENDBRANCH  57  80
ENDBRANCH  31  32
ENDBRANCH  23  26
ENDBRANCH  21  22
ENDBRANCH  20  21
ENDBRANCH  19  20
ENDBRANCH   3  19
TORSDOF 17
ENDMDL
MODEL 3
REMARK VINA RESULT:     -10.7      6.108     10.317
REMARK SMILES CN(CC(C)(C)O)S(=O)(=O)CCCC(=O)NCCCNC(=O)c1ccc(-c2c3nc(c(-c4c(F)c(F)c(F)c(F)c4F)c4ccc([nH]4)c(-c4c(F)c(F)c(F)c(F)c4F)c4nc(c(-c5c(F)c(F)c(F)c(F)c5F)c5ccc2[nH]5)C=C4)C=C3)cc1
REMARK SMILES IDX 14 1 15 2 16 3 13 5 12 6 11 7 8 8 9 9 10 10 2 11 1 12 3 13
REMARK SMILES IDX 4 14 5 15 6 16 7 17 17 19 18 20 19 21 20 22 21 23 22 25
REMARK SMILES IDX 23 26 24 27 85 28 25 29 84 30 26 31 27 32 28 33 78 34 29 35
REMARK SMILES IDX 83 36 77 37 79 38 30 39 82 40 76 41 75 42 31 44 63 45 43 46
REMARK SMILES IDX 62 47 44 48 47 49 61 50 80 51 45 52 46 53 60 55 81 56 48 57
REMARK SMILES IDX 32 58 33 59 41 60 34 61 35 62 39 63 42 64 36 65 37 66 40 67
REMARK SMILES IDX 38 68 64 69 65 70 73 71 66 72 67 73 71 74 74 75 68 76 69 77
REMARK SMILES IDX 72 78 70 79 49 80 50 81 58 82 51 83 52 84 56 85 59 86 53 87
REMARK SMILES IDX 54 88 57 89 55 90
REMARK H PARENT 16 4 7 18 20 24 79 43 47 54
REMARK Flexibility Score: inf
ROOT
ATOM      1  C   UNL A   1      37.328  23.802  25.963  1.00  0.00     0.220 C 
ATOM      2  O   UNL A   1      38.029  24.628  26.549  1.00  0.00    -0.275 OA
ATOM      3  N   UNL A   1      37.963  22.870  25.200  1.00  0.00    -0.356 N 
ATOM      4  H   UNL A   1      38.925  23.030  25.064  1.00  0.00     0.163 HD
ENDROOT
BRANCH   1   5
ATOM      5  C   UNL A   1      35.812  23.827  26.110  1.00  0.00     0.101 C 
BRANCH   5   6
ATOM      6  C   UNL A   1      35.075  24.713  25.107  1.00  0.00     0.027 C 
BRANCH   6   7
ATOM      7  C   UNL A   1      33.575  24.515  24.957  1.00  0.00     0.155 C 
BRANCH   7   8
ATOM      8  S   UNL A   1      32.953  23.040  24.149  1.00  0.00     0.213 S 
ATOM      9  O   UNL A   1      33.984  22.632  23.218  1.00  0.00    -0.212 OA
ATOM     10  O   UNL A   1      31.645  23.398  23.635  1.00  0.00    -0.212 OA
BRANCH   8  11
ATOM     11  N   UNL A   1      32.713  21.784  25.241  1.00  0.00    -0.202 NA
ATOM     12  C   UNL A   1      32.277  22.263  26.581  1.00  0.00     0.124 C 
BRANCH  11  13
ATOM     13  C   UNL A   1      32.120  20.447  24.947  1.00  0.00     0.136 C 
BRANCH  13  14
ATOM     14  C   UNL A   1      32.906  19.133  25.195  1.00  0.00     0.073 C 
ATOM     15  C   UNL A   1      32.418  17.929  24.398  1.00  0.00     0.043 C 
ATOM     16  C   UNL A   1      34.382  19.401  24.825  1.00  0.00     0.043 C 
BRANCH  14  17
ATOM     17  O   UNL A   1      32.894  18.807  26.588  1.00  0.00    -0.389 OA
ATOM     18  H   UNL A   1      31.997  18.922  26.939  1.00  0.00     0.211 HD
ENDBRANCH  14  17
ENDBRANCH  13  14
ENDBRANCH  11  13
ENDBRANCH   8  11
ENDBRANCH   7   8
ENDBRANCH   6   7
ENDBRANCH   5   6
ENDBRANCH   1   5
BRANCH   3  19
ATOM     19  C   UNL A   1      37.446  21.688  24.561  1.00  0.00     0.117 C 
BRANCH  19  20
ATOM     20  C   UNL A   1      38.047  20.394  25.083  1.00  0.00     0.042 C 
BRANCH  20  21
ATOM     21  C   UNL A   1      39.353  20.614  25.825  1.00  0.00     0.118 C 
BRANCH  21  22
ATOM     22  N   UNL A   1      40.195  19.421  25.892  1.00  0.00    -0.352 N 
ATOM     23  C   UNL A   1      41.549  19.293  26.119  1.00  0.00     0.251 C 
ATOM     24  H   UNL A   1      39.718  18.571  25.752  1.00  0.00     0.163 HD
ATOM     25  O   UNL A   1      42.085  18.200  26.021  1.00  0.00    -0.269 OA
BRANCH  23  26
ATOM     26  C   UNL A   1      42.343  20.495  26.450  1.00  0.00     0.039 A 
ATOM     27  C   UNL A   1      42.967  21.212  25.426  1.00  0.00     0.014 A 
ATOM     28  C   UNL A   1      42.412  20.943  27.767  1.00  0.00     0.014 A 
ATOM     29  C   UNL A   1      43.556  22.447  25.713  1.00  0.00     0.010 A 
ATOM     30  C   UNL A   1      42.882  22.219  28.028  1.00  0.00     0.010 A 
ATOM     31  C   UNL A   1      43.454  22.987  27.004  1.00  0.00    -0.014 A 
BRANCH  31  32
ATOM     32  C   UNL A   1      43.924  24.354  27.340  1.00  0.00     0.031 A 
ATOM     33  C   UNL A   1      42.935  25.367  27.847  1.00  0.00     0.074 A 
ATOM     34  C   UNL A   1      45.188  24.719  27.046  1.00  0.00     0.049 A 
ATOM     35  N   UNL A   1      43.063  26.662  27.976  1.00  0.00    -0.248 NA
ATOM     36  C   UNL A   1      41.600  24.858  28.198  1.00  0.00     0.031 C 
ATOM     37  C   UNL A   1      46.219  23.841  26.485  1.00  0.00     0.029 A 
ATOM     38  N   UNL A   1      45.813  25.935  27.151  1.00  0.00    -0.354 N 
ATOM     39  C   UNL A   1      41.816  27.123  28.373  1.00  0.00     0.074 A 
ATOM     40  C   UNL A   1      40.931  25.981  28.411  1.00  0.00     0.031 C 
ATOM     41  C   UNL A   1      47.351  24.542  26.318  1.00  0.00     0.029 A 
ATOM     42  C   UNL A   1      47.115  25.926  26.713  1.00  0.00     0.049 A 
ATOM     43  H   UNL A   1      45.371  26.739  27.509  1.00  0.00     0.167 HD
ATOM     44  C   UNL A   1      41.449  28.385  28.700  1.00  0.00     0.037 A 
ATOM     45  C   UNL A   1      48.010  26.928  26.627  1.00  0.00     0.037 A 
ATOM     46  C   UNL A   1      42.357  29.500  28.723  1.00  0.00     0.049 A 
ATOM     47  C   UNL A   1      47.595  28.310  27.049  1.00  0.00     0.074 A 
ATOM     48  C   UNL A   1      42.118  30.801  29.124  1.00  0.00     0.029 A 
ATOM     49  N   UNL A   1      43.689  29.434  28.337  1.00  0.00    -0.354 N 
ATOM     50  N   UNL A   1      46.427  28.727  27.476  1.00  0.00    -0.248 NA
ATOM     51  C   UNL A   1      48.619  29.359  26.980  1.00  0.00     0.031 C 
ATOM     52  C   UNL A   1      43.299  31.532  28.956  1.00  0.00     0.029 A 
ATOM     53  C   UNL A   1      44.284  30.676  28.484  1.00  0.00     0.049 A 
ATOM     54  H   UNL A   1      44.143  28.625  28.010  1.00  0.00     0.167 HD
ATOM     55  C   UNL A   1      46.580  30.079  27.744  1.00  0.00     0.074 A 
ATOM     56  C   UNL A   1      47.959  30.409  27.448  1.00  0.00     0.031 C 
ATOM     57  C   UNL A   1      45.662  30.971  28.189  1.00  0.00     0.037 A 
BRANCH  44  58
ATOM     58  C   UNL A   1      40.013  28.615  29.073  1.00  0.00     0.064 A 
ATOM     59  C   UNL A   1      39.544  28.383  30.375  1.00  0.00     0.173 A 
ATOM     60  C   UNL A   1      39.095  29.079  28.118  1.00  0.00     0.173 A 
ATOM     61  F   UNL A   1      40.377  27.923  31.320  1.00  0.00    -0.203 F 
ATOM     62  C   UNL A   1      38.203  28.571  30.699  1.00  0.00     0.198 A 
ATOM     63  C   UNL A   1      37.761  29.298  28.455  1.00  0.00     0.198 A 
ATOM     64  F   UNL A   1      39.490  29.320  26.859  1.00  0.00    -0.203 F 
ATOM     65  F   UNL A   1      37.767  28.283  31.933  1.00  0.00    -0.200 F 
ATOM     66  C   UNL A   1      37.314  29.034  29.740  1.00  0.00     0.200 A 
ATOM     67  F   UNL A   1      36.905  29.754  27.530  1.00  0.00    -0.200 F 
ATOM     68  F   UNL A   1      36.023  29.214  30.053  1.00  0.00    -0.200 F 
ENDBRANCH  44  58
BRANCH  45  69
ATOM     69  C   UNL A   1      49.391  26.653  26.150  1.00  0.00     0.064 A 
ATOM     70  C   UNL A   1      50.361  26.153  27.029  1.00  0.00     0.173 A 
ATOM     71  C   UNL A   1      49.768  26.872  24.818  1.00  0.00     0.173 A 
ATOM     72  F   UNL A   1      50.053  25.945  28.318  1.00  0.00    -0.203 F 
ATOM     73  C   UNL A   1      51.662  25.900  26.598  1.00  0.00     0.198 A 
ATOM     74  C   UNL A   1      51.063  26.594  24.382  1.00  0.00     0.198 A 
ATOM     75  F   UNL A   1      48.875  27.343  23.935  1.00  0.00    -0.203 F 
ATOM     76  F   UNL A   1      52.580  25.460  27.471  1.00  0.00    -0.200 F 
ATOM     77  C   UNL A   1      52.011  26.115  25.273  1.00  0.00     0.200 A 
ATOM     78  F   UNL A   1      51.393  26.791  23.098  1.00  0.00    -0.200 F 
ATOM     79  F   UNL A   1      53.261  25.867  24.859  1.00  0.00    -0.200 F 
ENDBRANCH  45  69
BRANCH  57  80
ATOM     80  C   UNL A   1      46.128  32.378  28.407  1.00  0.00     0.064 A 
ATOM     81  C   UNL A   1      46.013  33.349  27.403  1.00  0.00     0.173 A 
ATOM     82  C   UNL A   1      46.650  32.769  29.649  1.00  0.00     0.173 A 
ATOM     83  F   UNL A   1      45.535  33.017  26.194  1.00  0.00    -0.203 F 
ATOM     84  C   UNL A   1      46.422  34.660  27.629  1.00  0.00     0.198 A 
ATOM     85  C   UNL A   1      47.033  34.086  29.880  1.00  0.00     0.198 A 
ATOM     86  F   UNL A   1      46.774  31.876  30.641  1.00  0.00    -0.203 F 
ATOM     87  F   UNL A   1      46.340  35.565  26.643  1.00  0.00    -0.200 F 
ATOM     88  C   UNL A   1      46.924  35.029  28.868  1.00  0.00     0.200 A 
ATOM     89  F   UNL A   1      47.507  34.443  31.081  1.00  0.00    -0.200 F 
ATOM     90  F   UNL A   1      47.308  36.294  29.087  1.00  0.00    -0.200 F 
ENDBRANCH  57  80
ENDBRANCH  31  32
ENDBRANCH  23  26
ENDBRANCH  21  22
ENDBRANCH  20  21
ENDBRANCH  19  20
ENDBRANCH   3  19
TORSDOF 17
ENDMDL
