MODEL 1
REMARK VINA RESULT:     -11.5      0.000      0.000
REMARK SMILES CC(C)(C)OC(=O)c1ccc(C[C@H]([NH3+])C(=O)NCCCNC(=O)c2ccc(-c3c4nc(c(-c5c(F)c(F)c(F)c(F)c5F)c5ccc([nH]5)c(-c5c(F)c(F)c(F)c(F)c5F)c5nc(c(-c6c(F)c(F)c(F)c(F)c6F)c6ccc3[nH]6)C=C5)C=C4)cc2)cc1
REMARK SMILES IDX 15 1 16 2 17 3 13 5 12 6 11 7 8 8 9 9 88 10 10 11 87 12 6 13
REMARK SMILES IDX 7 14 5 15 2 16 1 17 3 18 4 19 14 20 18 24 19 25 20 26 21 27
REMARK SMILES IDX 22 28 23 30 24 31 25 32 86 33 26 34 85 35 27 36 28 37 29 38
REMARK SMILES IDX 79 39 30 40 84 41 78 42 80 43 31 44 83 45 77 46 76 47 32 49
REMARK SMILES IDX 64 50 44 51 63 52 45 53 48 54 62 55 81 56 46 57 47 58 61 60
REMARK SMILES IDX 82 61 49 62 33 63 34 64 42 65 35 66 36 67 40 68 43 69 37 70
REMARK SMILES IDX 38 71 41 72 39 73 65 74 66 75 74 76 67 77 68 78 72 79 75 80
REMARK SMILES IDX 69 81 70 82 73 83 71 84 50 85 51 86 59 87 52 88 53 89 57 90
REMARK SMILES IDX 60 91 54 92 55 93 58 94 56 95
REMARK H PARENT 17 4 14 21 14 22 14 23 21 29 80 48 48 59
REMARK Flexibility Score: inf
ROOT
ATOM      1  C   UNL A   1      34.166  20.204  24.959  1.00  0.00     0.278 C 
ATOM      2  O   UNL A   1      33.280  19.350  25.057  1.00  0.00    -0.268 OA
ATOM      3  N   UNL A   1      35.463  19.786  25.015  1.00  0.00    -0.351 N 
ATOM      4  H   UNL A   1      35.585  18.811  25.075  1.00  0.00     0.163 HD
ENDROOT
BRANCH   1   5
ATOM      5  C   UNL A   1      33.814  21.684  24.737  1.00  0.00     0.275 C 
BRANCH   5   6
ATOM      6  C   UNL A   1      33.588  22.372  26.096  1.00  0.00     0.111 C 
BRANCH   6   7
ATOM      7  C   UNL A   1      33.328  23.856  25.996  1.00  0.00    -0.041 A 
ATOM      8  C   UNL A   1      32.846  26.605  25.791  1.00  0.00     0.060 A 
ATOM      9  C   UNL A   1      34.030  26.061  25.284  1.00  0.00     0.016 A 
ATOM     10  C   UNL A   1      31.895  25.776  26.396  1.00  0.00     0.016 A 
ATOM     11  C   UNL A   1      34.275  24.694  25.394  1.00  0.00     0.005 A 
ATOM     12  C   UNL A   1      32.135  24.405  26.491  1.00  0.00     0.005 A 
BRANCH   8  13
ATOM     13  C   UNL A   1      32.625  28.056  25.630  1.00  0.00     0.338 C 
ATOM     14  O   UNL A   1      33.508  28.881  25.818  1.00  0.00    -0.246 OA
BRANCH  13  15
ATOM     15  O   UNL A   1      31.328  28.294  25.326  1.00  0.00    -0.456 OA
BRANCH  15  16
ATOM     16  C   UNL A   1      30.925  28.431  23.938  1.00  0.00     0.104 C 
ATOM     17  C   UNL A   1      30.182  29.773  23.866  1.00  0.00     0.056 C 
ATOM     18  C   UNL A   1      29.958  27.309  23.546  1.00  0.00     0.056 C 
ATOM     19  C   UNL A   1      32.136  28.502  22.998  1.00  0.00     0.056 C 
ENDBRANCH  15  16
ENDBRANCH  13  15
ENDBRANCH   8  13
ENDBRANCH   6   7
ENDBRANCH   5   6
BRANCH   5  20
ATOM     20  N   UNL A   1      32.690  21.810  23.778  1.00  0.00    -0.347 N 
ATOM     21  H   UNL A   1      32.230  20.906  23.673  1.00  0.00     0.345 HD
ATOM     22  H   UNL A   1      33.048  22.116  22.873  1.00  0.00     0.345 HD
ATOM     23  H   UNL A   1      32.020  22.494  24.127  1.00  0.00     0.345 HD
ENDBRANCH   5  20
ENDBRANCH   1   5
BRANCH   3  24
ATOM     24  C   UNL A   1      36.692  20.561  25.001  1.00  0.00     0.118 C 
BRANCH  24  25
ATOM     25  C   UNL A   1      37.930  19.680  24.917  1.00  0.00     0.042 C 
BRANCH  25  26
ATOM     26  C   UNL A   1      39.089  20.156  25.782  1.00  0.00     0.118 C 
BRANCH  26  27
ATOM     27  N   UNL A   1      40.136  19.153  25.931  1.00  0.00    -0.352 N 
ATOM     28  C   UNL A   1      41.487  19.297  26.126  1.00  0.00     0.251 C 
ATOM     29  H   UNL A   1      39.823  18.221  25.885  1.00  0.00     0.163 HD
ATOM     30  O   UNL A   1      42.220  18.315  26.048  1.00  0.00    -0.269 OA
BRANCH  28  31
ATOM     31  C   UNL A   1      42.071  20.625  26.406  1.00  0.00     0.039 A 
ATOM     32  C   UNL A   1      42.323  21.490  25.336  1.00  0.00     0.014 A 
ATOM     33  C   UNL A   1      42.394  21.014  27.708  1.00  0.00     0.014 A 
ATOM     34  C   UNL A   1      42.829  22.769  25.580  1.00  0.00     0.010 A 
ATOM     35  C   UNL A   1      42.819  22.315  27.958  1.00  0.00     0.010 A 
ATOM     36  C   UNL A   1      43.044  23.205  26.896  1.00  0.00    -0.014 A 
BRANCH  36  37
ATOM     37  C   UNL A   1      43.512  24.583  27.190  1.00  0.00     0.031 A 
ATOM     38  C   UNL A   1      42.555  25.602  27.742  1.00  0.00     0.074 A 
ATOM     39  C   UNL A   1      44.776  24.936  26.886  1.00  0.00     0.049 A 
ATOM     40  N   UNL A   1      42.741  26.878  27.965  1.00  0.00    -0.248 NA
ATOM     41  C   UNL A   1      41.198  25.130  28.057  1.00  0.00     0.031 C 
ATOM     42  C   UNL A   1      45.784  24.053  26.298  1.00  0.00     0.029 A 
ATOM     43  N   UNL A   1      45.422  26.140  27.014  1.00  0.00    -0.354 N 
ATOM     44  C   UNL A   1      41.522  27.363  28.419  1.00  0.00     0.074 A 
ATOM     45  C   UNL A   1      40.591  26.258  28.398  1.00  0.00     0.031 C 
ATOM     46  C   UNL A   1      46.927  24.738  26.135  1.00  0.00     0.029 A 
ATOM     47  C   UNL A   1      46.723  26.116  26.572  1.00  0.00     0.049 A 
ATOM     48  H   UNL A   1      44.995  26.945  27.388  1.00  0.00     0.167 HD
ATOM     49  C   UNL A   1      41.214  28.614  28.836  1.00  0.00     0.037 A 
ATOM     50  C   UNL A   1      47.642  27.097  26.516  1.00  0.00     0.037 A 
ATOM     51  C   UNL A   1      42.153  29.703  28.896  1.00  0.00     0.049 A 
ATOM     52  C   UNL A   1      47.279  28.473  27.005  1.00  0.00     0.074 A 
ATOM     53  C   UNL A   1      41.957  30.988  29.371  1.00  0.00     0.029 A 
ATOM     54  N   UNL A   1      43.472  29.631  28.472  1.00  0.00    -0.354 N 
ATOM     55  N   UNL A   1      46.141  28.905  27.489  1.00  0.00    -0.248 NA
ATOM     56  C   UNL A   1      48.333  29.496  26.945  1.00  0.00     0.031 C 
ATOM     57  C   UNL A   1      43.146  31.703  29.203  1.00  0.00     0.029 A 
ATOM     58  C   UNL A   1      44.096  30.853  28.659  1.00  0.00     0.049 A 
ATOM     59  H   UNL A   1      43.900  28.829  28.093  1.00  0.00     0.167 HD
ATOM     60  C   UNL A   1      46.345  30.239  27.811  1.00  0.00     0.074 A 
ATOM     61  C   UNL A   1      47.722  30.544  27.482  1.00  0.00     0.031 C 
ATOM     62  C   UNL A   1      45.471  31.133  28.334  1.00  0.00     0.037 A 
BRANCH  49  63
ATOM     63  C   UNL A   1      39.801  28.871  29.270  1.00  0.00     0.064 A 
ATOM     64  C   UNL A   1      39.396  28.682  30.599  1.00  0.00     0.173 A 
ATOM     65  C   UNL A   1      38.849  29.343  28.354  1.00  0.00     0.173 A 
ATOM     66  F   UNL A   1      40.266  28.221  31.511  1.00  0.00    -0.203 F 
ATOM     67  C   UNL A   1      38.083  28.928  30.991  1.00  0.00     0.198 A 
ATOM     68  C   UNL A   1      37.544  29.614  28.755  1.00  0.00     0.198 A 
ATOM     69  F   UNL A   1      39.186  29.545  27.071  1.00  0.00    -0.203 F 
ATOM     70  F   UNL A   1      37.707  28.696  32.255  1.00  0.00    -0.200 F 
ATOM     71  C   UNL A   1      37.160  29.400  30.070  1.00  0.00     0.200 A 
ATOM     72  F   UNL A   1      36.655  30.081  27.866  1.00  0.00    -0.200 F 
ATOM     73  F   UNL A   1      35.898  29.643  30.448  1.00  0.00    -0.200 F 
ENDBRANCH  49  63
BRANCH  50  74
ATOM     74  C   UNL A   1      49.005  26.808  26.003  1.00  0.00     0.064 A 
ATOM     75  C   UNL A   1      49.320  27.016  24.653  1.00  0.00     0.173 A 
ATOM     76  C   UNL A   1      50.015  26.320  26.844  1.00  0.00     0.173 A 
ATOM     77  F   UNL A   1      48.380  27.460  23.808  1.00  0.00    -0.203 F 
ATOM     78  C   UNL A   1      50.591  26.729  24.160  1.00  0.00     0.198 A 
ATOM     79  C   UNL A   1      51.292  26.058  26.354  1.00  0.00     0.198 A 
ATOM     80  F   UNL A   1      49.764  26.109  28.144  1.00  0.00    -0.203 F 
ATOM     81  F   UNL A   1      50.855  26.899  22.857  1.00  0.00    -0.200 F 
ATOM     82  C   UNL A   1      51.578  26.257  25.012  1.00  0.00     0.200 A 
ATOM     83  F   UNL A   1      52.247  25.613  27.183  1.00  0.00    -0.200 F 
ATOM     84  F   UNL A   1      52.802  25.985  24.538  1.00  0.00    -0.200 F 
ENDBRANCH  50  74
BRANCH  62  85
ATOM     85  C   UNL A   1      45.984  32.515  28.608  1.00  0.00     0.064 A 
ATOM     86  C   UNL A   1      46.597  32.840  29.826  1.00  0.00     0.173 A 
ATOM     87  C   UNL A   1      45.898  33.512  27.626  1.00  0.00     0.173 A 
ATOM     88  F   UNL A   1      46.689  31.924  30.802  1.00  0.00    -0.203 F 
ATOM     89  C   UNL A   1      47.088  34.122  30.058  1.00  0.00     0.198 A 
ATOM     90  C   UNL A   1      46.412  34.785  27.851  1.00  0.00     0.198 A 
ATOM     91  F   UNL A   1      45.325  33.246  26.441  1.00  0.00    -0.203 F 
ATOM     92  F   UNL A   1      47.633  34.424  31.244  1.00  0.00    -0.200 F 
ATOM     93  C   UNL A   1      47.001  35.090  29.069  1.00  0.00     0.200 A 
ATOM     94  F   UNL A   1      46.337  35.717  26.891  1.00  0.00    -0.200 F 
ATOM     95  F   UNL A   1      47.480  36.322  29.293  1.00  0.00    -0.200 F 
ENDBRANCH  62  85
ENDBRANCH  36  37
ENDBRANCH  28  31
ENDBRANCH  26  27
ENDBRANCH  25  26
ENDBRANCH  24  25
ENDBRANCH   3  24
TORSDOF 16
ENDMDL
MODEL 2
REMARK VINA RESULT:     -11.5      5.703     11.441
REMARK SMILES CC(C)(C)OC(=O)c1ccc(C[C@H]([NH3+])C(=O)NCCCNC(=O)c2ccc(-c3c4nc(c(-c5c(F)c(F)c(F)c(F)c5F)c5ccc([nH]5)c(-c5c(F)c(F)c(F)c(F)c5F)c5nc(c(-c6c(F)c(F)c(F)c(F)c6F)c6ccc3[nH]6)C=C5)C=C4)cc2)cc1
REMARK SMILES IDX 15 1 16 2 17 3 13 5 12 6 11 7 8 8 9 9 88 10 10 11 87 12 6 13
REMARK SMILES IDX 7 14 5 15 2 16 1 17 3 18 4 19 14 20 18 24 19 25 20 26 21 27
REMARK SMILES IDX 22 28 23 30 24 31 25 32 86 33 26 34 85 35 27 36 28 37 29 38
REMARK SMILES IDX 79 39 30 40 84 41 78 42 80 43 31 44 83 45 77 46 76 47 32 49
REMARK SMILES IDX 64 50 44 51 63 52 45 53 48 54 62 55 81 56 46 57 47 58 61 60
REMARK SMILES IDX 82 61 49 62 33 63 34 64 42 65 35 66 36 67 40 68 43 69 37 70
REMARK SMILES IDX 38 71 41 72 39 73 65 74 66 75 74 76 67 77 68 78 72 79 75 80
REMARK SMILES IDX 69 81 70 82 73 83 71 84 50 85 51 86 59 87 52 88 53 89 57 90
REMARK SMILES IDX 60 91 54 92 55 93 58 94 56 95
REMARK H PARENT 17 4 14 21 14 22 14 23 21 29 80 48 48 59
REMARK Flexibility Score: inf
ROOT
ATOM      1  C   UNL A   1      33.504  29.366  26.011  1.00  0.00     0.278 C 
ATOM      2  O   UNL A   1      34.548  28.955  26.527  1.00  0.00    -0.268 OA
ATOM      3  N   UNL A   1      32.711  30.194  26.751  1.00  0.00    -0.351 N 
ATOM      4  H   UNL A   1      33.075  30.443  27.632  1.00  0.00     0.163 HD
ENDROOT
BRANCH   1   5
ATOM      5  C   UNL A   1      33.136  28.989  24.567  1.00  0.00     0.275 C 
BRANCH   5   6
ATOM      6  C   UNL A   1      32.075  27.872  24.578  1.00  0.00     0.111 C 
BRANCH   6   7
ATOM      7  C   UNL A   1      32.653  26.478  24.522  1.00  0.00    -0.041 A 
ATOM      8  C   UNL A   1      33.709  23.888  24.428  1.00  0.00     0.060 A 
ATOM      9  C   UNL A   1      33.575  24.547  25.654  1.00  0.00     0.016 A 
ATOM     10  C   UNL A   1      33.309  24.518  23.244  1.00  0.00     0.016 A 
ATOM     11  C   UNL A   1      33.058  25.840  25.701  1.00  0.00     0.005 A 
ATOM     12  C   UNL A   1      32.777  25.808  23.296  1.00  0.00     0.005 A 
BRANCH   8  13
ATOM     13  C   UNL A   1      34.242  22.511  24.435  1.00  0.00     0.338 C 
ATOM     14  O   UNL A   1      33.710  21.596  23.823  1.00  0.00    -0.246 OA
BRANCH  13  15
ATOM     15  O   UNL A   1      35.317  22.438  25.253  1.00  0.00    -0.456 OA
BRANCH  15  16
ATOM     16  C   UNL A   1      36.652  22.614  24.708  1.00  0.00     0.104 C 
ATOM     17  C   UNL A   1      37.360  21.270  24.939  1.00  0.00     0.056 C 
ATOM     18  C   UNL A   1      37.405  23.707  25.473  1.00  0.00     0.056 C 
ATOM     19  C   UNL A   1      36.619  22.886  23.198  1.00  0.00     0.056 C 
ENDBRANCH  15  16
ENDBRANCH  13  15
ENDBRANCH   8  13
ENDBRANCH   6   7
ENDBRANCH   5   6
BRANCH   5  20
ATOM     20  N   UNL A   1      34.358  28.684  23.785  1.00  0.00    -0.347 N 
ATOM     21  H   UNL A   1      34.390  27.685  23.580  1.00  0.00     0.345 HD
ATOM     22  H   UNL A   1      35.182  28.946  24.327  1.00  0.00     0.345 HD
ATOM     23  H   UNL A   1      34.343  29.211  22.913  1.00  0.00     0.345 HD
ENDBRANCH   5  20
ENDBRANCH   1   5
BRANCH   3  24
ATOM     24  C   UNL A   1      31.412  30.763  26.436  1.00  0.00     0.118 C 
BRANCH  24  25
ATOM     25  C   UNL A   1      31.417  32.284  26.501  1.00  0.00     0.042 C 
BRANCH  25  26
ATOM     26  C   UNL A   1      32.606  32.868  27.252  1.00  0.00     0.118 C 
BRANCH  26  27
ATOM     27  N   UNL A   1      32.394  34.250  27.665  1.00  0.00    -0.352 N 
ATOM     28  C   UNL A   1      32.984  34.982  28.666  1.00  0.00     0.251 C 
ATOM     29  H   UNL A   1      31.718  34.737  27.142  1.00  0.00     0.163 HD
ATOM     30  O   UNL A   1      32.530  36.083  28.961  1.00  0.00    -0.269 OA
BRANCH  28  31
ATOM     31  C   UNL A   1      34.146  34.447  29.405  1.00  0.00     0.039 A 
ATOM     32  C   UNL A   1      33.931  33.818  30.635  1.00  0.00     0.014 A 
ATOM     33  C   UNL A   1      35.444  34.583  28.909  1.00  0.00     0.014 A 
ATOM     34  C   UNL A   1      35.007  33.262  31.330  1.00  0.00     0.010 A 
ATOM     35  C   UNL A   1      36.504  33.957  29.558  1.00  0.00     0.010 A 
ATOM     36  C   UNL A   1      36.297  33.293  30.778  1.00  0.00    -0.014 A 
BRANCH  36  37
ATOM     37  C   UNL A   1      37.448  32.648  31.458  1.00  0.00     0.031 A 
ATOM     38  C   UNL A   1      38.155  31.491  30.808  1.00  0.00     0.074 A 
ATOM     39  C   UNL A   1      37.804  33.052  32.693  1.00  0.00     0.049 A 
ATOM     40  N   UNL A   1      39.108  30.729  31.283  1.00  0.00    -0.248 NA
ATOM     41  C   UNL A   1      37.711  31.122  29.456  1.00  0.00     0.031 C 
ATOM     42  C   UNL A   1      37.163  34.128  33.450  1.00  0.00     0.029 A 
ATOM     43  N   UNL A   1      38.785  32.591  33.535  1.00  0.00    -0.354 N 
ATOM     44  C   UNL A   1      39.356  29.780  30.302  1.00  0.00     0.074 A 
ATOM     45  C   UNL A   1      38.426  30.030  29.223  1.00  0.00     0.031 C 
ATOM     46  C   UNL A   1      37.779  34.257  34.635  1.00  0.00     0.029 A 
ATOM     47  C   UNL A   1      38.832  33.252  34.738  1.00  0.00     0.049 A 
ATOM     48  H   UNL A   1      39.396  31.855  33.300  1.00  0.00     0.167 HD
ATOM     49  C   UNL A   1      40.290  28.800  30.292  1.00  0.00     0.037 A 
ATOM     50  C   UNL A   1      39.630  33.063  35.805  1.00  0.00     0.037 A 
ATOM     51  C   UNL A   1      41.243  28.578  31.348  1.00  0.00     0.049 A 
ATOM     52  C   UNL A   1      40.673  31.981  35.760  1.00  0.00     0.074 A 
ATOM     53  C   UNL A   1      42.276  27.658  31.401  1.00  0.00     0.029 A 
ATOM     54  N   UNL A   1      41.283  29.292  32.536  1.00  0.00    -0.354 N 
ATOM     55  N   UNL A   1      40.939  31.127  34.802  1.00  0.00    -0.248 NA
ATOM     56  C   UNL A   1      41.532  31.839  36.944  1.00  0.00     0.031 C 
ATOM     57  C   UNL A   1      42.918  27.792  32.635  1.00  0.00     0.029 A 
ATOM     58  C   UNL A   1      42.312  28.823  33.335  1.00  0.00     0.049 A 
ATOM     59  H   UNL A   1      40.670  30.024  32.776  1.00  0.00     0.167 HD
ATOM     60  C   UNL A   1      42.006  30.364  35.255  1.00  0.00     0.074 A 
ATOM     61  C   UNL A   1      42.350  30.864  36.570  1.00  0.00     0.031 C 
ATOM     62  C   UNL A   1      42.644  29.341  34.638  1.00  0.00     0.037 A 
BRANCH  49  63
ATOM     63  C   UNL A   1      40.334  27.896  29.096  1.00  0.00     0.064 A 
ATOM     64  C   UNL A   1      41.089  28.219  27.959  1.00  0.00     0.173 A 
ATOM     65  C   UNL A   1      39.639  26.677  29.098  1.00  0.00     0.173 A 
ATOM     66  F   UNL A   1      41.762  29.379  27.903  1.00  0.00    -0.203 F 
ATOM     67  C   UNL A   1      41.125  27.370  26.857  1.00  0.00     0.198 A 
ATOM     68  C   UNL A   1      39.699  25.817  28.004  1.00  0.00     0.198 A 
ATOM     69  F   UNL A   1      38.905  26.318  30.162  1.00  0.00    -0.203 F 
ATOM     70  F   UNL A   1      41.816  27.721  25.764  1.00  0.00    -0.200 F 
ATOM     71  C   UNL A   1      40.436  26.167  26.883  1.00  0.00     0.200 A 
ATOM     72  F   UNL A   1      39.041  24.650  28.036  1.00  0.00    -0.200 F 
ATOM     73  F   UNL A   1      40.476  25.347  25.824  1.00  0.00    -0.200 F 
ENDBRANCH  49  63
BRANCH  50  74
ATOM     74  C   UNL A   1      39.492  33.936  36.998  1.00  0.00     0.064 A 
ATOM     75  C   UNL A   1      38.745  33.519  38.108  1.00  0.00     0.173 A 
ATOM     76  C   UNL A   1      40.099  35.199  37.055  1.00  0.00     0.173 A 
ATOM     77  F   UNL A   1      38.128  32.328  38.090  1.00  0.00    -0.203 F 
ATOM     78  C   UNL A   1      38.595  34.340  39.224  1.00  0.00     0.198 A 
ATOM     79  C   UNL A   1      39.969  36.008  38.181  1.00  0.00     0.198 A 
ATOM     80  F   UNL A   1      40.828  35.641  36.019  1.00  0.00    -0.203 F 
ATOM     81  F   UNL A   1      37.842  33.934  40.255  1.00  0.00    -0.200 F 
ATOM     82  C   UNL A   1      39.212  35.581  39.262  1.00  0.00     0.200 A 
ATOM     83  F   UNL A   1      40.577  37.202  38.219  1.00  0.00    -0.200 F 
ATOM     84  F   UNL A   1      39.071  36.369  40.336  1.00  0.00    -0.200 F 
ENDBRANCH  50  74
BRANCH  62  85
ATOM     85  C   UNL A   1      43.796  28.713  35.364  1.00  0.00     0.064 A 
ATOM     86  C   UNL A   1      45.108  29.180  35.198  1.00  0.00     0.173 A 
ATOM     87  C   UNL A   1      43.579  27.661  36.265  1.00  0.00     0.173 A 
ATOM     88  F   UNL A   1      45.367  30.173  34.335  1.00  0.00    -0.203 F 
ATOM     89  C   UNL A   1      46.165  28.600  35.895  1.00  0.00     0.198 A 
ATOM     90  C   UNL A   1      44.633  27.102  36.979  1.00  0.00     0.198 A 
ATOM     91  F   UNL A   1      42.340  27.185  36.462  1.00  0.00    -0.203 F 
ATOM     92  F   UNL A   1      47.417  29.033  35.692  1.00  0.00    -0.200 F 
ATOM     93  C   UNL A   1      45.926  27.567  36.789  1.00  0.00     0.200 A 
ATOM     94  F   UNL A   1      44.400  26.110  37.851  1.00  0.00    -0.200 F 
ATOM     95  F   UNL A   1      46.944  27.016  37.464  1.00  0.00    -0.200 F 
ENDBRANCH  62  85
ENDBRANCH  36  37
ENDBRANCH  28  31
ENDBRANCH  26  27
ENDBRANCH  25  26
ENDBRANCH  24  25
ENDBRANCH   3  24
TORSDOF 16
ENDMDL
MODEL 3
REMARK VINA RESULT:     -11.4      5.012     10.156
REMARK SMILES CC(C)(C)OC(=O)c1ccc(C[C@H]([NH3+])C(=O)NCCCNC(=O)c2ccc(-c3c4nc(c(-c5c(F)c(F)c(F)c(F)c5F)c5ccc([nH]5)c(-c5c(F)c(F)c(F)c(F)c5F)c5nc(c(-c6c(F)c(F)c(F)c(F)c6F)c6ccc3[nH]6)C=C5)C=C4)cc2)cc1
REMARK SMILES IDX 15 1 16 2 17 3 13 5 12 6 11 7 8 8 9 9 88 10 10 11 87 12 6 13
REMARK SMILES IDX 7 14 5 15 2 16 1 17 3 18 4 19 14 20 18 24 19 25 20 26 21 27
REMARK SMILES IDX 22 28 23 30 24 31 25 32 86 33 26 34 85 35 27 36 28 37 29 38
REMARK SMILES IDX 79 39 30 40 84 41 78 42 80 43 31 44 83 45 77 46 76 47 32 49
REMARK SMILES IDX 64 50 44 51 63 52 45 53 48 54 62 55 81 56 46 57 47 58 61 60
REMARK SMILES IDX 82 61 49 62 33 63 34 64 42 65 35 66 36 67 40 68 43 69 37 70
REMARK SMILES IDX 38 71 41 72 39 73 65 74 66 75 74 76 67 77 68 78 72 79 75 80
REMARK SMILES IDX 69 81 70 82 73 83 71 84 50 85 51 86 59 87 52 88 53 89 57 90
REMARK SMILES IDX 60 91 54 92 55 93 58 94 56 95
REMARK H PARENT 17 4 14 21 14 22 14 23 21 29 80 48 48 59
REMARK Flexibility Score: inf
ROOT
ATOM      1  C   UNL A   1      32.875  35.979  31.169  1.00  0.00     0.278 C 
ATOM      2  O   UNL A   1      31.760  36.500  31.265  1.00  0.00    -0.268 OA
ATOM      3  N   UNL A   1      33.032  34.976  30.258  1.00  0.00    -0.351 N 
ATOM      4  H   UNL A   1      32.241  34.788  29.704  1.00  0.00     0.163 HD
ENDROOT
BRANCH   1   5
ATOM      5  C   UNL A   1      34.054  36.476  32.021  1.00  0.00     0.275 C 
BRANCH   5   6
ATOM      6  C   UNL A   1      34.072  35.729  33.368  1.00  0.00     0.111 C 
BRANCH   6   7
ATOM      7  C   UNL A   1      35.346  34.962  33.626  1.00  0.00    -0.041 A 
ATOM      8  C   UNL A   1      37.720  33.558  34.104  1.00  0.00     0.060 A 
ATOM      9  C   UNL A   1      37.511  34.183  32.870  1.00  0.00     0.016 A 
ATOM     10  C   UNL A   1      36.746  33.638  35.106  1.00  0.00     0.016 A 
ATOM     11  C   UNL A   1      36.326  34.875  32.629  1.00  0.00     0.005 A 
ATOM     12  C   UNL A   1      35.567  34.344  34.866  1.00  0.00     0.005 A 
BRANCH   8  13
ATOM     13  C   UNL A   1      39.001  32.856  34.317  1.00  0.00     0.338 C 
ATOM     14  O   UNL A   1      39.868  33.282  35.066  1.00  0.00    -0.246 OA
BRANCH  13  15
ATOM     15  O   UNL A   1      39.064  31.762  33.524  1.00  0.00    -0.456 OA
BRANCH  15  16
ATOM     16  C   UNL A   1      39.077  30.438  34.119  1.00  0.00     0.104 C 
ATOM     17  C   UNL A   1      38.127  29.598  33.251  1.00  0.00     0.056 C 
ATOM     18  C   UNL A   1      38.528  30.486  35.549  1.00  0.00     0.056 C 
ATOM     19  C   UNL A   1      40.472  29.801  34.059  1.00  0.00     0.056 C 
ENDBRANCH  15  16
ENDBRANCH  13  15
ENDBRANCH   8  13
ENDBRANCH   6   7
ENDBRANCH   5   6
BRANCH   5  20
ATOM     20  N   UNL A   1      34.028  37.955  32.126  1.00  0.00    -0.347 N 
ATOM     21  H   UNL A   1      33.082  38.291  31.949  1.00  0.00     0.345 HD
ATOM     22  H   UNL A   1      34.666  38.355  31.438  1.00  0.00     0.345 HD
ATOM     23  H   UNL A   1      34.320  38.234  33.062  1.00  0.00     0.345 HD
ENDBRANCH   5  20
ENDBRANCH   1   5
BRANCH   3  24
ATOM     24  C   UNL A   1      34.191  34.144  29.983  1.00  0.00     0.118 C 
BRANCH  24  25
ATOM     25  C   UNL A   1      34.693  34.306  28.555  1.00  0.00     0.042 C 
BRANCH  25  26
ATOM     26  C   UNL A   1      35.348  33.057  27.981  1.00  0.00     0.118 C 
BRANCH  26  27
ATOM     27  N   UNL A   1      34.431  31.928  27.886  1.00  0.00    -0.352 N 
ATOM     28  C   UNL A   1      34.676  30.577  27.897  1.00  0.00     0.251 C 
ATOM     29  H   UNL A   1      33.482  32.174  27.800  1.00  0.00     0.163 HD
ATOM     30  O   UNL A   1      33.771  29.794  27.625  1.00  0.00    -0.269 OA
BRANCH  28  31
ATOM     31  C   UNL A   1      36.023  30.058  28.211  1.00  0.00     0.039 A 
ATOM     32  C   UNL A   1      37.018  30.128  27.230  1.00  0.00     0.014 A 
ATOM     33  C   UNL A   1      36.306  29.483  29.451  1.00  0.00     0.014 A 
ATOM     34  C   UNL A   1      38.311  29.689  27.519  1.00  0.00     0.010 A 
ATOM     35  C   UNL A   1      37.613  29.123  29.767  1.00  0.00     0.010 A 
ATOM     36  C   UNL A   1      38.629  29.219  28.803  1.00  0.00    -0.014 A 
BRANCH  36  37
ATOM     37  C   UNL A   1      40.011  28.813  29.161  1.00  0.00     0.031 A 
ATOM     38  C   UNL A   1      40.889  29.745  29.949  1.00  0.00     0.074 A 
ATOM     39  C   UNL A   1      40.499  27.641  28.710  1.00  0.00     0.049 A 
ATOM     40  N   UNL A   1      42.152  29.620  30.269  1.00  0.00    -0.248 NA
ATOM     41  C   UNL A   1      40.274  30.998  30.412  1.00  0.00     0.031 C 
ATOM     42  C   UNL A   1      39.763  26.675  27.894  1.00  0.00     0.029 A 
ATOM     43  N   UNL A   1      41.739  27.073  28.862  1.00  0.00    -0.354 N 
ATOM     44  C   UNL A   1      42.486  30.786  30.944  1.00  0.00     0.074 A 
ATOM     45  C   UNL A   1      41.309  31.626  30.951  1.00  0.00     0.031 C 
ATOM     46  C   UNL A   1      40.558  25.625  27.634  1.00  0.00     0.029 A 
ATOM     47  C   UNL A   1      41.868  25.859  28.232  1.00  0.00     0.049 A 
ATOM     48  H   UNL A   1      42.467  27.495  29.374  1.00  0.00     0.167 HD
ATOM     49  C   UNL A   1      43.664  31.116  31.526  1.00  0.00     0.037 A 
ATOM     50  C   UNL A   1      42.928  25.034  28.140  1.00  0.00     0.037 A 
ATOM     51  C   UNL A   1      44.821  30.262  31.555  1.00  0.00     0.049 A 
ATOM     52  C   UNL A   1      44.217  25.416  28.813  1.00  0.00     0.074 A 
ATOM     53  C   UNL A   1      46.037  30.476  32.181  1.00  0.00     0.029 A 
ATOM     54  N   UNL A   1      44.903  29.024  30.936  1.00  0.00    -0.354 N 
ATOM     55  N   UNL A   1      44.504  26.495  29.501  1.00  0.00    -0.248 NA
ATOM     56  C   UNL A   1      45.331  24.463  28.701  1.00  0.00     0.031 C 
ATOM     57  C   UNL A   1      46.866  29.383  31.911  1.00  0.00     0.029 A 
ATOM     58  C   UNL A   1      46.153  28.469  31.150  1.00  0.00     0.049 A 
ATOM     59  H   UNL A   1      44.179  28.602  30.419  1.00  0.00     0.167 HD
ATOM     60  C   UNL A   1      45.817  26.341  29.921  1.00  0.00     0.074 A 
ATOM     61  C   UNL A   1      46.269  25.058  29.424  1.00  0.00     0.031 C 
ATOM     62  C   UNL A   1      46.581  27.186  30.655  1.00  0.00     0.037 A 
BRANCH  49  63
ATOM     63  C   UNL A   1      43.756  32.459  32.188  1.00  0.00     0.064 A 
ATOM     64  C   UNL A   1      44.101  33.611  31.465  1.00  0.00     0.173 A 
ATOM     65  C   UNL A   1      43.467  32.603  33.553  1.00  0.00     0.173 A 
ATOM     66  F   UNL A   1      44.399  33.526  30.160  1.00  0.00    -0.203 F 
ATOM     67  C   UNL A   1      44.179  34.853  32.090  1.00  0.00     0.198 A 
ATOM     68  C   UNL A   1      43.519  33.851  34.168  1.00  0.00     0.198 A 
ATOM     69  F   UNL A   1      43.128  31.533  34.289  1.00  0.00    -0.203 F 
ATOM     70  F   UNL A   1      44.555  35.932  31.390  1.00  0.00    -0.200 F 
ATOM     71  C   UNL A   1      43.882  34.972  33.439  1.00  0.00     0.200 A 
ATOM     72  F   UNL A   1      43.221  33.966  35.470  1.00  0.00    -0.200 F 
ATOM     73  F   UNL A   1      43.951  36.169  34.038  1.00  0.00    -0.200 F 
ENDBRANCH  49  63
BRANCH  50  74
ATOM     74  C   UNL A   1      42.806  23.751  27.404  1.00  0.00     0.064 A 
ATOM     75  C   UNL A   1      42.296  22.608  28.037  1.00  0.00     0.173 A 
ATOM     76  C   UNL A   1      43.192  23.637  26.061  1.00  0.00     0.173 A 
ATOM     77  F   UNL A   1      41.934  22.664  29.327  1.00  0.00    -0.203 F 
ATOM     78  C   UNL A   1      42.195  21.395  27.359  1.00  0.00     0.198 A 
ATOM     79  C   UNL A   1      43.067  22.430  25.377  1.00  0.00     0.198 A 
ATOM     80  F   UNL A   1      43.681  24.703  25.410  1.00  0.00    -0.203 F 
ATOM     81  F   UNL A   1      41.743  20.309  27.999  1.00  0.00    -0.200 F 
ATOM     82  C   UNL A   1      42.575  21.309  26.028  1.00  0.00     0.200 A 
ATOM     83  F   UNL A   1      43.423  22.353  24.088  1.00  0.00    -0.200 F 
ATOM     84  F   UNL A   1      42.474  20.143  25.375  1.00  0.00    -0.200 F 
ENDBRANCH  50  74
BRANCH  62  85
ATOM     85  C   UNL A   1      47.973  26.739  30.988  1.00  0.00     0.064 A 
ATOM     86  C   UNL A   1      49.071  27.119  30.204  1.00  0.00     0.173 A 
ATOM     87  C   UNL A   1      48.214  25.957  32.127  1.00  0.00     0.173 A 
ATOM     88  F   UNL A   1      48.889  27.854  29.096  1.00  0.00    -0.203 F 
ATOM     89  C   UNL A   1      50.361  26.713  30.538  1.00  0.00     0.198 A 
ATOM     90  C   UNL A   1      49.506  25.575  32.472  1.00  0.00     0.198 A 
ATOM     91  F   UNL A   1      47.194  25.574  32.911  1.00  0.00    -0.203 F 
ATOM     92  F   UNL A   1      51.393  27.052  29.753  1.00  0.00    -0.200 F 
ATOM     93  C   UNL A   1      50.577  25.947  31.674  1.00  0.00     0.200 A 
ATOM     94  F   UNL A   1      49.715  24.843  33.576  1.00  0.00    -0.200 F 
ATOM     95  F   UNL A   1      51.820  25.564  31.997  1.00  0.00    -0.200 F 
ENDBRANCH  62  85
ENDBRANCH  36  37
ENDBRANCH  28  31
ENDBRANCH  26  27
ENDBRANCH  25  26
ENDBRANCH  24  25
ENDBRANCH   3  24
TORSDOF 16
ENDMDL
