MODEL 1
REMARK VINA RESULT:     -13.6      0.000      0.000
REMARK SMILES O=C(Cn1c(O)c(/N=N/C(=O)c2ccc(Cl)cc2Cl)c2ccccc21)NCCCNC(=O)c1ccc(-c2c3nc(c(-c4c(F)c(F)c(F)c(F)c4F)c4ccc([nH]4)c(-c4c(F)c(F)c(F)c(F)c4F)c4nc(c(-c5c(F)c(F)c(F)c(F)c5F)c5ccc2[nH]5)C=C4)C=C3)cc1
REMARK SMILES IDX 27 1 26 2 1 3 2 4 3 6 4 7 5 8 25 9 7 10 20 11 24 12 21 13
REMARK SMILES IDX 23 14 22 15 6 16 8 18 9 19 10 20 11 21 12 22 13 23 18 24
REMARK SMILES IDX 14 25 17 26 19 27 15 28 16 29 28 30 29 31 30 32 31 33 32 35
REMARK SMILES IDX 33 36 34 37 95 38 35 39 94 40 36 41 37 42 38 43 88 44 39 45
REMARK SMILES IDX 93 46 87 47 89 48 40 49 92 50 86 51 85 52 41 54 73 55 53 56
REMARK SMILES IDX 72 57 54 58 57 59 71 60 90 61 55 62 56 63 70 65 91 66 58 67
REMARK SMILES IDX 42 68 43 69 51 70 44 71 45 72 49 73 52 74 46 75 47 76 50 77
REMARK SMILES IDX 48 78 74 79 75 80 83 81 76 82 77 83 81 84 84 85 78 86 79 87
REMARK SMILES IDX 82 88 80 89 59 90 60 91 68 92 61 93 62 94 66 95 69 96 63 97
REMARK SMILES IDX 64 98 67 99 65 100
REMARK H PARENT 26 5 6 17 30 34 89 53 57 64
REMARK Flexibility Score: inf
ROOT
ATOM      1  C   UNL A   1      40.476  20.388  26.208  1.00  0.00     0.117 C 
ENDROOT
BRANCH   1   2
ATOM      2  N   UNL A   1      39.145  20.185  25.668  1.00  0.00    -0.354 N 
ATOM      3  O   UNL A   1      38.472  22.380  25.811  1.00  0.00    -0.273 OA
ATOM      4  C   UNL A   1      38.255  21.217  25.477  1.00  0.00     0.240 C 
ATOM      5  H   UNL A   1      38.868  19.271  25.427  1.00  0.00     0.163 HD
BRANCH   4   6
ATOM      6  C   UNL A   1      36.991  20.844  24.737  1.00  0.00     0.225 C 
BRANCH   6   7
ATOM      7  N   UNL A   1      36.065  21.963  24.587  1.00  0.00    -0.301 N 
ATOM      8  C   UNL A   1      36.024  22.872  23.544  1.00  0.00     0.221 A 
ATOM      9  C   UNL A   1      35.063  22.244  25.508  1.00  0.00     0.054 A 
ATOM     10  C   UNL A   1      34.905  23.659  23.750  1.00  0.00     0.155 A 
ATOM     11  C   UNL A   1      34.312  23.302  24.987  1.00  0.00     0.031 A 
ATOM     12  C   UNL A   1      34.752  21.663  26.752  1.00  0.00     0.027 A 
ATOM     13  C   UNL A   1      33.209  23.787  25.724  1.00  0.00     0.013 A 
ATOM     14  C   UNL A   1      33.661  22.169  27.466  1.00  0.00     0.002 A 
ATOM     15  C   UNL A   1      32.898  23.215  26.961  1.00  0.00     0.001 A 
BRANCH   8  16
ATOM     16  O   UNL A   1      36.909  22.909  22.546  1.00  0.00    -0.493 OA
ATOM     17  H   UNL A   1      37.283  22.113  22.222  1.00  0.00     0.295 HD
ENDBRANCH   8  16
BRANCH  10  18
ATOM     18  N   UNL A   1      34.399  24.700  22.953  1.00  0.00    -0.141 NA
ATOM     19  N   UNL A   1      33.413  24.368  22.266  1.00  0.00    -0.106 NA
BRANCH  19  20
ATOM     20  C   UNL A   1      32.932  25.391  21.484  1.00  0.00     0.296 C 
ATOM     21  O   UNL A   1      32.988  25.475  20.257  1.00  0.00    -0.265 OA
BRANCH  20  22
ATOM     22  C   UNL A   1      32.350  26.512  22.269  1.00  0.00     0.062 A 
ATOM     23  C   UNL A   1      33.000  27.760  22.231  1.00  0.00     0.017 A 
ATOM     24  C   UNL A   1      31.186  26.364  23.033  1.00  0.00     0.055 A 
ATOM     25  C   UNL A   1      32.484  28.846  22.942  1.00  0.00     0.021 A 
ATOM     26  C   UNL A   1      30.674  27.457  23.743  1.00  0.00     0.041 A 
ATOM     27  Cl  UNL A   1      30.360  24.858  23.217  1.00  0.00    -0.083 Cl
ATOM     28  C   UNL A   1      31.321  28.689  23.692  1.00  0.00     0.042 A 
ATOM     29  Cl  UNL A   1      30.688  30.025  24.571  1.00  0.00    -0.084 Cl
ENDBRANCH  20  22
ENDBRANCH  19  20
ENDBRANCH  10  18
ENDBRANCH   6   7
ENDBRANCH   4   6
ENDBRANCH   1   2
BRANCH   1  30
ATOM     30  C   UNL A   1      41.335  19.126  26.155  1.00  0.00     0.042 C 
BRANCH  30  31
ATOM     31  C   UNL A   1      42.832  19.372  26.339  1.00  0.00     0.118 C 
BRANCH  31  32
ATOM     32  N   UNL A   1      43.532  19.730  25.123  1.00  0.00    -0.352 N 
ATOM     33  C   UNL A   1      44.224  20.825  24.692  1.00  0.00     0.251 C 
ATOM     34  H   UNL A   1      43.504  19.015  24.449  1.00  0.00     0.163 HD
ATOM     35  O   UNL A   1      44.864  20.675  23.648  1.00  0.00    -0.269 OA
BRANCH  33  36
ATOM     36  C   UNL A   1      44.202  22.171  25.324  1.00  0.00     0.039 A 
ATOM     37  C   UNL A   1      44.913  22.558  26.460  1.00  0.00     0.014 A 
ATOM     38  C   UNL A   1      43.307  23.092  24.744  1.00  0.00     0.014 A 
ATOM     39  C   UNL A   1      44.657  23.788  27.060  1.00  0.00     0.010 A 
ATOM     40  C   UNL A   1      43.051  24.322  25.335  1.00  0.00     0.010 A 
ATOM     41  C   UNL A   1      43.691  24.645  26.524  1.00  0.00    -0.014 A 
BRANCH  41  42
ATOM     42  C   UNL A   1      43.446  25.925  27.186  1.00  0.00     0.031 A 
ATOM     43  C   UNL A   1      44.447  26.980  26.869  1.00  0.00     0.074 A 
ATOM     44  C   UNL A   1      42.349  26.176  27.932  1.00  0.00     0.049 A 
ATOM     45  N   UNL A   1      45.242  27.591  27.685  1.00  0.00    -0.248 NA
ATOM     46  C   UNL A   1      44.665  27.324  25.455  1.00  0.00     0.031 C 
ATOM     47  C   UNL A   1      41.165  25.324  28.092  1.00  0.00     0.029 A 
ATOM     48  N   UNL A   1      42.017  27.294  28.647  1.00  0.00    -0.354 N 
ATOM     49  C   UNL A   1      45.941  28.522  26.917  1.00  0.00     0.074 A 
ATOM     50  C   UNL A   1      45.646  28.225  25.541  1.00  0.00     0.031 C 
ATOM     51  C   UNL A   1      40.169  26.038  28.667  1.00  0.00     0.029 A 
ATOM     52  C   UNL A   1      40.687  27.339  29.053  1.00  0.00     0.049 A 
ATOM     53  H   UNL A   1      42.664  28.006  28.854  1.00  0.00     0.167 HD
ATOM     54  C   UNL A   1      46.515  29.615  27.493  1.00  0.00     0.037 A 
ATOM     55  C   UNL A   1      40.054  28.382  29.645  1.00  0.00     0.037 A 
ATOM     56  C   UNL A   1      46.621  29.456  28.916  1.00  0.00     0.049 A 
ATOM     57  C   UNL A   1      41.088  29.242  30.257  1.00  0.00     0.074 A 
ATOM     58  C   UNL A   1      47.461  28.813  29.797  1.00  0.00     0.029 A 
ATOM     59  N   UNL A   1      45.478  29.774  29.596  1.00  0.00    -0.354 N 
ATOM     60  N   UNL A   1      41.800  28.892  31.289  1.00  0.00    -0.248 NA
ATOM     61  C   UNL A   1      41.553  30.425  29.540  1.00  0.00     0.031 C 
ATOM     62  C   UNL A   1      46.699  28.593  30.984  1.00  0.00     0.029 A 
ATOM     63  C   UNL A   1      45.429  29.134  30.803  1.00  0.00     0.049 A 
ATOM     64  H   UNL A   1      44.782  30.384  29.259  1.00  0.00     0.167 HD
ATOM     65  C   UNL A   1      43.005  29.532  31.095  1.00  0.00     0.074 A 
ATOM     66  C   UNL A   1      42.736  30.593  30.135  1.00  0.00     0.031 C 
ATOM     67  C   UNL A   1      44.168  28.934  31.473  1.00  0.00     0.037 A 
BRANCH  54  68
ATOM     68  C   UNL A   1      46.554  30.994  26.870  1.00  0.00     0.064 A 
ATOM     69  C   UNL A   1      47.760  31.729  26.885  1.00  0.00     0.173 A 
ATOM     70  C   UNL A   1      45.397  31.742  26.563  1.00  0.00     0.173 A 
ATOM     71  F   UNL A   1      48.920  31.131  27.197  1.00  0.00    -0.203 F 
ATOM     72  C   UNL A   1      47.790  33.110  26.665  1.00  0.00     0.198 A 
ATOM     73  C   UNL A   1      45.437  33.109  26.295  1.00  0.00     0.198 A 
ATOM     74  F   UNL A   1      44.171  31.207  26.629  1.00  0.00    -0.203 F 
ATOM     75  F   UNL A   1      48.941  33.784  26.800  1.00  0.00    -0.200 F 
ATOM     76  C   UNL A   1      46.628  33.799  26.372  1.00  0.00     0.200 A 
ATOM     77  F   UNL A   1      44.295  33.765  26.042  1.00  0.00    -0.200 F 
ATOM     78  F   UNL A   1      46.645  35.130  26.213  1.00  0.00    -0.200 F 
ENDBRANCH  54  68
BRANCH  55  79
ATOM     79  C   UNL A   1      38.644  28.832  29.575  1.00  0.00     0.064 A 
ATOM     80  C   UNL A   1      37.890  29.010  30.749  1.00  0.00     0.173 A 
ATOM     81  C   UNL A   1      38.133  29.421  28.406  1.00  0.00     0.173 A 
ATOM     82  F   UNL A   1      38.318  28.495  31.911  1.00  0.00    -0.203 F 
ATOM     83  C   UNL A   1      36.735  29.796  30.769  1.00  0.00     0.198 A 
ATOM     84  C   UNL A   1      36.975  30.202  28.425  1.00  0.00     0.198 A 
ATOM     85  F   UNL A   1      38.807  29.342  27.249  1.00  0.00    -0.203 F 
ATOM     86  F   UNL A   1      36.099  30.020  31.927  1.00  0.00    -0.200 F 
ATOM     87  C   UNL A   1      36.292  30.410  29.611  1.00  0.00     0.200 A 
ATOM     88  F   UNL A   1      36.569  30.819  27.306  1.00  0.00    -0.200 F 
ATOM     89  F   UNL A   1      35.238  31.237  29.645  1.00  0.00    -0.200 F 
ENDBRANCH  55  79
BRANCH  67  90
ATOM     90  C   UNL A   1      44.078  27.873  32.521  1.00  0.00     0.064 A 
ATOM     91  C   UNL A   1      44.025  26.497  32.251  1.00  0.00     0.173 A 
ATOM     92  C   UNL A   1      44.120  28.276  33.860  1.00  0.00     0.173 A 
ATOM     93  F   UNL A   1      44.054  26.039  30.992  1.00  0.00    -0.203 F 
ATOM     94  C   UNL A   1      43.980  25.567  33.288  1.00  0.00     0.198 A 
ATOM     95  C   UNL A   1      44.112  27.345  34.892  1.00  0.00     0.198 A 
ATOM     96  F   UNL A   1      44.209  29.580  34.167  1.00  0.00    -0.203 F 
ATOM     97  F   UNL A   1      43.916  24.255  33.012  1.00  0.00    -0.200 F 
ATOM     98  C   UNL A   1      44.032  25.991  34.606  1.00  0.00     0.200 A 
ATOM     99  F   UNL A   1      44.203  27.759  36.162  1.00  0.00    -0.200 F 
ATOM    100  F   UNL A   1      44.030  25.095  35.602  1.00  0.00    -0.200 F 
ENDBRANCH  67  90
ENDBRANCH  41  42
ENDBRANCH  33  36
ENDBRANCH  31  32
ENDBRANCH  30  31
ENDBRANCH   1  30
TORSDOF 15
ENDMDL
MODEL 2
REMARK VINA RESULT:     -13.5      2.574      3.373
REMARK SMILES O=C(Cn1c(O)c(/N=N/C(=O)c2ccc(Cl)cc2Cl)c2ccccc21)NCCCNC(=O)c1ccc(-c2c3nc(c(-c4c(F)c(F)c(F)c(F)c4F)c4ccc([nH]4)c(-c4c(F)c(F)c(F)c(F)c4F)c4nc(c(-c5c(F)c(F)c(F)c(F)c5F)c5ccc2[nH]5)C=C4)C=C3)cc1
REMARK SMILES IDX 27 1 26 2 1 3 2 4 3 6 4 7 5 8 25 9 7 10 20 11 24 12 21 13
REMARK SMILES IDX 23 14 22 15 6 16 8 18 9 19 10 20 11 21 12 22 13 23 18 24
REMARK SMILES IDX 14 25 17 26 19 27 15 28 16 29 28 30 29 31 30 32 31 33 32 35
REMARK SMILES IDX 33 36 34 37 95 38 35 39 94 40 36 41 37 42 38 43 88 44 39 45
REMARK SMILES IDX 93 46 87 47 89 48 40 49 92 50 86 51 85 52 41 54 73 55 53 56
REMARK SMILES IDX 72 57 54 58 57 59 71 60 90 61 55 62 56 63 70 65 91 66 58 67
REMARK SMILES IDX 42 68 43 69 51 70 44 71 45 72 49 73 52 74 46 75 47 76 50 77
REMARK SMILES IDX 48 78 74 79 75 80 83 81 76 82 77 83 81 84 84 85 78 86 79 87
REMARK SMILES IDX 82 88 80 89 59 90 60 91 68 92 61 93 62 94 66 95 69 96 63 97
REMARK SMILES IDX 64 98 67 99 65 100
REMARK H PARENT 26 5 6 17 30 34 89 53 57 64
REMARK Flexibility Score: inf
ROOT
ATOM      1  C   UNL A   1      38.695  23.810  26.138  1.00  0.00     0.117 C 
ENDROOT
BRANCH   1   2
ATOM      2  N   UNL A   1      37.334  23.326  26.277  1.00  0.00    -0.354 N 
ATOM      3  O   UNL A   1      37.614  21.413  25.030  1.00  0.00    -0.273 OA
ATOM      4  C   UNL A   1      36.911  22.134  25.735  1.00  0.00     0.240 C 
ATOM      5  H   UNL A   1      36.688  23.872  26.780  1.00  0.00     0.163 HD
BRANCH   4   6
ATOM      6  C   UNL A   1      35.517  21.707  26.136  1.00  0.00     0.225 C 
BRANCH   6   7
ATOM      7  N   UNL A   1      34.520  21.970  25.103  1.00  0.00    -0.301 N 
ATOM      8  C   UNL A   1      34.181  23.203  24.572  1.00  0.00     0.221 A 
ATOM      9  C   UNL A   1      33.776  20.966  24.496  1.00  0.00     0.054 A 
ATOM     10  C   UNL A   1      33.303  22.957  23.532  1.00  0.00     0.155 A 
ATOM     11  C   UNL A   1      33.014  21.569  23.491  1.00  0.00     0.031 A 
ATOM     12  C   UNL A   1      33.705  19.582  24.742  1.00  0.00     0.027 A 
ATOM     13  C   UNL A   1      32.165  20.766  22.700  1.00  0.00     0.013 A 
ATOM     14  C   UNL A   1      32.848  18.811  23.950  1.00  0.00     0.002 A 
ATOM     15  C   UNL A   1      32.088  19.391  22.941  1.00  0.00     0.001 A 
BRANCH   8  16
ATOM     16  O   UNL A   1      34.669  24.367  25.007  1.00  0.00    -0.493 OA
ATOM     17  H   UNL A   1      34.899  25.036  24.393  1.00  0.00     0.295 HD
ENDBRANCH   8  16
BRANCH  10  18
ATOM     18  N   UNL A   1      32.700  23.871  22.651  1.00  0.00    -0.141 NA
ATOM     19  N   UNL A   1      33.487  24.729  22.208  1.00  0.00    -0.106 NA
BRANCH  19  20
ATOM     20  C   UNL A   1      32.885  25.624  21.354  1.00  0.00     0.296 C 
ATOM     21  O   UNL A   1      32.894  25.594  20.124  1.00  0.00    -0.265 OA
BRANCH  20  22
ATOM     22  C   UNL A   1      32.225  26.756  22.055  1.00  0.00     0.062 A 
ATOM     23  C   UNL A   1      30.857  26.640  22.368  1.00  0.00     0.017 A 
ATOM     24  C   UNL A   1      32.917  27.920  22.413  1.00  0.00     0.055 A 
ATOM     25  C   UNL A   1      30.196  27.673  23.037  1.00  0.00     0.021 A 
ATOM     26  C   UNL A   1      32.248  28.951  23.084  1.00  0.00     0.041 A 
ATOM     27  Cl  UNL A   1      34.572  28.201  22.002  1.00  0.00    -0.083 Cl
ATOM     28  C   UNL A   1      30.897  28.821  23.395  1.00  0.00     0.042 A 
ATOM     29  Cl  UNL A   1      30.082  30.095  24.215  1.00  0.00    -0.084 Cl
ENDBRANCH  20  22
ENDBRANCH  19  20
ENDBRANCH  10  18
ENDBRANCH   6   7
ENDBRANCH   4   6
ENDBRANCH   1   2
BRANCH   1  30
ATOM     30  C   UNL A   1      39.586  23.415  27.315  1.00  0.00     0.042 C 
BRANCH  30  31
ATOM     31  C   UNL A   1      40.556  22.273  27.017  1.00  0.00     0.118 C 
BRANCH  31  32
ATOM     32  N   UNL A   1      41.528  22.569  25.985  1.00  0.00    -0.352 N 
ATOM     33  C   UNL A   1      42.395  23.594  25.737  1.00  0.00     0.251 C 
ATOM     34  H   UNL A   1      41.575  21.864  25.300  1.00  0.00     0.163 HD
ATOM     35  O   UNL A   1      43.223  23.389  24.846  1.00  0.00    -0.269 OA
BRANCH  33  36
ATOM     36  C   UNL A   1      42.367  24.932  26.388  1.00  0.00     0.039 A 
ATOM     37  C   UNL A   1      42.911  25.253  27.631  1.00  0.00     0.014 A 
ATOM     38  C   UNL A   1      41.645  25.922  25.692  1.00  0.00     0.014 A 
ATOM     39  C   UNL A   1      42.649  26.493  28.209  1.00  0.00     0.010 A 
ATOM     40  C   UNL A   1      41.386  27.162  26.260  1.00  0.00     0.010 A 
ATOM     41  C   UNL A   1      41.846  27.424  27.544  1.00  0.00    -0.014 A 
BRANCH  41  42
ATOM     42  C   UNL A   1      41.590  28.712  28.186  1.00  0.00     0.031 A 
ATOM     43  C   UNL A   1      42.644  29.736  27.948  1.00  0.00     0.074 A 
ATOM     44  C   UNL A   1      40.446  28.996  28.845  1.00  0.00     0.049 A 
ATOM     45  N   UNL A   1      43.392  30.324  28.823  1.00  0.00    -0.248 NA
ATOM     46  C   UNL A   1      42.980  30.072  26.556  1.00  0.00     0.031 C 
ATOM     47  C   UNL A   1      39.229  28.181  28.913  1.00  0.00     0.029 A 
ATOM     48  N   UNL A   1      40.094  30.125  29.533  1.00  0.00    -0.354 N 
ATOM     49  C   UNL A   1      44.175  31.233  28.112  1.00  0.00     0.074 A 
ATOM     50  C   UNL A   1      43.978  30.943  26.717  1.00  0.00     0.031 C 
ATOM     51  C   UNL A   1      38.213  28.925  29.410  1.00  0.00     0.029 A 
ATOM     52  C   UNL A   1      38.739  30.210  29.836  1.00  0.00     0.049 A 
ATOM     53  H   UNL A   1      40.744  30.818  29.790  1.00  0.00     0.167 HD
ATOM     54  C   UNL A   1      44.736  32.309  28.732  1.00  0.00     0.037 A 
ATOM     55  C   UNL A   1      38.093  31.273  30.379  1.00  0.00     0.037 A 
ATOM     56  C   UNL A   1      44.727  32.149  30.159  1.00  0.00     0.049 A 
ATOM     57  C   UNL A   1      39.103  32.103  31.069  1.00  0.00     0.074 A 
ATOM     58  C   UNL A   1      45.476  31.482  31.101  1.00  0.00     0.029 A 
ATOM     59  N   UNL A   1      43.544  32.502  30.748  1.00  0.00    -0.354 N 
ATOM     60  N   UNL A   1      39.722  31.733  32.152  1.00  0.00    -0.248 NA
ATOM     61  C   UNL A   1      39.657  33.270  30.391  1.00  0.00     0.031 C 
ATOM     62  C   UNL A   1      44.619  31.287  32.225  1.00  0.00     0.029 A 
ATOM     63  C   UNL A   1      43.383  31.866  31.947  1.00  0.00     0.049 A 
ATOM     64  H   UNL A   1      42.895  33.132  30.360  1.00  0.00     0.167 HD
ATOM     65  C   UNL A   1      40.957  32.336  32.052  1.00  0.00     0.074 A 
ATOM     66  C   UNL A   1      40.795  33.403  31.075  1.00  0.00     0.031 C 
ATOM     67  C   UNL A   1      42.069  31.705  32.518  1.00  0.00     0.037 A 
BRANCH  54  68
ATOM     68  C   UNL A   1      44.864  33.685  28.115  1.00  0.00     0.064 A 
ATOM     69  C   UNL A   1      46.146  34.245  27.926  1.00  0.00     0.173 A 
ATOM     70  C   UNL A   1      43.788  34.594  28.012  1.00  0.00     0.173 A 
ATOM     71  F   UNL A   1      47.246  33.484  28.033  1.00  0.00    -0.203 F 
ATOM     72  C   UNL A   1      46.334  35.614  27.707  1.00  0.00     0.198 A 
ATOM     73  C   UNL A   1      43.976  35.950  27.744  1.00  0.00     0.198 A 
ATOM     74  F   UNL A   1      42.529  34.233  28.284  1.00  0.00    -0.203 F 
ATOM     75  F   UNL A   1      47.575  36.117  27.646  1.00  0.00    -0.200 F 
ATOM     76  C   UNL A   1      45.248  36.465  27.619  1.00  0.00     0.200 A 
ATOM     77  F   UNL A   1      42.912  36.764  27.692  1.00  0.00    -0.200 F 
ATOM     78  F   UNL A   1      45.426  37.784  27.463  1.00  0.00    -0.200 F 
ENDBRANCH  54  68
BRANCH  55  79
ATOM     79  C   UNL A   1      36.708  31.765  30.200  1.00  0.00     0.064 A 
ATOM     80  C   UNL A   1      35.879  31.990  31.314  1.00  0.00     0.173 A 
ATOM     81  C   UNL A   1      36.300  32.346  28.987  1.00  0.00     0.173 A 
ATOM     82  F   UNL A   1      36.206  31.485  32.513  1.00  0.00    -0.203 F 
ATOM     83  C   UNL A   1      34.751  32.812  31.238  1.00  0.00     0.198 A 
ATOM     84  C   UNL A   1      35.169  33.163  28.910  1.00  0.00     0.198 A 
ATOM     85  F   UNL A   1      37.050  32.223  27.882  1.00  0.00    -0.203 F 
ATOM     86  F   UNL A   1      34.042  33.077  32.343  1.00  0.00    -0.200 F 
ATOM     87  C   UNL A   1      34.411  33.416  30.041  1.00  0.00     0.200 A 
ATOM     88  F   UNL A   1      34.863  33.769  27.754  1.00  0.00    -0.200 F 
ATOM     89  F   UNL A   1      33.384  34.275  29.985  1.00  0.00    -0.200 F 
ENDBRANCH  55  79
BRANCH  67  90
ATOM     90  C   UNL A   1      41.867  30.648  33.555  1.00  0.00     0.064 A 
ATOM     91  C   UNL A   1      41.607  29.299  33.270  1.00  0.00     0.173 A 
ATOM     92  C   UNL A   1      42.015  31.017  34.897  1.00  0.00     0.173 A 
ATOM     93  F   UNL A   1      41.524  28.864  32.006  1.00  0.00    -0.203 F 
ATOM     94  C   UNL A   1      41.468  28.366  34.296  1.00  0.00     0.198 A 
ATOM     95  C   UNL A   1      41.911  30.077  35.916  1.00  0.00     0.198 A 
ATOM     96  F   UNL A   1      42.300  32.289  35.216  1.00  0.00    -0.203 F 
ATOM     97  F   UNL A   1      41.207  27.082  34.007  1.00  0.00    -0.200 F 
ATOM     98  C   UNL A   1      41.629  28.754  35.616  1.00  0.00     0.200 A 
ATOM     99  F   UNL A   1      42.108  30.451  37.188  1.00  0.00    -0.200 F 
ATOM    100  F   UNL A   1      41.535  27.850  36.600  1.00  0.00    -0.200 F 
ENDBRANCH  67  90
ENDBRANCH  41  42
ENDBRANCH  33  36
ENDBRANCH  31  32
ENDBRANCH  30  31
ENDBRANCH   1  30
TORSDOF 15
ENDMDL
MODEL 3
REMARK VINA RESULT:     -13.3      3.380      9.014
REMARK SMILES O=C(Cn1c(O)c(/N=N/C(=O)c2ccc(Cl)cc2Cl)c2ccccc21)NCCCNC(=O)c1ccc(-c2c3nc(c(-c4c(F)c(F)c(F)c(F)c4F)c4ccc([nH]4)c(-c4c(F)c(F)c(F)c(F)c4F)c4nc(c(-c5c(F)c(F)c(F)c(F)c5F)c5ccc2[nH]5)C=C4)C=C3)cc1
REMARK SMILES IDX 27 1 26 2 1 3 2 4 3 6 4 7 5 8 25 9 7 10 20 11 24 12 21 13
REMARK SMILES IDX 23 14 22 15 6 16 8 18 9 19 10 20 11 21 12 22 13 23 18 24
REMARK SMILES IDX 14 25 17 26 19 27 15 28 16 29 28 30 29 31 30 32 31 33 32 35
REMARK SMILES IDX 33 36 34 37 95 38 35 39 94 40 36 41 37 42 38 43 88 44 39 45
REMARK SMILES IDX 93 46 87 47 89 48 40 49 92 50 86 51 85 52 41 54 73 55 53 56
REMARK SMILES IDX 72 57 54 58 57 59 71 60 90 61 55 62 56 63 70 65 91 66 58 67
REMARK SMILES IDX 42 68 43 69 51 70 44 71 45 72 49 73 52 74 46 75 47 76 50 77
REMARK SMILES IDX 48 78 74 79 75 80 83 81 76 82 77 83 81 84 84 85 78 86 79 87
REMARK SMILES IDX 82 88 80 89 59 90 60 91 68 92 61 93 62 94 66 95 69 96 63 97
REMARK SMILES IDX 64 98 67 99 65 100
REMARK H PARENT 26 5 6 17 30 34 89 53 57 64
REMARK Flexibility Score: inf
ROOT
ATOM      1  C   UNL A   1      34.813  29.619  27.716  1.00  0.00     0.117 C 
ENDROOT
BRANCH   1   2
ATOM      2  N   UNL A   1      34.321  29.189  26.421  1.00  0.00    -0.354 N 
ATOM      3  O   UNL A   1      32.421  30.484  26.424  1.00  0.00    -0.273 OA
ATOM      4  C   UNL A   1      33.170  29.691  25.859  1.00  0.00     0.240 C 
ATOM      5  H   UNL A   1      34.832  28.510  25.924  1.00  0.00     0.163 HD
BRANCH   4   6
ATOM      6  C   UNL A   1      32.914  29.262  24.432  1.00  0.00     0.225 C 
BRANCH   6   7
ATOM      7  N   UNL A   1      31.961  28.162  24.328  1.00  0.00    -0.301 N 
ATOM      8  C   UNL A   1      32.185  26.837  24.661  1.00  0.00     0.221 A 
ATOM      9  C   UNL A   1      30.657  28.329  23.879  1.00  0.00     0.054 A 
ATOM     10  C   UNL A   1      30.970  26.187  24.537  1.00  0.00     0.155 A 
ATOM     11  C   UNL A   1      30.012  27.096  24.019  1.00  0.00     0.031 A 
ATOM     12  C   UNL A   1      29.988  29.455  23.362  1.00  0.00     0.027 A 
ATOM     13  C   UNL A   1      28.656  26.986  23.643  1.00  0.00     0.013 A 
ATOM     14  C   UNL A   1      28.647  29.314  22.988  1.00  0.00     0.002 A 
ATOM     15  C   UNL A   1      27.988  28.099  23.126  1.00  0.00     0.001 A 
BRANCH   8  16
ATOM     16  O   UNL A   1      33.366  26.350  25.049  1.00  0.00    -0.493 OA
ATOM     17  H   UNL A   1      34.079  26.933  25.221  1.00  0.00     0.295 HD
ENDBRANCH   8  16
BRANCH  10  18
ATOM     18  N   UNL A   1      30.657  24.842  24.798  1.00  0.00    -0.141 NA
ATOM     19  N   UNL A   1      31.335  24.343  25.717  1.00  0.00    -0.106 NA
BRANCH  19  20
ATOM     20  C   UNL A   1      31.027  23.024  25.958  1.00  0.00     0.296 C 
ATOM     21  O   UNL A   1      29.975  22.582  26.420  1.00  0.00    -0.265 OA
BRANCH  20  22
ATOM     22  C   UNL A   1      32.149  22.093  25.669  1.00  0.00     0.062 A 
ATOM     23  C   UNL A   1      32.153  21.416  24.435  1.00  0.00     0.017 A 
ATOM     24  C   UNL A   1      33.193  21.876  26.577  1.00  0.00     0.055 A 
ATOM     25  C   UNL A   1      33.193  20.541  24.113  1.00  0.00     0.021 A 
ATOM     26  C   UNL A   1      34.233  20.998  26.248  1.00  0.00     0.041 A 
ATOM     27  Cl  UNL A   1      33.242  22.588  28.150  1.00  0.00    -0.083 Cl
ATOM     28  C   UNL A   1      34.230  20.339  25.020  1.00  0.00     0.042 A 
ATOM     29  Cl  UNL A   1      35.508  19.259  24.626  1.00  0.00    -0.084 Cl
ENDBRANCH  20  22
ENDBRANCH  19  20
ENDBRANCH  10  18
ENDBRANCH   6   7
ENDBRANCH   4   6
ENDBRANCH   1   2
BRANCH   1  30
ATOM     30  C   UNL A   1      35.720  30.845  27.626  1.00  0.00     0.042 C 
BRANCH  30  31
ATOM     31  C   UNL A   1      35.089  32.138  28.141  1.00  0.00     0.118 C 
BRANCH  31  32
ATOM     32  N   UNL A   1      34.744  32.114  29.548  1.00  0.00    -0.352 N 
ATOM     33  C   UNL A   1      35.412  31.828  30.703  1.00  0.00     0.251 C 
ATOM     34  H   UNL A   1      33.807  32.365  29.709  1.00  0.00     0.163 HD
ATOM     35  O   UNL A   1      34.824  32.121  31.747  1.00  0.00    -0.269 OA
BRANCH  33  36
ATOM     36  C   UNL A   1      36.725  31.134  30.799  1.00  0.00     0.039 A 
ATOM     37  C   UNL A   1      37.979  31.722  30.639  1.00  0.00     0.014 A 
ATOM     38  C   UNL A   1      36.654  29.739  30.988  1.00  0.00     0.014 A 
ATOM     39  C   UNL A   1      39.120  30.927  30.563  1.00  0.00     0.010 A 
ATOM     40  C   UNL A   1      37.789  28.942  30.919  1.00  0.00     0.010 A 
ATOM     41  C   UNL A   1      39.015  29.535  30.653  1.00  0.00    -0.014 A 
BRANCH  41  42
ATOM     42  C   UNL A   1      40.235  28.735  30.562  1.00  0.00     0.031 A 
ATOM     43  C   UNL A   1      40.961  28.577  31.852  1.00  0.00     0.074 A 
ATOM     44  C   UNL A   1      40.618  28.094  29.437  1.00  0.00     0.049 A 
ATOM     45  N   UNL A   1      42.161  28.963  32.140  1.00  0.00    -0.248 NA
ATOM     46  C   UNL A   1      40.227  28.014  32.995  1.00  0.00     0.031 C 
ATOM     47  C   UNL A   1      39.857  27.942  28.193  1.00  0.00     0.029 A 
ATOM     48  N   UNL A   1      41.748  27.362  29.193  1.00  0.00    -0.354 N 
ATOM     49  C   UNL A   1      42.399  28.538  33.446  1.00  0.00     0.074 A 
ATOM     50  C   UNL A   1      41.138  28.082  33.967  1.00  0.00     0.031 C 
ATOM     51  C   UNL A   1      40.440  26.998  27.418  1.00  0.00     0.029 A 
ATOM     52  C   UNL A   1      41.691  26.593  28.035  1.00  0.00     0.049 A 
ATOM     53  H   UNL A   1      42.533  27.378  29.786  1.00  0.00     0.167 HD
ATOM     54  C   UNL A   1      43.670  28.374  33.908  1.00  0.00     0.037 A 
ATOM     55  C   UNL A   1      42.600  25.673  27.626  1.00  0.00     0.037 A 
ATOM     56  C   UNL A   1      44.621  29.029  33.055  1.00  0.00     0.049 A 
ATOM     57  C   UNL A   1      43.879  25.980  28.300  1.00  0.00     0.074 A 
ATOM     58  C   UNL A   1      45.083  30.311  32.861  1.00  0.00     0.029 A 
ATOM     59  N   UNL A   1      44.987  28.290  31.964  1.00  0.00    -0.354 N 
ATOM     60  N   UNL A   1      44.600  27.031  28.035  1.00  0.00    -0.248 NA
ATOM     61  C   UNL A   1      44.248  25.249  29.507  1.00  0.00     0.031 C 
ATOM     62  C   UNL A   1      45.580  30.356  31.523  1.00  0.00     0.029 A 
ATOM     63  C   UNL A   1      45.433  29.094  30.952  1.00  0.00     0.049 A 
ATOM     64  H   UNL A   1      44.935  27.308  31.914  1.00  0.00     0.167 HD
ATOM     65  C   UNL A   1      45.209  27.328  29.235  1.00  0.00     0.074 A 
ATOM     66  C   UNL A   1      45.117  26.114  30.033  1.00  0.00     0.031 C 
ATOM     67  C   UNL A   1      45.430  28.623  29.589  1.00  0.00     0.037 A 
BRANCH  54  68
ATOM     68  C   UNL A   1      44.110  27.261  34.836  1.00  0.00     0.064 A 
ATOM     69  C   UNL A   1      44.006  25.920  34.409  1.00  0.00     0.173 A 
ATOM     70  C   UNL A   1      44.314  27.439  36.221  1.00  0.00     0.173 A 
ATOM     71  F   UNL A   1      43.778  25.629  33.119  1.00  0.00    -0.203 F 
ATOM     72  C   UNL A   1      44.047  24.849  35.309  1.00  0.00     0.198 A 
ATOM     73  C   UNL A   1      44.405  26.368  37.109  1.00  0.00     0.198 A 
ATOM     74  F   UNL A   1      44.313  28.652  36.787  1.00  0.00    -0.203 F 
ATOM     75  F   UNL A   1      43.830  23.600  34.872  1.00  0.00    -0.200 F 
ATOM     76  C   UNL A   1      44.244  25.074  36.658  1.00  0.00     0.200 A 
ATOM     77  F   UNL A   1      44.567  26.608  38.418  1.00  0.00    -0.200 F 
ATOM     78  F   UNL A   1      44.231  24.057  37.529  1.00  0.00    -0.200 F 
ENDBRANCH  54  68
BRANCH  55  79
ATOM     79  C   UNL A   1      42.436  24.417  26.857  1.00  0.00     0.064 A 
ATOM     80  C   UNL A   1      43.119  24.228  25.642  1.00  0.00     0.173 A 
ATOM     81  C   UNL A   1      41.897  23.268  27.460  1.00  0.00     0.173 A 
ATOM     82  F   UNL A   1      43.678  25.272  25.011  1.00  0.00    -0.203 F 
ATOM     83  C   UNL A   1      43.319  22.955  25.102  1.00  0.00     0.198 A 
ATOM     84  C   UNL A   1      42.092  21.996  26.916  1.00  0.00     0.198 A 
ATOM     85  F   UNL A   1      41.268  23.345  28.641  1.00  0.00    -0.203 F 
ATOM     86  F   UNL A   1      44.057  22.808  23.993  1.00  0.00    -0.200 F 
ATOM     87  C   UNL A   1      42.825  21.838  25.751  1.00  0.00     0.200 A 
ATOM     88  F   UNL A   1      41.637  20.916  27.567  1.00  0.00    -0.200 F 
ATOM     89  F   UNL A   1      43.092  20.611  25.285  1.00  0.00    -0.200 F 
ENDBRANCH  55  79
BRANCH  67  90
ATOM     90  C   UNL A   1      45.483  29.631  28.488  1.00  0.00     0.064 A 
ATOM     91  C   UNL A   1      44.358  30.276  27.950  1.00  0.00     0.173 A 
ATOM     92  C   UNL A   1      46.743  30.005  28.008  1.00  0.00     0.173 A 
ATOM     93  F   UNL A   1      43.128  30.017  28.413  1.00  0.00    -0.203 F 
ATOM     94  C   UNL A   1      44.495  31.234  26.947  1.00  0.00     0.198 A 
ATOM     95  C   UNL A   1      46.879  30.987  27.033  1.00  0.00     0.198 A 
ATOM     96  F   UNL A   1      47.850  29.442  28.518  1.00  0.00    -0.203 F 
ATOM     97  F   UNL A   1      43.408  31.832  26.436  1.00  0.00    -0.200 F 
ATOM     98  C   UNL A   1      45.755  31.594  26.496  1.00  0.00     0.200 A 
ATOM     99  F   UNL A   1      48.101  31.359  26.630  1.00  0.00    -0.200 F 
ATOM    100  F   UNL A   1      45.889  32.543  25.560  1.00  0.00    -0.200 F 
ENDBRANCH  67  90
ENDBRANCH  41  42
ENDBRANCH  33  36
ENDBRANCH  31  32
ENDBRANCH  30  31
ENDBRANCH   1  30
TORSDOF 15
ENDMDL
