MODEL 1
REMARK VINA RESULT:     -12.8      0.000      0.000
REMARK SMILES CC1(C)C(NC(=O)[C@@H]2CCC[C@@H](C(=O)NCCCNC(=O)c3ccc(-c4c5nc(c(-c6c(F)c(F)c(F)c(F)c6F)c6ccc([nH]6)c(-c6c(F)c(F)c(F)c(F)c6F)c6nc(c(-c7c(F)c(F)c(F)c(F)c7F)c7ccc4[nH]7)C=C6)C=C5)cc3)C2)C1(C)C
REMARK SMILES IDX 17 1 16 2 15 3 13 4 14 5 12 7 8 8 9 9 85 10 10 11 11 12 6 13
REMARK SMILES IDX 5 14 7 16 4 17 1 18 2 19 3 20 86 21 87 22 88 23 18 24 19 25
REMARK SMILES IDX 20 26 21 28 22 29 23 30 84 31 24 32 83 33 25 34 26 35 27 36
REMARK SMILES IDX 77 37 28 38 82 39 76 40 78 41 29 42 81 43 75 44 74 45 30 47
REMARK SMILES IDX 62 48 42 49 61 50 43 51 46 52 60 53 79 54 44 55 45 56 59 58
REMARK SMILES IDX 80 59 47 60 31 61 32 62 40 63 33 64 34 65 38 66 41 67 35 68
REMARK SMILES IDX 36 69 39 70 37 71 63 72 64 73 72 74 65 75 66 76 70 77 73 78
REMARK SMILES IDX 67 79 68 80 71 81 69 82 48 83 49 84 57 85 50 86 51 87 55 88
REMARK SMILES IDX 58 89 52 90 53 91 56 92 54 93
REMARK H PARENT 15 6 5 15 19 27 78 46 46 57
REMARK Flexibility Score: inf
ROOT
ATOM      1  C   UNL A   1      38.097  19.587  24.681  1.00  0.00     0.042 C 
ENDROOT
BRANCH   1   2
ATOM      2  C   UNL A   1      36.634  19.875  25.018  1.00  0.00     0.117 C 
BRANCH   2   3
ATOM      3  N   UNL A   1      36.417  21.275  25.319  1.00  0.00    -0.356 N 
ATOM      4  C   UNL A   1      35.278  21.968  25.585  1.00  0.00     0.223 C 
ATOM      5  O   UNL A   1      35.411  23.173  25.805  1.00  0.00    -0.275 OA
ATOM      6  H   UNL A   1      37.237  21.820  25.333  1.00  0.00     0.163 HD
BRANCH   4   7
ATOM      7  C   UNL A   1      33.916  21.260  25.649  1.00  0.00     0.079 C 
ATOM      8  C   UNL A   1      32.412  23.333  25.827  1.00  0.00     0.079 C 
ATOM      9  C   UNL A   1      31.790  22.993  24.470  1.00  0.00     0.013 C 
ATOM     10  C   UNL A   1      32.922  22.056  26.524  1.00  0.00     0.027 C 
ATOM     11  C   UNL A   1      32.783  22.248  23.589  1.00  0.00     0.002 C 
ATOM     12  C   UNL A   1      33.283  20.984  24.279  1.00  0.00     0.013 C 
BRANCH   8  13
ATOM     13  C   UNL A   1      31.410  24.094  26.688  1.00  0.00     0.223 C 
ATOM     14  N   UNL A   1      31.545  25.457  26.790  1.00  0.00    -0.352 N 
ATOM     15  H   UNL A   1      30.856  25.915  27.323  1.00  0.00     0.163 HD
ATOM     16  O   UNL A   1      30.481  23.538  27.271  1.00  0.00    -0.275 OA
BRANCH  14  17
ATOM     17  C   UNL A   1      32.555  26.302  26.226  1.00  0.00     0.094 C 
ATOM     18  C   UNL A   1      33.287  27.510  24.035  1.00  0.00     0.014 C 
ATOM     19  C   UNL A   1      32.258  27.315  25.131  1.00  0.00    -0.007 C 
ATOM     20  C   UNL A   1      30.843  27.437  24.611  1.00  0.00     0.014 C 
ATOM     21  C   UNL A   1      32.626  27.779  26.555  1.00  0.00    -0.007 C 
ATOM     22  C   UNL A   1      34.014  28.312  26.852  1.00  0.00     0.014 C 
ATOM     23  C   UNL A   1      31.582  28.406  27.451  1.00  0.00     0.014 C 
ENDBRANCH  14  17
ENDBRANCH   8  13
ENDBRANCH   4   7
ENDBRANCH   2   3
ENDBRANCH   1   2
BRANCH   1  24
ATOM     24  C   UNL A   1      39.092  19.978  25.771  1.00  0.00     0.118 C 
BRANCH  24  25
ATOM     25  N   UNL A   1      40.196  19.040  25.892  1.00  0.00    -0.352 N 
ATOM     26  C   UNL A   1      41.533  19.259  26.109  1.00  0.00     0.251 C 
ATOM     27  H   UNL A   1      39.941  18.094  25.805  1.00  0.00     0.163 HD
ATOM     28  O   UNL A   1      42.317  18.321  26.008  1.00  0.00    -0.269 OA
BRANCH  26  29
ATOM     29  C   UNL A   1      42.050  20.606  26.443  1.00  0.00     0.039 A 
ATOM     30  C   UNL A   1      42.352  21.479  25.392  1.00  0.00     0.014 A 
ATOM     31  C   UNL A   1      42.295  21.002  27.762  1.00  0.00     0.014 A 
ATOM     32  C   UNL A   1      42.843  22.758  25.662  1.00  0.00     0.010 A 
ATOM     33  C   UNL A   1      42.721  22.303  28.034  1.00  0.00     0.010 A 
ATOM     34  C   UNL A   1      43.003  23.193  26.986  1.00  0.00    -0.014 A 
BRANCH  34  35
ATOM     35  C   UNL A   1      43.452  24.578  27.284  1.00  0.00     0.031 A 
ATOM     36  C   UNL A   1      42.487  25.601  27.814  1.00  0.00     0.074 A 
ATOM     37  C   UNL A   1      44.727  24.929  27.026  1.00  0.00     0.049 A 
ATOM     38  N   UNL A   1      42.693  26.863  28.100  1.00  0.00    -0.248 NA
ATOM     39  C   UNL A   1      41.102  25.156  28.028  1.00  0.00     0.031 C 
ATOM     40  C   UNL A   1      45.746  24.047  26.459  1.00  0.00     0.029 A 
ATOM     41  N   UNL A   1      45.380  26.125  27.198  1.00  0.00    -0.354 N 
ATOM     42  C   UNL A   1      41.463  27.364  28.510  1.00  0.00     0.074 A 
ATOM     43  C   UNL A   1      40.508  26.283  28.394  1.00  0.00     0.031 C 
ATOM     44  C   UNL A   1      46.900  24.724  26.345  1.00  0.00     0.029 A 
ATOM     45  C   UNL A   1      46.694  26.095  26.804  1.00  0.00     0.049 A 
ATOM     46  H   UNL A   1      44.947  26.927  27.570  1.00  0.00     0.167 HD
ATOM     47  C   UNL A   1      41.165  28.606  28.962  1.00  0.00     0.037 A 
ATOM     48  C   UNL A   1      47.629  27.063  26.807  1.00  0.00     0.037 A 
ATOM     49  C   UNL A   1      42.121  29.673  29.105  1.00  0.00     0.049 A 
ATOM     50  C   UNL A   1      47.278  28.426  27.334  1.00  0.00     0.074 A 
ATOM     51  C   UNL A   1      41.931  30.940  29.627  1.00  0.00     0.029 A 
ATOM     52  N   UNL A   1      43.452  29.597  28.721  1.00  0.00    -0.354 N 
ATOM     53  N   UNL A   1      46.132  28.864  27.796  1.00  0.00    -0.248 NA
ATOM     54  C   UNL A   1      48.354  29.427  27.352  1.00  0.00     0.031 C 
ATOM     55  C   UNL A   1      43.134  31.647  29.518  1.00  0.00     0.029 A 
ATOM     56  C   UNL A   1      44.088  30.804  28.971  1.00  0.00     0.049 A 
ATOM     57  H   UNL A   1      43.882  28.803  28.328  1.00  0.00     0.167 HD
ATOM     58  C   UNL A   1      46.351  30.181  28.176  1.00  0.00     0.074 A 
ATOM     59  C   UNL A   1      47.747  30.465  27.910  1.00  0.00     0.031 C 
ATOM     60  C   UNL A   1      45.476  31.075  28.697  1.00  0.00     0.037 A 
BRANCH  47  61
ATOM     61  C   UNL A   1      39.737  28.883  29.336  1.00  0.00     0.064 A 
ATOM     62  C   UNL A   1      38.812  29.370  28.400  1.00  0.00     0.173 A 
ATOM     63  C   UNL A   1      39.278  28.623  30.636  1.00  0.00     0.173 A 
ATOM     64  F   UNL A   1      39.201  29.643  27.146  1.00  0.00    -0.203 F 
ATOM     65  C   UNL A   1      37.488  29.613  28.760  1.00  0.00     0.198 A 
ATOM     66  C   UNL A   1      37.948  28.841  30.986  1.00  0.00     0.198 A 
ATOM     67  F   UNL A   1      40.120  28.150  31.568  1.00  0.00    -0.203 F 
ATOM     68  F   UNL A   1      36.635  30.125  27.861  1.00  0.00    -0.200 F 
ATOM     69  C   UNL A   1      37.056  29.344  30.049  1.00  0.00     0.200 A 
ATOM     70  F   UNL A   1      37.529  28.567  32.228  1.00  0.00    -0.200 F 
ATOM     71  F   UNL A   1      35.782  29.574  30.393  1.00  0.00    -0.200 F 
ENDBRANCH  47  61
BRANCH  48  72
ATOM     72  C   UNL A   1      49.000  26.766  26.316  1.00  0.00     0.064 A 
ATOM     73  C   UNL A   1      49.978  26.251  27.177  1.00  0.00     0.173 A 
ATOM     74  C   UNL A   1      49.355  26.983  24.976  1.00  0.00     0.173 A 
ATOM     75  F   UNL A   1      49.689  26.046  28.470  1.00  0.00    -0.203 F 
ATOM     76  C   UNL A   1      51.266  25.980  26.722  1.00  0.00     0.198 A 
ATOM     77  C   UNL A   1      50.637  26.687  24.516  1.00  0.00     0.198 A 
ATOM     78  F   UNL A   1      48.453  27.470  24.112  1.00  0.00    -0.203 F 
ATOM     79  F   UNL A   1      52.193  25.525  27.574  1.00  0.00    -0.200 F 
ATOM     80  C   UNL A   1      51.592  26.191  25.390  1.00  0.00     0.200 A 
ATOM     81  F   UNL A   1      50.944  26.880  23.226  1.00  0.00    -0.200 F 
ATOM     82  F   UNL A   1      52.830  25.924  24.951  1.00  0.00    -0.200 F 
ENDBRANCH  48  72
BRANCH  60  83
ATOM     83  C   UNL A   1      46.006  32.438  29.030  1.00  0.00     0.064 A 
ATOM     84  C   UNL A   1      46.563  32.722  30.287  1.00  0.00     0.173 A 
ATOM     85  C   UNL A   1      45.979  33.466  28.076  1.00  0.00     0.173 A 
ATOM     86  F   UNL A   1      46.596  31.779  31.239  1.00  0.00    -0.203 F 
ATOM     87  C   UNL A   1      47.046  33.994  30.584  1.00  0.00     0.198 A 
ATOM     88  C   UNL A   1      46.490  34.728  28.366  1.00  0.00     0.198 A 
ATOM     89  F   UNL A   1      45.463  33.244  26.858  1.00  0.00    -0.203 F 
ATOM     90  F   UNL A   1      47.525  34.256  31.807  1.00  0.00    -0.200 F 
ATOM     91  C   UNL A   1      47.014  34.993  29.622  1.00  0.00     0.200 A 
ATOM     92  F   UNL A   1      46.468  35.689  27.433  1.00  0.00    -0.200 F 
ATOM     93  F   UNL A   1      47.481  36.216  29.910  1.00  0.00    -0.200 F 
ENDBRANCH  60  83
ENDBRANCH  34  35
ENDBRANCH  26  29
ENDBRANCH  24  25
ENDBRANCH   1  24
TORSDOF 12
ENDMDL
MODEL 2
REMARK VINA RESULT:     -12.8      0.417      1.658
REMARK SMILES CC1(C)C(NC(=O)[C@@H]2CCC[C@@H](C(=O)NCCCNC(=O)c3ccc(-c4c5nc(c(-c6c(F)c(F)c(F)c(F)c6F)c6ccc([nH]6)c(-c6c(F)c(F)c(F)c(F)c6F)c6nc(c(-c7c(F)c(F)c(F)c(F)c7F)c7ccc4[nH]7)C=C6)C=C5)cc3)C2)C1(C)C
REMARK SMILES IDX 17 1 16 2 15 3 13 4 14 5 12 7 8 8 9 9 85 10 10 11 11 12 6 13
REMARK SMILES IDX 5 14 7 16 4 17 1 18 2 19 3 20 86 21 87 22 88 23 18 24 19 25
REMARK SMILES IDX 20 26 21 28 22 29 23 30 84 31 24 32 83 33 25 34 26 35 27 36
REMARK SMILES IDX 77 37 28 38 82 39 76 40 78 41 29 42 81 43 75 44 74 45 30 47
REMARK SMILES IDX 62 48 42 49 61 50 43 51 46 52 60 53 79 54 44 55 45 56 59 58
REMARK SMILES IDX 80 59 47 60 31 61 32 62 40 63 33 64 34 65 38 66 41 67 35 68
REMARK SMILES IDX 36 69 39 70 37 71 63 72 64 73 72 74 65 75 66 76 70 77 73 78
REMARK SMILES IDX 67 79 68 80 71 81 69 82 48 83 49 84 57 85 50 86 51 87 55 88
REMARK SMILES IDX 58 89 52 90 53 91 56 92 54 93
REMARK H PARENT 15 6 5 15 19 27 78 46 46 57
REMARK Flexibility Score: inf
ROOT
ATOM      1  C   UNL A   1      37.783  19.763  24.694  1.00  0.00     0.042 C 
ENDROOT
BRANCH   1   2
ATOM      2  C   UNL A   1      36.353  20.191  25.026  1.00  0.00     0.117 C 
BRANCH   2   3
ATOM      3  N   UNL A   1      36.057  21.515  24.520  1.00  0.00    -0.356 N 
ATOM      4  C   UNL A   1      34.874  22.134  24.268  1.00  0.00     0.223 C 
ATOM      5  O   UNL A   1      34.941  23.284  23.830  1.00  0.00    -0.275 OA
ATOM      6  H   UNL A   1      36.852  22.062  24.323  1.00  0.00     0.163 HD
BRANCH   4   7
ATOM      7  C   UNL A   1      33.537  21.438  24.563  1.00  0.00     0.079 C 
ATOM      8  C   UNL A   1      32.226  23.470  25.425  1.00  0.00     0.079 C 
ATOM      9  C   UNL A   1      31.273  23.356  24.232  1.00  0.00     0.013 C 
ATOM     10  C   UNL A   1      32.829  22.094  25.770  1.00  0.00     0.027 C 
ATOM     11  C   UNL A   1      31.981  22.751  23.027  1.00  0.00     0.002 C 
ATOM     12  C   UNL A   1      32.573  21.389  23.370  1.00  0.00     0.013 C 
BRANCH   8  13
ATOM     13  C   UNL A   1      31.506  24.094  26.615  1.00  0.00     0.223 C 
ATOM     14  N   UNL A   1      31.758  25.411  26.909  1.00  0.00    -0.352 N 
ATOM     15  H   UNL A   1      31.244  25.787  27.660  1.00  0.00     0.163 HD
ATOM     16  O   UNL A   1      30.697  23.471  27.301  1.00  0.00    -0.275 OA
BRANCH  14  17
ATOM     17  C   UNL A   1      32.670  26.313  26.270  1.00  0.00     0.094 C 
ATOM     18  C   UNL A   1      33.195  27.506  24.013  1.00  0.00     0.014 C 
ATOM     19  C   UNL A   1      32.240  27.267  25.166  1.00  0.00    -0.007 C 
ATOM     20  C   UNL A   1      30.796  27.265  24.717  1.00  0.00     0.014 C 
ATOM     21  C   UNL A   1      32.643  27.801  26.556  1.00  0.00    -0.007 C 
ATOM     22  C   UNL A   1      33.998  28.447  26.766  1.00  0.00     0.014 C 
ATOM     23  C   UNL A   1      31.600  28.374  27.489  1.00  0.00     0.014 C 
ENDBRANCH  14  17
ENDBRANCH   8  13
ENDBRANCH   4   7
ENDBRANCH   2   3
ENDBRANCH   1   2
BRANCH   1  24
ATOM     24  C   UNL A   1      38.829  20.176  25.726  1.00  0.00     0.118 C 
BRANCH  24  25
ATOM     25  N   UNL A   1      39.905  19.208  25.859  1.00  0.00    -0.352 N 
ATOM     26  C   UNL A   1      41.245  19.390  26.094  1.00  0.00     0.251 C 
ATOM     27  H   UNL A   1      39.627  18.269  25.765  1.00  0.00     0.163 HD
ATOM     28  O   UNL A   1      42.005  18.432  26.000  1.00  0.00    -0.269 OA
BRANCH  26  29
ATOM     29  C   UNL A   1      41.794  20.722  26.440  1.00  0.00     0.039 A 
ATOM     30  C   UNL A   1      42.027  21.631  25.402  1.00  0.00     0.014 A 
ATOM     31  C   UNL A   1      42.133  21.068  27.751  1.00  0.00     0.014 A 
ATOM     32  C   UNL A   1      42.545  22.897  25.683  1.00  0.00     0.010 A 
ATOM     33  C   UNL A   1      42.586  22.356  28.040  1.00  0.00     0.010 A 
ATOM     34  C   UNL A   1      42.800  23.283  27.008  1.00  0.00    -0.014 A 
BRANCH  34  35
ATOM     35  C   UNL A   1      43.279  24.654  27.323  1.00  0.00     0.031 A 
ATOM     36  C   UNL A   1      42.344  25.679  27.904  1.00  0.00     0.074 A 
ATOM     37  C   UNL A   1      44.551  24.993  27.036  1.00  0.00     0.049 A 
ATOM     38  N   UNL A   1      42.578  26.931  28.211  1.00  0.00    -0.248 NA
ATOM     39  C   UNL A   1      40.960  25.250  28.147  1.00  0.00     0.031 C 
ATOM     40  C   UNL A   1      45.540  24.109  26.420  1.00  0.00     0.029 A 
ATOM     41  N   UNL A   1      45.226  26.175  27.216  1.00  0.00    -0.354 N 
ATOM     42  C   UNL A   1      41.368  27.441  28.668  1.00  0.00     0.074 A 
ATOM     43  C   UNL A   1      40.394  26.376  28.555  1.00  0.00     0.031 C 
ATOM     44  C   UNL A   1      46.700  24.772  26.288  1.00  0.00     0.029 A 
ATOM     45  C   UNL A   1      46.528  26.134  26.783  1.00  0.00     0.049 A 
ATOM     46  H   UNL A   1      44.816  26.974  27.617  1.00  0.00     0.167 HD
ATOM     47  C   UNL A   1      41.102  28.677  29.156  1.00  0.00     0.037 A 
ATOM     48  C   UNL A   1      47.478  27.089  26.781  1.00  0.00     0.037 A 
ATOM     49  C   UNL A   1      42.078  29.726  29.295  1.00  0.00     0.049 A 
ATOM     50  C   UNL A   1      47.162  28.444  27.348  1.00  0.00     0.074 A 
ATOM     51  C   UNL A   1      41.922  30.983  29.850  1.00  0.00     0.029 A 
ATOM     52  N   UNL A   1      43.396  29.639  28.870  1.00  0.00    -0.354 N 
ATOM     53  N   UNL A   1      46.037  28.888  27.852  1.00  0.00    -0.248 NA
ATOM     54  C   UNL A   1      48.253  29.429  27.357  1.00  0.00     0.031 C 
ATOM     55  C   UNL A   1      43.132  31.675  29.722  1.00  0.00     0.029 A 
ATOM     56  C   UNL A   1      44.057  30.830  29.129  1.00  0.00     0.049 A 
ATOM     57  H   UNL A   1      43.802  28.848  28.448  1.00  0.00     0.167 HD
ATOM     58  C   UNL A   1      46.287  30.193  28.255  1.00  0.00     0.074 A 
ATOM     59  C   UNL A   1      47.679  30.463  27.956  1.00  0.00     0.031 C 
ATOM     60  C   UNL A   1      45.440  31.087  28.821  1.00  0.00     0.037 A 
BRANCH  47  61
ATOM     61  C   UNL A   1      39.690  28.965  29.577  1.00  0.00     0.064 A 
ATOM     62  C   UNL A   1      38.732  29.437  28.667  1.00  0.00     0.173 A 
ATOM     63  C   UNL A   1      39.278  28.731  30.898  1.00  0.00     0.173 A 
ATOM     64  F   UNL A   1      39.075  29.685  27.394  1.00  0.00    -0.203 F 
ATOM     65  C   UNL A   1      37.423  29.692  29.071  1.00  0.00     0.198 A 
ATOM     66  C   UNL A   1      37.962  28.961  31.292  1.00  0.00     0.198 A 
ATOM     67  F   UNL A   1      40.153  28.273  31.807  1.00  0.00    -0.203 F 
ATOM     68  F   UNL A   1      36.539  30.190  28.194  1.00  0.00    -0.200 F 
ATOM     69  C   UNL A   1      37.038  29.449  30.380  1.00  0.00     0.200 A 
ATOM     70  F   UNL A   1      37.590  28.712  32.554  1.00  0.00    -0.200 F 
ATOM     71  F   UNL A   1      35.778  29.691  30.766  1.00  0.00    -0.200 F 
ENDBRANCH  47  61
BRANCH  48  72
ATOM     72  C   UNL A   1      48.829  26.783  26.243  1.00  0.00     0.064 A 
ATOM     73  C   UNL A   1      49.172  27.114  24.926  1.00  0.00     0.173 A 
ATOM     74  C   UNL A   1      49.805  26.165  27.039  1.00  0.00     0.173 A 
ATOM     75  F   UNL A   1      48.263  27.688  24.123  1.00  0.00    -0.203 F 
ATOM     76  C   UNL A   1      50.434  26.821  24.416  1.00  0.00     0.198 A 
ATOM     77  C   UNL A   1      51.077  25.897  26.535  1.00  0.00     0.198 A 
ATOM     78  F   UNL A   1      49.528  25.835  28.308  1.00  0.00    -0.203 F 
ATOM     79  F   UNL A   1      50.723  27.112  23.141  1.00  0.00    -0.200 F 
ATOM     80  C   UNL A   1      51.388  26.220  25.224  1.00  0.00     0.200 A 
ATOM     81  F   UNL A   1      52.000  25.328  27.323  1.00  0.00    -0.200 F 
ATOM     82  F   UNL A   1      52.605  25.944  24.735  1.00  0.00    -0.200 F 
ENDBRANCH  48  72
BRANCH  60  83
ATOM     83  C   UNL A   1      46.001  32.435  29.169  1.00  0.00     0.064 A 
ATOM     84  C   UNL A   1      45.945  33.508  28.267  1.00  0.00     0.173 A 
ATOM     85  C   UNL A   1      46.581  32.662  30.425  1.00  0.00     0.173 A 
ATOM     86  F   UNL A   1      45.416  33.337  27.046  1.00  0.00    -0.203 F 
ATOM     87  C   UNL A   1      46.474  34.752  28.600  1.00  0.00     0.198 A 
ATOM     88  C   UNL A   1      47.084  33.915  30.767  1.00  0.00     0.198 A 
ATOM     89  F   UNL A   1      46.654  31.671  31.326  1.00  0.00    -0.203 F 
ATOM     90  F   UNL A   1      46.456  35.747  27.704  1.00  0.00    -0.200 F 
ATOM     91  C   UNL A   1      47.038  34.955  29.852  1.00  0.00     0.200 A 
ATOM     92  F   UNL A   1      47.618  34.113  31.980  1.00  0.00    -0.200 F 
ATOM     93  F   UNL A   1      47.546  36.154  30.171  1.00  0.00    -0.200 F 
ENDBRANCH  60  83
ENDBRANCH  34  35
ENDBRANCH  26  29
ENDBRANCH  24  25
ENDBRANCH   1  24
TORSDOF 12
ENDMDL
MODEL 3
REMARK VINA RESULT:     -12.7      0.239      1.618
REMARK SMILES CC1(C)C(NC(=O)[C@@H]2CCC[C@@H](C(=O)NCCCNC(=O)c3ccc(-c4c5nc(c(-c6c(F)c(F)c(F)c(F)c6F)c6ccc([nH]6)c(-c6c(F)c(F)c(F)c(F)c6F)c6nc(c(-c7c(F)c(F)c(F)c(F)c7F)c7ccc4[nH]7)C=C6)C=C5)cc3)C2)C1(C)C
REMARK SMILES IDX 17 1 16 2 15 3 13 4 14 5 12 7 8 8 9 9 85 10 10 11 11 12 6 13
REMARK SMILES IDX 5 14 7 16 4 17 1 18 2 19 3 20 86 21 87 22 88 23 18 24 19 25
REMARK SMILES IDX 20 26 21 28 22 29 23 30 84 31 24 32 83 33 25 34 26 35 27 36
REMARK SMILES IDX 77 37 28 38 82 39 76 40 78 41 29 42 81 43 75 44 74 45 30 47
REMARK SMILES IDX 62 48 42 49 61 50 43 51 46 52 60 53 79 54 44 55 45 56 59 58
REMARK SMILES IDX 80 59 47 60 31 61 32 62 40 63 33 64 34 65 38 66 41 67 35 68
REMARK SMILES IDX 36 69 39 70 37 71 63 72 64 73 72 74 65 75 66 76 70 77 73 78
REMARK SMILES IDX 67 79 68 80 71 81 69 82 48 83 49 84 57 85 50 86 51 87 55 88
REMARK SMILES IDX 58 89 52 90 53 91 56 92 54 93
REMARK H PARENT 15 6 5 15 19 27 78 46 46 57
REMARK Flexibility Score: inf
ROOT
ATOM      1  C   UNL A   1      38.040  19.688  24.682  1.00  0.00     0.042 C 
ENDROOT
BRANCH   1   2
ATOM      2  C   UNL A   1      36.573  19.987  24.993  1.00  0.00     0.117 C 
BRANCH   2   3
ATOM      3  N   UNL A   1      36.401  21.314  25.548  1.00  0.00    -0.356 N 
ATOM      4  C   UNL A   1      35.292  21.960  25.996  1.00  0.00     0.223 C 
ATOM      5  O   UNL A   1      35.461  23.105  26.418  1.00  0.00    -0.275 OA
ATOM      6  H   UNL A   1      37.231  21.839  25.612  1.00  0.00     0.163 HD
BRANCH   4   7
ATOM      7  C   UNL A   1      33.922  21.267  26.011  1.00  0.00     0.079 C 
ATOM      8  C   UNL A   1      32.431  23.356  25.967  1.00  0.00     0.079 C 
ATOM      9  C   UNL A   1      31.896  22.940  24.593  1.00  0.00     0.013 C 
ATOM     10  C   UNL A   1      32.880  22.119  26.770  1.00  0.00     0.027 C 
ATOM     11  C   UNL A   1      32.937  22.138  23.826  1.00  0.00     0.002 C 
ATOM     12  C   UNL A   1      33.377  20.913  24.620  1.00  0.00     0.013 C 
BRANCH   8  13
ATOM     13  C   UNL A   1      31.383  24.173  26.713  1.00  0.00     0.223 C 
ATOM     14  N   UNL A   1      31.522  25.539  26.739  1.00  0.00    -0.352 N 
ATOM     15  H   UNL A   1      30.803  26.032  27.197  1.00  0.00     0.163 HD
ATOM     16  O   UNL A   1      30.414  23.659  27.270  1.00  0.00    -0.275 OA
BRANCH  14  17
ATOM     17  C   UNL A   1      32.572  26.343  26.189  1.00  0.00     0.094 C 
ATOM     18  C   UNL A   1      33.383  27.518  24.008  1.00  0.00     0.014 C 
ATOM     19  C   UNL A   1      32.331  27.366  25.089  1.00  0.00    -0.007 C 
ATOM     20  C   UNL A   1      30.929  27.542  24.547  1.00  0.00     0.014 C 
ATOM     21  C   UNL A   1      32.695  27.817  26.518  1.00  0.00    -0.007 C 
ATOM     22  C   UNL A   1      34.099  28.297  26.835  1.00  0.00     0.014 C 
ATOM     23  C   UNL A   1      31.664  28.486  27.397  1.00  0.00     0.014 C 
ENDBRANCH  14  17
ENDBRANCH   8  13
ENDBRANCH   4   7
ENDBRANCH   2   3
ENDBRANCH   1   2
BRANCH   1  24
ATOM     24  C   UNL A   1      39.020  20.088  25.782  1.00  0.00     0.118 C 
BRANCH  24  25
ATOM     25  N   UNL A   1      40.120  19.149  25.928  1.00  0.00    -0.352 N 
ATOM     26  C   UNL A   1      41.454  19.367  26.166  1.00  0.00     0.251 C 
ATOM     27  H   UNL A   1      39.865  18.202  25.844  1.00  0.00     0.163 HD
ATOM     28  O   UNL A   1      42.238  18.427  26.084  1.00  0.00    -0.269 OA
BRANCH  26  29
ATOM     29  C   UNL A   1      41.968  20.716  26.498  1.00  0.00     0.039 A 
ATOM     30  C   UNL A   1      42.216  21.607  25.448  1.00  0.00     0.014 A 
ATOM     31  C   UNL A   1      42.261  21.096  27.811  1.00  0.00     0.014 A 
ATOM     32  C   UNL A   1      42.702  22.888  25.716  1.00  0.00     0.010 A 
ATOM     33  C   UNL A   1      42.682  22.398  28.085  1.00  0.00     0.010 A 
ATOM     34  C   UNL A   1      42.910  23.307  27.040  1.00  0.00    -0.014 A 
BRANCH  34  35
ATOM     35  C   UNL A   1      43.354  24.693  27.339  1.00  0.00     0.031 A 
ATOM     36  C   UNL A   1      42.396  25.699  27.912  1.00  0.00     0.074 A 
ATOM     37  C   UNL A   1      44.617  25.061  27.044  1.00  0.00     0.049 A 
ATOM     38  N   UNL A   1      42.598  26.960  28.206  1.00  0.00    -0.248 NA
ATOM     39  C   UNL A   1      41.024  25.237  28.165  1.00  0.00     0.031 C 
ATOM     40  C   UNL A   1      45.626  24.196  26.434  1.00  0.00     0.029 A 
ATOM     41  N   UNL A   1      45.262  26.262  27.210  1.00  0.00    -0.354 N 
ATOM     42  C   UNL A   1      41.378  27.444  28.661  1.00  0.00     0.074 A 
ATOM     43  C   UNL A   1      40.431  26.353  28.563  1.00  0.00     0.031 C 
ATOM     44  C   UNL A   1      46.768  24.887  26.291  1.00  0.00     0.029 A 
ATOM     45  C   UNL A   1      46.563  26.250  26.772  1.00  0.00     0.049 A 
ATOM     46  H   UNL A   1      44.833  27.054  27.604  1.00  0.00     0.167 HD
ATOM     47  C   UNL A   1      41.081  28.677  29.137  1.00  0.00     0.037 A 
ATOM     48  C   UNL A   1      47.488  27.228  26.757  1.00  0.00     0.037 A 
ATOM     49  C   UNL A   1      42.030  29.753  29.262  1.00  0.00     0.049 A 
ATOM     50  C   UNL A   1      47.140  28.581  27.312  1.00  0.00     0.074 A 
ATOM     51  C   UNL A   1      41.844  31.011  29.805  1.00  0.00     0.029 A 
ATOM     52  N   UNL A   1      43.349  29.695  28.834  1.00  0.00    -0.354 N 
ATOM     53  N   UNL A   1      46.005  29.001  27.815  1.00  0.00    -0.248 NA
ATOM     54  C   UNL A   1      48.205  29.594  27.306  1.00  0.00     0.031 C 
ATOM     55  C   UNL A   1      43.035  31.732  29.666  1.00  0.00     0.029 A 
ATOM     56  C   UNL A   1      43.980  30.905  29.078  1.00  0.00     0.049 A 
ATOM     57  H   UNL A   1      43.774  28.911  28.418  1.00  0.00     0.167 HD
ATOM     58  C   UNL A   1      46.223  30.316  28.203  1.00  0.00     0.074 A 
ATOM     59  C   UNL A   1      47.606  30.619  27.896  1.00  0.00     0.031 C 
ATOM     60  C   UNL A   1      45.355  31.195  28.763  1.00  0.00     0.037 A 
BRANCH  47  61
ATOM     61  C   UNL A   1      39.663  28.934  29.560  1.00  0.00     0.064 A 
ATOM     62  C   UNL A   1      39.236  28.707  30.878  1.00  0.00     0.173 A 
ATOM     63  C   UNL A   1      38.729  29.447  28.648  1.00  0.00     0.173 A 
ATOM     64  F   UNL A   1      40.087  28.208  31.787  1.00  0.00    -0.203 F 
ATOM     65  C   UNL A   1      37.919  28.957  31.258  1.00  0.00     0.198 A 
ATOM     66  C   UNL A   1      37.421  29.723  29.039  1.00  0.00     0.198 A 
ATOM     67  F   UNL A   1      39.087  29.689  27.378  1.00  0.00    -0.203 F 
ATOM     68  F   UNL A   1      37.523  28.687  32.510  1.00  0.00    -0.200 F 
ATOM     69  C   UNL A   1      37.015  29.470  30.341  1.00  0.00     0.200 A 
ATOM     70  F   UNL A   1      36.552  30.231  28.154  1.00  0.00    -0.200 F 
ATOM     71  F   UNL A   1      35.751  29.715  30.709  1.00  0.00    -0.200 F 
ENDBRANCH  47  61
BRANCH  48  72
ATOM     72  C   UNL A   1      48.845  26.952  26.218  1.00  0.00     0.064 A 
ATOM     73  C   UNL A   1      49.134  27.145  24.861  1.00  0.00     0.173 A 
ATOM     74  C   UNL A   1      49.879  26.499  27.050  1.00  0.00     0.173 A 
ATOM     75  F   UNL A   1      48.170  27.558  24.025  1.00  0.00    -0.203 F 
ATOM     76  C   UNL A   1      50.402  26.879  24.351  1.00  0.00     0.198 A 
ATOM     77  C   UNL A   1      51.155  26.259  26.544  1.00  0.00     0.198 A 
ATOM     78  F   UNL A   1      49.654  26.305  28.358  1.00  0.00    -0.203 F 
ATOM     79  F   UNL A   1      50.642  27.035  23.042  1.00  0.00    -0.200 F 
ATOM     80  C   UNL A   1      51.414  26.443  25.194  1.00  0.00     0.200 A 
ATOM     81  F   UNL A   1      52.133  25.851  27.364  1.00  0.00    -0.200 F 
ATOM     82  F   UNL A   1      52.636  26.193  24.704  1.00  0.00    -0.200 F 
ENDBRANCH  48  72
BRANCH  60  83
ATOM     83  C   UNL A   1      45.882  32.560  29.094  1.00  0.00     0.064 A 
ATOM     84  C   UNL A   1      46.499  32.829  30.326  1.00  0.00     0.173 A 
ATOM     85  C   UNL A   1      45.789  33.605  28.163  1.00  0.00     0.173 A 
ATOM     86  F   UNL A   1      46.597  31.868  31.256  1.00  0.00    -0.203 F 
ATOM     87  C   UNL A   1      46.978  34.102  30.623  1.00  0.00     0.198 A 
ATOM     88  C   UNL A   1      46.295  34.869  28.452  1.00  0.00     0.198 A 
ATOM     89  F   UNL A   1      45.213  33.398  26.970  1.00  0.00    -0.203 F 
ATOM     90  F   UNL A   1      47.517  34.349  31.824  1.00  0.00    -0.200 F 
ATOM     91  C   UNL A   1      46.881  35.119  29.683  1.00  0.00     0.200 A 
ATOM     92  F   UNL A   1      46.210  35.848  27.541  1.00  0.00    -0.200 F 
ATOM     93  F   UNL A   1      47.344  36.344  29.971  1.00  0.00    -0.200 F 
ENDBRANCH  60  83
ENDBRANCH  34  35
ENDBRANCH  26  29
ENDBRANCH  24  25
ENDBRANCH   1  24
TORSDOF 12
ENDMDL
