MODEL 1
REMARK VINA RESULT:     -12.5      0.000      0.000
REMARK SMILES C[C@@H](Oc1csc(C(=O)NCCCNC(=O)c2ccc(-c3c4nc(c(-c5c(F)c(F)c(F)c(F)c5F)c5ccc([nH]5)c(-c5c(F)c(F)c(F)c(F)c5F)c5nc(c(-c6c(F)c(F)c(F)c(F)c6F)c6ccc3[nH]6)C=C5)C=C4)cc2)c1)C(=O)N1CCCC1
REMARK SMILES IDX 11 1 10 2 8 3 9 4 7 6 4 7 5 8 80 9 6 10 3 11 2 12 1 13 81 14
REMARK SMILES IDX 82 15 83 16 84 17 87 18 85 19 86 20 12 21 13 22 14 23 15 24
REMARK SMILES IDX 16 26 17 27 18 28 79 29 19 30 78 31 20 32 21 33 22 34 72 35
REMARK SMILES IDX 23 36 77 37 71 38 73 39 24 40 76 41 70 42 69 43 25 45 57 46
REMARK SMILES IDX 37 47 56 48 38 49 41 50 55 51 74 52 39 53 40 54 54 56 75 57
REMARK SMILES IDX 42 58 26 59 27 60 35 61 28 62 29 63 33 64 36 65 30 66 31 67
REMARK SMILES IDX 34 68 32 69 58 70 59 71 67 72 60 73 61 74 65 75 68 76 62 77
REMARK SMILES IDX 63 78 66 79 64 80 43 81 44 82 52 83 45 84 46 85 50 86 53 87
REMARK SMILES IDX 47 88 48 89 51 90 49 91
REMARK H PARENT 10 5 14 25 73 44 41 55
REMARK Flexibility Score: inf
ROOT
ATOM      1  C   UNL A   1      31.476  30.616  26.425  1.00  0.00     0.118 C 
ENDROOT
BRANCH   1   2
ATOM      2  N   UNL A   1      32.304  30.259  25.289  1.00  0.00    -0.351 N 
ATOM      3  C   UNL A   1      32.566  29.075  24.643  1.00  0.00     0.261 C 
ATOM      4  O   UNL A   1      33.349  29.183  23.695  1.00  0.00    -0.268 OA
ATOM      5  H   UNL A   1      32.779  31.027  24.900  1.00  0.00     0.163 HD
BRANCH   3   6
ATOM      6  C   UNL A   1      31.932  27.816  25.017  1.00  0.00     0.096 A 
ATOM      7  C   UNL A   1      31.211  25.849  26.042  1.00  0.00     0.132 A 
ATOM      8  C   UNL A   1      30.180  26.055  25.166  1.00  0.00     0.112 A 
ATOM      9  C   UNL A   1      32.247  26.819  25.926  1.00  0.00     0.072 A 
ATOM     10  S   UNL A   1      30.464  27.416  24.184  1.00  0.00    -0.135 S 
BRANCH   7  11
ATOM     11  O   UNL A   1      31.123  24.930  27.022  1.00  0.00    -0.480 OA
BRANCH  11  12
ATOM     12  C   UNL A   1      31.089  23.575  26.562  1.00  0.00     0.259 C 
ATOM     13  C   UNL A   1      29.868  22.831  27.088  1.00  0.00     0.064 C 
BRANCH  12  14
ATOM     14  C   UNL A   1      32.414  22.944  27.021  1.00  0.00     0.263 C 
ATOM     15  O   UNL A   1      32.536  22.567  28.193  1.00  0.00    -0.271 OA
ATOM     16  N   UNL A   1      33.425  22.743  26.103  1.00  0.00    -0.339 N 
ATOM     17  C   UNL A   1      33.546  23.245  24.745  1.00  0.00     0.119 C 
ATOM     18  C   UNL A   1      34.496  21.806  26.397  1.00  0.00     0.119 C 
ATOM     19  C   UNL A   1      34.261  22.121  24.017  1.00  0.00     0.023 C 
ATOM     20  C   UNL A   1      35.219  21.581  25.072  1.00  0.00     0.023 C 
ENDBRANCH  12  14
ENDBRANCH  11  12
ENDBRANCH   7  11
ENDBRANCH   3   6
ENDBRANCH   1   2
BRANCH   1  21
ATOM     21  C   UNL A   1      31.381  32.133  26.577  1.00  0.00     0.042 C 
BRANCH  21  22
ATOM     22  C   UNL A   1      32.639  32.760  27.184  1.00  0.00     0.118 C 
BRANCH  22  23
ATOM     23  N   UNL A   1      32.422  34.140  27.601  1.00  0.00    -0.352 N 
ATOM     24  C   UNL A   1      33.004  34.868  28.609  1.00  0.00     0.251 C 
ATOM     25  H   UNL A   1      31.749  34.630  27.074  1.00  0.00     0.163 HD
ATOM     26  O   UNL A   1      32.521  35.948  28.933  1.00  0.00    -0.269 OA
BRANCH  24  27
ATOM     27  C   UNL A   1      34.199  34.361  29.316  1.00  0.00     0.039 A 
ATOM     28  C   UNL A   1      34.038  33.758  30.568  1.00  0.00     0.014 A 
ATOM     29  C   UNL A   1      35.480  34.522  28.779  1.00  0.00     0.014 A 
ATOM     30  C   UNL A   1      35.149  33.255  31.249  1.00  0.00     0.010 A 
ATOM     31  C   UNL A   1      36.580  33.969  29.431  1.00  0.00     0.010 A 
ATOM     32  C   UNL A   1      36.426  33.323  30.668  1.00  0.00    -0.014 A 
BRANCH  32  33
ATOM     33  C   UNL A   1      37.608  32.707  31.320  1.00  0.00     0.031 A 
ATOM     34  C   UNL A   1      38.324  31.560  30.665  1.00  0.00     0.074 A 
ATOM     35  C   UNL A   1      37.985  33.129  32.542  1.00  0.00     0.049 A 
ATOM     36  N   UNL A   1      39.289  30.809  31.135  1.00  0.00    -0.248 NA
ATOM     37  C   UNL A   1      37.882  31.194  29.311  1.00  0.00     0.031 C 
ATOM     38  C   UNL A   1      37.352  34.216  33.292  1.00  0.00     0.029 A 
ATOM     39  N   UNL A   1      38.977  32.682  33.379  1.00  0.00    -0.354 N 
ATOM     40  C   UNL A   1      39.559  29.876  30.142  1.00  0.00     0.074 A 
ATOM     41  C   UNL A   1      38.629  30.128  29.061  1.00  0.00     0.031 C 
ATOM     42  C   UNL A   1      37.975  34.355  34.474  1.00  0.00     0.029 A 
ATOM     43  C   UNL A   1      39.019  33.342  34.583  1.00  0.00     0.049 A 
ATOM     44  H   UNL A   1      39.599  31.958  33.139  1.00  0.00     0.167 HD
ATOM     45  C   UNL A   1      40.507  28.909  30.129  1.00  0.00     0.037 A 
ATOM     46  C   UNL A   1      39.796  33.136  35.663  1.00  0.00     0.037 A 
ATOM     47  C   UNL A   1      41.442  28.673  31.199  1.00  0.00     0.049 A 
ATOM     48  C   UNL A   1      40.818  32.032  35.634  1.00  0.00     0.074 A 
ATOM     49  C   UNL A   1      42.474  27.753  31.257  1.00  0.00     0.029 A 
ATOM     50  N   UNL A   1      41.456  29.366  32.400  1.00  0.00    -0.354 N 
ATOM     51  N   UNL A   1      41.098  31.189  34.671  1.00  0.00    -0.248 NA
ATOM     52  C   UNL A   1      41.631  31.850  36.845  1.00  0.00     0.031 C 
ATOM     53  C   UNL A   1      43.085  27.858  32.511  1.00  0.00     0.029 A 
ATOM     54  C   UNL A   1      42.465  28.875  33.217  1.00  0.00     0.049 A 
ATOM     55  H   UNL A   1      40.842  30.097  32.639  1.00  0.00     0.167 HD
ATOM     56  C   UNL A   1      42.130  30.393  35.148  1.00  0.00     0.074 A 
ATOM     57  C   UNL A   1      42.440  30.866  36.481  1.00  0.00     0.031 C 
ATOM     58  C   UNL A   1      42.761  29.360  34.539  1.00  0.00     0.037 A 
BRANCH  45  59
ATOM     59  C   UNL A   1      40.587  28.028  28.916  1.00  0.00     0.064 A 
ATOM     60  C   UNL A   1      39.844  26.841  28.822  1.00  0.00     0.173 A 
ATOM     61  C   UNL A   1      41.375  28.397  27.815  1.00  0.00     0.173 A 
ATOM     62  F   UNL A   1      39.082  26.438  29.850  1.00  0.00    -0.203 F 
ATOM     63  C   UNL A   1      39.903  26.046  27.680  1.00  0.00     0.198 A 
ATOM     64  C   UNL A   1      41.411  27.614  26.664  1.00  0.00     0.198 A 
ATOM     65  F   UNL A   1      42.099  29.525  27.851  1.00  0.00    -0.203 F 
ATOM     66  F   UNL A   1      39.216  24.897  27.629  1.00  0.00    -0.200 F 
ATOM     67  C   UNL A   1      40.681  26.437  26.600  1.00  0.00     0.200 A 
ATOM     68  F   UNL A   1      42.153  28.000  25.617  1.00  0.00    -0.200 F 
ATOM     69  F   UNL A   1      40.730  25.676  25.498  1.00  0.00    -0.200 F 
ENDBRANCH  45  59
BRANCH  46  70
ATOM     70  C   UNL A   1      39.641  33.994  36.867  1.00  0.00     0.064 A 
ATOM     71  C   UNL A   1      40.308  35.223  36.964  1.00  0.00     0.173 A 
ATOM     72  C   UNL A   1      38.839  33.600  37.948  1.00  0.00     0.173 A 
ATOM     73  F   UNL A   1      41.105  35.631  35.965  1.00  0.00    -0.203 F 
ATOM     74  C   UNL A   1      40.197  36.014  38.104  1.00  0.00     0.198 A 
ATOM     75  C   UNL A   1      38.706  34.405  39.077  1.00  0.00     0.198 A 
ATOM     76  F   UNL A   1      38.179  32.433  37.904  1.00  0.00    -0.203 F 
ATOM     77  F   UNL A   1      40.884  37.162  38.190  1.00  0.00    -0.200 F 
ATOM     78  C   UNL A   1      39.391  35.608  39.157  1.00  0.00     0.200 A 
ATOM     79  F   UNL A   1      37.918  34.014  40.087  1.00  0.00    -0.200 F 
ATOM     80  F   UNL A   1      39.285  36.370  40.254  1.00  0.00    -0.200 F 
ENDBRANCH  46  70
BRANCH  58  81
ATOM     81  C   UNL A   1      43.867  28.688  35.301  1.00  0.00     0.064 A 
ATOM     82  C   UNL A   1      45.202  29.089  35.159  1.00  0.00     0.173 A 
ATOM     83  C   UNL A   1      43.582  27.656  36.208  1.00  0.00     0.173 A 
ATOM     84  F   UNL A   1      45.527  30.060  34.291  1.00  0.00    -0.203 F 
ATOM     85  C   UNL A   1      46.217  28.466  35.881  1.00  0.00     0.198 A 
ATOM     86  C   UNL A   1      44.595  27.055  36.949  1.00  0.00     0.198 A 
ATOM     87  F   UNL A   1      42.318  27.239  36.383  1.00  0.00    -0.203 F 
ATOM     88  F   UNL A   1      47.492  28.835  35.697  1.00  0.00    -0.200 F 
ATOM     89  C   UNL A   1      45.911  27.455  36.780  1.00  0.00     0.200 A 
ATOM     90  F   UNL A   1      44.296  26.087  37.826  1.00  0.00    -0.200 F 
ATOM     91  F   UNL A   1      46.888  26.862  37.480  1.00  0.00    -0.200 F 
ENDBRANCH  58  81
ENDBRANCH  32  33
ENDBRANCH  24  27
ENDBRANCH  22  23
ENDBRANCH  21  22
ENDBRANCH   1  21
TORSDOF 13
ENDMDL
MODEL 2
REMARK VINA RESULT:     -12.4      0.437      1.667
REMARK SMILES C[C@@H](Oc1csc(C(=O)NCCCNC(=O)c2ccc(-c3c4nc(c(-c5c(F)c(F)c(F)c(F)c5F)c5ccc([nH]5)c(-c5c(F)c(F)c(F)c(F)c5F)c5nc(c(-c6c(F)c(F)c(F)c(F)c6F)c6ccc3[nH]6)C=C5)C=C4)cc2)c1)C(=O)N1CCCC1
REMARK SMILES IDX 11 1 10 2 8 3 9 4 7 6 4 7 5 8 80 9 6 10 3 11 2 12 1 13 81 14
REMARK SMILES IDX 82 15 83 16 84 17 87 18 85 19 86 20 12 21 13 22 14 23 15 24
REMARK SMILES IDX 16 26 17 27 18 28 79 29 19 30 78 31 20 32 21 33 22 34 72 35
REMARK SMILES IDX 23 36 77 37 71 38 73 39 24 40 76 41 70 42 69 43 25 45 57 46
REMARK SMILES IDX 37 47 56 48 38 49 41 50 55 51 74 52 39 53 40 54 54 56 75 57
REMARK SMILES IDX 42 58 26 59 27 60 35 61 28 62 29 63 33 64 36 65 30 66 31 67
REMARK SMILES IDX 34 68 32 69 58 70 59 71 67 72 60 73 61 74 65 75 68 76 62 77
REMARK SMILES IDX 63 78 66 79 64 80 43 81 44 82 52 83 45 84 46 85 50 86 53 87
REMARK SMILES IDX 47 88 48 89 51 90 49 91
REMARK H PARENT 10 5 14 25 73 44 41 55
REMARK Flexibility Score: inf
ROOT
ATOM      1  C   UNL A   1      31.452  30.452  26.322  1.00  0.00     0.118 C 
ENDROOT
BRANCH   1   2
ATOM      2  N   UNL A   1      32.243  30.115  25.155  1.00  0.00    -0.351 N 
ATOM      3  C   UNL A   1      32.492  28.941  24.486  1.00  0.00     0.261 C 
ATOM      4  O   UNL A   1      33.241  29.066  23.512  1.00  0.00    -0.268 OA
ATOM      5  H   UNL A   1      32.699  30.891  24.758  1.00  0.00     0.163 HD
BRANCH   3   6
ATOM      6  C   UNL A   1      31.881  27.672  24.866  1.00  0.00     0.096 A 
ATOM      7  C   UNL A   1      31.152  25.726  25.925  1.00  0.00     0.132 A 
ATOM      8  C   UNL A   1      30.203  25.835  24.944  1.00  0.00     0.112 A 
ATOM      9  C   UNL A   1      32.150  26.739  25.855  1.00  0.00     0.072 A 
ATOM     10  S   UNL A   1      30.521  27.158  23.921  1.00  0.00    -0.135 S 
BRANCH   7  11
ATOM     11  O   UNL A   1      31.009  24.855  26.942  1.00  0.00    -0.480 OA
BRANCH  11  12
ATOM     12  C   UNL A   1      30.747  23.508  26.534  1.00  0.00     0.259 C 
ATOM     13  C   UNL A   1      29.529  22.930  27.245  1.00  0.00     0.064 C 
BRANCH  12  14
ATOM     14  C   UNL A   1      32.036  22.723  26.830  1.00  0.00     0.263 C 
ATOM     15  O   UNL A   1      32.451  22.647  27.992  1.00  0.00    -0.271 OA
ATOM     16  N   UNL A   1      32.676  22.057  25.804  1.00  0.00    -0.339 N 
ATOM     17  C   UNL A   1      32.453  22.145  24.370  1.00  0.00     0.119 C 
ATOM     18  C   UNL A   1      33.629  21.003  26.107  1.00  0.00     0.119 C 
ATOM     19  C   UNL A   1      32.731  20.735  23.884  1.00  0.00     0.023 C 
ATOM     20  C   UNL A   1      33.871  20.277  24.786  1.00  0.00     0.023 C 
ENDBRANCH  12  14
ENDBRANCH  11  12
ENDBRANCH   7  11
ENDBRANCH   3   6
ENDBRANCH   1   2
BRANCH   1  21
ATOM     21  C   UNL A   1      31.372  31.965  26.510  1.00  0.00     0.042 C 
BRANCH  21  22
ATOM     22  C   UNL A   1      32.616  32.559  27.177  1.00  0.00     0.118 C 
BRANCH  22  23
ATOM     23  N   UNL A   1      32.434  33.960  27.538  1.00  0.00    -0.352 N 
ATOM     24  C   UNL A   1      33.038  34.714  28.513  1.00  0.00     0.251 C 
ATOM     25  H   UNL A   1      31.771  34.444  26.994  1.00  0.00     0.163 HD
ATOM     26  O   UNL A   1      32.582  35.818  28.795  1.00  0.00    -0.269 OA
BRANCH  24  27
ATOM     27  C   UNL A   1      34.224  34.208  29.236  1.00  0.00     0.039 A 
ATOM     28  C   UNL A   1      34.034  33.444  30.393  1.00  0.00     0.014 A 
ATOM     29  C   UNL A   1      35.518  34.523  28.813  1.00  0.00     0.014 A 
ATOM     30  C   UNL A   1      35.137  32.938  31.085  1.00  0.00     0.010 A 
ATOM     31  C   UNL A   1      36.616  33.971  29.470  1.00  0.00     0.010 A 
ATOM     32  C   UNL A   1      36.437  33.168  30.607  1.00  0.00    -0.014 A 
BRANCH  32  33
ATOM     33  C   UNL A   1      37.622  32.559  31.261  1.00  0.00     0.031 A 
ATOM     34  C   UNL A   1      38.352  31.422  30.605  1.00  0.00     0.074 A 
ATOM     35  C   UNL A   1      37.990  32.978  32.488  1.00  0.00     0.049 A 
ATOM     36  N   UNL A   1      39.321  30.677  31.075  1.00  0.00    -0.248 NA
ATOM     37  C   UNL A   1      37.920  31.058  29.246  1.00  0.00     0.031 C 
ATOM     38  C   UNL A   1      37.343  34.055  33.240  1.00  0.00     0.029 A 
ATOM     39  N   UNL A   1      38.982  32.536  33.327  1.00  0.00    -0.354 N 
ATOM     40  C   UNL A   1      39.604  29.752  30.079  1.00  0.00     0.074 A 
ATOM     41  C   UNL A   1      38.678  30.001  28.995  1.00  0.00     0.031 C 
ATOM     42  C   UNL A   1      37.959  34.194  34.425  1.00  0.00     0.029 A 
ATOM     43  C   UNL A   1      39.012  33.190  34.535  1.00  0.00     0.049 A 
ATOM     44  H   UNL A   1      39.612  31.819  33.086  1.00  0.00     0.167 HD
ATOM     45  C   UNL A   1      40.562  28.794  30.066  1.00  0.00     0.037 A 
ATOM     46  C   UNL A   1      39.785  32.986  35.618  1.00  0.00     0.037 A 
ATOM     47  C   UNL A   1      41.494  28.561  31.139  1.00  0.00     0.049 A 
ATOM     48  C   UNL A   1      40.818  31.891  35.588  1.00  0.00     0.074 A 
ATOM     49  C   UNL A   1      42.534  27.650  31.197  1.00  0.00     0.029 A 
ATOM     50  N   UNL A   1      41.496  29.248  32.344  1.00  0.00    -0.354 N 
ATOM     51  N   UNL A   1      41.110  31.056  34.622  1.00  0.00    -0.248 NA
ATOM     52  C   UNL A   1      41.626  31.711  36.802  1.00  0.00     0.031 C 
ATOM     53  C   UNL A   1      43.138  27.754  32.455  1.00  0.00     0.029 A 
ATOM     54  C   UNL A   1      42.505  28.762  33.162  1.00  0.00     0.049 A 
ATOM     55  H   UNL A   1      40.874  29.972  32.583  1.00  0.00     0.167 HD
ATOM     56  C   UNL A   1      42.147  30.267  35.100  1.00  0.00     0.074 A 
ATOM     57  C   UNL A   1      42.447  30.736  36.437  1.00  0.00     0.031 C 
ATOM     58  C   UNL A   1      42.790  29.243  34.489  1.00  0.00     0.037 A 
BRANCH  45  59
ATOM     59  C   UNL A   1      40.655  27.919  28.849  1.00  0.00     0.064 A 
ATOM     60  C   UNL A   1      39.887  26.752  28.724  1.00  0.00     0.173 A 
ATOM     61  C   UNL A   1      41.484  28.277  27.774  1.00  0.00     0.173 A 
ATOM     62  F   UNL A   1      39.087  26.360  29.726  1.00  0.00    -0.203 F 
ATOM     63  C   UNL A   1      39.961  25.964  27.578  1.00  0.00     0.198 A 
ATOM     64  C   UNL A   1      41.535  27.502  26.619  1.00  0.00     0.198 A 
ATOM     65  F   UNL A   1      42.234  29.387  27.840  1.00  0.00    -0.203 F 
ATOM     66  F   UNL A   1      39.248  24.832  27.498  1.00  0.00    -0.200 F 
ATOM     67  C   UNL A   1      40.779  26.343  26.524  1.00  0.00     0.200 A 
ATOM     68  F   UNL A   1      42.316  27.877  25.596  1.00  0.00    -0.200 F 
ATOM     69  F   UNL A   1      40.841  25.589  25.418  1.00  0.00    -0.200 F 
ENDBRANCH  45  59
BRANCH  46  70
ATOM     70  C   UNL A   1      39.617  33.836  36.825  1.00  0.00     0.064 A 
ATOM     71  C   UNL A   1      38.821  33.410  37.898  1.00  0.00     0.173 A 
ATOM     72  C   UNL A   1      40.231  35.092  36.927  1.00  0.00     0.173 A 
ATOM     73  F   UNL A   1      38.194  32.226  37.836  1.00  0.00    -0.203 F 
ATOM     74  C   UNL A   1      38.629  34.218  39.016  1.00  0.00     0.198 A 
ATOM     75  C   UNL A   1      40.061  35.888  38.058  1.00  0.00     0.198 A 
ATOM     76  F   UNL A   1      41.004  35.545  35.928  1.00  0.00    -0.203 F 
ATOM     77  F   UNL A   1      37.823  33.807  40.006  1.00  0.00    -0.200 F 
ATOM     78  C   UNL A   1      39.253  35.453  39.098  1.00  0.00     0.200 A 
ATOM     79  F   UNL A   1      40.674  37.076  38.137  1.00  0.00    -0.200 F 
ATOM     80  F   UNL A   1      39.067  36.229  40.173  1.00  0.00    -0.200 F 
ENDBRANCH  46  70
BRANCH  58  81
ATOM     81  C   UNL A   1      43.898  28.578  35.252  1.00  0.00     0.064 A 
ATOM     82  C   UNL A   1      43.664  27.450  36.052  1.00  0.00     0.173 A 
ATOM     83  C   UNL A   1      45.216  29.053  35.154  1.00  0.00     0.173 A 
ATOM     84  F   UNL A   1      42.419  26.969  36.191  1.00  0.00    -0.203 F 
ATOM     85  C   UNL A   1      44.704  26.835  36.744  1.00  0.00     0.198 A 
ATOM     86  C   UNL A   1      46.257  28.418  35.824  1.00  0.00     0.198 A 
ATOM     87  F   UNL A   1      45.493  30.126  34.397  1.00  0.00    -0.203 F 
ATOM     88  F   UNL A   1      44.450  25.786  37.538  1.00  0.00    -0.200 F 
ATOM     89  C   UNL A   1      46.000  27.315  36.623  1.00  0.00     0.200 A 
ATOM     90  F   UNL A   1      47.510  28.875  35.697  1.00  0.00    -0.200 F 
ATOM     91  F   UNL A   1      47.000  26.717  37.284  1.00  0.00    -0.200 F 
ENDBRANCH  58  81
ENDBRANCH  32  33
ENDBRANCH  24  27
ENDBRANCH  22  23
ENDBRANCH  21  22
ENDBRANCH   1  21
TORSDOF 13
ENDMDL
MODEL 3
REMARK VINA RESULT:     -12.4      4.436     10.346
REMARK SMILES C[C@@H](Oc1csc(C(=O)NCCCNC(=O)c2ccc(-c3c4nc(c(-c5c(F)c(F)c(F)c(F)c5F)c5ccc([nH]5)c(-c5c(F)c(F)c(F)c(F)c5F)c5nc(c(-c6c(F)c(F)c(F)c(F)c6F)c6ccc3[nH]6)C=C5)C=C4)cc2)c1)C(=O)N1CCCC1
REMARK SMILES IDX 11 1 10 2 8 3 9 4 7 6 4 7 5 8 80 9 6 10 3 11 2 12 1 13 81 14
REMARK SMILES IDX 82 15 83 16 84 17 87 18 85 19 86 20 12 21 13 22 14 23 15 24
REMARK SMILES IDX 16 26 17 27 18 28 79 29 19 30 78 31 20 32 21 33 22 34 72 35
REMARK SMILES IDX 23 36 77 37 71 38 73 39 24 40 76 41 70 42 69 43 25 45 57 46
REMARK SMILES IDX 37 47 56 48 38 49 41 50 55 51 74 52 39 53 40 54 54 56 75 57
REMARK SMILES IDX 42 58 26 59 27 60 35 61 28 62 29 63 33 64 36 65 30 66 31 67
REMARK SMILES IDX 34 68 32 69 58 70 59 71 67 72 60 73 61 74 65 75 68 76 62 77
REMARK SMILES IDX 63 78 66 79 64 80 43 81 44 82 52 83 45 84 46 85 50 86 53 87
REMARK SMILES IDX 47 88 48 89 51 90 49 91
REMARK H PARENT 10 5 14 25 73 44 41 55
REMARK Flexibility Score: inf
ROOT
ATOM      1  C   UNL A   1      34.440  34.894  28.762  1.00  0.00     0.118 C 
ENDROOT
BRANCH   1   2
ATOM      2  N   UNL A   1      33.481  35.784  29.388  1.00  0.00    -0.351 N 
ATOM      3  C   UNL A   1      33.120  36.021  30.692  1.00  0.00     0.261 C 
ATOM      4  O   UNL A   1      32.238  36.874  30.822  1.00  0.00    -0.268 OA
ATOM      5  H   UNL A   1      32.984  36.334  28.742  1.00  0.00     0.163 HD
BRANCH   3   6
ATOM      6  C   UNL A   1      33.761  35.356  31.821  1.00  0.00     0.096 A 
ATOM      7  C   UNL A   1      34.898  33.928  33.272  1.00  0.00     0.132 A 
ATOM      8  C   UNL A   1      34.979  35.099  33.976  1.00  0.00     0.112 A 
ATOM      9  C   UNL A   1      34.153  34.050  32.065  1.00  0.00     0.072 A 
ATOM     10  S   UNL A   1      34.142  36.354  33.187  1.00  0.00    -0.135 S 
BRANCH   7  11
ATOM     11  O   UNL A   1      35.623  32.849  33.625  1.00  0.00    -0.480 OA
BRANCH  11  12
ATOM     12  C   UNL A   1      36.501  32.366  32.604  1.00  0.00     0.259 C 
ATOM     13  C   UNL A   1      36.942  30.932  32.870  1.00  0.00     0.064 C 
BRANCH  12  14
ATOM     14  C   UNL A   1      37.681  33.353  32.566  1.00  0.00     0.263 C 
ATOM     15  O   UNL A   1      38.323  33.576  33.598  1.00  0.00    -0.271 OA
ATOM     16  N   UNL A   1      38.049  33.926  31.365  1.00  0.00    -0.339 N 
ATOM     17  C   UNL A   1      37.346  33.925  30.093  1.00  0.00     0.119 C 
ATOM     18  C   UNL A   1      39.367  34.520  31.218  1.00  0.00     0.119 C 
ATOM     19  C   UNL A   1      38.469  33.884  29.072  1.00  0.00     0.023 C 
ATOM     20  C   UNL A   1      39.556  34.735  29.719  1.00  0.00     0.023 C 
ENDBRANCH  12  14
ENDBRANCH  11  12
ENDBRANCH   7  11
ENDBRANCH   3   6
ENDBRANCH   1   2
BRANCH   1  21
ATOM     21  C   UNL A   1      33.756  33.630  28.245  1.00  0.00     0.042 C 
BRANCH  21  22
ATOM     22  C   UNL A   1      34.372  32.340  28.795  1.00  0.00     0.118 C 
BRANCH  22  23
ATOM     23  N   UNL A   1      33.880  31.155  28.104  1.00  0.00    -0.352 N 
ATOM     24  C   UNL A   1      34.546  30.031  27.680  1.00  0.00     0.251 C 
ATOM     25  H   UNL A   1      32.915  31.160  27.910  1.00  0.00     0.163 HD
ATOM     26  O   UNL A   1      33.987  29.245  26.922  1.00  0.00    -0.269 OA
BRANCH  24  27
ATOM     27  C   UNL A   1      35.932  29.762  28.117  1.00  0.00     0.039 A 
ATOM     28  C   UNL A   1      36.147  29.249  29.401  1.00  0.00     0.014 A 
ATOM     29  C   UNL A   1      37.022  30.059  27.293  1.00  0.00     0.014 A 
ATOM     30  C   UNL A   1      37.446  28.969  29.833  1.00  0.00     0.010 A 
ATOM     31  C   UNL A   1      38.311  29.726  27.702  1.00  0.00     0.010 A 
ATOM     32  C   UNL A   1      38.536  29.171  28.971  1.00  0.00    -0.014 A 
BRANCH  32  33
ATOM     33  C   UNL A   1      39.915  28.787  29.364  1.00  0.00     0.031 A 
ATOM     34  C   UNL A   1      40.754  29.715  30.196  1.00  0.00     0.074 A 
ATOM     35  C   UNL A   1      40.439  27.636  28.899  1.00  0.00     0.049 A 
ATOM     36  N   UNL A   1      42.017  29.617  30.528  1.00  0.00    -0.248 NA
ATOM     37  C   UNL A   1      40.091  30.925  30.704  1.00  0.00     0.031 C 
ATOM     38  C   UNL A   1      39.734  26.665  28.060  1.00  0.00     0.029 A 
ATOM     39  N   UNL A   1      41.693  27.098  29.048  1.00  0.00    -0.354 N 
ATOM     40  C   UNL A   1      42.302  30.755  31.271  1.00  0.00     0.074 A 
ATOM     41  C   UNL A   1      41.093  31.550  31.306  1.00  0.00     0.031 C 
ATOM     42  C   UNL A   1      40.563  25.648  27.774  1.00  0.00     0.029 A 
ATOM     43  C   UNL A   1      41.867  25.915  28.370  1.00  0.00     0.049 A 
ATOM     44  H   UNL A   1      42.401  27.519  29.588  1.00  0.00     0.167 HD
ATOM     45  C   UNL A   1      43.463  31.096  31.880  1.00  0.00     0.037 A 
ATOM     46  C   UNL A   1      42.963  25.146  28.226  1.00  0.00     0.037 A 
ATOM     47  C   UNL A   1      44.658  30.293  31.858  1.00  0.00     0.049 A 
ATOM     48  C   UNL A   1      44.248  25.566  28.886  1.00  0.00     0.074 A 
ATOM     49  C   UNL A   1      45.868  30.527  32.490  1.00  0.00     0.029 A 
ATOM     50  N   UNL A   1      44.793  29.099  31.166  1.00  0.00    -0.354 N 
ATOM     51  N   UNL A   1      44.492  26.619  29.627  1.00  0.00    -0.248 NA
ATOM     52  C   UNL A   1      45.412  24.691  28.687  1.00  0.00     0.031 C 
ATOM     53  C   UNL A   1      46.749  29.497  32.144  1.00  0.00     0.029 A 
ATOM     54  C   UNL A   1      46.075  28.597  31.335  1.00  0.00     0.049 A 
ATOM     55  H   UNL A   1      44.085  28.671  30.633  1.00  0.00     0.167 HD
ATOM     56  C   UNL A   1      45.826  26.523  30.000  1.00  0.00     0.074 A 
ATOM     57  C   UNL A   1      46.334  25.298  29.419  1.00  0.00     0.031 C 
ATOM     58  C   UNL A   1      46.564  27.375  30.751  1.00  0.00     0.037 A 
BRANCH  45  59
ATOM     59  C   UNL A   1      43.501  32.397  32.629  1.00  0.00     0.064 A 
ATOM     60  C   UNL A   1      43.810  33.604  31.984  1.00  0.00     0.173 A 
ATOM     61  C   UNL A   1      43.176  32.445  33.993  1.00  0.00     0.173 A 
ATOM     62  F   UNL A   1      44.136  33.612  30.684  1.00  0.00    -0.203 F 
ATOM     63  C   UNL A   1      43.814  34.809  32.684  1.00  0.00     0.198 A 
ATOM     64  C   UNL A   1      43.155  33.655  34.683  1.00  0.00     0.198 A 
ATOM     65  F   UNL A   1      42.867  31.320  34.654  1.00  0.00    -0.203 F 
ATOM     66  F   UNL A   1      44.151  35.944  32.056  1.00  0.00    -0.200 F 
ATOM     67  C   UNL A   1      43.480  34.834  34.029  1.00  0.00     0.200 A 
ATOM     68  F   UNL A   1      42.819  33.679  35.980  1.00  0.00    -0.200 F 
ATOM     69  F   UNL A   1      43.474  35.995  34.698  1.00  0.00    -0.200 F 
ENDBRANCH  45  59
BRANCH  46  70
ATOM     70  C   UNL A   1      42.896  23.897  27.424  1.00  0.00     0.064 A 
ATOM     71  C   UNL A   1      42.502  22.686  28.012  1.00  0.00     0.173 A 
ATOM     72  C   UNL A   1      43.235  23.881  26.064  1.00  0.00     0.173 A 
ATOM     73  F   UNL A   1      42.190  22.647  29.316  1.00  0.00    -0.203 F 
ATOM     74  C   UNL A   1      42.473  21.505  27.275  1.00  0.00     0.198 A 
ATOM     75  C   UNL A   1      43.178  22.704  25.321  1.00  0.00     0.198 A 
ATOM     76  F   UNL A   1      43.617  25.013  25.454  1.00  0.00    -0.203 F 
ATOM     77  F   UNL A   1      42.140  20.352  27.875  1.00  0.00    -0.200 F 
ATOM     78  C   UNL A   1      42.805  21.515  25.929  1.00  0.00     0.200 A 
ATOM     79  F   UNL A   1      43.490  22.721  24.018  1.00  0.00    -0.200 F 
ATOM     80  F   UNL A   1      42.777  20.378  25.222  1.00  0.00    -0.200 F 
ENDBRANCH  46  70
BRANCH  58  81
ATOM     81  C   UNL A   1      47.994  26.998  31.008  1.00  0.00     0.064 A 
ATOM     82  C   UNL A   1      49.040  27.525  30.239  1.00  0.00     0.173 A 
ATOM     83  C   UNL A   1      48.322  26.128  32.059  1.00  0.00     0.173 A 
ATOM     84  F   UNL A   1      48.776  28.348  29.213  1.00  0.00    -0.203 F 
ATOM     85  C   UNL A   1      50.364  27.177  30.498  1.00  0.00     0.198 A 
ATOM     86  C   UNL A   1      49.648  25.804  32.332  1.00  0.00     0.198 A 
ATOM     87  F   UNL A   1      47.357  25.600  32.828  1.00  0.00    -0.203 F 
ATOM     88  F   UNL A   1      51.345  27.657  29.721  1.00  0.00    -0.200 F 
ATOM     89  C   UNL A   1      50.666  26.324  31.548  1.00  0.00     0.200 A 
ATOM     90  F   UNL A   1      49.940  24.989  33.356  1.00  0.00    -0.200 F 
ATOM     91  F   UNL A   1      51.941  25.995  31.800  1.00  0.00    -0.200 F 
ENDBRANCH  58  81
ENDBRANCH  32  33
ENDBRANCH  24  27
ENDBRANCH  22  23
ENDBRANCH  21  22
ENDBRANCH   1  21
TORSDOF 13
ENDMDL
