MODEL 1
REMARK VINA RESULT:     -14.1      0.000      0.000
REMARK SMILES C[C@@H](Oc1ccc(-c2ccccc2)cc1)C(=O)N1CCC[C@H](C(=O)NCCCNC(=O)c2ccc(-c3c4nc(c(-c5c(F)c(F)c(F)c(F)c5F)c5ccc([nH]5)c(-c5c(F)c(F)c(F)c(F)c5F)c5nc(c(-c6c(F)c(F)c(F)c(F)c6F)c6ccc3[nH]6)C=C5)C=C4)cc2)C1
REMARK SMILES IDX 23 1 24 2 25 3 22 5 18 6 19 7 95 8 20 9 21 10 16 11 17 12
REMARK SMILES IDX 2 13 1 14 3 15 4 16 5 17 15 18 6 19 14 20 7 21 8 22 9 23
REMARK SMILES IDX 13 24 10 25 12 26 11 27 26 28 27 29 28 30 29 31 30 32 31 34
REMARK SMILES IDX 32 35 33 36 94 37 34 38 93 39 35 40 36 41 37 42 87 43 38 44
REMARK SMILES IDX 92 45 86 46 88 47 39 48 91 49 85 50 84 51 40 53 72 54 52 55
REMARK SMILES IDX 71 56 53 57 56 58 70 59 89 60 54 61 55 62 69 64 90 65 57 66
REMARK SMILES IDX 41 67 42 68 50 69 43 70 44 71 48 72 51 73 45 74 46 75 49 76
REMARK SMILES IDX 47 77 73 78 74 79 82 80 75 81 76 82 80 83 83 84 77 85 78 86
REMARK SMILES IDX 81 87 79 88 58 89 59 90 67 91 60 92 61 93 65 94 68 95 62 96
REMARK SMILES IDX 63 97 66 98 64 99
REMARK H PARENT 25 4 29 33 88 52 56 63
REMARK Flexibility Score: inf
ROOT
ATOM      1  C   UNL A   1      31.877  29.369  24.204  1.00  0.00     0.224 C 
ATOM      2  O   UNL A   1      31.237  29.026  23.202  1.00  0.00    -0.275 OA
ATOM      3  N   UNL A   1      31.248  30.232  25.040  1.00  0.00    -0.356 N 
ATOM      4  H   UNL A   1      30.404  30.598  24.688  1.00  0.00     0.163 HD
ENDROOT
BRANCH   1   5
ATOM      5  C   UNL A   1      33.307  28.836  24.399  1.00  0.00     0.098 C 
ATOM      6  N   UNL A   1      33.690  26.469  23.643  1.00  0.00    -0.339 N 
ATOM      7  C   UNL A   1      34.088  26.051  24.981  1.00  0.00     0.119 C 
ATOM      8  C   UNL A   1      33.829  27.884  23.317  1.00  0.00     0.133 C 
ATOM      9  C   UNL A   1      33.488  26.906  26.087  1.00  0.00     0.022 C 
ATOM     10  C   UNL A   1      33.620  28.401  25.831  1.00  0.00     0.017 C 
BRANCH   6  11
ATOM     11  C   UNL A   1      33.271  25.484  22.748  1.00  0.00     0.263 C 
ATOM     12  O   UNL A   1      33.634  25.510  21.567  1.00  0.00    -0.271 OA
BRANCH  11  13
ATOM     13  C   UNL A   1      32.237  24.445  23.206  1.00  0.00     0.259 C 
ATOM     14  C   UNL A   1      30.776  24.860  23.125  1.00  0.00     0.064 C 
BRANCH  13  15
ATOM     15  O   UNL A   1      32.526  23.336  22.341  1.00  0.00    -0.481 OA
BRANCH  15  16
ATOM     16  C   UNL A   1      32.538  22.140  22.989  1.00  0.00     0.120 A 
ATOM     17  C   UNL A   1      33.206  22.009  24.204  1.00  0.00     0.047 A 
ATOM     18  C   UNL A   1      32.040  21.029  22.325  1.00  0.00     0.047 A 
ATOM     19  C   UNL A   1      33.402  20.734  24.744  1.00  0.00     0.012 A 
ATOM     20  C   UNL A   1      32.226  19.766  22.870  1.00  0.00     0.012 A 
ATOM     21  C   UNL A   1      32.944  19.591  24.067  1.00  0.00    -0.018 A 
BRANCH  21  22
ATOM     22  C   UNL A   1      33.260  18.230  24.524  1.00  0.00    -0.018 A 
ATOM     23  C   UNL A   1      32.357  17.470  25.279  1.00  0.00     0.009 A 
ATOM     24  C   UNL A   1      34.495  17.649  24.180  1.00  0.00     0.009 A 
ATOM     25  C   UNL A   1      32.673  16.161  25.656  1.00  0.00     0.001 A 
ATOM     26  C   UNL A   1      34.810  16.344  24.554  1.00  0.00     0.001 A 
ATOM     27  C   UNL A   1      33.895  15.598  25.288  1.00  0.00     0.000 A 
ENDBRANCH  21  22
ENDBRANCH  15  16
ENDBRANCH  13  15
ENDBRANCH  11  13
ENDBRANCH   6  11
ENDBRANCH   1   5
BRANCH   3  28
ATOM     28  C   UNL A   1      31.603  30.706  26.356  1.00  0.00     0.117 C 
BRANCH  28  29
ATOM     29  C   UNL A   1      31.458  32.203  26.534  1.00  0.00     0.042 C 
BRANCH  29  30
ATOM     30  C   UNL A   1      32.624  32.821  27.275  1.00  0.00     0.118 C 
BRANCH  30  31
ATOM     31  N   UNL A   1      32.392  34.218  27.633  1.00  0.00    -0.352 N 
ATOM     32  C   UNL A   1      32.995  35.015  28.579  1.00  0.00     0.251 C 
ATOM     33  H   UNL A   1      31.686  34.664  27.111  1.00  0.00     0.163 HD
ATOM     34  O   UNL A   1      32.565  36.137  28.798  1.00  0.00    -0.269 OA
BRANCH  32  35
ATOM     35  C   UNL A   1      34.144  34.501  29.355  1.00  0.00     0.039 A 
ATOM     36  C   UNL A   1      33.908  33.863  30.576  1.00  0.00     0.014 A 
ATOM     37  C   UNL A   1      35.447  34.630  28.877  1.00  0.00     0.014 A 
ATOM     38  C   UNL A   1      34.972  33.290  31.273  1.00  0.00     0.010 A 
ATOM     39  C   UNL A   1      36.480  33.945  29.497  1.00  0.00     0.010 A 
ATOM     40  C   UNL A   1      36.261  33.289  30.715  1.00  0.00    -0.014 A 
BRANCH  40  41
ATOM     41  C   UNL A   1      37.409  32.650  31.401  1.00  0.00     0.031 A 
ATOM     42  C   UNL A   1      38.146  31.525  30.727  1.00  0.00     0.074 A 
ATOM     43  C   UNL A   1      37.736  33.024  32.653  1.00  0.00     0.049 A 
ATOM     44  N   UNL A   1      39.118  30.776  31.181  1.00  0.00    -0.248 NA
ATOM     45  C   UNL A   1      37.697  31.163  29.372  1.00  0.00     0.031 C 
ATOM     46  C   UNL A   1      37.061  34.062  33.430  1.00  0.00     0.029 A 
ATOM     47  N   UNL A   1      38.719  32.566  33.491  1.00  0.00    -0.354 N 
ATOM     48  C   UNL A   1      39.372  29.845  30.183  1.00  0.00     0.074 A 
ATOM     49  C   UNL A   1      38.401  30.069  29.136  1.00  0.00     0.031 C 
ATOM     50  C   UNL A   1      37.681  34.199  34.612  1.00  0.00     0.029 A 
ATOM     51  C   UNL A   1      38.768  33.227  34.693  1.00  0.00     0.049 A 
ATOM     52  H   UNL A   1      39.334  31.834  33.254  1.00  0.00     0.167 HD
ATOM     53  C   UNL A   1      40.351  28.910  30.126  1.00  0.00     0.037 A 
ATOM     54  C   UNL A   1      39.599  33.067  35.739  1.00  0.00     0.037 A 
ATOM     55  C   UNL A   1      41.331  28.718  31.160  1.00  0.00     0.049 A 
ATOM     56  C   UNL A   1      40.673  32.017  35.661  1.00  0.00     0.074 A 
ATOM     57  C   UNL A   1      42.408  27.850  31.181  1.00  0.00     0.029 A 
ATOM     58  N   UNL A   1      41.349  29.409  32.364  1.00  0.00    -0.354 N 
ATOM     59  N   UNL A   1      40.955  31.189  34.684  1.00  0.00    -0.248 NA
ATOM     60  C   UNL A   1      41.545  31.880  36.835  1.00  0.00     0.031 C 
ATOM     61  C   UNL A   1      43.045  27.977  32.419  1.00  0.00     0.029 A 
ATOM     62  C   UNL A   1      42.401  28.966  33.149  1.00  0.00     0.049 A 
ATOM     63  H   UNL A   1      40.708  30.110  32.622  1.00  0.00     0.167 HD
ATOM     64  C   UNL A   1      42.054  30.455  35.108  1.00  0.00     0.074 A 
ATOM     65  C   UNL A   1      42.394  30.944  36.429  1.00  0.00     0.031 C 
ATOM     66  C   UNL A   1      42.723  29.469  34.461  1.00  0.00     0.037 A 
BRANCH  53  67
ATOM     67  C   UNL A   1      40.390  28.033  28.906  1.00  0.00     0.064 A 
ATOM     68  C   UNL A   1      39.719  26.800  28.857  1.00  0.00     0.173 A 
ATOM     69  C   UNL A   1      41.129  28.417  27.776  1.00  0.00     0.173 A 
ATOM     70  F   UNL A   1      39.008  26.375  29.913  1.00  0.00    -0.203 F 
ATOM     71  C   UNL A   1      39.834  25.961  27.751  1.00  0.00     0.198 A 
ATOM     72  C   UNL A   1      41.208  27.594  26.656  1.00  0.00     0.198 A 
ATOM     73  F   UNL A   1      41.786  29.587  27.763  1.00  0.00    -0.203 F 
ATOM     74  F   UNL A   1      39.254  24.753  27.766  1.00  0.00    -0.200 F 
ATOM     75  C   UNL A   1      40.575  26.361  26.650  1.00  0.00     0.200 A 
ATOM     76  F   UNL A   1      41.914  27.987  25.586  1.00  0.00    -0.200 F 
ATOM     77  F   UNL A   1      40.693  25.550  25.589  1.00  0.00    -0.200 F 
ENDBRANCH  53  67
BRANCH  54  78
ATOM     78  C   UNL A   1      39.486  33.967  36.916  1.00  0.00     0.064 A 
ATOM     79  C   UNL A   1      38.748  33.575  38.042  1.00  0.00     0.173 A 
ATOM     80  C   UNL A   1      40.127  35.213  36.957  1.00  0.00     0.173 A 
ATOM     81  F   UNL A   1      38.103  32.400  38.042  1.00  0.00    -0.203 F 
ATOM     82  C   UNL A   1      38.648  34.399  39.160  1.00  0.00     0.198 A 
ATOM     83  C   UNL A   1      40.048  36.025  38.086  1.00  0.00     0.198 A 
ATOM     84  F   UNL A   1      40.850  35.632  35.908  1.00  0.00    -0.203 F 
ATOM     85  F   UNL A   1      37.910  34.014  40.210  1.00  0.00    -0.200 F 
ATOM     86  C   UNL A   1      39.305  35.620  39.186  1.00  0.00     0.200 A 
ATOM     87  F   UNL A   1      40.696  37.198  38.113  1.00  0.00    -0.200 F 
ATOM     88  F   UNL A   1      39.218  36.408  40.266  1.00  0.00    -0.200 F 
ENDBRANCH  54  78
BRANCH  66  89
ATOM     89  C   UNL A   1      43.912  28.876  35.160  1.00  0.00     0.064 A 
ATOM     90  C   UNL A   1      45.199  29.414  35.012  1.00  0.00     0.173 A 
ATOM     91  C   UNL A   1      43.753  27.781  36.022  1.00  0.00     0.173 A 
ATOM     92  F   UNL A   1      45.407  30.451  34.188  1.00  0.00    -0.203 F 
ATOM     93  C   UNL A   1      46.287  28.859  35.681  1.00  0.00     0.198 A 
ATOM     94  C   UNL A   1      44.837  27.250  36.716  1.00  0.00     0.198 A 
ATOM     95  F   UNL A   1      42.542  27.234  36.204  1.00  0.00    -0.203 F 
ATOM     96  F   UNL A   1      47.516  29.357  35.486  1.00  0.00    -0.200 F 
ATOM     97  C   UNL A   1      46.104  27.784  36.539  1.00  0.00     0.200 A 
ATOM     98  F   UNL A   1      44.654  26.222  37.557  1.00  0.00    -0.200 F 
ATOM     99  F   UNL A   1      47.150  27.259  37.189  1.00  0.00    -0.200 F 
ENDBRANCH  66  89
ENDBRANCH  40  41
ENDBRANCH  32  35
ENDBRANCH  30  31
ENDBRANCH  29  30
ENDBRANCH  28  29
ENDBRANCH   3  28
TORSDOF 15
ENDMDL
MODEL 2
REMARK VINA RESULT:     -13.9      0.764      1.602
REMARK SMILES C[C@@H](Oc1ccc(-c2ccccc2)cc1)C(=O)N1CCC[C@H](C(=O)NCCCNC(=O)c2ccc(-c3c4nc(c(-c5c(F)c(F)c(F)c(F)c5F)c5ccc([nH]5)c(-c5c(F)c(F)c(F)c(F)c5F)c5nc(c(-c6c(F)c(F)c(F)c(F)c6F)c6ccc3[nH]6)C=C5)C=C4)cc2)C1
REMARK SMILES IDX 23 1 24 2 25 3 22 5 18 6 19 7 95 8 20 9 21 10 16 11 17 12
REMARK SMILES IDX 2 13 1 14 3 15 4 16 5 17 15 18 6 19 14 20 7 21 8 22 9 23
REMARK SMILES IDX 13 24 10 25 12 26 11 27 26 28 27 29 28 30 29 31 30 32 31 34
REMARK SMILES IDX 32 35 33 36 94 37 34 38 93 39 35 40 36 41 37 42 87 43 38 44
REMARK SMILES IDX 92 45 86 46 88 47 39 48 91 49 85 50 84 51 40 53 72 54 52 55
REMARK SMILES IDX 71 56 53 57 56 58 70 59 89 60 54 61 55 62 69 64 90 65 57 66
REMARK SMILES IDX 41 67 42 68 50 69 43 70 44 71 48 72 51 73 45 74 46 75 49 76
REMARK SMILES IDX 47 77 73 78 74 79 82 80 75 81 76 82 80 83 83 84 77 85 78 86
REMARK SMILES IDX 81 87 79 88 58 89 59 90 67 91 60 92 61 93 65 94 68 95 62 96
REMARK SMILES IDX 63 97 66 98 64 99
REMARK H PARENT 25 4 29 33 88 52 56 63
REMARK Flexibility Score: inf
ROOT
ATOM      1  C   UNL A   1      32.688  29.294  24.799  1.00  0.00     0.224 C 
ATOM      2  O   UNL A   1      33.633  29.296  24.000  1.00  0.00    -0.275 OA
ATOM      3  N   UNL A   1      32.730  30.246  25.765  1.00  0.00    -0.356 N 
ATOM      4  H   UNL A   1      33.578  30.746  25.808  1.00  0.00     0.163 HD
ENDROOT
BRANCH   1   5
ATOM      5  C   UNL A   1      31.591  28.225  24.662  1.00  0.00     0.098 C 
ATOM      6  N   UNL A   1      32.029  26.443  22.943  1.00  0.00    -0.339 N 
ATOM      7  C   UNL A   1      30.823  26.789  22.202  1.00  0.00     0.119 C 
ATOM      8  C   UNL A   1      32.068  26.801  24.357  1.00  0.00     0.133 C 
ATOM      9  C   UNL A   1      30.390  28.235  22.389  1.00  0.00     0.022 C 
ATOM     10  C   UNL A   1      30.379  28.676  23.847  1.00  0.00     0.017 C 
BRANCH   6  11
ATOM     11  C   UNL A   1      33.028  25.736  22.273  1.00  0.00     0.263 C 
ATOM     12  O   UNL A   1      33.548  26.198  21.252  1.00  0.00    -0.271 OA
BRANCH  11  13
ATOM     13  C   UNL A   1      33.376  24.314  22.732  1.00  0.00     0.259 C 
ATOM     14  C   UNL A   1      34.587  24.170  23.640  1.00  0.00     0.064 C 
BRANCH  13  15
ATOM     15  O   UNL A   1      32.165  23.908  23.389  1.00  0.00    -0.481 OA
BRANCH  15  16
ATOM     16  C   UNL A   1      32.118  22.574  23.651  1.00  0.00     0.120 A 
ATOM     17  C   UNL A   1      32.213  22.114  24.962  1.00  0.00     0.047 A 
ATOM     18  C   UNL A   1      32.166  21.694  22.581  1.00  0.00     0.047 A 
ATOM     19  C   UNL A   1      32.390  20.747  25.198  1.00  0.00     0.012 A 
ATOM     20  C   UNL A   1      32.329  20.335  22.819  1.00  0.00     0.012 A 
ATOM     21  C   UNL A   1      32.484  19.842  24.127  1.00  0.00    -0.018 A 
BRANCH  21  22
ATOM     22  C   UNL A   1      32.818  18.425  24.326  1.00  0.00    -0.018 A 
ATOM     23  C   UNL A   1      33.465  17.667  23.340  1.00  0.00     0.009 A 
ATOM     24  C   UNL A   1      32.506  17.800  25.548  1.00  0.00     0.009 A 
ATOM     25  C   UNL A   1      33.810  16.334  23.583  1.00  0.00     0.001 A 
ATOM     26  C   UNL A   1      32.852  16.472  25.791  1.00  0.00     0.001 A 
ATOM     27  C   UNL A   1      33.509  15.740  24.808  1.00  0.00     0.000 A 
ENDBRANCH  21  22
ENDBRANCH  15  16
ENDBRANCH  13  15
ENDBRANCH  11  13
ENDBRANCH   6  11
ENDBRANCH   1   5
BRANCH   3  28
ATOM     28  C   UNL A   1      31.747  30.650  26.741  1.00  0.00     0.117 C 
BRANCH  28  29
ATOM     29  C   UNL A   1      31.531  32.148  26.818  1.00  0.00     0.042 C 
BRANCH  29  30
ATOM     30  C   UNL A   1      32.766  32.897  27.269  1.00  0.00     0.118 C 
BRANCH  30  31
ATOM     31  N   UNL A   1      32.480  34.269  27.678  1.00  0.00    -0.352 N 
ATOM     32  C   UNL A   1      33.032  35.046  28.670  1.00  0.00     0.251 C 
ATOM     33  H   UNL A   1      31.772  34.713  27.156  1.00  0.00     0.163 HD
ATOM     34  O   UNL A   1      32.561  36.144  28.923  1.00  0.00    -0.269 OA
BRANCH  32  35
ATOM     35  C   UNL A   1      34.179  34.538  29.454  1.00  0.00     0.039 A 
ATOM     36  C   UNL A   1      33.949  34.010  30.727  1.00  0.00     0.014 A 
ATOM     37  C   UNL A   1      35.471  34.565  28.933  1.00  0.00     0.014 A 
ATOM     38  C   UNL A   1      35.006  33.440  31.440  1.00  0.00     0.010 A 
ATOM     39  C   UNL A   1      36.489  33.880  29.578  1.00  0.00     0.010 A 
ATOM     40  C   UNL A   1      36.275  33.332  30.850  1.00  0.00    -0.014 A 
BRANCH  40  41
ATOM     41  C   UNL A   1      37.412  32.692  31.554  1.00  0.00     0.031 A 
ATOM     42  C   UNL A   1      38.145  31.553  30.900  1.00  0.00     0.074 A 
ATOM     43  C   UNL A   1      37.731  33.079  32.804  1.00  0.00     0.049 A 
ATOM     44  N   UNL A   1      39.107  30.802  31.373  1.00  0.00    -0.248 NA
ATOM     45  C   UNL A   1      37.706  31.178  29.546  1.00  0.00     0.031 C 
ATOM     46  C   UNL A   1      37.058  34.133  33.562  1.00  0.00     0.029 A 
ATOM     47  N   UNL A   1      38.703  32.624  33.657  1.00  0.00    -0.354 N 
ATOM     48  C   UNL A   1      39.362  29.856  30.389  1.00  0.00     0.074 A 
ATOM     49  C   UNL A   1      38.403  30.075  29.330  1.00  0.00     0.031 C 
ATOM     50  C   UNL A   1      37.669  34.280  34.748  1.00  0.00     0.029 A 
ATOM     51  C   UNL A   1      38.746  33.300  34.851  1.00  0.00     0.049 A 
ATOM     52  H   UNL A   1      39.313  31.884  33.434  1.00  0.00     0.167 HD
ATOM     53  C   UNL A   1      40.334  28.913  30.353  1.00  0.00     0.037 A 
ATOM     54  C   UNL A   1      39.567  33.145  35.906  1.00  0.00     0.037 A 
ATOM     55  C   UNL A   1      41.303  28.726  31.398  1.00  0.00     0.049 A 
ATOM     56  C   UNL A   1      40.632  32.085  35.851  1.00  0.00     0.074 A 
ATOM     57  C   UNL A   1      42.373  27.849  31.438  1.00  0.00     0.029 A 
ATOM     58  N   UNL A   1      41.316  29.431  32.593  1.00  0.00    -0.354 N 
ATOM     59  N   UNL A   1      40.916  31.244  34.886  1.00  0.00    -0.248 NA
ATOM     60  C   UNL A   1      41.493  31.956  37.034  1.00  0.00     0.031 C 
ATOM     61  C   UNL A   1      43.000  27.986  32.681  1.00  0.00     0.029 A 
ATOM     62  C   UNL A   1      42.358  28.990  33.392  1.00  0.00     0.049 A 
ATOM     63  H   UNL A   1      40.679  30.141  32.836  1.00  0.00     0.167 HD
ATOM     64  C   UNL A   1      42.005  30.506  35.329  1.00  0.00     0.074 A 
ATOM     65  C   UNL A   1      42.337  31.009  36.648  1.00  0.00     0.031 C 
ATOM     66  C   UNL A   1      42.672  29.506  34.701  1.00  0.00     0.037 A 
BRANCH  53  67
ATOM     67  C   UNL A   1      40.377  28.020  29.143  1.00  0.00     0.064 A 
ATOM     68  C   UNL A   1      41.135  28.345  28.007  1.00  0.00     0.173 A 
ATOM     69  C   UNL A   1      39.629  26.832  29.109  1.00  0.00     0.173 A 
ATOM     70  F   UNL A   1      41.859  29.475  27.979  1.00  0.00    -0.203 F 
ATOM     71  C   UNL A   1      41.098  27.550  26.864  1.00  0.00     0.198 A 
ATOM     72  C   UNL A   1      39.626  26.019  27.979  1.00  0.00     0.198 A 
ATOM     73  F   UNL A   1      38.890  26.466  30.167  1.00  0.00    -0.203 F 
ATOM     74  F   UNL A   1      41.764  27.929  25.765  1.00  0.00    -0.200 F 
ATOM     75  C   UNL A   1      40.347  26.385  26.853  1.00  0.00     0.200 A 
ATOM     76  F   UNL A   1      38.910  24.885  27.973  1.00  0.00    -0.200 F 
ATOM     77  F   UNL A   1      40.305  25.624  25.750  1.00  0.00    -0.200 F 
ENDBRANCH  53  67
BRANCH  54  78
ATOM     78  C   UNL A   1      39.451  34.061  37.071  1.00  0.00     0.064 A 
ATOM     79  C   UNL A   1      38.720  33.679  38.204  1.00  0.00     0.173 A 
ATOM     80  C   UNL A   1      40.083  35.313  37.091  1.00  0.00     0.173 A 
ATOM     81  F   UNL A   1      38.083  32.499  38.223  1.00  0.00    -0.203 F 
ATOM     82  C   UNL A   1      38.617  34.518  39.312  1.00  0.00     0.198 A 
ATOM     83  C   UNL A   1      40.001  36.140  38.210  1.00  0.00     0.198 A 
ATOM     84  F   UNL A   1      40.798  35.722  36.034  1.00  0.00    -0.203 F 
ATOM     85  F   UNL A   1      37.885  34.142  40.369  1.00  0.00    -0.200 F 
ATOM     86  C   UNL A   1      39.264  35.744  39.317  1.00  0.00     0.200 A 
ATOM     87  F   UNL A   1      40.640  37.318  38.218  1.00  0.00    -0.200 F 
ATOM     88  F   UNL A   1      39.175  36.547  40.387  1.00  0.00    -0.200 F 
ENDBRANCH  54  78
BRANCH  66  89
ATOM     89  C   UNL A   1      43.850  28.913  35.418  1.00  0.00     0.064 A 
ATOM     90  C   UNL A   1      45.151  29.403  35.233  1.00  0.00     0.173 A 
ATOM     91  C   UNL A   1      43.667  27.866  36.335  1.00  0.00     0.173 A 
ATOM     92  F   UNL A   1      45.382  30.392  34.357  1.00  0.00    -0.203 F 
ATOM     93  C   UNL A   1      46.228  28.849  35.919  1.00  0.00     0.198 A 
ATOM     94  C   UNL A   1      44.742  27.337  37.044  1.00  0.00     0.198 A 
ATOM     95  F   UNL A   1      42.442  27.365  36.554  1.00  0.00    -0.203 F 
ATOM     96  F   UNL A   1      47.470  29.299  35.689  1.00  0.00    -0.200 F 
ATOM     97  C   UNL A   1      46.022  27.823  36.830  1.00  0.00     0.200 A 
ATOM     98  F   UNL A   1      44.537  26.357  37.936  1.00  0.00    -0.200 F 
ATOM     99  F   UNL A   1      47.058  27.299  37.497  1.00  0.00    -0.200 F 
ENDBRANCH  66  89
ENDBRANCH  40  41
ENDBRANCH  32  35
ENDBRANCH  30  31
ENDBRANCH  29  30
ENDBRANCH  28  29
ENDBRANCH   3  28
TORSDOF 15
ENDMDL
MODEL 3
REMARK VINA RESULT:     -13.8      0.953      7.190
REMARK SMILES C[C@@H](Oc1ccc(-c2ccccc2)cc1)C(=O)N1CCC[C@H](C(=O)NCCCNC(=O)c2ccc(-c3c4nc(c(-c5c(F)c(F)c(F)c(F)c5F)c5ccc([nH]5)c(-c5c(F)c(F)c(F)c(F)c5F)c5nc(c(-c6c(F)c(F)c(F)c(F)c6F)c6ccc3[nH]6)C=C5)C=C4)cc2)C1
REMARK SMILES IDX 23 1 24 2 25 3 22 5 18 6 19 7 95 8 20 9 21 10 16 11 17 12
REMARK SMILES IDX 2 13 1 14 3 15 4 16 5 17 15 18 6 19 14 20 7 21 8 22 9 23
REMARK SMILES IDX 13 24 10 25 12 26 11 27 26 28 27 29 28 30 29 31 30 32 31 34
REMARK SMILES IDX 32 35 33 36 94 37 34 38 93 39 35 40 36 41 37 42 87 43 38 44
REMARK SMILES IDX 92 45 86 46 88 47 39 48 91 49 85 50 84 51 40 53 72 54 52 55
REMARK SMILES IDX 71 56 53 57 56 58 70 59 89 60 54 61 55 62 69 64 90 65 57 66
REMARK SMILES IDX 41 67 42 68 50 69 43 70 44 71 48 72 51 73 45 74 46 75 49 76
REMARK SMILES IDX 47 77 73 78 74 79 82 80 75 81 76 82 80 83 83 84 77 85 78 86
REMARK SMILES IDX 81 87 79 88 58 89 59 90 67 91 60 92 61 93 65 94 68 95 62 96
REMARK SMILES IDX 63 97 66 98 64 99
REMARK H PARENT 25 4 29 33 88 52 56 63
REMARK Flexibility Score: inf
ROOT
ATOM      1  C   UNL A   1      32.612  29.334  24.803  1.00  0.00     0.224 C 
ATOM      2  O   UNL A   1      33.598  29.308  24.055  1.00  0.00    -0.275 OA
ATOM      3  N   UNL A   1      32.588  30.341  25.712  1.00  0.00    -0.356 N 
ATOM      4  H   UNL A   1      33.424  30.858  25.770  1.00  0.00     0.163 HD
ENDROOT
BRANCH   1   5
ATOM      5  C   UNL A   1      31.542  28.238  24.672  1.00  0.00     0.098 C 
ATOM      6  N   UNL A   1      32.050  26.424  23.006  1.00  0.00    -0.339 N 
ATOM      7  C   UNL A   1      30.852  26.726  22.234  1.00  0.00     0.119 C 
ATOM      8  C   UNL A   1      32.055  26.817  24.412  1.00  0.00     0.133 C 
ATOM      9  C   UNL A   1      30.384  28.166  22.377  1.00  0.00     0.022 C 
ATOM     10  C   UNL A   1      30.336  28.643  23.823  1.00  0.00     0.017 C 
BRANCH   6  11
ATOM     11  C   UNL A   1      33.077  25.724  22.373  1.00  0.00     0.263 C 
ATOM     12  O   UNL A   1      33.634  26.190  21.374  1.00  0.00    -0.271 OA
BRANCH  11  13
ATOM     13  C   UNL A   1      33.414  24.301  22.842  1.00  0.00     0.259 C 
ATOM     14  C   UNL A   1      34.560  24.166  23.833  1.00  0.00     0.064 C 
BRANCH  13  15
ATOM     15  O   UNL A   1      32.166  23.871  23.408  1.00  0.00    -0.481 OA
BRANCH  15  16
ATOM     16  C   UNL A   1      32.138  22.542  23.699  1.00  0.00     0.120 A 
ATOM     17  C   UNL A   1      32.277  22.112  25.016  1.00  0.00     0.047 A 
ATOM     18  C   UNL A   1      32.162  21.640  22.646  1.00  0.00     0.047 A 
ATOM     19  C   UNL A   1      32.473  20.752  25.275  1.00  0.00     0.012 A 
ATOM     20  C   UNL A   1      32.345  20.288  22.908  1.00  0.00     0.012 A 
ATOM     21  C   UNL A   1      32.543  19.825  24.221  1.00  0.00    -0.018 A 
BRANCH  21  22
ATOM     22  C   UNL A   1      32.896  18.415  24.439  1.00  0.00    -0.018 A 
ATOM     23  C   UNL A   1      32.506  17.720  25.592  1.00  0.00     0.009 A 
ATOM     24  C   UNL A   1      33.629  17.720  23.459  1.00  0.00     0.009 A 
ATOM     25  C   UNL A   1      32.819  16.366  25.745  1.00  0.00     0.001 A 
ATOM     26  C   UNL A   1      33.940  16.369  23.610  1.00  0.00     0.001 A 
ATOM     27  C   UNL A   1      33.529  15.691  24.752  1.00  0.00     0.000 A 
ENDBRANCH  21  22
ENDBRANCH  15  16
ENDBRANCH  13  15
ENDBRANCH  11  13
ENDBRANCH   6  11
ENDBRANCH   1   5
BRANCH   3  28
ATOM     28  C   UNL A   1      31.549  30.782  26.611  1.00  0.00     0.117 C 
BRANCH  28  29
ATOM     29  C   UNL A   1      31.404  32.287  26.698  1.00  0.00     0.042 C 
BRANCH  29  30
ATOM     30  C   UNL A   1      32.686  32.978  27.110  1.00  0.00     0.118 C 
BRANCH  30  31
ATOM     31  N   UNL A   1      32.460  34.307  27.670  1.00  0.00    -0.352 N 
ATOM     32  C   UNL A   1      33.072  34.957  28.717  1.00  0.00     0.251 C 
ATOM     33  H   UNL A   1      31.751  34.825  27.223  1.00  0.00     0.163 HD
ATOM     34  O   UNL A   1      32.646  36.035  29.101  1.00  0.00    -0.269 OA
BRANCH  32  35
ATOM     35  C   UNL A   1      34.226  34.334  29.401  1.00  0.00     0.039 A 
ATOM     36  C   UNL A   1      33.993  33.472  30.475  1.00  0.00     0.014 A 
ATOM     37  C   UNL A   1      35.530  34.582  28.977  1.00  0.00     0.014 A 
ATOM     38  C   UNL A   1      35.064  32.803  31.070  1.00  0.00     0.010 A 
ATOM     39  C   UNL A   1      36.573  33.818  29.473  1.00  0.00     0.010 A 
ATOM     40  C   UNL A   1      36.358  32.939  30.543  1.00  0.00    -0.014 A 
BRANCH  40  41
ATOM     41  C   UNL A   1      37.516  32.210  31.114  1.00  0.00     0.031 A 
ATOM     42  C   UNL A   1      38.002  32.551  32.496  1.00  0.00     0.074 A 
ATOM     43  C   UNL A   1      38.174  31.305  30.365  1.00  0.00     0.049 A 
ATOM     44  N   UNL A   1      39.041  32.098  33.148  1.00  0.00    -0.248 NA
ATOM     45  C   UNL A   1      37.238  33.577  33.227  1.00  0.00     0.031 C 
ATOM     46  C   UNL A   1      37.832  30.930  28.994  1.00  0.00     0.029 A 
ATOM     47  N   UNL A   1      39.274  30.538  30.656  1.00  0.00    -0.354 N 
ATOM     48  C   UNL A   1      39.069  32.802  34.345  1.00  0.00     0.074 A 
ATOM     49  C   UNL A   1      37.994  33.766  34.296  1.00  0.00     0.031 C 
ATOM     50  C   UNL A   1      38.671  29.968  28.579  1.00  0.00     0.029 A 
ATOM     51  C   UNL A   1      39.638  29.693  29.638  1.00  0.00     0.049 A 
ATOM     52  H   UNL A   1      39.755  30.589  31.513  1.00  0.00     0.167 HD
ATOM     53  C   UNL A   1      39.893  32.633  35.407  1.00  0.00     0.037 A 
ATOM     54  C   UNL A   1      40.638  28.795  29.572  1.00  0.00     0.037 A 
ATOM     55  C   UNL A   1      40.938  31.648  35.458  1.00  0.00     0.049 A 
ATOM     56  C   UNL A   1      41.548  28.630  30.757  1.00  0.00     0.074 A 
ATOM     57  C   UNL A   1      41.788  31.342  36.505  1.00  0.00     0.029 A 
ATOM     58  N   UNL A   1      41.276  30.807  34.407  1.00  0.00    -0.354 N 
ATOM     59  N   UNL A   1      41.523  29.246  31.915  1.00  0.00    -0.248 NA
ATOM     60  C   UNL A   1      42.628  27.642  30.626  1.00  0.00     0.031 C 
ATOM     61  C   UNL A   1      42.676  30.353  36.069  1.00  0.00     0.029 A 
ATOM     62  C   UNL A   1      42.343  30.001  34.769  1.00  0.00     0.049 A 
ATOM     63  H   UNL A   1      40.825  30.786  33.532  1.00  0.00     0.167 HD
ATOM     64  C   UNL A   1      42.558  28.702  32.662  1.00  0.00     0.074 A 
ATOM     65  C   UNL A   1      43.187  27.696  31.828  1.00  0.00     0.031 C 
ATOM     66  C   UNL A   1      42.952  29.004  33.925  1.00  0.00     0.037 A 
BRANCH  53  67
ATOM     67  C   UNL A   1      39.686  33.545  36.585  1.00  0.00     0.064 A 
ATOM     68  C   UNL A   1      38.849  33.194  37.657  1.00  0.00     0.173 A 
ATOM     69  C   UNL A   1      40.313  34.799  36.634  1.00  0.00     0.173 A 
ATOM     70  F   UNL A   1      38.213  32.012  37.659  1.00  0.00    -0.203 F 
ATOM     71  C   UNL A   1      38.602  34.083  38.700  1.00  0.00     0.198 A 
ATOM     72  C   UNL A   1      40.096  35.670  37.698  1.00  0.00     0.198 A 
ATOM     73  F   UNL A   1      41.128  35.188  35.641  1.00  0.00    -0.203 F 
ATOM     74  F   UNL A   1      37.734  33.756  39.666  1.00  0.00    -0.200 F 
ATOM     75  C   UNL A   1      39.229  35.319  38.722  1.00  0.00     0.200 A 
ATOM     76  F   UNL A   1      40.713  36.861  37.724  1.00  0.00    -0.200 F 
ATOM     77  F   UNL A   1      38.986  36.179  39.720  1.00  0.00    -0.200 F 
ENDBRANCH  53  67
BRANCH  54  78
ATOM     78  C   UNL A   1      40.784  27.940  28.365  1.00  0.00     0.064 A 
ATOM     79  C   UNL A   1      41.562  28.369  27.281  1.00  0.00     0.173 A 
ATOM     80  C   UNL A   1      40.180  26.678  28.276  1.00  0.00     0.173 A 
ATOM     81  F   UNL A   1      42.144  29.577  27.312  1.00  0.00    -0.203 F 
ATOM     82  C   UNL A   1      41.724  27.573  26.150  1.00  0.00     0.198 A 
ATOM     83  C   UNL A   1      40.364  25.871  27.155  1.00  0.00     0.198 A 
ATOM     84  F   UNL A   1      39.430  26.220  29.289  1.00  0.00    -0.203 F 
ATOM     85  F   UNL A   1      42.447  28.021  25.115  1.00  0.00    -0.200 F 
ATOM     86  C   UNL A   1      41.132  26.320  26.091  1.00  0.00     0.200 A 
ATOM     87  F   UNL A   1      39.802  24.655  27.108  1.00  0.00    -0.200 F 
ATOM     88  F   UNL A   1      41.298  25.549  25.008  1.00  0.00    -0.200 F 
ENDBRANCH  54  78
BRANCH  66  89
ATOM     89  C   UNL A   1      44.094  28.214  34.494  1.00  0.00     0.064 A 
ATOM     90  C   UNL A   1      45.418  28.668  34.416  1.00  0.00     0.173 A 
ATOM     91  C   UNL A   1      43.852  27.004  35.163  1.00  0.00     0.173 A 
ATOM     92  F   UNL A   1      45.703  29.811  33.774  1.00  0.00    -0.203 F 
ATOM     93  C   UNL A   1      46.461  27.927  34.965  1.00  0.00     0.198 A 
ATOM     94  C   UNL A   1      44.894  26.283  35.740  1.00  0.00     0.198 A 
ATOM     95  F   UNL A   1      42.603  26.528  35.272  1.00  0.00    -0.203 F 
ATOM     96  F   UNL A   1      47.725  28.356  34.834  1.00  0.00    -0.200 F 
ATOM     97  C   UNL A   1      46.198  26.741  35.633  1.00  0.00     0.200 A 
ATOM     98  F   UNL A   1      44.635  25.145  36.399  1.00  0.00    -0.200 F 
ATOM     99  F   UNL A   1      47.203  26.035  36.168  1.00  0.00    -0.200 F 
ENDBRANCH  66  89
ENDBRANCH  40  41
ENDBRANCH  32  35
ENDBRANCH  30  31
ENDBRANCH  29  30
ENDBRANCH  28  29
ENDBRANCH   3  28
TORSDOF 15
ENDMDL
