MODEL 1
REMARK VINA RESULT:     -13.4      0.000      0.000
REMARK SMILES Cc1nc(-c2ccccc2Cl)sc1C(=O)NC[C@H]1CC[C@@H](C(=O)NCCCNC(=O)c2ccc(-c3c4nc(c(-c5c(F)c(F)c(F)c(F)c5F)c5ccc([nH]5)c(-c5c(F)c(F)c(F)c(F)c5F)c5nc(c(-c6c(F)c(F)c(F)c(F)c6F)c6ccc3[nH]6)C=C5)C=C4)cc2)CC1
REMARK SMILES IDX 25 1 24 2 22 3 23 4 21 6 18 7 19 8 95 9 20 10 94 11 17 12
REMARK SMILES IDX 16 13 14 14 15 15 13 17 1 18 2 19 3 20 4 21 12 22 5 23 6 24
REMARK SMILES IDX 10 25 7 26 9 27 11 28 8 29 26 30 27 31 28 32 29 33 30 35
REMARK SMILES IDX 31 36 32 37 93 38 33 39 92 40 34 41 35 42 36 43 86 44 37 45
REMARK SMILES IDX 91 46 85 47 87 48 38 49 90 50 84 51 83 52 39 54 71 55 51 56
REMARK SMILES IDX 70 57 52 58 55 59 69 60 88 61 53 62 54 63 68 65 89 66 56 67
REMARK SMILES IDX 40 68 41 69 49 70 42 71 43 72 47 73 50 74 44 75 45 76 48 77
REMARK SMILES IDX 46 78 72 79 73 80 81 81 74 82 75 83 79 84 82 85 76 86 77 87
REMARK SMILES IDX 80 88 78 89 57 90 58 91 66 92 59 93 60 94 64 95 67 96 61 97
REMARK SMILES IDX 62 98 65 99 63 100
REMARK H PARENT 24 5 16 16 28 34 87 53 55 64
REMARK Flexibility Score: inf
ROOT
ATOM      1  C   UNL A   1      34.062  30.828  27.681  1.00  0.00     0.117 C 
ENDROOT
BRANCH   1   2
ATOM      2  N   UNL A   1      34.265  29.949  26.558  1.00  0.00    -0.356 N 
ATOM      3  C   UNL A   1      33.403  29.300  25.738  1.00  0.00     0.223 C 
ATOM      4  O   UNL A   1      33.927  28.751  24.760  1.00  0.00    -0.275 OA
ATOM      5  H   UNL A   1      35.212  29.791  26.344  1.00  0.00     0.163 HD
BRANCH   3   6
ATOM      6  C   UNL A   1      31.882  29.176  25.938  1.00  0.00     0.078 C 
ATOM      7  C   UNL A   1      30.248  27.517  23.982  1.00  0.00     0.008 C 
ATOM      8  C   UNL A   1      30.869  26.884  25.250  1.00  0.00     0.006 C 
ATOM      9  C   UNL A   1      30.606  28.997  23.729  1.00  0.00     0.006 C 
ATOM     10  C   UNL A   1      31.305  27.831  26.361  1.00  0.00     0.014 C 
ATOM     11  C   UNL A   1      31.009  29.861  24.904  1.00  0.00     0.014 C 
BRANCH   7  12
ATOM     12  C   UNL A   1      30.581  26.636  22.733  1.00  0.00     0.119 C 
BRANCH  12  13
ATOM     13  N   UNL A   1      31.942  26.765  22.293  1.00  0.00    -0.351 N 
ATOM     14  C   UNL A   1      33.077  26.011  22.407  1.00  0.00     0.263 C 
ATOM     15  O   UNL A   1      33.960  26.420  21.639  1.00  0.00    -0.268 OA
ATOM     16  H   UNL A   1      32.094  27.595  21.786  1.00  0.00     0.163 HD
BRANCH  14  17
ATOM     17  C   UNL A   1      33.300  24.877  23.309  1.00  0.00     0.115 A 
ATOM     18  C   UNL A   1      34.229  25.424  25.731  1.00  0.00     0.068 C 
ATOM     19  C   UNL A   1      33.752  24.600  24.603  1.00  0.00     0.062 A 
ATOM     20  N   UNL A   1      33.797  23.258  24.944  1.00  0.00    -0.240 NA
ATOM     21  C   UNL A   1      33.491  22.494  23.930  1.00  0.00     0.125 A 
ATOM     22  S   UNL A   1      32.916  23.320  22.568  1.00  0.00    -0.108 S 
BRANCH  21  23
ATOM     23  C   UNL A   1      33.553  21.041  24.019  1.00  0.00     0.029 A 
ATOM     24  C   UNL A   1      32.421  20.324  23.592  1.00  0.00     0.013 A 
ATOM     25  C   UNL A   1      34.601  20.345  24.639  1.00  0.00     0.051 A 
ATOM     26  C   UNL A   1      32.336  18.946  23.771  1.00  0.00     0.001 A 
ATOM     27  C   UNL A   1      34.511  18.961  24.816  1.00  0.00     0.021 A 
ATOM     28  Cl  UNL A   1      35.999  21.133  25.285  1.00  0.00    -0.084 Cl
ATOM     29  C   UNL A   1      33.380  18.265  24.388  1.00  0.00     0.002 A 
ENDBRANCH  21  23
ENDBRANCH  14  17
ENDBRANCH  12  13
ENDBRANCH   7  12
ENDBRANCH   3   6
ENDBRANCH   1   2
BRANCH   1  30
ATOM     30  C   UNL A   1      33.868  32.285  27.288  1.00  0.00     0.042 C 
BRANCH  30  31
ATOM     31  C   UNL A   1      32.435  32.761  27.426  1.00  0.00     0.118 C 
BRANCH  31  32
ATOM     32  N   UNL A   1      32.355  34.185  27.744  1.00  0.00    -0.352 N 
ATOM     33  C   UNL A   1      33.028  34.952  28.665  1.00  0.00     0.251 C 
ATOM     34  H   UNL A   1      31.701  34.684  27.202  1.00  0.00     0.163 HD
ATOM     35  O   UNL A   1      32.650  36.100  28.873  1.00  0.00    -0.269 OA
BRANCH  33  36
ATOM     36  C   UNL A   1      34.180  34.409  29.419  1.00  0.00     0.039 A 
ATOM     37  C   UNL A   1      33.948  33.692  30.597  1.00  0.00     0.014 A 
ATOM     38  C   UNL A   1      35.490  34.618  28.990  1.00  0.00     0.014 A 
ATOM     39  C   UNL A   1      35.022  33.134  31.296  1.00  0.00     0.010 A 
ATOM     40  C   UNL A   1      36.539  33.947  29.602  1.00  0.00     0.010 A 
ATOM     41  C   UNL A   1      36.324  33.220  30.779  1.00  0.00    -0.014 A 
BRANCH  41  42
ATOM     42  C   UNL A   1      37.484  32.593  31.464  1.00  0.00     0.031 A 
ATOM     43  C   UNL A   1      38.221  31.457  30.802  1.00  0.00     0.074 A 
ATOM     44  C   UNL A   1      37.822  32.991  32.705  1.00  0.00     0.049 A 
ATOM     45  N   UNL A   1      39.196  30.717  31.268  1.00  0.00    -0.248 NA
ATOM     46  C   UNL A   1      37.773  31.069  29.454  1.00  0.00     0.031 C 
ATOM     47  C   UNL A   1      37.143  34.033  33.476  1.00  0.00     0.029 A 
ATOM     48  N   UNL A   1      38.819  32.557  33.543  1.00  0.00    -0.354 N 
ATOM     49  C   UNL A   1      39.454  29.770  30.284  1.00  0.00     0.074 A 
ATOM     50  C   UNL A   1      38.487  29.977  29.232  1.00  0.00     0.031 C 
ATOM     51  C   UNL A   1      37.763  34.183  34.657  1.00  0.00     0.029 A 
ATOM     52  C   UNL A   1      38.854  33.217  34.746  1.00  0.00     0.049 A 
ATOM     53  H   UNL A   1      39.449  31.838  33.303  1.00  0.00     0.167 HD
ATOM     54  C   UNL A   1      40.431  28.834  30.246  1.00  0.00     0.037 A 
ATOM     55  C   UNL A   1      39.672  33.057  35.804  1.00  0.00     0.037 A 
ATOM     56  C   UNL A   1      41.415  28.661  31.281  1.00  0.00     0.049 A 
ATOM     57  C   UNL A   1      40.759  32.018  35.733  1.00  0.00     0.074 A 
ATOM     58  C   UNL A   1      42.493  27.795  31.313  1.00  0.00     0.029 A 
ATOM     59  N   UNL A   1      41.438  29.372  32.473  1.00  0.00    -0.354 N 
ATOM     60  N   UNL A   1      41.045  31.183  34.764  1.00  0.00    -0.248 NA
ATOM     61  C   UNL A   1      41.644  31.907  36.901  1.00  0.00     0.031 C 
ATOM     62  C   UNL A   1      43.134  27.941  32.546  1.00  0.00     0.029 A 
ATOM     63  C   UNL A   1      42.495  28.946  33.258  1.00  0.00     0.049 A 
ATOM     64  H   UNL A   1      40.796  30.076  32.723  1.00  0.00     0.167 HD
ATOM     65  C   UNL A   1      42.155  30.468  35.190  1.00  0.00     0.074 A 
ATOM     66  C   UNL A   1      42.503  30.981  36.499  1.00  0.00     0.031 C 
ATOM     67  C   UNL A   1      42.829  29.475  34.556  1.00  0.00     0.037 A 
BRANCH  54  68
ATOM     68  C   UNL A   1      40.487  27.932  29.044  1.00  0.00     0.064 A 
ATOM     69  C   UNL A   1      39.743  26.743  28.975  1.00  0.00     0.173 A 
ATOM     70  C   UNL A   1      41.279  28.271  27.936  1.00  0.00     0.173 A 
ATOM     71  F   UNL A   1      38.978  26.363  30.010  1.00  0.00    -0.203 F 
ATOM     72  C   UNL A   1      39.821  25.909  27.862  1.00  0.00     0.198 A 
ATOM     73  C   UNL A   1      41.325  27.454  26.809  1.00  0.00     0.198 A 
ATOM     74  F   UNL A   1      42.007  29.398  27.945  1.00  0.00    -0.203 F 
ATOM     75  F   UNL A   1      39.152  24.749  27.848  1.00  0.00    -0.200 F 
ATOM     76  C   UNL A   1      40.606  26.269  26.777  1.00  0.00     0.200 A 
ATOM     77  F   UNL A   1      42.073  27.811  25.756  1.00  0.00    -0.200 F 
ATOM     78  F   UNL A   1      40.676  25.470  25.704  1.00  0.00    -0.200 F 
ENDBRANCH  54  68
BRANCH  55  79
ATOM     79  C   UNL A   1      39.516  33.925  37.001  1.00  0.00     0.064 A 
ATOM     80  C   UNL A   1      40.089  35.203  37.043  1.00  0.00     0.173 A 
ATOM     81  C   UNL A   1      38.788  33.501  38.123  1.00  0.00     0.173 A 
ATOM     82  F   UNL A   1      40.807  35.649  36.002  1.00  0.00    -0.203 F 
ATOM     83  C   UNL A   1      39.957  36.017  38.166  1.00  0.00     0.198 A 
ATOM     84  C   UNL A   1      38.630  34.328  39.234  1.00  0.00     0.198 A 
ATOM     85  F   UNL A   1      38.211  32.291  38.131  1.00  0.00    -0.203 F 
ATOM     86  F   UNL A   1      40.550  37.218  38.194  1.00  0.00    -0.200 F 
ATOM     87  C   UNL A   1      39.222  35.581  39.258  1.00  0.00     0.200 A 
ATOM     88  F   UNL A   1      37.902  33.913  40.278  1.00  0.00    -0.200 F 
ATOM     89  F   UNL A   1      39.081  36.372  40.330  1.00  0.00    -0.200 F 
ENDBRANCH  55  79
BRANCH  67  90
ATOM     90  C   UNL A   1      44.031  28.905  35.252  1.00  0.00     0.064 A 
ATOM     91  C   UNL A   1      45.320  29.411  35.035  1.00  0.00     0.173 A 
ATOM     92  C   UNL A   1      43.881  27.865  36.183  1.00  0.00     0.173 A 
ATOM     93  F   UNL A   1      45.518  30.395  34.145  1.00  0.00    -0.203 F 
ATOM     94  C   UNL A   1      46.420  28.878  35.702  1.00  0.00     0.198 A 
ATOM     95  C   UNL A   1      44.977  27.359  36.876  1.00  0.00     0.198 A 
ATOM     96  F   UNL A   1      42.668  27.351  36.435  1.00  0.00    -0.203 F 
ATOM     97  F   UNL A   1      47.649  29.342  35.440  1.00  0.00    -0.200 F 
ATOM     98  C   UNL A   1      46.246  27.860  36.628  1.00  0.00     0.200 A 
ATOM     99  F   UNL A   1      44.805  26.388  37.783  1.00  0.00    -0.200 F 
ATOM    100  F   UNL A   1      47.304  27.356  37.278  1.00  0.00    -0.200 F 
ENDBRANCH  67  90
ENDBRANCH  41  42
ENDBRANCH  33  36
ENDBRANCH  31  32
ENDBRANCH  30  31
ENDBRANCH   1  30
TORSDOF 14
ENDMDL
MODEL 2
REMARK VINA RESULT:     -13.3      5.698     11.454
REMARK SMILES Cc1nc(-c2ccccc2Cl)sc1C(=O)NC[C@H]1CC[C@@H](C(=O)NCCCNC(=O)c2ccc(-c3c4nc(c(-c5c(F)c(F)c(F)c(F)c5F)c5ccc([nH]5)c(-c5c(F)c(F)c(F)c(F)c5F)c5nc(c(-c6c(F)c(F)c(F)c(F)c6F)c6ccc3[nH]6)C=C5)C=C4)cc2)CC1
REMARK SMILES IDX 25 1 24 2 22 3 23 4 21 6 18 7 19 8 95 9 20 10 94 11 17 12
REMARK SMILES IDX 16 13 14 14 15 15 13 17 1 18 2 19 3 20 4 21 12 22 5 23 6 24
REMARK SMILES IDX 10 25 7 26 9 27 11 28 8 29 26 30 27 31 28 32 29 33 30 35
REMARK SMILES IDX 31 36 32 37 93 38 33 39 92 40 34 41 35 42 36 43 86 44 37 45
REMARK SMILES IDX 91 46 85 47 87 48 38 49 90 50 84 51 83 52 39 54 71 55 51 56
REMARK SMILES IDX 70 57 52 58 55 59 69 60 88 61 53 62 54 63 68 65 89 66 56 67
REMARK SMILES IDX 40 68 41 69 49 70 42 71 43 72 47 73 50 74 44 75 45 76 48 77
REMARK SMILES IDX 46 78 72 79 73 80 81 81 74 82 75 83 79 84 82 85 76 86 77 87
REMARK SMILES IDX 80 88 78 89 57 90 58 91 66 92 59 93 60 94 64 95 67 96 61 97
REMARK SMILES IDX 62 98 65 99 63 100
REMARK H PARENT 24 5 16 16 28 34 87 53 55 64
REMARK Flexibility Score: inf
ROOT
ATOM      1  C   UNL A   1      37.489  20.798  24.790  1.00  0.00     0.117 C 
ENDROOT
BRANCH   1   2
ATOM      2  N   UNL A   1      36.095  20.436  24.834  1.00  0.00    -0.356 N 
ATOM      3  C   UNL A   1      35.023  21.002  25.438  1.00  0.00     0.223 C 
ATOM      4  O   UNL A   1      33.930  20.511  25.127  1.00  0.00    -0.275 OA
ATOM      5  H   UNL A   1      35.881  19.621  24.325  1.00  0.00     0.163 HD
BRANCH   3   6
ATOM      6  C   UNL A   1      35.062  22.149  26.464  1.00  0.00     0.078 C 
ATOM      7  C   UNL A   1      33.161  24.502  26.147  1.00  0.00     0.008 C 
ATOM      8  C   UNL A   1      32.761  23.250  26.964  1.00  0.00     0.006 C 
ATOM      9  C   UNL A   1      34.523  24.423  25.426  1.00  0.00     0.006 C 
ATOM     10  C   UNL A   1      33.883  22.322  27.415  1.00  0.00     0.014 C 
ATOM     11  C   UNL A   1      35.580  23.483  25.963  1.00  0.00     0.014 C 
BRANCH   7  12
ATOM     12  C   UNL A   1      32.015  24.869  25.148  1.00  0.00     0.119 C 
BRANCH  12  13
ATOM     13  N   UNL A   1      32.494  25.390  23.899  1.00  0.00    -0.351 N 
ATOM     14  C   UNL A   1      32.155  26.437  23.087  1.00  0.00     0.263 C 
ATOM     15  O   UNL A   1      33.029  26.634  22.230  1.00  0.00    -0.268 OA
ATOM     16  H   UNL A   1      33.249  24.869  23.541  1.00  0.00     0.163 HD
BRANCH  14  17
ATOM     17  C   UNL A   1      30.932  27.244  23.147  1.00  0.00     0.115 A 
ATOM     18  C   UNL A   1      28.732  26.042  24.007  1.00  0.00     0.068 C 
ATOM     19  C   UNL A   1      29.582  27.133  23.489  1.00  0.00     0.062 A 
ATOM     20  N   UNL A   1      28.823  28.275  23.299  1.00  0.00    -0.240 NA
ATOM     21  C   UNL A   1      29.518  29.226  22.735  1.00  0.00     0.125 A 
ATOM     22  S   UNL A   1      31.174  28.904  22.592  1.00  0.00    -0.108 S 
BRANCH  21  23
ATOM     23  C   UNL A   1      28.912  30.495  22.355  1.00  0.00     0.029 A 
ATOM     24  C   UNL A   1      28.302  30.561  21.089  1.00  0.00     0.013 A 
ATOM     25  C   UNL A   1      29.040  31.673  23.107  1.00  0.00     0.051 A 
ATOM     26  C   UNL A   1      27.824  31.768  20.585  1.00  0.00     0.001 A 
ATOM     27  C   UNL A   1      28.557  32.882  22.597  1.00  0.00     0.021 A 
ATOM     28  Cl  UNL A   1      29.851  31.729  24.634  1.00  0.00    -0.084 Cl
ATOM     29  C   UNL A   1      27.957  32.930  21.338  1.00  0.00     0.002 A 
ENDBRANCH  21  23
ENDBRANCH  14  17
ENDBRANCH  12  13
ENDBRANCH   7  12
ENDBRANCH   3   6
ENDBRANCH   1   2
BRANCH   1  30
ATOM     30  C   UNL A   1      38.431  19.621  24.993  1.00  0.00     0.042 C 
BRANCH  30  31
ATOM     31  C   UNL A   1      39.420  19.828  26.123  1.00  0.00     0.118 C 
BRANCH  31  32
ATOM     32  N   UNL A   1      40.557  18.914  26.037  1.00  0.00    -0.352 N 
ATOM     33  C   UNL A   1      41.912  19.144  26.028  1.00  0.00     0.251 C 
ATOM     34  H   UNL A   1      40.307  17.964  25.975  1.00  0.00     0.163 HD
ATOM     35  O   UNL A   1      42.671  18.219  25.759  1.00  0.00    -0.269 OA
BRANCH  33  36
ATOM     36  C   UNL A   1      42.463  20.488  26.315  1.00  0.00     0.039 A 
ATOM     37  C   UNL A   1      42.858  21.305  25.251  1.00  0.00     0.014 A 
ATOM     38  C   UNL A   1      42.616  20.944  27.624  1.00  0.00     0.014 A 
ATOM     39  C   UNL A   1      43.338  22.594  25.502  1.00  0.00     0.010 A 
ATOM     40  C   UNL A   1      42.956  22.267  27.865  1.00  0.00     0.010 A 
ATOM     41  C   UNL A   1      43.349  23.101  26.810  1.00  0.00    -0.014 A 
BRANCH  41  42
ATOM     42  C   UNL A   1      43.799  24.484  27.113  1.00  0.00     0.031 A 
ATOM     43  C   UNL A   1      42.815  25.495  27.644  1.00  0.00     0.074 A 
ATOM     44  C   UNL A   1      45.066  24.850  26.837  1.00  0.00     0.049 A 
ATOM     45  N   UNL A   1      42.984  26.771  27.884  1.00  0.00    -0.248 NA
ATOM     46  C   UNL A   1      41.444  25.019  27.897  1.00  0.00     0.031 C 
ATOM     47  C   UNL A   1      46.092  23.981  26.259  1.00  0.00     0.029 A 
ATOM     48  N   UNL A   1      45.704  26.054  26.997  1.00  0.00    -0.354 N 
ATOM     49  C   UNL A   1      41.741  27.246  28.287  1.00  0.00     0.074 A 
ATOM     50  C   UNL A   1      40.813  26.145  28.187  1.00  0.00     0.031 C 
ATOM     51  C   UNL A   1      47.239  24.669  26.145  1.00  0.00     0.029 A 
ATOM     52  C   UNL A   1      47.018  26.039  26.601  1.00  0.00     0.049 A 
ATOM     53  H   UNL A   1      45.260  26.855  27.362  1.00  0.00     0.167 HD
ATOM     54  C   UNL A   1      41.412  28.481  28.734  1.00  0.00     0.037 A 
ATOM     55  C   UNL A   1      47.939  27.021  26.599  1.00  0.00     0.037 A 
ATOM     56  C   UNL A   1      42.352  29.561  28.867  1.00  0.00     0.049 A 
ATOM     57  C   UNL A   1      47.553  28.382  27.113  1.00  0.00     0.074 A 
ATOM     58  C   UNL A   1      42.144  30.830  29.378  1.00  0.00     0.029 A 
ATOM     59  N   UNL A   1      43.685  29.497  28.485  1.00  0.00    -0.354 N 
ATOM     60  N   UNL A   1      46.396  28.798  27.568  1.00  0.00    -0.248 NA
ATOM     61  C   UNL A   1      48.604  29.408  27.120  1.00  0.00     0.031 C 
ATOM     62  C   UNL A   1      43.334  31.551  29.252  1.00  0.00     0.029 A 
ATOM     63  C   UNL A   1      44.304  30.712  28.723  1.00  0.00     0.049 A 
ATOM     64  H   UNL A   1      44.125  28.704  28.101  1.00  0.00     0.167 HD
ATOM     65  C   UNL A   1      46.585  30.122  27.942  1.00  0.00     0.074 A 
ATOM     66  C   UNL A   1      47.974  30.433  27.676  1.00  0.00     0.031 C 
ATOM     67  C   UNL A   1      45.691  31.001  28.458  1.00  0.00     0.037 A 
BRANCH  54  68
ATOM     68  C   UNL A   1      39.978  28.725  29.116  1.00  0.00     0.064 A 
ATOM     69  C   UNL A   1      39.032  29.189  28.188  1.00  0.00     0.173 A 
ATOM     70  C   UNL A   1      39.538  28.472  30.425  1.00  0.00     0.173 A 
ATOM     71  F   UNL A   1      39.400  29.459  26.927  1.00  0.00    -0.203 F 
ATOM     72  C   UNL A   1      37.712  29.428  28.564  1.00  0.00     0.198 A 
ATOM     73  C   UNL A   1      38.209  28.675  30.787  1.00  0.00     0.198 A 
ATOM     74  F   UNL A   1      40.396  28.023  31.353  1.00  0.00    -0.203 F 
ATOM     75  F   UNL A   1      36.846  29.932  27.676  1.00  0.00    -0.200 F 
ATOM     76  C   UNL A   1      37.300  29.164  29.861  1.00  0.00     0.200 A 
ATOM     77  F   UNL A   1      37.809  28.407  32.038  1.00  0.00    -0.200 F 
ATOM     78  F   UNL A   1      36.029  29.389  30.220  1.00  0.00    -0.200 F 
ENDBRANCH  54  68
BRANCH  55  79
ATOM     79  C   UNL A   1      49.323  26.741  26.130  1.00  0.00     0.064 A 
ATOM     80  C   UNL A   1      49.707  27.026  24.812  1.00  0.00     0.173 A 
ATOM     81  C   UNL A   1      50.289  26.192  26.986  1.00  0.00     0.173 A 
ATOM     82  F   UNL A   1      48.816  27.538  23.951  1.00  0.00    -0.203 F 
ATOM     83  C   UNL A   1      50.997  26.754  24.362  1.00  0.00     0.198 A 
ATOM     84  C   UNL A   1      51.588  25.949  26.543  1.00  0.00     0.198 A 
ATOM     85  F   UNL A   1      49.977  25.910  28.258  1.00  0.00    -0.203 F 
ATOM     86  F   UNL A   1      51.324  26.999  23.087  1.00  0.00    -0.200 F 
ATOM     87  C   UNL A   1      51.939  26.222  25.230  1.00  0.00     0.200 A 
ATOM     88  F   UNL A   1      52.501  25.456  27.390  1.00  0.00    -0.200 F 
ATOM     89  F   UNL A   1      53.185  25.979  24.801  1.00  0.00    -0.200 F 
ENDBRANCH  55  79
BRANCH  67  90
ATOM     90  C   UNL A   1      46.194  32.371  28.806  1.00  0.00     0.064 A 
ATOM     91  C   UNL A   1      46.713  32.670  30.075  1.00  0.00     0.173 A 
ATOM     92  C   UNL A   1      46.199  33.389  27.839  1.00  0.00     0.173 A 
ATOM     93  F   UNL A   1      46.718  31.736  31.038  1.00  0.00    -0.203 F 
ATOM     94  C   UNL A   1      47.189  33.943  30.372  1.00  0.00     0.198 A 
ATOM     95  C   UNL A   1      46.710  34.651  28.128  1.00  0.00     0.198 A 
ATOM     96  F   UNL A   1      45.724  33.154  26.607  1.00  0.00    -0.203 F 
ATOM     97  F   UNL A   1      47.630  34.220  31.606  1.00  0.00    -0.200 F 
ATOM     98  C   UNL A   1      47.196  34.929  29.396  1.00  0.00     0.200 A 
ATOM     99  F   UNL A   1      46.732  35.597  27.179  1.00  0.00    -0.200 F 
ATOM    100  F   UNL A   1      47.666  36.152  29.681  1.00  0.00    -0.200 F 
ENDBRANCH  67  90
ENDBRANCH  41  42
ENDBRANCH  33  36
ENDBRANCH  31  32
ENDBRANCH  30  31
ENDBRANCH   1  30
TORSDOF 14
ENDMDL
MODEL 3
REMARK VINA RESULT:     -13.3      5.406      9.868
REMARK SMILES Cc1nc(-c2ccccc2Cl)sc1C(=O)NC[C@H]1CC[C@@H](C(=O)NCCCNC(=O)c2ccc(-c3c4nc(c(-c5c(F)c(F)c(F)c(F)c5F)c5ccc([nH]5)c(-c5c(F)c(F)c(F)c(F)c5F)c5nc(c(-c6c(F)c(F)c(F)c(F)c6F)c6ccc3[nH]6)C=C5)C=C4)cc2)CC1
REMARK SMILES IDX 25 1 24 2 22 3 23 4 21 6 18 7 19 8 95 9 20 10 94 11 17 12
REMARK SMILES IDX 16 13 14 14 15 15 13 17 1 18 2 19 3 20 4 21 12 22 5 23 6 24
REMARK SMILES IDX 10 25 7 26 9 27 11 28 8 29 26 30 27 31 28 32 29 33 30 35
REMARK SMILES IDX 31 36 32 37 93 38 33 39 92 40 34 41 35 42 36 43 86 44 37 45
REMARK SMILES IDX 91 46 85 47 87 48 38 49 90 50 84 51 83 52 39 54 71 55 51 56
REMARK SMILES IDX 70 57 52 58 55 59 69 60 88 61 53 62 54 63 68 65 89 66 56 67
REMARK SMILES IDX 40 68 41 69 49 70 42 71 43 72 47 73 50 74 44 75 45 76 48 77
REMARK SMILES IDX 46 78 72 79 73 80 81 81 74 82 75 83 79 84 82 85 76 86 77 87
REMARK SMILES IDX 80 88 78 89 57 90 58 91 66 92 59 93 60 94 64 95 67 96 61 97
REMARK SMILES IDX 62 98 65 99 63 100
REMARK H PARENT 24 5 16 16 28 34 87 53 55 64
REMARK Flexibility Score: inf
ROOT
ATOM      1  C   UNL A   1      37.197  21.026  24.618  1.00  0.00     0.117 C 
ENDROOT
BRANCH   1   2
ATOM      2  N   UNL A   1      35.822  20.608  24.716  1.00  0.00    -0.356 N 
ATOM      3  C   UNL A   1      34.774  21.078  25.434  1.00  0.00     0.223 C 
ATOM      4  O   UNL A   1      33.679  20.575  25.149  1.00  0.00    -0.275 OA
ATOM      5  H   UNL A   1      35.602  19.833  24.151  1.00  0.00     0.163 HD
BRANCH   3   6
ATOM      6  C   UNL A   1      34.842  22.133  26.554  1.00  0.00     0.078 C 
ATOM      7  C   UNL A   1      32.527  24.069  26.926  1.00  0.00     0.008 C 
ATOM      8  C   UNL A   1      32.561  22.707  27.659  1.00  0.00     0.006 C 
ATOM      9  C   UNL A   1      33.675  24.319  25.926  1.00  0.00     0.006 C 
ATOM     10  C   UNL A   1      33.906  21.995  27.749  1.00  0.00     0.014 C 
ATOM     11  C   UNL A   1      34.980  23.576  26.111  1.00  0.00     0.014 C 
BRANCH   7  12
ATOM     12  C   UNL A   1      31.133  24.268  26.245  1.00  0.00     0.119 C 
BRANCH  12  13
ATOM     13  N   UNL A   1      31.000  23.561  25.004  1.00  0.00    -0.351 N 
ATOM     14  C   UNL A   1      30.992  23.910  23.681  1.00  0.00     0.263 C 
ATOM     15  O   UNL A   1      31.101  22.908  22.958  1.00  0.00    -0.268 OA
ATOM     16  H   UNL A   1      30.889  22.591  25.135  1.00  0.00     0.163 HD
BRANCH  14  17
ATOM     17  C   UNL A   1      30.853  25.257  23.121  1.00  0.00     0.115 A 
ATOM     18  C   UNL A   1      32.480  25.917  21.136  1.00  0.00     0.068 C 
ATOM     19  C   UNL A   1      31.411  26.082  22.141  1.00  0.00     0.062 A 
ATOM     20  N   UNL A   1      30.888  27.362  22.069  1.00  0.00    -0.240 NA
ATOM     21  C   UNL A   1      30.019  27.580  23.020  1.00  0.00     0.125 A 
ATOM     22  S   UNL A   1      29.604  26.212  23.927  1.00  0.00    -0.108 S 
BRANCH  21  23
ATOM     23  C   UNL A   1      29.396  28.884  23.204  1.00  0.00     0.029 A 
ATOM     24  C   UNL A   1      28.235  29.151  22.455  1.00  0.00     0.013 A 
ATOM     25  C   UNL A   1      29.969  29.919  23.958  1.00  0.00     0.051 A 
ATOM     26  C   UNL A   1      27.655  30.417  22.460  1.00  0.00     0.001 A 
ATOM     27  C   UNL A   1      29.382  31.188  23.960  1.00  0.00     0.021 A 
ATOM     28  Cl  UNL A   1      31.444  29.732  24.843  1.00  0.00    -0.084 Cl
ATOM     29  C   UNL A   1      28.232  31.437  23.210  1.00  0.00     0.002 A 
ENDBRANCH  21  23
ENDBRANCH  14  17
ENDBRANCH  12  13
ENDBRANCH   7  12
ENDBRANCH   3   6
ENDBRANCH   1   2
BRANCH   1  30
ATOM     30  C   UNL A   1      38.194  19.897  24.834  1.00  0.00     0.042 C 
BRANCH  30  31
ATOM     31  C   UNL A   1      39.036  20.067  26.083  1.00  0.00     0.118 C 
BRANCH  31  32
ATOM     32  N   UNL A   1      40.209  19.196  26.081  1.00  0.00    -0.352 N 
ATOM     33  C   UNL A   1      41.554  19.478  26.141  1.00  0.00     0.251 C 
ATOM     34  H   UNL A   1      40.000  18.236  26.027  1.00  0.00     0.163 HD
ATOM     35  O   UNL A   1      42.361  18.578  25.936  1.00  0.00    -0.269 OA
BRANCH  33  36
ATOM     36  C   UNL A   1      42.037  20.848  26.426  1.00  0.00     0.039 A 
ATOM     37  C   UNL A   1      42.232  21.738  25.365  1.00  0.00     0.014 A 
ATOM     38  C   UNL A   1      42.323  21.259  27.727  1.00  0.00     0.014 A 
ATOM     39  C   UNL A   1      42.644  23.049  25.621  1.00  0.00     0.010 A 
ATOM     40  C   UNL A   1      42.593  22.594  27.993  1.00  0.00     0.010 A 
ATOM     41  C   UNL A   1      42.785  23.500  26.942  1.00  0.00    -0.014 A 
BRANCH  41  42
ATOM     42  C   UNL A   1      43.168  24.900  27.257  1.00  0.00     0.031 A 
ATOM     43  C   UNL A   1      44.577  25.370  26.995  1.00  0.00     0.074 A 
ATOM     44  C   UNL A   1      42.278  25.720  27.847  1.00  0.00     0.049 A 
ATOM     45  N   UNL A   1      45.136  26.519  27.282  1.00  0.00    -0.248 NA
ATOM     46  C   UNL A   1      45.494  24.403  26.368  1.00  0.00     0.031 C 
ATOM     47  C   UNL A   1      40.907  25.362  28.212  1.00  0.00     0.029 A 
ATOM     48  N   UNL A   1      42.398  27.026  28.254  1.00  0.00    -0.354 N 
ATOM     49  C   UNL A   1      46.466  26.398  26.895  1.00  0.00     0.074 A 
ATOM     50  C   UNL A   1      46.650  25.045  26.426  1.00  0.00     0.031 C 
ATOM     51  C   UNL A   1      40.302  26.429  28.756  1.00  0.00     0.029 A 
ATOM     52  C   UNL A   1      41.254  27.534  28.819  1.00  0.00     0.049 A 
ATOM     53  H   UNL A   1      43.227  27.549  28.152  1.00  0.00     0.167 HD
ATOM     54  C   UNL A   1      47.437  27.341  26.899  1.00  0.00     0.037 A 
ATOM     55  C   UNL A   1      41.005  28.752  29.336  1.00  0.00     0.037 A 
ATOM     56  C   UNL A   1      47.234  28.698  27.332  1.00  0.00     0.049 A 
ATOM     57  C   UNL A   1      42.096  29.788  29.317  1.00  0.00     0.074 A 
ATOM     58  C   UNL A   1      48.126  29.755  27.310  1.00  0.00     0.029 A 
ATOM     59  N   UNL A   1      46.050  29.184  27.869  1.00  0.00    -0.354 N 
ATOM     60  N   UNL A   1      43.327  29.688  28.874  1.00  0.00    -0.248 NA
ATOM     61  C   UNL A   1      41.762  31.110  29.863  1.00  0.00     0.031 C 
ATOM     62  C   UNL A   1      47.501  30.865  27.885  1.00  0.00     0.029 A 
ATOM     63  C   UNL A   1      46.197  30.519  28.206  1.00  0.00     0.049 A 
ATOM     64  H   UNL A   1      45.227  28.658  27.992  1.00  0.00     0.167 HD
ATOM     65  C   UNL A   1      43.903  30.937  29.060  1.00  0.00     0.074 A 
ATOM     66  C   UNL A   1      42.881  31.784  29.640  1.00  0.00     0.031 C 
ATOM     67  C   UNL A   1      45.164  31.347  28.776  1.00  0.00     0.037 A 
BRANCH  54  68
ATOM     68  C   UNL A   1      48.802  26.939  26.414  1.00  0.00     0.064 A 
ATOM     69  C   UNL A   1      49.769  26.405  27.282  1.00  0.00     0.173 A 
ATOM     70  C   UNL A   1      49.142  27.069  25.059  1.00  0.00     0.173 A 
ATOM     71  F   UNL A   1      49.503  26.270  28.589  1.00  0.00    -0.203 F 
ATOM     72  C   UNL A   1      51.035  26.055  26.819  1.00  0.00     0.198 A 
ATOM     73  C   UNL A   1      50.397  26.682  24.593  1.00  0.00     0.198 A 
ATOM     74  F   UNL A   1      48.257  27.568  24.183  1.00  0.00    -0.203 F 
ATOM     75  F   UNL A   1      51.961  25.609  27.679  1.00  0.00    -0.200 F 
ATOM     76  C   UNL A   1      51.346  26.187  25.474  1.00  0.00     0.200 A 
ATOM     77  F   UNL A   1      50.690  26.798  23.290  1.00  0.00    -0.200 F 
ATOM     78  F   UNL A   1      52.562  25.845  25.029  1.00  0.00    -0.200 F 
ENDBRANCH  54  68
BRANCH  55  79
ATOM     79  C   UNL A   1      39.656  29.067  29.878  1.00  0.00     0.064 A 
ATOM     80  C   UNL A   1      38.644  29.565  29.046  1.00  0.00     0.173 A 
ATOM     81  C   UNL A   1      39.348  28.872  31.232  1.00  0.00     0.173 A 
ATOM     82  F   UNL A   1      38.893  29.784  27.746  1.00  0.00    -0.203 F 
ATOM     83  C   UNL A   1      37.383  29.874  29.550  1.00  0.00     0.198 A 
ATOM     84  C   UNL A   1      38.076  29.151  31.729  1.00  0.00     0.198 A 
ATOM     85  F   UNL A   1      40.276  28.388  32.070  1.00  0.00    -0.203 F 
ATOM     86  F   UNL A   1      36.447  30.386  28.739  1.00  0.00    -0.200 F 
ATOM     87  C   UNL A   1      37.098  29.660  30.890  1.00  0.00     0.200 A 
ATOM     88  F   UNL A   1      37.797  28.924  33.019  1.00  0.00    -0.200 F 
ATOM     89  F   UNL A   1      35.878  29.940  31.369  1.00  0.00    -0.200 F 
ENDBRANCH  55  79
BRANCH  67  90
ATOM     90  C   UNL A   1      45.500  32.784  29.054  1.00  0.00     0.064 A 
ATOM     91  C   UNL A   1      45.995  33.202  30.298  1.00  0.00     0.173 A 
ATOM     92  C   UNL A   1      45.366  33.749  28.043  1.00  0.00     0.173 A 
ATOM     93  F   UNL A   1      46.128  32.321  31.301  1.00  0.00    -0.203 F 
ATOM     94  C   UNL A   1      46.315  34.536  30.529  1.00  0.00     0.198 A 
ATOM     95  C   UNL A   1      45.722  35.076  28.266  1.00  0.00     0.198 A 
ATOM     96  F   UNL A   1      44.907  33.401  26.831  1.00  0.00    -0.203 F 
ATOM     97  F   UNL A   1      46.736  34.922  31.741  1.00  0.00    -0.200 F 
ATOM     98  C   UNL A   1      46.187  35.470  29.510  1.00  0.00     0.200 A 
ATOM     99  F   UNL A   1      45.615  35.972  27.275  1.00  0.00    -0.200 F 
ATOM    100  F   UNL A   1      46.507  36.752  29.732  1.00  0.00    -0.200 F 
ENDBRANCH  67  90
ENDBRANCH  41  42
ENDBRANCH  33  36
ENDBRANCH  31  32
ENDBRANCH  30  31
ENDBRANCH   1  30
TORSDOF 14
ENDMDL
