MODEL 1
REMARK VINA RESULT:     -12.3      0.000      0.000
REMARK SMILES O=C(CN(CC(F)(F)F)S(=O)(=O)c1cccc(F)c1)NCCCNC(=O)c1ccc(-c2c3nc(c(-c4c(F)c(F)c(F)c(F)c4F)c4ccc([nH]4)c(-c4c(F)c(F)c(F)c(F)c4F)c4nc(c(-c5c(F)c(F)c(F)c(F)c5F)c5ccc2[nH]5)C=C4)C=C3)cc1
REMARK SMILES IDX 21 1 20 2 1 3 2 4 3 6 4 7 5 8 6 9 7 10 8 11 9 12 10 13 11 14
REMARK SMILES IDX 12 15 13 16 14 17 19 18 15 19 17 20 16 21 18 22 22 23 23 24
REMARK SMILES IDX 24 25 25 26 26 28 27 29 28 30 89 31 29 32 88 33 30 34 31 35
REMARK SMILES IDX 32 36 82 37 33 38 87 39 81 40 83 41 34 42 86 43 80 44 79 45
REMARK SMILES IDX 35 47 67 48 47 49 66 50 48 51 51 52 65 53 84 54 49 55 50 56
REMARK SMILES IDX 64 58 85 59 52 60 36 61 37 62 45 63 38 64 39 65 43 66 46 67
REMARK SMILES IDX 40 68 41 69 44 70 42 71 68 72 69 73 77 74 70 75 71 76 75 77
REMARK SMILES IDX 78 78 72 79 73 80 76 81 74 82 53 83 54 84 62 85 55 86 56 87
REMARK SMILES IDX 60 88 63 89 57 90 58 91 61 92 59 93
REMARK H PARENT 20 5 24 27 83 46 51 57
REMARK Flexibility Score: inf
ROOT
ATOM      1  C   UNL A   1      31.644  30.522  26.588  1.00  0.00     0.117 C 
ENDROOT
BRANCH   1   2
ATOM      2  N   UNL A   1      31.653  30.077  25.209  1.00  0.00    -0.355 N 
ATOM      3  O   UNL A   1      33.703  29.057  25.325  1.00  0.00    -0.274 OA
ATOM      4  C   UNL A   1      32.651  29.261  24.724  1.00  0.00     0.235 C 
ATOM      5  H   UNL A   1      30.929  30.362  24.606  1.00  0.00     0.163 HD
BRANCH   4   6
ATOM      6  C   UNL A   1      32.410  28.717  23.326  1.00  0.00     0.202 C 
BRANCH   6   7
ATOM      7  N   UNL A   1      31.907  27.295  23.219  1.00  0.00    -0.179 NA
BRANCH   7   8
ATOM      8  C   UNL A   1      30.383  27.285  23.097  1.00  0.00     0.218 C 
BRANCH   8   9
ATOM      9  C   UNL A   1      29.574  26.271  23.922  1.00  0.00     0.402 C 
ATOM     10  F   UNL A   1      28.246  26.405  23.742  1.00  0.00    -0.170 F 
ATOM     11  F   UNL A   1      29.896  25.015  23.521  1.00  0.00    -0.170 F 
ATOM     12  F   UNL A   1      29.853  26.345  25.237  1.00  0.00    -0.170 F 
ENDBRANCH   8   9
ENDBRANCH   7   8
BRANCH   7  13
ATOM     13  S   UNL A   1      32.759  26.392  22.024  1.00  0.00     0.243 S 
ATOM     14  O   UNL A   1      31.788  25.940  21.061  1.00  0.00    -0.207 OA
ATOM     15  O   UNL A   1      33.915  27.166  21.624  1.00  0.00    -0.207 OA
BRANCH  13  16
ATOM     16  C   UNL A   1      33.394  24.993  22.911  1.00  0.00     0.085 A 
ATOM     17  C   UNL A   1      33.111  23.696  22.467  1.00  0.00     0.022 A 
ATOM     18  C   UNL A   1      34.218  25.205  24.019  1.00  0.00     0.061 A 
ATOM     19  C   UNL A   1      33.646  22.602  23.149  1.00  0.00     0.004 A 
ATOM     20  C   UNL A   1      34.741  24.104  24.684  1.00  0.00     0.124 A 
ATOM     21  C   UNL A   1      34.463  22.807  24.261  1.00  0.00     0.039 A 
ATOM     22  F   UNL A   1      35.528  24.293  25.750  1.00  0.00    -0.207 F 
ENDBRANCH  13  16
ENDBRANCH   7  13
ENDBRANCH   6   7
ENDBRANCH   4   6
ENDBRANCH   1   2
BRANCH   1  23
ATOM     23  C   UNL A   1      31.454  32.026  26.737  1.00  0.00     0.042 C 
BRANCH  23  24
ATOM     24  C   UNL A   1      32.700  32.777  27.197  1.00  0.00     0.118 C 
BRANCH  24  25
ATOM     25  N   UNL A   1      32.428  34.148  27.612  1.00  0.00    -0.352 N 
ATOM     26  C   UNL A   1      33.021  34.932  28.569  1.00  0.00     0.251 C 
ATOM     27  H   UNL A   1      31.693  34.584  27.124  1.00  0.00     0.163 HD
ATOM     28  O   UNL A   1      32.539  36.030  28.835  1.00  0.00    -0.269 OA
BRANCH  26  29
ATOM     29  C   UNL A   1      34.218  34.468  29.305  1.00  0.00     0.039 A 
ATOM     30  C   UNL A   1      34.041  33.893  30.568  1.00  0.00     0.014 A 
ATOM     31  C   UNL A   1      35.504  34.617  28.783  1.00  0.00     0.014 A 
ATOM     32  C   UNL A   1      35.141  33.390  31.267  1.00  0.00     0.010 A 
ATOM     33  C   UNL A   1      36.595  34.063  29.454  1.00  0.00     0.010 A 
ATOM     34  C   UNL A   1      36.421  33.430  30.694  1.00  0.00    -0.014 A 
BRANCH  34  35
ATOM     35  C   UNL A   1      37.580  32.776  31.351  1.00  0.00     0.031 A 
ATOM     36  C   UNL A   1      38.291  31.632  30.688  1.00  0.00     0.074 A 
ATOM     37  C   UNL A   1      37.945  33.168  32.587  1.00  0.00     0.049 A 
ATOM     38  N   UNL A   1      39.247  30.869  31.157  1.00  0.00    -0.248 NA
ATOM     39  C   UNL A   1      37.863  31.288  29.324  1.00  0.00     0.031 C 
ATOM     40  C   UNL A   1      37.318  34.249  33.348  1.00  0.00     0.029 A 
ATOM     41  N   UNL A   1      38.923  32.694  33.428  1.00  0.00    -0.354 N 
ATOM     42  C   UNL A   1      39.523  29.950  30.155  1.00  0.00     0.074 A 
ATOM     43  C   UNL A   1      38.614  30.226  29.063  1.00  0.00     0.031 C 
ATOM     44  C   UNL A   1      37.935  34.367  34.534  1.00  0.00     0.029 A 
ATOM     45  C   UNL A   1      38.971  33.344  34.636  1.00  0.00     0.049 A 
ATOM     46  H   UNL A   1      39.531  31.959  33.186  1.00  0.00     0.167 HD
ATOM     47  C   UNL A   1      40.463  28.975  30.144  1.00  0.00     0.037 A 
ATOM     48  C   UNL A   1      39.751  33.132  35.714  1.00  0.00     0.037 A 
ATOM     49  C   UNL A   1      41.386  28.720  31.218  1.00  0.00     0.049 A 
ATOM     50  C   UNL A   1      40.768  32.026  35.685  1.00  0.00     0.074 A 
ATOM     51  C   UNL A   1      42.410  27.790  31.269  1.00  0.00     0.029 A 
ATOM     52  N   UNL A   1      41.399  29.396  32.428  1.00  0.00    -0.354 N 
ATOM     53  N   UNL A   1      41.043  31.185  34.718  1.00  0.00    -0.248 NA
ATOM     54  C   UNL A   1      41.578  31.833  36.896  1.00  0.00     0.031 C 
ATOM     55  C   UNL A   1      43.019  27.877  32.525  1.00  0.00     0.029 A 
ATOM     56  C   UNL A   1      42.400  28.889  33.241  1.00  0.00     0.049 A 
ATOM     57  H   UNL A   1      40.788  30.129  32.673  1.00  0.00     0.167 HD
ATOM     58  C   UNL A   1      42.067  30.379  35.194  1.00  0.00     0.074 A 
ATOM     59  C   UNL A   1      42.372  30.834  36.534  1.00  0.00     0.031 C 
ATOM     60  C   UNL A   1      42.696  29.353  34.572  1.00  0.00     0.037 A 
BRANCH  47  61
ATOM     61  C   UNL A   1      40.555  28.107  28.925  1.00  0.00     0.064 A 
ATOM     62  C   UNL A   1      41.325  28.507  27.824  1.00  0.00     0.173 A 
ATOM     63  C   UNL A   1      39.818  26.919  28.817  1.00  0.00     0.173 A 
ATOM     64  F   UNL A   1      42.043  29.639  27.875  1.00  0.00    -0.203 F 
ATOM     65  C   UNL A   1      41.345  27.753  26.653  1.00  0.00     0.198 A 
ATOM     66  C   UNL A   1      39.859  26.155  27.654  1.00  0.00     0.198 A 
ATOM     67  F   UNL A   1      39.073  26.492  29.848  1.00  0.00    -0.203 F 
ATOM     68  F   UNL A   1      42.067  28.168  25.602  1.00  0.00    -0.200 F 
ATOM     69  C   UNL A   1      40.614  26.578  26.570  1.00  0.00     0.200 A 
ATOM     70  F   UNL A   1      39.168  25.009  27.582  1.00  0.00    -0.200 F 
ATOM     71  F   UNL A   1      40.640  25.849  25.445  1.00  0.00    -0.200 F 
ENDBRANCH  47  61
BRANCH  48  72
ATOM     72  C   UNL A   1      39.605  34.005  36.905  1.00  0.00     0.064 A 
ATOM     73  C   UNL A   1      40.283  35.229  37.003  1.00  0.00     0.173 A 
ATOM     74  C   UNL A   1      38.808  33.609  37.987  1.00  0.00     0.173 A 
ATOM     75  F   UNL A   1      41.061  35.648  35.994  1.00  0.00    -0.203 F 
ATOM     76  C   UNL A   1      40.183  36.015  38.148  1.00  0.00     0.198 A 
ATOM     77  C   UNL A   1      38.691  34.407  39.122  1.00  0.00     0.198 A 
ATOM     78  F   UNL A   1      38.125  32.457  37.928  1.00  0.00    -0.203 F 
ATOM     79  F   UNL A   1      40.865  37.166  38.229  1.00  0.00    -0.200 F 
ATOM     80  C   UNL A   1      39.385  35.606  39.206  1.00  0.00     0.200 A 
ATOM     81  F   UNL A   1      37.902  34.019  40.133  1.00  0.00    -0.200 F 
ATOM     82  F   UNL A   1      39.283  36.367  40.303  1.00  0.00    -0.200 F 
ENDBRANCH  48  72
BRANCH  60  83
ATOM     83  C   UNL A   1      43.792  28.654  35.316  1.00  0.00     0.064 A 
ATOM     84  C   UNL A   1      45.132  29.024  35.122  1.00  0.00     0.173 A 
ATOM     85  C   UNL A   1      43.524  27.561  36.151  1.00  0.00     0.173 A 
ATOM     86  F   UNL A   1      45.438  30.061  34.327  1.00  0.00    -0.203 F 
ATOM     87  C   UNL A   1      46.165  28.312  35.723  1.00  0.00     0.198 A 
ATOM     88  C   UNL A   1      44.559  26.864  36.769  1.00  0.00     0.198 A 
ATOM     89  F   UNL A   1      42.259  27.178  36.377  1.00  0.00    -0.203 F 
ATOM     90  F   UNL A   1      47.439  28.661  35.497  1.00  0.00    -0.200 F 
ATOM     91  C   UNL A   1      45.878  27.233  36.545  1.00  0.00     0.200 A 
ATOM     92  F   UNL A   1      44.282  25.832  37.578  1.00  0.00    -0.200 F 
ATOM     93  F   UNL A   1      46.874  26.548  37.125  1.00  0.00    -0.200 F 
ENDBRANCH  60  83
ENDBRANCH  34  35
ENDBRANCH  26  29
ENDBRANCH  24  25
ENDBRANCH  23  24
ENDBRANCH   1  23
TORSDOF 15
ENDMDL
MODEL 2
REMARK VINA RESULT:     -12.2      0.163      1.999
REMARK SMILES O=C(CN(CC(F)(F)F)S(=O)(=O)c1cccc(F)c1)NCCCNC(=O)c1ccc(-c2c3nc(c(-c4c(F)c(F)c(F)c(F)c4F)c4ccc([nH]4)c(-c4c(F)c(F)c(F)c(F)c4F)c4nc(c(-c5c(F)c(F)c(F)c(F)c5F)c5ccc2[nH]5)C=C4)C=C3)cc1
REMARK SMILES IDX 21 1 20 2 1 3 2 4 3 6 4 7 5 8 6 9 7 10 8 11 9 12 10 13 11 14
REMARK SMILES IDX 12 15 13 16 14 17 19 18 15 19 17 20 16 21 18 22 22 23 23 24
REMARK SMILES IDX 24 25 25 26 26 28 27 29 28 30 89 31 29 32 88 33 30 34 31 35
REMARK SMILES IDX 32 36 82 37 33 38 87 39 81 40 83 41 34 42 86 43 80 44 79 45
REMARK SMILES IDX 35 47 67 48 47 49 66 50 48 51 51 52 65 53 84 54 49 55 50 56
REMARK SMILES IDX 64 58 85 59 52 60 36 61 37 62 45 63 38 64 39 65 43 66 46 67
REMARK SMILES IDX 40 68 41 69 44 70 42 71 68 72 69 73 77 74 70 75 71 76 75 77
REMARK SMILES IDX 78 78 72 79 73 80 76 81 74 82 53 83 54 84 62 85 55 86 56 87
REMARK SMILES IDX 60 88 63 89 57 90 58 91 61 92 59 93
REMARK H PARENT 20 5 24 27 83 46 51 57
REMARK Flexibility Score: inf
ROOT
ATOM      1  C   UNL A   1      31.433  30.683  26.441  1.00  0.00     0.117 C 
ENDROOT
BRANCH   1   2
ATOM      2  N   UNL A   1      31.493  30.182  25.083  1.00  0.00    -0.355 N 
ATOM      3  O   UNL A   1      33.568  29.231  25.296  1.00  0.00    -0.274 OA
ATOM      4  C   UNL A   1      32.528  29.377  24.659  1.00  0.00     0.235 C 
ATOM      5  H   UNL A   1      30.778  30.420  24.449  1.00  0.00     0.163 HD
BRANCH   4   6
ATOM      6  C   UNL A   1      32.342  28.770  23.279  1.00  0.00     0.202 C 
BRANCH   6   7
ATOM      7  N   UNL A   1      31.864  27.336  23.219  1.00  0.00    -0.179 NA
BRANCH   7   8
ATOM      8  C   UNL A   1      30.338  27.296  23.125  1.00  0.00     0.218 C 
BRANCH   8   9
ATOM      9  C   UNL A   1      29.571  26.206  23.890  1.00  0.00     0.402 C 
ATOM     10  F   UNL A   1      29.852  26.207  25.207  1.00  0.00    -0.170 F 
ATOM     11  F   UNL A   1      28.239  26.439  23.777  1.00  0.00    -0.170 F 
ATOM     12  F   UNL A   1      29.797  24.976  23.390  1.00  0.00    -0.170 F 
ENDBRANCH   8   9
ENDBRANCH   7   8
BRANCH   7  13
ATOM     13  S   UNL A   1      32.710  26.418  22.032  1.00  0.00     0.243 S 
ATOM     14  O   UNL A   1      31.740  25.981  21.061  1.00  0.00    -0.207 OA
ATOM     15  O   UNL A   1      33.882  27.172  21.640  1.00  0.00    -0.207 OA
BRANCH  13  16
ATOM     16  C   UNL A   1      33.315  25.010  22.926  1.00  0.00     0.085 A 
ATOM     17  C   UNL A   1      32.960  23.719  22.520  1.00  0.00     0.022 A 
ATOM     18  C   UNL A   1      34.188  25.208  23.999  1.00  0.00     0.061 A 
ATOM     19  C   UNL A   1      33.471  22.615  23.206  1.00  0.00     0.004 A 
ATOM     20  C   UNL A   1      34.685  24.098  24.669  1.00  0.00     0.124 A 
ATOM     21  C   UNL A   1      34.335  22.806  24.284  1.00  0.00     0.039 A 
ATOM     22  F   UNL A   1      35.517  24.273  25.702  1.00  0.00    -0.207 F 
ENDBRANCH  13  16
ENDBRANCH   7  13
ENDBRANCH   6   7
ENDBRANCH   4   6
ENDBRANCH   1   2
BRANCH   1  23
ATOM     23  C   UNL A   1      31.385  32.203  26.524  1.00  0.00     0.042 C 
BRANCH  23  24
ATOM     24  C   UNL A   1      32.577  32.834  27.237  1.00  0.00     0.118 C 
BRANCH  24  25
ATOM     25  N   UNL A   1      32.338  34.210  27.655  1.00  0.00    -0.352 N 
ATOM     26  C   UNL A   1      32.967  34.987  28.595  1.00  0.00     0.251 C 
ATOM     27  H   UNL A   1      31.599  34.658  27.183  1.00  0.00     0.163 HD
ATOM     28  O   UNL A   1      32.510  36.093  28.869  1.00  0.00    -0.269 OA
BRANCH  26  29
ATOM     29  C   UNL A   1      34.173  34.504  29.303  1.00  0.00     0.039 A 
ATOM     30  C   UNL A   1      34.016  33.936  30.572  1.00  0.00     0.014 A 
ATOM     31  C   UNL A   1      35.449  34.629  28.750  1.00  0.00     0.014 A 
ATOM     32  C   UNL A   1      35.124  33.416  31.246  1.00  0.00     0.010 A 
ATOM     33  C   UNL A   1      36.546  34.058  29.396  1.00  0.00     0.010 A 
ATOM     34  C   UNL A   1      36.391  33.432  30.643  1.00  0.00    -0.014 A 
BRANCH  34  35
ATOM     35  C   UNL A   1      37.554  32.760  31.274  1.00  0.00     0.031 A 
ATOM     36  C   UNL A   1      38.244  31.617  30.587  1.00  0.00     0.074 A 
ATOM     37  C   UNL A   1      37.942  33.134  32.509  1.00  0.00     0.049 A 
ATOM     38  N   UNL A   1      39.199  30.840  31.032  1.00  0.00    -0.248 NA
ATOM     39  C   UNL A   1      37.790  31.293  29.226  1.00  0.00     0.031 C 
ATOM     40  C   UNL A   1      37.336  34.212  33.291  1.00  0.00     0.029 A 
ATOM     41  N   UNL A   1      38.928  32.642  33.328  1.00  0.00    -0.354 N 
ATOM     42  C   UNL A   1      39.452  29.930  30.016  1.00  0.00     0.074 A 
ATOM     43  C   UNL A   1      38.527  30.227  28.942  1.00  0.00     0.031 C 
ATOM     44  C   UNL A   1      37.973  34.311  34.469  1.00  0.00     0.029 A 
ATOM     45  C   UNL A   1      39.001  33.278  34.543  1.00  0.00     0.049 A 
ATOM     46  H   UNL A   1      39.526  31.903  33.069  1.00  0.00     0.167 HD
ATOM     47  C   UNL A   1      40.382  28.947  29.979  1.00  0.00     0.037 A 
ATOM     48  C   UNL A   1      39.796  33.046  35.606  1.00  0.00     0.037 A 
ATOM     49  C   UNL A   1      41.319  28.670  31.035  1.00  0.00     0.049 A 
ATOM     50  C   UNL A   1      40.802  31.931  35.548  1.00  0.00     0.074 A 
ATOM     51  C   UNL A   1      42.334  27.731  31.060  1.00  0.00     0.029 A 
ATOM     52  N   UNL A   1      41.357  29.333  32.252  1.00  0.00    -0.354 N 
ATOM     53  N   UNL A   1      41.054  31.099  34.567  1.00  0.00    -0.248 NA
ATOM     54  C   UNL A   1      41.629  31.717  36.744  1.00  0.00     0.031 C 
ATOM     55  C   UNL A   1      42.964  27.798  32.307  1.00  0.00     0.029 A 
ATOM     56  C   UNL A   1      42.366  28.807  33.044  1.00  0.00     0.049 A 
ATOM     57  H   UNL A   1      40.757  30.068  32.515  1.00  0.00     0.167 HD
ATOM     58  C   UNL A   1      42.077  30.278  35.018  1.00  0.00     0.074 A 
ATOM     59  C   UNL A   1      42.407  30.714  36.359  1.00  0.00     0.031 C 
ATOM     60  C   UNL A   1      42.687  29.254  34.375  1.00  0.00     0.037 A 
BRANCH  47  61
ATOM     61  C   UNL A   1      40.447  28.092  28.749  1.00  0.00     0.064 A 
ATOM     62  C   UNL A   1      39.781  26.859  28.703  1.00  0.00     0.173 A 
ATOM     63  C   UNL A   1      41.233  28.458  27.646  1.00  0.00     0.173 A 
ATOM     64  F   UNL A   1      39.022  26.460  29.735  1.00  0.00    -0.203 F 
ATOM     65  C   UNL A   1      39.909  26.017  27.601  1.00  0.00     0.198 A 
ATOM     66  C   UNL A   1      41.340  27.625  26.536  1.00  0.00     0.198 A 
ATOM     67  F   UNL A   1      41.882  29.632  27.641  1.00  0.00    -0.203 F 
ATOM     68  F   UNL A   1      39.285  24.830  27.590  1.00  0.00    -0.200 F 
ATOM     69  C   UNL A   1      40.686  26.401  26.519  1.00  0.00     0.200 A 
ATOM     70  F   UNL A   1      42.074  28.007  25.482  1.00  0.00    -0.200 F 
ATOM     71  F   UNL A   1      40.802  25.593  25.455  1.00  0.00    -0.200 F 
ENDBRANCH  47  61
BRANCH  48  72
ATOM     72  C   UNL A   1      39.677  33.906  36.809  1.00  0.00     0.064 A 
ATOM     73  C   UNL A   1      38.860  33.544  37.890  1.00  0.00     0.173 A 
ATOM     74  C   UNL A   1      40.356  35.130  36.882  1.00  0.00     0.173 A 
ATOM     75  F   UNL A   1      38.188  32.383  37.864  1.00  0.00    -0.203 F 
ATOM     76  C   UNL A   1      38.712  34.384  38.991  1.00  0.00     0.198 A 
ATOM     77  C   UNL A   1      40.224  35.959  37.994  1.00  0.00     0.198 A 
ATOM     78  F   UNL A   1      41.164  35.506  35.881  1.00  0.00    -0.203 F 
ATOM     79  F   UNL A   1      37.902  34.029  39.998  1.00  0.00    -0.200 F 
ATOM     80  C   UNL A   1      39.396  35.589  39.043  1.00  0.00     0.200 A 
ATOM     81  F   UNL A   1      40.904  37.112  38.050  1.00  0.00    -0.200 F 
ATOM     82  F   UNL A   1      39.260  36.392  40.106  1.00  0.00    -0.200 F 
ENDBRANCH  48  72
BRANCH  60  83
ATOM     83  C   UNL A   1      43.788  28.535  35.094  1.00  0.00     0.064 A 
ATOM     84  C   UNL A   1      43.494  27.492  35.985  1.00  0.00     0.173 A 
ATOM     85  C   UNL A   1      45.125  28.937  34.966  1.00  0.00     0.173 A 
ATOM     86  F   UNL A   1      42.228  27.076  36.144  1.00  0.00    -0.203 F 
ATOM     87  C   UNL A   1      44.497  26.891  36.738  1.00  0.00     0.198 A 
ATOM     88  C   UNL A   1      46.129  28.319  35.706  1.00  0.00     0.198 A 
ATOM     89  F   UNL A   1      45.456  29.921  34.117  1.00  0.00    -0.203 F 
ATOM     90  F   UNL A   1      44.190  25.920  37.609  1.00  0.00    -0.200 F 
ATOM     91  C   UNL A   1      45.814  27.305  36.598  1.00  0.00     0.200 A 
ATOM     92  F   UNL A   1      47.404  28.706  35.558  1.00  0.00    -0.200 F 
ATOM     93  F   UNL A   1      46.780  26.724  37.324  1.00  0.00    -0.200 F 
ENDBRANCH  60  83
ENDBRANCH  34  35
ENDBRANCH  26  29
ENDBRANCH  24  25
ENDBRANCH  23  24
ENDBRANCH   1  23
TORSDOF 15
ENDMDL
MODEL 3
REMARK VINA RESULT:     -12.1      6.200     11.251
REMARK SMILES O=C(CN(CC(F)(F)F)S(=O)(=O)c1cccc(F)c1)NCCCNC(=O)c1ccc(-c2c3nc(c(-c4c(F)c(F)c(F)c(F)c4F)c4ccc([nH]4)c(-c4c(F)c(F)c(F)c(F)c4F)c4nc(c(-c5c(F)c(F)c(F)c(F)c5F)c5ccc2[nH]5)C=C4)C=C3)cc1
REMARK SMILES IDX 21 1 20 2 1 3 2 4 3 6 4 7 5 8 6 9 7 10 8 11 9 12 10 13 11 14
REMARK SMILES IDX 12 15 13 16 14 17 19 18 15 19 17 20 16 21 18 22 22 23 23 24
REMARK SMILES IDX 24 25 25 26 26 28 27 29 28 30 89 31 29 32 88 33 30 34 31 35
REMARK SMILES IDX 32 36 82 37 33 38 87 39 81 40 83 41 34 42 86 43 80 44 79 45
REMARK SMILES IDX 35 47 67 48 47 49 66 50 48 51 51 52 65 53 84 54 49 55 50 56
REMARK SMILES IDX 64 58 85 59 52 60 36 61 37 62 45 63 38 64 39 65 43 66 46 67
REMARK SMILES IDX 40 68 41 69 44 70 42 71 68 72 69 73 77 74 70 75 71 76 75 77
REMARK SMILES IDX 78 78 72 79 73 80 76 81 74 82 53 83 54 84 62 85 55 86 56 87
REMARK SMILES IDX 60 88 63 89 57 90 58 91 61 92 59 93
REMARK H PARENT 20 5 24 27 83 46 51 57
REMARK Flexibility Score: inf
ROOT
ATOM      1  C   UNL A   1      37.768  21.166  24.231  1.00  0.00     0.117 C 
ENDROOT
BRANCH   1   2
ATOM      2  N   UNL A   1      36.442  21.691  24.485  1.00  0.00    -0.355 N 
ATOM      3  O   UNL A   1      36.459  23.177  22.739  1.00  0.00    -0.274 OA
ATOM      4  C   UNL A   1      35.845  22.584  23.623  1.00  0.00     0.235 C 
ATOM      5  H   UNL A   1      35.955  21.401  25.291  1.00  0.00     0.163 HD
BRANCH   4   6
ATOM      6  C   UNL A   1      34.384  22.878  23.918  1.00  0.00     0.202 C 
BRANCH   6   7
ATOM      7  N   UNL A   1      33.708  22.021  24.964  1.00  0.00    -0.179 NA
BRANCH   7   8
ATOM      8  C   UNL A   1      33.426  22.850  26.218  1.00  0.00     0.218 C 
BRANCH   8   9
ATOM      9  C   UNL A   1      33.748  22.252  27.597  1.00  0.00     0.402 C 
ATOM     10  F   UNL A   1      34.494  23.079  28.354  1.00  0.00    -0.170 F 
ATOM     11  F   UNL A   1      32.590  22.046  28.273  1.00  0.00    -0.170 F 
ATOM     12  F   UNL A   1      34.365  21.058  27.504  1.00  0.00    -0.170 F 
ENDBRANCH   8   9
ENDBRANCH   7   8
BRANCH   7  13
ATOM     13  S   UNL A   1      32.365  21.151  24.325  1.00  0.00     0.243 S 
ATOM     14  O   UNL A   1      31.373  21.075  25.366  1.00  0.00    -0.207 OA
ATOM     15  O   UNL A   1      32.054  21.709  23.026  1.00  0.00    -0.207 OA
BRANCH  13  16
ATOM     16  C   UNL A   1      33.011  19.528  24.015  1.00  0.00     0.085 A 
ATOM     17  C   UNL A   1      32.340  18.664  23.142  1.00  0.00     0.022 A 
ATOM     18  C   UNL A   1      34.217  19.149  24.609  1.00  0.00     0.061 A 
ATOM     19  C   UNL A   1      32.875  17.403  22.874  1.00  0.00     0.004 A 
ATOM     20  C   UNL A   1      34.733  17.891  24.331  1.00  0.00     0.124 A 
ATOM     21  C   UNL A   1      34.074  17.015  23.472  1.00  0.00     0.039 A 
ATOM     22  F   UNL A   1      35.884  17.513  24.898  1.00  0.00    -0.207 F 
ENDBRANCH  13  16
ENDBRANCH   7  13
ENDBRANCH   6   7
ENDBRANCH   4   6
ENDBRANCH   1   2
BRANCH   1  23
ATOM     23  C   UNL A   1      38.069  19.884  24.996  1.00  0.00     0.042 C 
BRANCH  23  24
ATOM     24  C   UNL A   1      39.126  20.032  26.087  1.00  0.00     0.118 C 
BRANCH  24  25
ATOM     25  N   UNL A   1      40.203  19.057  25.984  1.00  0.00    -0.352 N 
ATOM     26  C   UNL A   1      41.565  19.209  26.063  1.00  0.00     0.251 C 
ATOM     27  H   UNL A   1      39.904  18.132  25.830  1.00  0.00     0.163 HD
ATOM     28  O   UNL A   1      42.296  18.252  25.819  1.00  0.00    -0.269 OA
BRANCH  26  29
ATOM     29  C   UNL A   1      42.170  20.514  26.411  1.00  0.00     0.039 A 
ATOM     30  C   UNL A   1      42.670  21.312  25.377  1.00  0.00     0.014 A 
ATOM     31  C   UNL A   1      42.276  20.943  27.735  1.00  0.00     0.014 A 
ATOM     32  C   UNL A   1      43.195  22.575  25.661  1.00  0.00     0.010 A 
ATOM     33  C   UNL A   1      42.747  22.227  28.014  1.00  0.00     0.010 A 
ATOM     34  C   UNL A   1      43.195  23.061  26.978  1.00  0.00    -0.014 A 
BRANCH  34  35
ATOM     35  C   UNL A   1      43.613  24.451  27.287  1.00  0.00     0.031 A 
ATOM     36  C   UNL A   1      42.620  25.455  27.795  1.00  0.00     0.074 A 
ATOM     37  C   UNL A   1      44.882  24.829  27.035  1.00  0.00     0.049 A 
ATOM     38  N   UNL A   1      42.778  26.737  28.011  1.00  0.00    -0.248 NA
ATOM     39  C   UNL A   1      41.266  24.959  28.083  1.00  0.00     0.031 C 
ATOM     40  C   UNL A   1      45.935  23.954  26.517  1.00  0.00     0.029 A 
ATOM     41  N   UNL A   1      45.499  26.049  27.168  1.00  0.00    -0.354 N 
ATOM     42  C   UNL A   1      41.544  27.202  28.446  1.00  0.00     0.074 A 
ATOM     43  C   UNL A   1      40.638  26.073  28.432  1.00  0.00     0.031 C 
ATOM     44  C   UNL A   1      47.070  24.660  26.392  1.00  0.00     0.029 A 
ATOM     45  C   UNL A   1      46.815  26.045  26.778  1.00  0.00     0.049 A 
ATOM     46  H   UNL A   1      45.040  26.850  27.511  1.00  0.00     0.167 HD
ATOM     47  C   UNL A   1      41.207  28.454  28.835  1.00  0.00     0.037 A 
ATOM     48  C   UNL A   1      47.715  27.046  26.721  1.00  0.00     0.037 A 
ATOM     49  C   UNL A   1      42.116  29.568  28.876  1.00  0.00     0.049 A 
ATOM     50  C   UNL A   1      47.306  28.432  27.135  1.00  0.00     0.074 A 
ATOM     51  C   UNL A   1      41.875  30.859  29.312  1.00  0.00     0.029 A 
ATOM     52  N   UNL A   1      43.440  29.525  28.467  1.00  0.00    -0.354 N 
ATOM     53  N   UNL A   1      46.146  28.851  27.577  1.00  0.00    -0.248 NA
ATOM     54  C   UNL A   1      48.327  29.485  27.037  1.00  0.00     0.031 C 
ATOM     55  C   UNL A   1      43.043  31.608  29.132  1.00  0.00     0.029 A 
ATOM     56  C   UNL A   1      44.022  30.773  28.621  1.00  0.00     0.049 A 
ATOM     57  H   UNL A   1      43.898  28.725  28.119  1.00  0.00     0.167 HD
ATOM     58  C   UNL A   1      46.301  30.207  27.827  1.00  0.00     0.074 A 
ATOM     59  C   UNL A   1      47.670  30.542  27.495  1.00  0.00     0.031 C 
ATOM     60  C   UNL A   1      45.387  31.092  28.290  1.00  0.00     0.037 A 
BRANCH  47  61
ATOM     61  C   UNL A   1      39.790  28.694  29.264  1.00  0.00     0.064 A 
ATOM     62  C   UNL A   1      38.838  29.159  28.346  1.00  0.00     0.173 A 
ATOM     63  C   UNL A   1      39.396  28.541  30.601  1.00  0.00     0.173 A 
ATOM     64  F   UNL A   1      39.167  29.329  27.056  1.00  0.00    -0.203 F 
ATOM     65  C   UNL A   1      37.544  29.471  28.753  1.00  0.00     0.198 A 
ATOM     66  C   UNL A   1      38.095  28.832  31.001  1.00  0.00     0.198 A 
ATOM     67  F   UNL A   1      40.270  28.091  31.514  1.00  0.00    -0.203 F 
ATOM     68  F   UNL A   1      36.657  29.940  27.863  1.00  0.00    -0.200 F 
ATOM     69  C   UNL A   1      37.173  29.306  30.078  1.00  0.00     0.200 A 
ATOM     70  F   UNL A   1      37.732  28.652  32.278  1.00  0.00    -0.200 F 
ATOM     71  F   UNL A   1      35.924  29.600  30.468  1.00  0.00    -0.200 F 
ENDBRANCH  47  61
BRANCH  48  72
ATOM     72  C   UNL A   1      49.099  26.760  26.269  1.00  0.00     0.064 A 
ATOM     73  C   UNL A   1      49.473  26.901  24.924  1.00  0.00     0.173 A 
ATOM     74  C   UNL A   1      50.067  26.306  27.174  1.00  0.00     0.173 A 
ATOM     75  F   UNL A   1      48.580  27.330  24.021  1.00  0.00    -0.203 F 
ATOM     76  C   UNL A   1      50.759  26.577  24.499  1.00  0.00     0.198 A 
ATOM     77  C   UNL A   1      51.360  26.004  26.751  1.00  0.00     0.198 A 
ATOM     78  F   UNL A   1      49.760  26.177  28.473  1.00  0.00    -0.203 F 
ATOM     79  F   UNL A   1      51.083  26.692  23.204  1.00  0.00    -0.200 F 
ATOM     80  C   UNL A   1      51.703  26.132  25.414  1.00  0.00     0.200 A 
ATOM     81  F   UNL A   1      52.274  25.595  27.641  1.00  0.00    -0.200 F 
ATOM     82  F   UNL A   1      52.942  25.830  25.005  1.00  0.00    -0.200 F 
ENDBRANCH  48  72
BRANCH  60  83
ATOM     83  C   UNL A   1      45.828  32.511  28.488  1.00  0.00     0.064 A 
ATOM     84  C   UNL A   1      46.338  32.930  29.727  1.00  0.00     0.173 A 
ATOM     85  C   UNL A   1      45.664  33.472  27.482  1.00  0.00     0.173 A 
ATOM     86  F   UNL A   1      46.508  32.047  30.722  1.00  0.00    -0.203 F 
ATOM     87  C   UNL A   1      46.648  34.267  29.956  1.00  0.00     0.198 A 
ATOM     88  C   UNL A   1      45.996  34.805  27.708  1.00  0.00     0.198 A 
ATOM     89  F   UNL A   1      45.192  33.116  26.278  1.00  0.00    -0.203 F 
ATOM     90  F   UNL A   1      47.102  34.652  31.156  1.00  0.00    -0.200 F 
ATOM     91  C   UNL A   1      46.478  35.203  28.947  1.00  0.00     0.200 A 
ATOM     92  F   UNL A   1      45.848  35.707  26.728  1.00  0.00    -0.200 F 
ATOM     93  F   UNL A   1      46.778  36.490  29.169  1.00  0.00    -0.200 F 
ENDBRANCH  60  83
ENDBRANCH  34  35
ENDBRANCH  26  29
ENDBRANCH  24  25
ENDBRANCH  23  24
ENDBRANCH   1  23
TORSDOF 15
ENDMDL
