MODEL 1
REMARK VINA RESULT:     -13.3      0.000      0.000
REMARK SMILES O=C(Nc1ccc2c(c1)OCO2)N[C@H]1C=C[C@@H](C(=O)NCCCNC(=O)c2ccc(-c3c4nc(c(-c5c(F)c(F)c(F)c(F)c5F)c5ccc([nH]5)c(-c5c(F)c(F)c(F)c(F)c5F)c5nc(c(-c6c(F)c(F)c(F)c(F)c6F)c6ccc3[nH]6)C=C5)C=C4)cc2)C1
REMARK SMILES IDX 22 1 21 2 20 3 18 4 19 5 17 7 14 8 15 9 90 10 16 11 13 12
REMARK SMILES IDX 1 13 2 14 3 15 4 18 5 19 9 20 6 21 8 22 7 23 10 24 12 25
REMARK SMILES IDX 11 26 23 27 24 28 25 29 26 31 27 32 28 33 89 34 29 35 88 36
REMARK SMILES IDX 30 37 31 38 32 39 82 40 33 41 87 42 81 43 83 44 34 45 86 46
REMARK SMILES IDX 80 47 79 48 35 50 67 51 47 52 66 53 48 54 51 55 65 56 84 57
REMARK SMILES IDX 49 58 50 59 64 61 85 62 52 63 36 64 37 65 45 66 38 67 39 68
REMARK SMILES IDX 43 69 46 70 40 71 41 72 44 73 42 74 68 75 69 76 77 77 70 78
REMARK SMILES IDX 71 79 75 80 78 81 72 82 73 83 76 84 74 85 53 86 54 87 62 88
REMARK SMILES IDX 55 89 56 90 60 91 63 92 57 93 58 94 61 95 59 96
REMARK H PARENT 20 6 3 16 13 17 24 30 83 49 51 60
REMARK Flexibility Score: inf
ROOT
ATOM      1  C   UNL A   1      31.500  32.041  26.879  1.00  0.00     0.042 C 
ENDROOT
BRANCH   1   2
ATOM      2  C   UNL A   1      31.804  30.549  26.805  1.00  0.00     0.117 C 
BRANCH   2   3
ATOM      3  N   UNL A   1      33.044  30.199  27.467  1.00  0.00    -0.356 N 
ATOM      4  C   UNL A   1      33.881  29.146  27.255  1.00  0.00     0.227 C 
ATOM      5  O   UNL A   1      34.930  29.128  27.910  1.00  0.00    -0.274 OA
ATOM      6  H   UNL A   1      33.325  30.816  28.181  1.00  0.00     0.163 HD
BRANCH   4   7
ATOM      7  C   UNL A   1      33.573  28.007  26.272  1.00  0.00     0.103 C 
ATOM      8  C   UNL A   1      31.844  27.413  24.632  1.00  0.00     0.107 C 
ATOM      9  C   UNL A   1      33.085  27.907  23.974  1.00  0.00    -0.006 C 
ATOM     10  C   UNL A   1      32.086  27.656  26.129  1.00  0.00     0.047 C 
ATOM     11  C   UNL A   1      34.030  28.236  24.864  1.00  0.00    -0.016 C 
BRANCH   8  12
ATOM     12  N   UNL A   1      30.615  28.005  24.130  1.00  0.00    -0.332 N 
ATOM     13  O   UNL A   1      29.339  26.175  23.578  1.00  0.00    -0.248 OA
ATOM     14  C   UNL A   1      29.528  27.391  23.593  1.00  0.00     0.319 C 
ATOM     15  N   UNL A   1      28.522  28.191  23.137  1.00  0.00    -0.308 N 
ATOM     16  H   UNL A   1      27.666  27.721  23.006  1.00  0.00     0.171 HD
ATOM     17  H   UNL A   1      30.562  28.986  24.188  1.00  0.00     0.165 HD
BRANCH  15  18
ATOM     18  C   UNL A   1      28.479  29.556  22.820  1.00  0.00     0.046 A 
ATOM     19  C   UNL A   1      28.745  30.575  23.756  1.00  0.00     0.030 A 
ATOM     20  C   UNL A   1      28.174  29.888  21.495  1.00  0.00     0.076 A 
ATOM     21  C   UNL A   1      28.630  31.923  23.398  1.00  0.00     0.053 A 
ATOM     22  C   UNL A   1      28.033  31.221  21.180  1.00  0.00     0.167 A 
ATOM     23  C   UNL A   1      28.245  32.212  22.108  1.00  0.00     0.165 A 
ATOM     24  O   UNL A   1      27.654  31.715  19.970  1.00  0.00    -0.454 OA
ATOM     25  O   UNL A   1      28.027  33.453  21.598  1.00  0.00    -0.454 OA
ATOM     26  C   UNL A   1      27.546  33.121  20.278  1.00  0.00     0.468 C 
ENDBRANCH  15  18
ENDBRANCH   8  12
ENDBRANCH   4   7
ENDBRANCH   2   3
ENDBRANCH   1   2
BRANCH   1  27
ATOM     27  C   UNL A   1      32.742  32.915  26.927  1.00  0.00     0.118 C 
BRANCH  27  28
ATOM     28  N   UNL A   1      32.485  34.207  27.548  1.00  0.00    -0.352 N 
ATOM     29  C   UNL A   1      33.027  34.778  28.670  1.00  0.00     0.251 C 
ATOM     30  H   UNL A   1      31.815  34.762  27.086  1.00  0.00     0.163 HD
ATOM     31  O   UNL A   1      32.528  35.805  29.129  1.00  0.00    -0.269 OA
BRANCH  29  32
ATOM     32  C   UNL A   1      34.194  34.173  29.349  1.00  0.00     0.039 A 
ATOM     33  C   UNL A   1      33.969  33.289  30.410  1.00  0.00     0.014 A 
ATOM     34  C   UNL A   1      35.502  34.500  28.984  1.00  0.00     0.014 A 
ATOM     35  C   UNL A   1      35.051  32.702  31.070  1.00  0.00     0.010 A 
ATOM     36  C   UNL A   1      36.576  33.848  29.583  1.00  0.00     0.010 A 
ATOM     37  C   UNL A   1      36.363  32.956  30.644  1.00  0.00    -0.014 A 
BRANCH  37  38
ATOM     38  C   UNL A   1      37.528  32.328  31.315  1.00  0.00     0.031 A 
ATOM     39  C   UNL A   1      38.285  31.223  30.630  1.00  0.00     0.074 A 
ATOM     40  C   UNL A   1      37.871  32.711  32.560  1.00  0.00     0.049 A 
ATOM     41  N   UNL A   1      39.278  30.496  31.076  1.00  0.00    -0.248 NA
ATOM     42  C   UNL A   1      37.846  30.869  29.272  1.00  0.00     0.031 C 
ATOM     43  C   UNL A   1      37.191  33.742  33.346  1.00  0.00     0.029 A 
ATOM     44  N   UNL A   1      38.873  32.269  33.386  1.00  0.00    -0.354 N 
ATOM     45  C   UNL A   1      39.566  29.589  30.064  1.00  0.00     0.074 A 
ATOM     46  C   UNL A   1      38.608  29.819  29.005  1.00  0.00     0.031 C 
ATOM     47  C   UNL A   1      37.814  33.874  34.528  1.00  0.00     0.029 A 
ATOM     48  C   UNL A   1      38.911  32.914  34.599  1.00  0.00     0.049 A 
ATOM     49  H   UNL A   1      39.507  31.559  33.135  1.00  0.00     0.167 HD
ATOM     50  C   UNL A   1      40.557  28.667  30.010  1.00  0.00     0.037 A 
ATOM     51  C   UNL A   1      39.737  32.745  35.648  1.00  0.00     0.037 A 
ATOM     52  C   UNL A   1      41.527  28.462  31.053  1.00  0.00     0.049 A 
ATOM     53  C   UNL A   1      40.830  31.715  35.564  1.00  0.00     0.074 A 
ATOM     54  C   UNL A   1      42.598  27.584  31.078  1.00  0.00     0.029 A 
ATOM     55  N   UNL A   1      41.546  29.150  32.257  1.00  0.00    -0.354 N 
ATOM     56  N   UNL A   1      41.127  30.899  34.582  1.00  0.00    -0.248 NA
ATOM     57  C   UNL A   1      41.710  31.588  36.734  1.00  0.00     0.031 C 
ATOM     58  C   UNL A   1      43.242  27.717  32.313  1.00  0.00     0.029 A 
ATOM     59  C   UNL A   1      42.603  28.709  33.038  1.00  0.00     0.049 A 
ATOM     60  H   UNL A   1      40.904  29.849  32.519  1.00  0.00     0.167 HD
ATOM     61  C   UNL A   1      42.243  30.188  34.998  1.00  0.00     0.074 A 
ATOM     62  C   UNL A   1      42.578  30.676  36.320  1.00  0.00     0.031 C 
ATOM     63  C   UNL A   1      42.930  29.218  34.345  1.00  0.00     0.037 A 
BRANCH  50  64
ATOM     64  C   UNL A   1      40.639  27.813  28.777  1.00  0.00     0.064 A 
ATOM     65  C   UNL A   1      41.427  28.187  27.676  1.00  0.00     0.173 A 
ATOM     66  C   UNL A   1      39.937  26.601  28.699  1.00  0.00     0.173 A 
ATOM     67  F   UNL A   1      42.107  29.343  27.695  1.00  0.00    -0.203 F 
ATOM     68  C   UNL A   1      41.479  27.398  26.531  1.00  0.00     0.198 A 
ATOM     69  C   UNL A   1      40.018  25.799  27.564  1.00  0.00     0.198 A 
ATOM     70  F   UNL A   1      39.174  26.194  29.724  1.00  0.00    -0.203 F 
ATOM     71  F   UNL A   1      42.192  27.804  25.472  1.00  0.00    -0.200 F 
ATOM     72  C   UNL A   1      40.780  26.201  26.478  1.00  0.00     0.200 A 
ATOM     73  F   UNL A   1      39.351  24.637  27.518  1.00  0.00    -0.200 F 
ATOM     74  F   UNL A   1      40.834  25.441  25.376  1.00  0.00    -0.200 F 
ENDBRANCH  50  64
BRANCH  51  75
ATOM     75  C   UNL A   1      39.591  33.603  36.852  1.00  0.00     0.064 A 
ATOM     76  C   UNL A   1      38.768  33.207  37.915  1.00  0.00     0.173 A 
ATOM     77  C   UNL A   1      40.265  34.826  36.968  1.00  0.00     0.173 A 
ATOM     78  F   UNL A   1      38.087  32.054  37.841  1.00  0.00    -0.203 F 
ATOM     79  C   UNL A   1      38.610  34.012  39.041  1.00  0.00     0.198 A 
ATOM     80  C   UNL A   1      40.129  35.618  38.107  1.00  0.00     0.198 A 
ATOM     81  F   UNL A   1      41.069  35.248  35.980  1.00  0.00    -0.203 F 
ATOM     82  F   UNL A   1      37.783  33.630  40.025  1.00  0.00    -0.200 F 
ATOM     83  C   UNL A   1      39.295  35.214  39.140  1.00  0.00     0.200 A 
ATOM     84  F   UNL A   1      40.803  36.771  38.205  1.00  0.00    -0.200 F 
ATOM     85  F   UNL A   1      39.147  35.985  40.225  1.00  0.00    -0.200 F 
ENDBRANCH  51  75
BRANCH  63  86
ATOM     86  C   UNL A   1      44.141  28.656  35.030  1.00  0.00     0.064 A 
ATOM     87  C   UNL A   1      44.062  27.525  35.856  1.00  0.00     0.173 A 
ATOM     88  C   UNL A   1      45.401  29.238  34.828  1.00  0.00     0.173 A 
ATOM     89  F   UNL A   1      42.878  26.942  36.092  1.00  0.00    -0.203 F 
ATOM     90  C   UNL A   1      45.199  27.014  36.476  1.00  0.00     0.198 A 
ATOM     91  C   UNL A   1      46.540  28.707  35.427  1.00  0.00     0.198 A 
ATOM     92  F   UNL A   1      45.530  30.317  34.042  1.00  0.00    -0.203 F 
ATOM     93  F   UNL A   1      45.094  25.962  37.300  1.00  0.00    -0.200 F 
ATOM     94  C   UNL A   1      46.437  27.600  36.257  1.00  0.00     0.200 A 
ATOM     95  F   UNL A   1      47.736  29.267  35.205  1.00  0.00    -0.200 F 
ATOM     96  F   UNL A   1      47.530  27.104  36.852  1.00  0.00    -0.200 F 
ENDBRANCH  63  86
ENDBRANCH  37  38
ENDBRANCH  29  32
ENDBRANCH  27  28
ENDBRANCH   1  27
TORSDOF 12
ENDMDL
MODEL 2
REMARK VINA RESULT:     -13.2      0.527      7.472
REMARK SMILES O=C(Nc1ccc2c(c1)OCO2)N[C@H]1C=C[C@@H](C(=O)NCCCNC(=O)c2ccc(-c3c4nc(c(-c5c(F)c(F)c(F)c(F)c5F)c5ccc([nH]5)c(-c5c(F)c(F)c(F)c(F)c5F)c5nc(c(-c6c(F)c(F)c(F)c(F)c6F)c6ccc3[nH]6)C=C5)C=C4)cc2)C1
REMARK SMILES IDX 22 1 21 2 20 3 18 4 19 5 17 7 14 8 15 9 90 10 16 11 13 12
REMARK SMILES IDX 1 13 2 14 3 15 4 18 5 19 9 20 6 21 8 22 7 23 10 24 12 25
REMARK SMILES IDX 11 26 23 27 24 28 25 29 26 31 27 32 28 33 89 34 29 35 88 36
REMARK SMILES IDX 30 37 31 38 32 39 82 40 33 41 87 42 81 43 83 44 34 45 86 46
REMARK SMILES IDX 80 47 79 48 35 50 67 51 47 52 66 53 48 54 51 55 65 56 84 57
REMARK SMILES IDX 49 58 50 59 64 61 85 62 52 63 36 64 37 65 45 66 38 67 39 68
REMARK SMILES IDX 43 69 46 70 40 71 41 72 44 73 42 74 68 75 69 76 77 77 70 78
REMARK SMILES IDX 71 79 75 80 78 81 72 82 73 83 76 84 74 85 53 86 54 87 62 88
REMARK SMILES IDX 55 89 56 90 60 91 63 92 57 93 58 94 61 95 59 96
REMARK H PARENT 20 6 3 16 13 17 24 30 83 49 51 60
REMARK Flexibility Score: inf
ROOT
ATOM      1  C   UNL A   1      31.486  32.088  26.863  1.00  0.00     0.042 C 
ENDROOT
BRANCH   1   2
ATOM      2  C   UNL A   1      31.782  30.593  26.860  1.00  0.00     0.117 C 
BRANCH   2   3
ATOM      3  N   UNL A   1      33.042  30.271  27.498  1.00  0.00    -0.356 N 
ATOM      4  C   UNL A   1      33.892  29.231  27.277  1.00  0.00     0.227 C 
ATOM      5  O   UNL A   1      34.955  29.238  27.908  1.00  0.00    -0.274 OA
ATOM      6  H   UNL A   1      33.327  30.900  28.199  1.00  0.00     0.163 HD
BRANCH   4   7
ATOM      7  C   UNL A   1      33.583  28.077  26.312  1.00  0.00     0.103 C 
ATOM      8  C   UNL A   1      31.852  27.458  24.683  1.00  0.00     0.107 C 
ATOM      9  C   UNL A   1      33.093  27.941  24.016  1.00  0.00    -0.006 C 
ATOM     10  C   UNL A   1      32.095  27.724  26.176  1.00  0.00     0.047 C 
ATOM     11  C   UNL A   1      34.039  28.283  24.900  1.00  0.00    -0.016 C 
BRANCH   8  12
ATOM     12  N   UNL A   1      30.623  28.043  24.173  1.00  0.00    -0.332 N 
ATOM     13  O   UNL A   1      29.367  26.206  23.598  1.00  0.00    -0.248 OA
ATOM     14  C   UNL A   1      29.546  27.423  23.622  1.00  0.00     0.319 C 
ATOM     15  N   UNL A   1      28.538  28.218  23.161  1.00  0.00    -0.308 N 
ATOM     16  H   UNL A   1      27.688  27.742  23.019  1.00  0.00     0.171 HD
ATOM     17  H   UNL A   1      30.562  29.023  24.235  1.00  0.00     0.165 HD
BRANCH  15  18
ATOM     18  C   UNL A   1      28.487  29.584  22.851  1.00  0.00     0.046 A 
ATOM     19  C   UNL A   1      28.773  30.599  23.786  1.00  0.00     0.030 A 
ATOM     20  C   UNL A   1      28.153  29.921  21.534  1.00  0.00     0.076 A 
ATOM     21  C   UNL A   1      28.648  31.949  23.436  1.00  0.00     0.053 A 
ATOM     22  C   UNL A   1      28.005  31.256  21.228  1.00  0.00     0.167 A 
ATOM     23  C   UNL A   1      28.236  32.243  22.155  1.00  0.00     0.165 A 
ATOM     24  O   UNL A   1      27.599  31.755  20.029  1.00  0.00    -0.454 OA
ATOM     25  O   UNL A   1      28.005  33.486  21.656  1.00  0.00    -0.454 OA
ATOM     26  C   UNL A   1      27.496  33.160  20.345  1.00  0.00     0.468 C 
ENDBRANCH  15  18
ENDBRANCH   8  12
ENDBRANCH   4   7
ENDBRANCH   2   3
ENDBRANCH   1   2
BRANCH   1  27
ATOM     27  C   UNL A   1      32.734  32.956  26.846  1.00  0.00     0.118 C 
BRANCH  27  28
ATOM     28  N   UNL A   1      32.553  34.200  27.581  1.00  0.00    -0.352 N 
ATOM     29  C   UNL A   1      33.147  34.648  28.732  1.00  0.00     0.251 C 
ATOM     30  H   UNL A   1      31.898  34.821  27.187  1.00  0.00     0.163 HD
ATOM     31  O   UNL A   1      32.708  35.653  29.290  1.00  0.00    -0.269 OA
BRANCH  29  32
ATOM     32  C   UNL A   1      34.302  33.936  29.323  1.00  0.00     0.039 A 
ATOM     33  C   UNL A   1      35.591  34.402  29.043  1.00  0.00     0.014 A 
ATOM     34  C   UNL A   1      34.131  32.793  30.107  1.00  0.00     0.014 A 
ATOM     35  C   UNL A   1      36.701  33.750  29.587  1.00  0.00     0.010 A 
ATOM     36  C   UNL A   1      35.231  32.198  30.719  1.00  0.00     0.010 A 
ATOM     37  C   UNL A   1      36.528  32.659  30.452  1.00  0.00    -0.014 A 
BRANCH  37  38
ATOM     38  C   UNL A   1      37.691  31.964  31.059  1.00  0.00     0.031 A 
ATOM     39  C   UNL A   1      38.141  32.325  32.449  1.00  0.00     0.074 A 
ATOM     40  C   UNL A   1      38.373  31.050  30.344  1.00  0.00     0.049 A 
ATOM     41  N   UNL A   1      39.175  31.892  33.126  1.00  0.00    -0.248 NA
ATOM     42  C   UNL A   1      37.338  33.332  33.160  1.00  0.00     0.031 C 
ATOM     43  C   UNL A   1      38.061  30.642  28.974  1.00  0.00     0.029 A 
ATOM     44  N   UNL A   1      39.479  30.305  30.669  1.00  0.00    -0.354 N 
ATOM     45  C   UNL A   1      39.156  32.586  34.328  1.00  0.00     0.074 A 
ATOM     46  C   UNL A   1      38.043  33.509  34.267  1.00  0.00     0.031 C 
ATOM     47  C   UNL A   1      38.935  29.699  28.586  1.00  0.00     0.029 A 
ATOM     48  C   UNL A   1      39.890  29.464  29.664  1.00  0.00     0.049 A 
ATOM     49  H   UNL A   1      39.933  30.365  31.540  1.00  0.00     0.167 HD
ATOM     50  C   UNL A   1      39.974  32.448  35.398  1.00  0.00     0.037 A 
ATOM     51  C   UNL A   1      40.925  28.603  29.620  1.00  0.00     0.037 A 
ATOM     52  C   UNL A   1      41.061  31.508  35.468  1.00  0.00     0.049 A 
ATOM     53  C   UNL A   1      41.819  28.467  30.822  1.00  0.00     0.074 A 
ATOM     54  C   UNL A   1      41.924  31.258  36.523  1.00  0.00     0.029 A 
ATOM     55  N   UNL A   1      41.434  30.657  34.437  1.00  0.00    -0.354 N 
ATOM     56  N   UNL A   1      41.761  29.090  31.973  1.00  0.00    -0.248 NA
ATOM     57  C   UNL A   1      42.921  27.500  30.719  1.00  0.00     0.031 C 
ATOM     58  C   UNL A   1      42.839  30.281  36.116  1.00  0.00     0.029 A 
ATOM     59  C   UNL A   1      42.519  29.889  34.827  1.00  0.00     0.049 A 
ATOM     60  H   UNL A   1      40.992  30.607  33.559  1.00  0.00     0.167 HD
ATOM     61  C   UNL A   1      42.791  28.569  32.743  1.00  0.00     0.074 A 
ATOM     62  C   UNL A   1      43.454  27.570  31.930  1.00  0.00     0.031 C 
ATOM     63  C   UNL A   1      43.156  28.888  34.009  1.00  0.00     0.037 A 
BRANCH  50  64
ATOM     64  C   UNL A   1      39.718  33.336  36.583  1.00  0.00     0.064 A 
ATOM     65  C   UNL A   1      38.813  32.971  37.592  1.00  0.00     0.173 A 
ATOM     66  C   UNL A   1      40.395  34.556  36.720  1.00  0.00     0.173 A 
ATOM     67  F   UNL A   1      38.130  31.819  37.502  1.00  0.00    -0.203 F 
ATOM     68  C   UNL A   1      38.569  33.811  38.675  1.00  0.00     0.198 A 
ATOM     69  C   UNL A   1      40.172  35.380  37.821  1.00  0.00     0.198 A 
ATOM     70  F   UNL A   1      41.275  34.952  35.788  1.00  0.00    -0.203 F 
ATOM     71  F   UNL A   1      37.658  33.466  39.595  1.00  0.00    -0.200 F 
ATOM     72  C   UNL A   1      39.253  35.011  38.792  1.00  0.00     0.200 A 
ATOM     73  F   UNL A   1      40.842  36.534  37.940  1.00  0.00    -0.200 F 
ATOM     74  F   UNL A   1      39.019  35.818  39.836  1.00  0.00    -0.200 F 
ENDBRANCH  50  64
BRANCH  51  75
ATOM     75  C   UNL A   1      41.143  27.769  28.410  1.00  0.00     0.064 A 
ATOM     76  C   UNL A   1      42.013  28.195  27.396  1.00  0.00     0.173 A 
ATOM     77  C   UNL A   1      40.495  26.537  28.240  1.00  0.00     0.173 A 
ATOM     78  F   UNL A   1      42.640  29.375  27.505  1.00  0.00    -0.203 F 
ATOM     79  C   UNL A   1      42.211  27.429  26.250  1.00  0.00     0.198 A 
ATOM     80  C   UNL A   1      40.715  25.759  27.106  1.00  0.00     0.198 A 
ATOM     81  F   UNL A   1      39.656  26.083  29.183  1.00  0.00    -0.203 F 
ATOM     82  F   UNL A   1      43.016  27.879  25.276  1.00  0.00    -0.200 F 
ATOM     83  C   UNL A   1      41.568  26.209  26.108  1.00  0.00     0.200 A 
ATOM     84  F   UNL A   1      40.103  24.574  26.977  1.00  0.00    -0.200 F 
ATOM     85  F   UNL A   1      41.764  25.469  25.007  1.00  0.00    -0.200 F 
ENDBRANCH  51  75
BRANCH  63  86
ATOM     86  C   UNL A   1      44.293  28.116  34.610  1.00  0.00     0.064 A 
ATOM     87  C   UNL A   1      45.617  28.571  34.531  1.00  0.00     0.173 A 
ATOM     88  C   UNL A   1      44.048  26.921  35.304  1.00  0.00     0.173 A 
ATOM     89  F   UNL A   1      45.904  29.700  33.867  1.00  0.00    -0.203 F 
ATOM     90  C   UNL A   1      46.658  27.844  35.103  1.00  0.00     0.198 A 
ATOM     91  C   UNL A   1      45.087  26.212  35.898  1.00  0.00     0.198 A 
ATOM     92  F   UNL A   1      42.798  26.446  35.413  1.00  0.00    -0.203 F 
ATOM     93  F   UNL A   1      47.921  28.272  34.974  1.00  0.00    -0.200 F 
ATOM     94  C   UNL A   1      46.392  26.669  35.791  1.00  0.00     0.200 A 
ATOM     95  F   UNL A   1      44.827  25.083  36.573  1.00  0.00    -0.200 F 
ATOM     96  F   UNL A   1      47.394  25.973  36.343  1.00  0.00    -0.200 F 
ENDBRANCH  63  86
ENDBRANCH  37  38
ENDBRANCH  29  32
ENDBRANCH  27  28
ENDBRANCH   1  27
TORSDOF 12
ENDMDL
MODEL 3
REMARK VINA RESULT:     -13.2      0.559      7.391
REMARK SMILES O=C(Nc1ccc2c(c1)OCO2)N[C@H]1C=C[C@@H](C(=O)NCCCNC(=O)c2ccc(-c3c4nc(c(-c5c(F)c(F)c(F)c(F)c5F)c5ccc([nH]5)c(-c5c(F)c(F)c(F)c(F)c5F)c5nc(c(-c6c(F)c(F)c(F)c(F)c6F)c6ccc3[nH]6)C=C5)C=C4)cc2)C1
REMARK SMILES IDX 22 1 21 2 20 3 18 4 19 5 17 7 14 8 15 9 90 10 16 11 13 12
REMARK SMILES IDX 1 13 2 14 3 15 4 18 5 19 9 20 6 21 8 22 7 23 10 24 12 25
REMARK SMILES IDX 11 26 23 27 24 28 25 29 26 31 27 32 28 33 89 34 29 35 88 36
REMARK SMILES IDX 30 37 31 38 32 39 82 40 33 41 87 42 81 43 83 44 34 45 86 46
REMARK SMILES IDX 80 47 79 48 35 50 67 51 47 52 66 53 48 54 51 55 65 56 84 57
REMARK SMILES IDX 49 58 50 59 64 61 85 62 52 63 36 64 37 65 45 66 38 67 39 68
REMARK SMILES IDX 43 69 46 70 40 71 41 72 44 73 42 74 68 75 69 76 77 77 70 78
REMARK SMILES IDX 71 79 75 80 78 81 72 82 73 83 76 84 74 85 53 86 54 87 62 88
REMARK SMILES IDX 55 89 56 90 60 91 63 92 57 93 58 94 61 95 59 96
REMARK H PARENT 20 6 3 16 13 17 24 30 83 49 51 60
REMARK Flexibility Score: inf
ROOT
ATOM      1  C   UNL A   1      31.474  32.093  26.878  1.00  0.00     0.042 C 
ENDROOT
BRANCH   1   2
ATOM      2  C   UNL A   1      31.781  30.600  26.876  1.00  0.00     0.117 C 
BRANCH   2   3
ATOM      3  N   UNL A   1      33.036  30.287  27.528  1.00  0.00    -0.356 N 
ATOM      4  C   UNL A   1      33.894  29.250  27.321  1.00  0.00     0.227 C 
ATOM      5  O   UNL A   1      34.950  29.265  27.963  1.00  0.00    -0.274 OA
ATOM      6  H   UNL A   1      33.311  30.921  28.229  1.00  0.00     0.163 HD
BRANCH   4   7
ATOM      7  C   UNL A   1      33.599  28.090  26.358  1.00  0.00     0.103 C 
ATOM      8  C   UNL A   1      31.888  27.454  24.716  1.00  0.00     0.107 C 
ATOM      9  C   UNL A   1      33.132  27.942  24.059  1.00  0.00    -0.006 C 
ATOM     10  C   UNL A   1      32.116  27.728  26.210  1.00  0.00     0.047 C 
ATOM     11  C   UNL A   1      34.067  28.293  24.950  1.00  0.00    -0.016 C 
BRANCH   8  12
ATOM     12  N   UNL A   1      30.660  28.030  24.193  1.00  0.00    -0.332 N 
ATOM     13  O   UNL A   1      29.425  26.184  23.603  1.00  0.00    -0.248 OA
ATOM     14  C   UNL A   1      29.594  27.402  23.629  1.00  0.00     0.319 C 
ATOM     15  N   UNL A   1      28.586  28.189  23.157  1.00  0.00    -0.308 N 
ATOM     16  H   UNL A   1      27.740  27.707  23.005  1.00  0.00     0.171 HD
ATOM     17  H   UNL A   1      30.590  29.010  24.255  1.00  0.00     0.165 HD
BRANCH  15  18
ATOM     18  C   UNL A   1      28.527  29.555  22.848  1.00  0.00     0.046 A 
ATOM     19  C   UNL A   1      28.794  30.572  23.786  1.00  0.00     0.030 A 
ATOM     20  C   UNL A   1      28.205  29.891  21.527  1.00  0.00     0.076 A 
ATOM     21  C   UNL A   1      28.663  31.921  23.436  1.00  0.00     0.053 A 
ATOM     22  C   UNL A   1      28.049  31.224  21.220  1.00  0.00     0.167 A 
ATOM     23  C   UNL A   1      28.263  32.213  22.150  1.00  0.00     0.165 A 
ATOM     24  O   UNL A   1      27.653  31.721  20.017  1.00  0.00    -0.454 OA
ATOM     25  O   UNL A   1      28.028  33.454  21.649  1.00  0.00    -0.454 OA
ATOM     26  C   UNL A   1      27.536  33.124  20.333  1.00  0.00     0.468 C 
ENDBRANCH  15  18
ENDBRANCH   8  12
ENDBRANCH   4   7
ENDBRANCH   2   3
ENDBRANCH   1   2
BRANCH   1  27
ATOM     27  C   UNL A   1      32.715  32.971  26.869  1.00  0.00     0.118 C 
BRANCH  27  28
ATOM     28  N   UNL A   1      32.528  34.201  27.626  1.00  0.00    -0.352 N 
ATOM     29  C   UNL A   1      33.114  34.627  28.789  1.00  0.00     0.251 C 
ATOM     30  H   UNL A   1      31.876  34.828  27.239  1.00  0.00     0.163 HD
ATOM     31  O   UNL A   1      32.670  35.621  29.364  1.00  0.00    -0.269 OA
BRANCH  29  32
ATOM     32  C   UNL A   1      34.264  33.904  29.375  1.00  0.00     0.039 A 
ATOM     33  C   UNL A   1      35.556  34.370  29.107  1.00  0.00     0.014 A 
ATOM     34  C   UNL A   1      34.087  32.751  30.143  1.00  0.00     0.014 A 
ATOM     35  C   UNL A   1      36.662  33.708  29.647  1.00  0.00     0.010 A 
ATOM     36  C   UNL A   1      35.183  32.145  30.752  1.00  0.00     0.010 A 
ATOM     37  C   UNL A   1      36.482  32.606  30.496  1.00  0.00    -0.014 A 
BRANCH  37  38
ATOM     38  C   UNL A   1      37.640  31.899  31.099  1.00  0.00     0.031 A 
ATOM     39  C   UNL A   1      38.092  32.248  32.491  1.00  0.00     0.074 A 
ATOM     40  C   UNL A   1      38.318  30.987  30.377  1.00  0.00     0.049 A 
ATOM     41  N   UNL A   1      39.123  31.804  33.165  1.00  0.00    -0.248 NA
ATOM     42  C   UNL A   1      37.295  33.253  33.209  1.00  0.00     0.031 C 
ATOM     43  C   UNL A   1      38.004  30.591  29.003  1.00  0.00     0.029 A 
ATOM     44  N   UNL A   1      39.419  30.233  30.697  1.00  0.00    -0.354 N 
ATOM     45  C   UNL A   1      39.108  32.489  34.373  1.00  0.00     0.074 A 
ATOM     46  C   UNL A   1      38.001  33.418  34.318  1.00  0.00     0.031 C 
ATOM     47  C   UNL A   1      38.873  29.646  28.609  1.00  0.00     0.029 A 
ATOM     48  C   UNL A   1      39.827  29.398  29.686  1.00  0.00     0.049 A 
ATOM     49  H   UNL A   1      39.874  30.285  31.569  1.00  0.00     0.167 HD
ATOM     50  C   UNL A   1      39.925  32.338  35.443  1.00  0.00     0.037 A 
ATOM     51  C   UNL A   1      40.856  28.531  29.635  1.00  0.00     0.037 A 
ATOM     52  C   UNL A   1      41.007  31.392  35.506  1.00  0.00     0.049 A 
ATOM     53  C   UNL A   1      41.749  28.381  30.837  1.00  0.00     0.074 A 
ATOM     54  C   UNL A   1      41.867  31.129  36.559  1.00  0.00     0.029 A 
ATOM     55  N   UNL A   1      41.374  30.546  34.469  1.00  0.00    -0.354 N 
ATOM     56  N   UNL A   1      41.694  28.995  31.993  1.00  0.00    -0.248 NA
ATOM     57  C   UNL A   1      42.845  27.408  30.727  1.00  0.00     0.031 C 
ATOM     58  C   UNL A   1      42.777  30.149  36.145  1.00  0.00     0.029 A 
ATOM     59  C   UNL A   1      42.456  29.769  34.853  1.00  0.00     0.049 A 
ATOM     60  H   UNL A   1      40.933  30.505  33.590  1.00  0.00     0.167 HD
ATOM     61  C   UNL A   1      42.721  28.463  32.759  1.00  0.00     0.074 A 
ATOM     62  C   UNL A   1      43.378  27.466  31.939  1.00  0.00     0.031 C 
ATOM     63  C   UNL A   1      43.087  28.770  34.028  1.00  0.00     0.037 A 
BRANCH  50  64
ATOM     64  C   UNL A   1      39.673  33.219  36.633  1.00  0.00     0.064 A 
ATOM     65  C   UNL A   1      38.766  32.850  37.640  1.00  0.00     0.173 A 
ATOM     66  C   UNL A   1      40.356  34.434  36.780  1.00  0.00     0.173 A 
ATOM     67  F   UNL A   1      38.078  31.703  37.541  1.00  0.00    -0.203 F 
ATOM     68  C   UNL A   1      38.526  33.684  38.729  1.00  0.00     0.198 A 
ATOM     69  C   UNL A   1      40.137  35.251  37.887  1.00  0.00     0.198 A 
ATOM     70  F   UNL A   1      41.238  34.833  35.850  1.00  0.00    -0.203 F 
ATOM     71  F   UNL A   1      37.614  33.337  39.647  1.00  0.00    -0.200 F 
ATOM     72  C   UNL A   1      39.216  34.880  38.855  1.00  0.00     0.200 A 
ATOM     73  F   UNL A   1      40.814  36.401  38.014  1.00  0.00    -0.200 F 
ATOM     74  F   UNL A   1      38.986  35.680  39.905  1.00  0.00    -0.200 F 
ENDBRANCH  50  64
BRANCH  51  75
ATOM     75  C   UNL A   1      41.070  27.705  28.419  1.00  0.00     0.064 A 
ATOM     76  C   UNL A   1      41.944  28.132  27.410  1.00  0.00     0.173 A 
ATOM     77  C   UNL A   1      40.413  26.479  28.239  1.00  0.00     0.173 A 
ATOM     78  F   UNL A   1      42.579  29.307  27.529  1.00  0.00    -0.203 F 
ATOM     79  C   UNL A   1      42.139  27.374  26.258  1.00  0.00     0.198 A 
ATOM     80  C   UNL A   1      40.630  25.708  27.099  1.00  0.00     0.198 A 
ATOM     81  F   UNL A   1      39.570  26.023  29.178  1.00  0.00    -0.203 F 
ATOM     82  F   UNL A   1      42.947  27.826  25.289  1.00  0.00    -0.200 F 
ATOM     83  C   UNL A   1      41.487  26.159  26.106  1.00  0.00     0.200 A 
ATOM     84  F   UNL A   1      40.010  24.528  26.961  1.00  0.00    -0.200 F 
ATOM     85  F   UNL A   1      41.679  25.427  25.000  1.00  0.00    -0.200 F 
ENDBRANCH  51  75
BRANCH  63  86
ATOM     86  C   UNL A   1      44.219  27.987  34.624  1.00  0.00     0.064 A 
ATOM     87  C   UNL A   1      44.010  26.757  35.264  1.00  0.00     0.173 A 
ATOM     88  C   UNL A   1      45.537  28.461  34.522  1.00  0.00     0.173 A 
ATOM     89  F   UNL A   1      42.768  26.270  35.399  1.00  0.00    -0.203 F 
ATOM     90  C   UNL A   1      45.075  26.042  35.803  1.00  0.00     0.198 A 
ATOM     91  C   UNL A   1      46.602  27.729  35.037  1.00  0.00     0.198 A 
ATOM     92  F   UNL A   1      45.791  29.629  33.913  1.00  0.00    -0.203 F 
ATOM     93  F   UNL A   1      44.847  24.892  36.453  1.00  0.00    -0.200 F 
ATOM     94  C   UNL A   1      46.371  26.524  35.684  1.00  0.00     0.200 A 
ATOM     95  F   UNL A   1      47.854  28.191  34.911  1.00  0.00    -0.200 F 
ATOM     96  F   UNL A   1      47.395  25.833  36.201  1.00  0.00    -0.200 F 
ENDBRANCH  63  86
ENDBRANCH  37  38
ENDBRANCH  29  32
ENDBRANCH  27  28
ENDBRANCH   1  27
TORSDOF 12
ENDMDL
