MODEL 1
REMARK VINA RESULT:     -12.5      0.000      0.000
REMARK SMILES CC(C)[C@@H](CNC(=O)[C@@H]1CC[C@@H]2CCCC[C@@H]2[NH2+]1)C(=O)NCCCNC(=O)c1ccc(-c2c3nc(c(-c4c(F)c(F)c(F)c(F)c4F)c4ccc([nH]4)c(-c4c(F)c(F)c(F)c(F)c4F)c4nc(c(-c5c(F)c(F)c(F)c(F)c5F)c5ccc2[nH]5)C=C4)C=C3)cc1
REMARK SMILES IDX 22 1 21 2 19 3 20 4 4 6 2 7 1 8 3 9 5 10 6 11 7 12 8 14 9 15
REMARK SMILES IDX 10 16 18 17 11 18 17 19 12 22 16 23 13 24 15 25 14 26 23 27
REMARK SMILES IDX 24 28 25 29 26 30 27 32 28 33 29 34 90 35 30 36 89 37 31 38
REMARK SMILES IDX 32 39 33 40 83 41 34 42 88 43 82 44 84 45 35 46 87 47 81 48
REMARK SMILES IDX 80 49 36 51 68 52 48 53 67 54 49 55 52 56 66 57 85 58 50 59
REMARK SMILES IDX 51 60 65 62 86 63 53 64 37 65 38 66 46 67 39 68 40 69 44 70
REMARK SMILES IDX 47 71 41 72 42 73 45 74 43 75 69 76 70 77 78 78 71 79 72 80
REMARK SMILES IDX 76 81 79 82 73 83 74 84 77 85 75 86 54 87 55 88 63 89 56 90
REMARK SMILES IDX 57 91 61 92 64 93 58 94 59 95 62 96 60 97
REMARK H PARENT 21 5 6 13 18 20 18 21 25 31 84 50 52 61
REMARK Flexibility Score: inf
ROOT
ATOM      1  C   UNL A   1      36.977  21.152  24.651  1.00  0.00     0.117 C 
ENDROOT
BRANCH   1   2
ATOM      2  N   UNL A   1      35.886  21.417  25.566  1.00  0.00    -0.356 N 
ATOM      3  C   UNL A   1      34.613  20.944  25.588  1.00  0.00     0.225 C 
ATOM      4  O   UNL A   1      33.951  21.166  26.607  1.00  0.00    -0.275 OA
ATOM      5  H   UNL A   1      36.104  22.045  26.293  1.00  0.00     0.163 HD
BRANCH   3   6
ATOM      6  C   UNL A   1      33.984  20.163  24.432  1.00  0.00     0.100 C 
BRANCH   6   7
ATOM      7  C   UNL A   1      33.676  18.676  24.760  1.00  0.00    -0.003 C 
ATOM      8  C   UNL A   1      32.412  18.174  24.057  1.00  0.00     0.008 C 
ATOM      9  C   UNL A   1      34.859  17.776  24.369  1.00  0.00     0.008 C 
ENDBRANCH   6   7
BRANCH   6  10
ATOM     10  C   UNL A   1      32.885  20.990  23.731  1.00  0.00     0.129 C 
BRANCH  10  11
ATOM     11  N   UNL A   1      33.248  22.368  23.460  1.00  0.00    -0.350 N 
ATOM     12  C   UNL A   1      32.442  23.478  23.440  1.00  0.00     0.278 C 
ATOM     13  H   UNL A   1      34.199  22.528  23.265  1.00  0.00     0.163 HD
ATOM     14  O   UNL A   1      32.801  24.423  22.738  1.00  0.00    -0.268 OA
BRANCH  12  15
ATOM     15  C   UNL A   1      31.164  23.497  24.300  1.00  0.00     0.272 C 
ATOM     16  C   UNL A   1      30.308  24.750  24.095  1.00  0.00     0.076 C 
ATOM     17  N   UNL A   1      31.510  23.325  25.725  1.00  0.00    -0.333 N 
ATOM     18  C   UNL A   1      30.961  26.012  24.649  1.00  0.00     0.016 C 
ATOM     19  C   UNL A   1      32.166  24.484  26.346  1.00  0.00     0.186 C 
ATOM     20  H   UNL A   1      32.139  22.525  25.803  1.00  0.00     0.347 HD
ATOM     21  H   UNL A   1      30.628  23.196  26.219  1.00  0.00     0.347 HD
ATOM     22  C   UNL A   1      31.442  25.820  26.092  1.00  0.00     0.048 C 
ATOM     23  C   UNL A   1      33.703  24.535  26.177  1.00  0.00     0.065 C 
ATOM     24  C   UNL A   1      32.328  26.983  26.555  1.00  0.00     0.010 C 
ATOM     25  C   UNL A   1      34.248  25.729  25.401  1.00  0.00     0.006 C 
ATOM     26  C   UNL A   1      33.649  27.076  25.795  1.00  0.00     0.001 C 
ENDBRANCH  12  15
ENDBRANCH  10  11
ENDBRANCH   6  10
ENDBRANCH   3   6
ENDBRANCH   1   2
BRANCH   1  27
ATOM     27  C   UNL A   1      37.827  19.959  25.030  1.00  0.00     0.042 C 
BRANCH  27  28
ATOM     28  C   UNL A   1      39.103  20.359  25.746  1.00  0.00     0.118 C 
BRANCH  28  29
ATOM     29  N   UNL A   1      40.065  19.265  25.859  1.00  0.00    -0.352 N 
ATOM     30  C   UNL A   1      41.421  19.280  26.082  1.00  0.00     0.251 C 
ATOM     31  H   UNL A   1      39.677  18.366  25.760  1.00  0.00     0.163 HD
ATOM     32  O   UNL A   1      42.071  18.241  26.009  1.00  0.00    -0.269 OA
BRANCH  30  33
ATOM     33  C   UNL A   1      42.107  20.552  26.376  1.00  0.00     0.039 A 
ATOM     34  C   UNL A   1      42.547  21.351  25.319  1.00  0.00     0.014 A 
ATOM     35  C   UNL A   1      42.287  20.972  27.693  1.00  0.00     0.014 A 
ATOM     36  C   UNL A   1      43.083  22.612  25.585  1.00  0.00     0.010 A 
ATOM     37  C   UNL A   1      42.692  22.271  27.950  1.00  0.00     0.010 A 
ATOM     38  C   UNL A   1      43.108  23.102  26.900  1.00  0.00    -0.014 A 
BRANCH  38  39
ATOM     39  C   UNL A   1      43.590  24.468  27.222  1.00  0.00     0.031 A 
ATOM     40  C   UNL A   1      42.628  25.478  27.786  1.00  0.00     0.074 A 
ATOM     41  C   UNL A   1      44.852  24.824  26.916  1.00  0.00     0.049 A 
ATOM     42  N   UNL A   1      42.802  26.757  28.004  1.00  0.00    -0.248 NA
ATOM     43  C   UNL A   1      41.273  24.997  28.100  1.00  0.00     0.031 C 
ATOM     44  C   UNL A   1      45.857  23.951  26.305  1.00  0.00     0.029 A 
ATOM     45  N   UNL A   1      45.503  26.023  27.066  1.00  0.00    -0.354 N 
ATOM     46  C   UNL A   1      41.573  27.232  28.444  1.00  0.00     0.074 A 
ATOM     47  C   UNL A   1      40.647  26.123  28.401  1.00  0.00     0.031 C 
ATOM     48  C   UNL A   1      47.005  24.633  26.161  1.00  0.00     0.029 A 
ATOM     49  C   UNL A   1      46.805  26.001  26.629  1.00  0.00     0.049 A 
ATOM     50  H   UNL A   1      45.077  26.823  27.449  1.00  0.00     0.167 HD
ATOM     51  C   UNL A   1      41.254  28.474  28.877  1.00  0.00     0.037 A 
ATOM     52  C   UNL A   1      47.729  26.980  26.606  1.00  0.00     0.037 A 
ATOM     53  C   UNL A   1      42.196  29.555  28.972  1.00  0.00     0.049 A 
ATOM     54  C   UNL A   1      47.361  28.341  27.128  1.00  0.00     0.074 A 
ATOM     55  C   UNL A   1      42.001  30.830  29.471  1.00  0.00     0.029 A 
ATOM     56  N   UNL A   1      43.522  29.480  28.568  1.00  0.00    -0.354 N 
ATOM     57  N   UNL A   1      46.215  28.763  27.604  1.00  0.00    -0.248 NA
ATOM     58  C   UNL A   1      48.417  29.362  27.115  1.00  0.00     0.031 C 
ATOM     59  C   UNL A   1      43.199  31.539  29.336  1.00  0.00     0.029 A 
ATOM     60  C   UNL A   1      44.153  30.691  28.794  1.00  0.00     0.049 A 
ATOM     61  H   UNL A   1      43.950  28.683  28.178  1.00  0.00     0.167 HD
ATOM     62  C   UNL A   1      46.417  30.085  27.972  1.00  0.00     0.074 A 
ATOM     63  C   UNL A   1      47.802  30.392  27.678  1.00  0.00     0.031 C 
ATOM     64  C   UNL A   1      45.536  30.967  28.505  1.00  0.00     0.037 A 
BRANCH  51  65
ATOM     65  C   UNL A   1      39.834  28.720  29.294  1.00  0.00     0.064 A 
ATOM     66  C   UNL A   1      39.401  28.487  30.609  1.00  0.00     0.173 A 
ATOM     67  C   UNL A   1      38.895  29.211  28.374  1.00  0.00     0.173 A 
ATOM     68  F   UNL A   1      40.255  28.003  31.524  1.00  0.00    -0.203 F 
ATOM     69  C   UNL A   1      38.078  28.705  30.979  1.00  0.00     0.198 A 
ATOM     70  C   UNL A   1      37.579  29.459  28.755  1.00  0.00     0.198 A 
ATOM     71  F   UNL A   1      39.254  29.453  27.104  1.00  0.00    -0.203 F 
ATOM     72  F   UNL A   1      37.676  28.420  32.225  1.00  0.00    -0.200 F 
ATOM     73  C   UNL A   1      37.169  29.197  30.054  1.00  0.00     0.200 A 
ATOM     74  F   UNL A   1      36.705  29.946  27.863  1.00  0.00    -0.200 F 
ATOM     75  F   UNL A   1      35.896  29.412  30.412  1.00  0.00    -0.200 F 
ENDBRANCH  51  65
BRANCH  52  76
ATOM     76  C   UNL A   1      49.100  26.697  26.106  1.00  0.00     0.064 A 
ATOM     77  C   UNL A   1      49.461  27.013  24.789  1.00  0.00     0.173 A 
ATOM     78  C   UNL A   1      50.073  26.110  26.926  1.00  0.00     0.173 A 
ATOM     79  F   UNL A   1      48.560  27.559  23.960  1.00  0.00    -0.203 F 
ATOM     80  C   UNL A   1      50.738  26.731  24.304  1.00  0.00     0.198 A 
ATOM     81  C   UNL A   1      51.358  25.854  26.448  1.00  0.00     0.198 A 
ATOM     82  F   UNL A   1      49.782  25.795  28.197  1.00  0.00    -0.203 F 
ATOM     83  F   UNL A   1      51.041  27.004  23.028  1.00  0.00    -0.200 F 
ATOM     84  C   UNL A   1      51.686  26.158  25.136  1.00  0.00     0.200 A 
ATOM     85  F   UNL A   1      52.278  25.313  27.260  1.00  0.00    -0.200 F 
ATOM     86  F   UNL A   1      52.914  25.890  24.670  1.00  0.00    -0.200 F 
ENDBRANCH  52  76
BRANCH  64  87
ATOM     87  C   UNL A   1      46.054  32.335  28.837  1.00  0.00     0.064 A 
ATOM     88  C   UNL A   1      45.990  33.388  27.915  1.00  0.00     0.173 A 
ATOM     89  C   UNL A   1      46.575  32.604  30.112  1.00  0.00     0.173 A 
ATOM     90  F   UNL A   1      45.513  33.176  26.679  1.00  0.00    -0.203 F 
ATOM     91  C   UNL A   1      46.451  34.659  28.250  1.00  0.00     0.198 A 
ATOM     92  C   UNL A   1      47.009  33.880  30.452  1.00  0.00     0.198 A 
ATOM     93  F   UNL A   1      46.650  31.629  31.032  1.00  0.00    -0.203 F 
ATOM     94  F   UNL A   1      46.422  35.641  27.339  1.00  0.00    -0.200 F 
ATOM     95  C   UNL A   1      46.953  34.905  29.519  1.00  0.00     0.200 A 
ATOM     96  F   UNL A   1      47.480  34.121  31.684  1.00  0.00    -0.200 F 
ATOM     97  F   UNL A   1      47.388  36.131  29.843  1.00  0.00    -0.200 F 
ENDBRANCH  64  87
ENDBRANCH  38  39
ENDBRANCH  30  33
ENDBRANCH  28  29
ENDBRANCH  27  28
ENDBRANCH   1  27
TORSDOF 14
ENDMDL
MODEL 2
REMARK VINA RESULT:     -12.5      0.192      1.137
REMARK SMILES CC(C)[C@@H](CNC(=O)[C@@H]1CC[C@@H]2CCCC[C@@H]2[NH2+]1)C(=O)NCCCNC(=O)c1ccc(-c2c3nc(c(-c4c(F)c(F)c(F)c(F)c4F)c4ccc([nH]4)c(-c4c(F)c(F)c(F)c(F)c4F)c4nc(c(-c5c(F)c(F)c(F)c(F)c5F)c5ccc2[nH]5)C=C4)C=C3)cc1
REMARK SMILES IDX 22 1 21 2 19 3 20 4 4 6 2 7 1 8 3 9 5 10 6 11 7 12 8 14 9 15
REMARK SMILES IDX 10 16 18 17 11 18 17 19 12 22 16 23 13 24 15 25 14 26 23 27
REMARK SMILES IDX 24 28 25 29 26 30 27 32 28 33 29 34 90 35 30 36 89 37 31 38
REMARK SMILES IDX 32 39 33 40 83 41 34 42 88 43 82 44 84 45 35 46 87 47 81 48
REMARK SMILES IDX 80 49 36 51 68 52 48 53 67 54 49 55 52 56 66 57 85 58 50 59
REMARK SMILES IDX 51 60 65 62 86 63 53 64 37 65 38 66 46 67 39 68 40 69 44 70
REMARK SMILES IDX 47 71 41 72 42 73 45 74 43 75 69 76 70 77 78 78 71 79 72 80
REMARK SMILES IDX 76 81 79 82 73 83 74 84 77 85 75 86 54 87 55 88 63 89 56 90
REMARK SMILES IDX 57 91 61 92 64 93 58 94 59 95 62 96 60 97
REMARK H PARENT 21 5 6 13 18 20 18 21 25 31 84 50 52 61
REMARK Flexibility Score: inf
ROOT
ATOM      1  C   UNL A   1      36.765  21.147  24.751  1.00  0.00     0.117 C 
ENDROOT
BRANCH   1   2
ATOM      2  N   UNL A   1      35.659  21.245  25.682  1.00  0.00    -0.356 N 
ATOM      3  C   UNL A   1      34.397  20.746  25.614  1.00  0.00     0.225 C 
ATOM      4  O   UNL A   1      33.720  20.795  26.646  1.00  0.00    -0.275 OA
ATOM      5  H   UNL A   1      35.855  21.758  26.498  1.00  0.00     0.163 HD
BRANCH   3   6
ATOM      6  C   UNL A   1      33.798  20.139  24.343  1.00  0.00     0.100 C 
BRANCH   6   7
ATOM      7  C   UNL A   1      33.478  18.622  24.451  1.00  0.00    -0.003 C 
ATOM      8  C   UNL A   1      32.504  18.153  23.368  1.00  0.00     0.008 C 
ATOM      9  C   UNL A   1      34.765  17.787  24.364  1.00  0.00     0.008 C 
ENDBRANCH   6   7
BRANCH   6  10
ATOM     10  C   UNL A   1      32.720  21.063  23.737  1.00  0.00     0.129 C 
BRANCH  10  11
ATOM     11  N   UNL A   1      33.175  22.407  23.439  1.00  0.00    -0.350 N 
ATOM     12  C   UNL A   1      32.430  23.548  23.281  1.00  0.00     0.278 C 
ATOM     13  H   UNL A   1      34.148  22.515  23.337  1.00  0.00     0.163 HD
ATOM     14  O   UNL A   1      32.905  24.438  22.576  1.00  0.00    -0.268 OA
BRANCH  12  15
ATOM     15  C   UNL A   1      31.074  23.668  24.001  1.00  0.00     0.272 C 
ATOM     16  C   UNL A   1      30.354  24.993  23.731  1.00  0.00     0.076 C 
ATOM     17  N   UNL A   1      31.249  23.452  25.451  1.00  0.00    -0.333 N 
ATOM     18  C   UNL A   1      31.048  26.187  24.376  1.00  0.00     0.016 C 
ATOM     19  C   UNL A   1      31.930  24.544  26.161  1.00  0.00     0.186 C 
ATOM     20  H   UNL A   1      31.795  22.600  25.579  1.00  0.00     0.347 HD
ATOM     21  H   UNL A   1      30.310  23.395  25.846  1.00  0.00     0.347 HD
ATOM     22  C   UNL A   1      31.353  25.940  25.857  1.00  0.00     0.048 C 
ATOM     23  C   UNL A   1      33.475  24.463  26.156  1.00  0.00     0.065 C 
ATOM     24  C   UNL A   1      32.279  27.017  26.435  1.00  0.00     0.010 C 
ATOM     25  C   UNL A   1      34.200  25.614  25.467  1.00  0.00     0.006 C 
ATOM     26  C   UNL A   1      33.678  27.004  25.821  1.00  0.00     0.001 C 
ENDBRANCH  12  15
ENDBRANCH  10  11
ENDBRANCH   6  10
ENDBRANCH   3   6
ENDBRANCH   1   2
BRANCH   1  27
ATOM     27  C   UNL A   1      37.689  19.978  25.009  1.00  0.00     0.042 C 
BRANCH  27  28
ATOM     28  C   UNL A   1      38.977  20.396  25.692  1.00  0.00     0.118 C 
BRANCH  28  29
ATOM     29  N   UNL A   1      39.933  19.299  25.838  1.00  0.00    -0.352 N 
ATOM     30  C   UNL A   1      41.286  19.311  26.079  1.00  0.00     0.251 C 
ATOM     31  H   UNL A   1      39.542  18.400  25.749  1.00  0.00     0.163 HD
ATOM     32  O   UNL A   1      41.931  18.269  26.033  1.00  0.00    -0.269 OA
BRANCH  30  33
ATOM     33  C   UNL A   1      41.973  20.586  26.361  1.00  0.00     0.039 A 
ATOM     34  C   UNL A   1      42.302  21.433  25.300  1.00  0.00     0.014 A 
ATOM     35  C   UNL A   1      42.266  20.958  27.672  1.00  0.00     0.014 A 
ATOM     36  C   UNL A   1      42.837  22.694  25.567  1.00  0.00     0.010 A 
ATOM     37  C   UNL A   1      42.671  22.255  27.942  1.00  0.00     0.010 A 
ATOM     38  C   UNL A   1      42.975  23.134  26.892  1.00  0.00    -0.014 A 
BRANCH  38  39
ATOM     39  C   UNL A   1      43.460  24.496  27.224  1.00  0.00     0.031 A 
ATOM     40  C   UNL A   1      42.504  25.502  27.803  1.00  0.00     0.074 A 
ATOM     41  C   UNL A   1      44.722  24.852  26.914  1.00  0.00     0.049 A 
ATOM     42  N   UNL A   1      42.681  26.779  28.031  1.00  0.00    -0.248 NA
ATOM     43  C   UNL A   1      41.150  25.020  28.122  1.00  0.00     0.031 C 
ATOM     44  C   UNL A   1      45.721  23.984  26.288  1.00  0.00     0.029 A 
ATOM     45  N   UNL A   1      45.375  26.049  27.070  1.00  0.00    -0.354 N 
ATOM     46  C   UNL A   1      41.455  27.251  28.483  1.00  0.00     0.074 A 
ATOM     47  C   UNL A   1      40.527  26.145  28.436  1.00  0.00     0.031 C 
ATOM     48  C   UNL A   1      46.869  24.666  26.144  1.00  0.00     0.029 A 
ATOM     49  C   UNL A   1      46.674  26.029  26.624  1.00  0.00     0.049 A 
ATOM     50  H   UNL A   1      44.952  26.846  27.463  1.00  0.00     0.167 HD
ATOM     51  C   UNL A   1      41.141  28.490  28.929  1.00  0.00     0.037 A 
ATOM     52  C   UNL A   1      47.600  27.007  26.605  1.00  0.00     0.037 A 
ATOM     53  C   UNL A   1      42.086  29.569  29.029  1.00  0.00     0.049 A 
ATOM     54  C   UNL A   1      47.237  28.364  27.141  1.00  0.00     0.074 A 
ATOM     55  C   UNL A   1      41.895  30.840  29.540  1.00  0.00     0.029 A 
ATOM     56  N   UNL A   1      43.408  29.495  28.616  1.00  0.00    -0.354 N 
ATOM     57  N   UNL A   1      46.094  28.783  27.628  1.00  0.00    -0.248 NA
ATOM     58  C   UNL A   1      48.295  29.384  27.132  1.00  0.00     0.031 C 
ATOM     59  C   UNL A   1      43.094  31.548  29.404  1.00  0.00     0.029 A 
ATOM     60  C   UNL A   1      44.043  30.704  28.848  1.00  0.00     0.049 A 
ATOM     61  H   UNL A   1      43.833  28.702  28.216  1.00  0.00     0.167 HD
ATOM     62  C   UNL A   1      46.301  30.101  28.007  1.00  0.00     0.074 A 
ATOM     63  C   UNL A   1      47.684  30.410  27.708  1.00  0.00     0.031 C 
ATOM     64  C   UNL A   1      45.425  30.980  28.553  1.00  0.00     0.037 A 
BRANCH  51  65
ATOM     65  C   UNL A   1      39.724  28.734  29.357  1.00  0.00     0.064 A 
ATOM     66  C   UNL A   1      39.299  28.489  30.673  1.00  0.00     0.173 A 
ATOM     67  C   UNL A   1      38.781  29.236  28.448  1.00  0.00     0.173 A 
ATOM     68  F   UNL A   1      40.157  27.995  31.578  1.00  0.00    -0.203 F 
ATOM     69  C   UNL A   1      37.978  28.706  31.053  1.00  0.00     0.198 A 
ATOM     70  C   UNL A   1      37.467  29.483  28.840  1.00  0.00     0.198 A 
ATOM     71  F   UNL A   1      39.133  29.490  27.179  1.00  0.00    -0.203 F 
ATOM     72  F   UNL A   1      37.583  28.410  32.299  1.00  0.00    -0.200 F 
ATOM     73  C   UNL A   1      37.065  29.209  30.139  1.00  0.00     0.200 A 
ATOM     74  F   UNL A   1      36.589  29.980  27.958  1.00  0.00    -0.200 F 
ATOM     75  F   UNL A   1      35.794  29.422  30.507  1.00  0.00    -0.200 F 
ENDBRANCH  51  65
BRANCH  52  76
ATOM     76  C   UNL A   1      48.967  26.726  26.094  1.00  0.00     0.064 A 
ATOM     77  C   UNL A   1      49.329  27.080  24.786  1.00  0.00     0.173 A 
ATOM     78  C   UNL A   1      49.936  26.105  26.894  1.00  0.00     0.173 A 
ATOM     79  F   UNL A   1      48.432  27.661  23.977  1.00  0.00    -0.203 F 
ATOM     80  C   UNL A   1      50.602  26.802  24.291  1.00  0.00     0.198 A 
ATOM     81  C   UNL A   1      51.217  25.852  26.406  1.00  0.00     0.198 A 
ATOM     82  F   UNL A   1      49.643  25.754  28.154  1.00  0.00    -0.203 F 
ATOM     83  F   UNL A   1      50.907  27.111  23.023  1.00  0.00    -0.200 F 
ATOM     84  C   UNL A   1      51.546  26.193  25.103  1.00  0.00     0.200 A 
ATOM     85  F   UNL A   1      52.133  25.276  27.198  1.00  0.00    -0.200 F 
ATOM     86  F   UNL A   1      52.771  25.928  24.627  1.00  0.00    -0.200 F 
ENDBRANCH  52  76
BRANCH  64  87
ATOM     87  C   UNL A   1      45.946  32.344  28.895  1.00  0.00     0.064 A 
ATOM     88  C   UNL A   1      46.540  32.614  30.136  1.00  0.00     0.173 A 
ATOM     89  C   UNL A   1      45.895  33.379  27.949  1.00  0.00     0.173 A 
ATOM     90  F   UNL A   1      46.599  31.660  31.078  1.00  0.00    -0.203 F 
ATOM     91  C   UNL A   1      47.042  33.879  30.427  1.00  0.00     0.198 A 
ATOM     92  C   UNL A   1      46.423  34.634  28.233  1.00  0.00     0.198 A 
ATOM     93  F   UNL A   1      45.343  33.167  26.744  1.00  0.00    -0.203 F 
ATOM     94  F   UNL A   1      47.565  34.128  31.635  1.00  0.00    -0.200 F 
ATOM     95  C   UNL A   1      46.990  34.885  29.473  1.00  0.00     0.200 A 
ATOM     96  F   UNL A   1      46.385  35.601  27.305  1.00  0.00    -0.200 F 
ATOM     97  F   UNL A   1      47.483  36.100  29.752  1.00  0.00    -0.200 F 
ENDBRANCH  64  87
ENDBRANCH  38  39
ENDBRANCH  30  33
ENDBRANCH  28  29
ENDBRANCH  27  28
ENDBRANCH   1  27
TORSDOF 14
ENDMDL
MODEL 3
REMARK VINA RESULT:     -12.5      5.719     11.235
REMARK SMILES CC(C)[C@@H](CNC(=O)[C@@H]1CC[C@@H]2CCCC[C@@H]2[NH2+]1)C(=O)NCCCNC(=O)c1ccc(-c2c3nc(c(-c4c(F)c(F)c(F)c(F)c4F)c4ccc([nH]4)c(-c4c(F)c(F)c(F)c(F)c4F)c4nc(c(-c5c(F)c(F)c(F)c(F)c5F)c5ccc2[nH]5)C=C4)C=C3)cc1
REMARK SMILES IDX 22 1 21 2 19 3 20 4 4 6 2 7 1 8 3 9 5 10 6 11 7 12 8 14 9 15
REMARK SMILES IDX 10 16 18 17 11 18 17 19 12 22 16 23 13 24 15 25 14 26 23 27
REMARK SMILES IDX 24 28 25 29 26 30 27 32 28 33 29 34 90 35 30 36 89 37 31 38
REMARK SMILES IDX 32 39 33 40 83 41 34 42 88 43 82 44 84 45 35 46 87 47 81 48
REMARK SMILES IDX 80 49 36 51 68 52 48 53 67 54 49 55 52 56 66 57 85 58 50 59
REMARK SMILES IDX 51 60 65 62 86 63 53 64 37 65 38 66 46 67 39 68 40 69 44 70
REMARK SMILES IDX 47 71 41 72 42 73 45 74 43 75 69 76 70 77 78 78 71 79 72 80
REMARK SMILES IDX 76 81 79 82 73 83 74 84 77 85 75 86 54 87 55 88 63 89 56 90
REMARK SMILES IDX 57 91 61 92 64 93 58 94 59 95 62 96 60 97
REMARK H PARENT 21 5 6 13 18 20 18 21 25 31 84 50 52 61
REMARK Flexibility Score: inf
ROOT
ATOM      1  C   UNL A   1      31.716  30.422  26.562  1.00  0.00     0.117 C 
ENDROOT
BRANCH   1   2
ATOM      2  N   UNL A   1      32.333  29.825  25.395  1.00  0.00    -0.356 N 
ATOM      3  C   UNL A   1      31.782  29.338  24.252  1.00  0.00     0.225 C 
ATOM      4  O   UNL A   1      32.556  29.083  23.324  1.00  0.00    -0.275 OA
ATOM      5  H   UNL A   1      33.315  29.763  25.437  1.00  0.00     0.163 HD
BRANCH   3   6
ATOM      6  C   UNL A   1      30.280  29.104  24.074  1.00  0.00     0.100 C 
BRANCH   6   7
ATOM      7  C   UNL A   1      29.588  30.109  23.112  1.00  0.00    -0.003 C 
ATOM      8  C   UNL A   1      28.416  29.478  22.356  1.00  0.00     0.008 C 
ATOM      9  C   UNL A   1      29.084  31.339  23.883  1.00  0.00     0.008 C 
ENDBRANCH   6   7
BRANCH   6  10
ATOM     10  C   UNL A   1      29.967  27.602  23.898  1.00  0.00     0.129 C 
BRANCH  10  11
ATOM     11  N   UNL A   1      30.665  26.728  24.820  1.00  0.00    -0.350 N 
ATOM     12  C   UNL A   1      30.919  25.385  24.701  1.00  0.00     0.278 C 
ATOM     13  H   UNL A   1      31.002  27.155  25.640  1.00  0.00     0.163 HD
ATOM     14  O   UNL A   1      31.066  24.745  25.742  1.00  0.00    -0.268 OA
BRANCH  12  15
ATOM     15  C   UNL A   1      31.031  24.761  23.297  1.00  0.00     0.272 C 
ATOM     16  C   UNL A   1      31.265  23.247  23.318  1.00  0.00     0.076 C 
ATOM     17  N   UNL A   1      32.085  25.444  22.521  1.00  0.00    -0.333 N 
ATOM     18  C   UNL A   1      32.649  22.869  23.835  1.00  0.00     0.016 C 
ATOM     19  C   UNL A   1      33.458  25.159  22.959  1.00  0.00     0.186 C 
ATOM     20  H   UNL A   1      31.930  26.450  22.597  1.00  0.00     0.347 HD
ATOM     21  H   UNL A   1      32.009  25.094  21.567  1.00  0.00     0.347 HD
ATOM     22  C   UNL A   1      33.758  23.657  23.129  1.00  0.00     0.048 C 
ATOM     23  C   UNL A   1      33.981  26.060  24.102  1.00  0.00     0.065 C 
ATOM     24  C   UNL A   1      35.113  23.477  23.824  1.00  0.00     0.010 C 
ATOM     25  C   UNL A   1      34.337  25.348  25.403  1.00  0.00     0.006 C 
ATOM     26  C   UNL A   1      35.155  24.071  25.231  1.00  0.00     0.001 C 
ENDBRANCH  12  15
ENDBRANCH  10  11
ENDBRANCH   6  10
ENDBRANCH   3   6
ENDBRANCH   1   2
BRANCH   1  27
ATOM     27  C   UNL A   1      31.617  31.930  26.507  1.00  0.00     0.042 C 
BRANCH  27  28
ATOM     28  C   UNL A   1      32.717  32.613  27.297  1.00  0.00     0.118 C 
BRANCH  28  29
ATOM     29  N   UNL A   1      32.417  34.009  27.610  1.00  0.00    -0.352 N 
ATOM     30  C   UNL A   1      32.967  34.860  28.539  1.00  0.00     0.251 C 
ATOM     31  H   UNL A   1      31.703  34.408  27.063  1.00  0.00     0.163 HD
ATOM     32  O   UNL A   1      32.474  35.967  28.731  1.00  0.00    -0.269 OA
BRANCH  30  33
ATOM     33  C   UNL A   1      34.132  34.430  29.334  1.00  0.00     0.039 A 
ATOM     34  C   UNL A   1      33.927  33.852  30.589  1.00  0.00     0.014 A 
ATOM     35  C   UNL A   1      35.424  34.569  28.830  1.00  0.00     0.014 A 
ATOM     36  C   UNL A   1      35.013  33.330  31.292  1.00  0.00     0.010 A 
ATOM     37  C   UNL A   1      36.479  33.934  29.464  1.00  0.00     0.010 A 
ATOM     38  C   UNL A   1      36.289  33.319  30.710  1.00  0.00    -0.014 A 
BRANCH  38  39
ATOM     39  C   UNL A   1      37.457  32.700  31.382  1.00  0.00     0.031 A 
ATOM     40  C   UNL A   1      38.181  31.564  30.713  1.00  0.00     0.074 A 
ATOM     41  C   UNL A   1      37.800  33.089  32.626  1.00  0.00     0.049 A 
ATOM     42  N   UNL A   1      39.129  30.792  31.182  1.00  0.00    -0.248 NA
ATOM     43  C   UNL A   1      37.747  31.215  29.350  1.00  0.00     0.031 C 
ATOM     44  C   UNL A   1      37.131  34.134  33.403  1.00  0.00     0.029 A 
ATOM     45  N   UNL A   1      38.790  32.638  33.461  1.00  0.00    -0.354 N 
ATOM     46  C   UNL A   1      39.373  29.853  30.189  1.00  0.00     0.074 A 
ATOM     47  C   UNL A   1      38.434  30.107  29.120  1.00  0.00     0.031 C 
ATOM     48  C   UNL A   1      37.750  34.266  34.588  1.00  0.00     0.029 A 
ATOM     49  C   UNL A   1      38.828  33.287  34.671  1.00  0.00     0.049 A 
ATOM     50  H   UNL A   1      39.414  31.917  33.217  1.00  0.00     0.167 HD
ATOM     51  C   UNL A   1      40.318  28.885  30.157  1.00  0.00     0.037 A 
ATOM     52  C   UNL A   1      39.642  33.106  35.728  1.00  0.00     0.037 A 
ATOM     53  C   UNL A   1      41.287  28.677  31.198  1.00  0.00     0.049 A 
ATOM     54  C   UNL A   1      40.710  32.050  35.652  1.00  0.00     0.074 A 
ATOM     55  C   UNL A   1      42.339  27.779  31.233  1.00  0.00     0.029 A 
ATOM     56  N   UNL A   1      41.327  29.390  32.388  1.00  0.00    -0.354 N 
ATOM     57  N   UNL A   1      40.976  31.210  34.681  1.00  0.00    -0.248 NA
ATOM     58  C   UNL A   1      41.596  31.919  36.817  1.00  0.00     0.031 C 
ATOM     59  C   UNL A   1      42.994  27.924  32.460  1.00  0.00     0.029 A 
ATOM     60  C   UNL A   1      42.377  28.943  33.171  1.00  0.00     0.049 A 
ATOM     61  H   UNL A   1      40.700  30.108  32.638  1.00  0.00     0.167 HD
ATOM     62  C   UNL A   1      42.072  30.472  35.104  1.00  0.00     0.074 A 
ATOM     63  C   UNL A   1      42.432  30.973  36.414  1.00  0.00     0.031 C 
ATOM     64  C   UNL A   1      42.723  29.468  34.466  1.00  0.00     0.037 A 
BRANCH  51  65
ATOM     65  C   UNL A   1      40.358  27.994  28.950  1.00  0.00     0.064 A 
ATOM     66  C   UNL A   1      41.115  28.324  27.814  1.00  0.00     0.173 A 
ATOM     67  C   UNL A   1      39.646  26.785  28.933  1.00  0.00     0.173 A 
ATOM     68  F   UNL A   1      41.802  29.475  27.773  1.00  0.00    -0.203 F 
ATOM     69  C   UNL A   1      41.131  27.496  26.696  1.00  0.00     0.198 A 
ATOM     70  C   UNL A   1      39.690  25.942  27.825  1.00  0.00     0.198 A 
ATOM     71  F   UNL A   1      38.908  26.419  29.992  1.00  0.00    -0.203 F 
ATOM     72  F   UNL A   1      41.814  27.861  25.603  1.00  0.00    -0.200 F 
ATOM     73  C   UNL A   1      40.424  26.302  26.705  1.00  0.00     0.200 A 
ATOM     74  F   UNL A   1      39.016  24.783  27.839  1.00  0.00    -0.200 F 
ATOM     75  F   UNL A   1      40.444  25.503  25.630  1.00  0.00    -0.200 F 
ENDBRANCH  51  65
BRANCH  52  76
ATOM     76  C   UNL A   1      39.504  33.969  36.930  1.00  0.00     0.064 A 
ATOM     77  C   UNL A   1      38.757  33.541  38.037  1.00  0.00     0.173 A 
ATOM     78  C   UNL A   1      40.110  35.231  37.001  1.00  0.00     0.173 A 
ATOM     79  F   UNL A   1      38.143  32.349  38.009  1.00  0.00    -0.203 F 
ATOM     80  C   UNL A   1      38.603  34.352  39.160  1.00  0.00     0.198 A 
ATOM     81  C   UNL A   1      39.978  36.030  38.137  1.00  0.00     0.198 A 
ATOM     82  F   UNL A   1      40.842  35.685  35.973  1.00  0.00    -0.203 F 
ATOM     83  F   UNL A   1      37.847  33.935  40.184  1.00  0.00    -0.200 F 
ATOM     84  C   UNL A   1      39.218  35.593  39.211  1.00  0.00     0.200 A 
ATOM     85  F   UNL A   1      40.586  37.223  38.188  1.00  0.00    -0.200 F 
ATOM     86  F   UNL A   1      39.072  36.371  40.292  1.00  0.00    -0.200 F 
ENDBRANCH  52  76
BRANCH  64  87
ATOM     87  C   UNL A   1      43.911  28.872  35.161  1.00  0.00     0.064 A 
ATOM     88  C   UNL A   1      45.203  29.379  34.969  1.00  0.00     0.173 A 
ATOM     89  C   UNL A   1      43.743  27.813  36.066  1.00  0.00     0.173 A 
ATOM     90  F   UNL A   1      45.415  30.381  34.103  1.00  0.00    -0.203 F 
ATOM     91  C   UNL A   1      46.291  28.830  35.643  1.00  0.00     0.198 A 
ATOM     92  C   UNL A   1      44.828  27.286  36.758  1.00  0.00     0.198 A 
ATOM     93  F   UNL A   1      42.524  27.299  36.288  1.00  0.00    -0.203 F 
ATOM     94  F   UNL A   1      47.525  29.299  35.412  1.00  0.00    -0.200 F 
ATOM     95  C   UNL A   1      46.103  27.790  36.541  1.00  0.00     0.200 A 
ATOM     96  F   UNL A   1      44.642  26.291  37.636  1.00  0.00    -0.200 F 
ATOM     97  F   UNL A   1      47.150  27.269  37.195  1.00  0.00    -0.200 F 
ENDBRANCH  64  87
ENDBRANCH  38  39
ENDBRANCH  30  33
ENDBRANCH  28  29
ENDBRANCH  27  28
ENDBRANCH   1  27
TORSDOF 14
ENDMDL
