MODEL 1
REMARK VINA RESULT:     -12.9      0.000      0.000
REMARK SMILES Cc1cc(=O)cc(C)n1-c1ccc(Cl)cc1C(=O)NCCCNC(=O)c1ccc(-c2c3nc(c(-c4c(F)c(F)c(F)c(F)c4F)c4ccc([nH]4)c(-c4c(F)c(F)c(F)c(F)c4F)c4nc(c(-c5c(F)c(F)c(F)c(F)c5F)c5ccc2[nH]5)C=C4)C=C3)cc1
REMARK SMILES IDX 21 1 20 2 19 3 17 4 18 5 16 7 10 8 11 9 12 10 15 11 13 12
REMARK SMILES IDX 14 13 9 14 1 15 2 16 3 17 4 18 7 19 5 20 6 21 8 22 22 23
REMARK SMILES IDX 23 24 24 25 25 27 26 28 27 29 88 30 28 31 87 32 29 33 30 34
REMARK SMILES IDX 31 35 81 36 32 37 86 38 80 39 82 40 33 41 85 42 79 43 78 44
REMARK SMILES IDX 34 46 66 47 46 48 65 49 47 50 50 51 64 52 83 53 48 54 49 55
REMARK SMILES IDX 63 57 84 58 51 59 35 60 36 61 44 62 37 63 38 64 42 65 45 66
REMARK SMILES IDX 39 67 40 68 43 69 41 70 67 71 68 72 76 73 69 74 70 75 74 76
REMARK SMILES IDX 77 77 71 78 72 79 75 80 73 81 52 82 53 83 61 84 54 85 55 86
REMARK SMILES IDX 59 87 62 88 56 89 57 90 60 91 58 92
REMARK H PARENT 19 6 23 26 82 45 50 56
REMARK Flexibility Score: inf
ROOT
ATOM      1  C   UNL A   1      33.824  29.141  24.007  1.00  0.00     0.042 C 
ENDROOT
BRANCH   1   2
ATOM      2  C   UNL A   1      33.041  28.886  22.740  1.00  0.00     0.118 C 
BRANCH   2   3
ATOM      3  N   UNL A   1      33.435  27.780  21.915  1.00  0.00    -0.352 N 
ATOM      4  C   UNL A   1      32.938  26.499  21.916  1.00  0.00     0.253 C 
ATOM      5  O   UNL A   1      33.317  25.761  21.003  1.00  0.00    -0.269 OA
ATOM      6  H   UNL A   1      34.152  27.962  21.265  1.00  0.00     0.163 HD
BRANCH   4   7
ATOM      7  C   UNL A   1      32.051  25.913  22.977  1.00  0.00     0.065 A 
ATOM      8  C   UNL A   1      32.350  24.953  23.978  1.00  0.00     0.058 A 
ATOM      9  C   UNL A   1      31.335  24.618  24.915  1.00  0.00     0.029 A 
ATOM     10  C   UNL A   1      30.063  25.182  24.865  1.00  0.00     0.023 A 
ATOM     11  C   UNL A   1      30.755  26.486  22.962  1.00  0.00     0.036 A 
ATOM     12  C   UNL A   1      29.778  26.118  23.886  1.00  0.00     0.041 A 
ATOM     13  Cl  UNL A   1      28.216  26.834  23.819  1.00  0.00    -0.084 Cl
BRANCH   8  14
ATOM     14  N   UNL A   1      33.607  24.282  24.160  1.00  0.00    -0.317 N 
ATOM     15  C   UNL A   1      34.283  26.001  25.913  1.00  0.00     0.065 C 
ATOM     16  C   UNL A   1      34.560  24.761  25.097  1.00  0.00     0.024 A 
ATOM     17  C   UNL A   1      35.741  24.142  25.290  1.00  0.00     0.073 A 
ATOM     18  C   UNL A   1      36.073  22.928  24.518  1.00  0.00     0.182 A 
ATOM     19  C   UNL A   1      33.885  23.077  23.448  1.00  0.00     0.024 A 
ATOM     20  O   UNL A   1      37.155  22.367  24.628  1.00  0.00    -0.290 OA
ATOM     21  C   UNL A   1      35.050  22.417  23.592  1.00  0.00     0.073 A 
ATOM     22  C   UNL A   1      32.960  22.539  22.371  1.00  0.00     0.065 C 
ENDBRANCH   8  14
ENDBRANCH   4   7
ENDBRANCH   2   3
ENDBRANCH   1   2
BRANCH   1  23
ATOM     23  C   UNL A   1      33.015  28.966  25.282  1.00  0.00     0.118 C 
BRANCH  23  24
ATOM     24  N   UNL A   1      32.525  30.207  25.878  1.00  0.00    -0.352 N 
ATOM     25  C   UNL A   1      33.019  31.068  26.834  1.00  0.00     0.251 C 
ATOM     26  H   UNL A   1      31.653  30.488  25.518  1.00  0.00     0.163 HD
ATOM     27  O   UNL A   1      32.362  32.055  27.136  1.00  0.00    -0.269 OA
BRANCH  25  28
ATOM     28  C   UNL A   1      34.303  30.812  27.531  1.00  0.00     0.039 A 
ATOM     29  C   UNL A   1      35.219  31.860  27.688  1.00  0.00     0.014 A 
ATOM     30  C   UNL A   1      34.639  29.548  28.001  1.00  0.00     0.014 A 
ATOM     31  C   UNL A   1      36.415  31.650  28.387  1.00  0.00     0.010 A 
ATOM     32  C   UNL A   1      35.746  29.376  28.820  1.00  0.00     0.010 A 
ATOM     33  C   UNL A   1      36.666  30.416  29.004  1.00  0.00    -0.014 A 
BRANCH  33  34
ATOM     34  C   UNL A   1      37.893  30.142  29.798  1.00  0.00     0.031 A 
ATOM     35  C   UNL A   1      38.951  29.223  29.240  1.00  0.00     0.074 A 
ATOM     36  C   UNL A   1      38.017  30.631  31.047  1.00  0.00     0.049 A 
ATOM     37  N   UNL A   1      40.009  28.720  29.826  1.00  0.00    -0.248 NA
ATOM     38  C   UNL A   1      38.769  28.768  27.851  1.00  0.00     0.031 C 
ATOM     39  C   UNL A   1      37.047  31.494  31.721  1.00  0.00     0.029 A 
ATOM     40  N   UNL A   1      39.011  30.460  31.979  1.00  0.00    -0.354 N 
ATOM     41  C   UNL A   1      40.591  27.874  28.890  1.00  0.00     0.074 A 
ATOM     42  C   UNL A   1      39.728  27.865  27.730  1.00  0.00     0.031 C 
ATOM     43  C   UNL A   1      37.511  31.810  32.940  1.00  0.00     0.029 A 
ATOM     44  C   UNL A   1      38.786  31.133  33.155  1.00  0.00     0.049 A 
ATOM     45  H   UNL A   1      39.810  29.907  31.821  1.00  0.00     0.167 HD
ATOM     46  C   UNL A   1      41.760  27.197  28.969  1.00  0.00     0.037 A 
ATOM     47  C   UNL A   1      39.525  31.195  34.281  1.00  0.00     0.037 A 
ATOM     48  C   UNL A   1      42.644  27.254  30.101  1.00  0.00     0.049 A 
ATOM     49  C   UNL A   1      40.819  30.430  34.351  1.00  0.00     0.074 A 
ATOM     50  C   UNL A   1      43.882  26.658  30.259  1.00  0.00     0.029 A 
ATOM     51  N   UNL A   1      42.385  27.961  31.268  1.00  0.00    -0.354 N 
ATOM     52  N   UNL A   1      41.382  29.672  33.442  1.00  0.00    -0.248 NA
ATOM     53  C   UNL A   1      41.582  30.531  35.603  1.00  0.00     0.031 C 
ATOM     54  C   UNL A   1      44.355  26.970  31.537  1.00  0.00     0.029 A 
ATOM     55  C   UNL A   1      43.433  27.800  32.157  1.00  0.00     0.049 A 
ATOM     56  H   UNL A   1      41.577  28.497  31.436  1.00  0.00     0.167 HD
ATOM     57  C   UNL A   1      42.571  29.224  34.000  1.00  0.00     0.074 A 
ATOM     58  C   UNL A   1      42.659  29.809  35.321  1.00  0.00     0.031 C 
ATOM     59  C   UNL A   1      43.504  28.398  33.467  1.00  0.00     0.037 A 
BRANCH  46  60
ATOM     60  C   UNL A   1      42.168  26.364  27.788  1.00  0.00     0.064 A 
ATOM     61  C   UNL A   1      43.067  26.848  26.824  1.00  0.00     0.173 A 
ATOM     62  C   UNL A   1      41.688  25.054  27.635  1.00  0.00     0.173 A 
ATOM     63  F   UNL A   1      43.546  28.098  26.915  1.00  0.00    -0.203 F 
ATOM     64  C   UNL A   1      43.447  26.064  25.738  1.00  0.00     0.198 A 
ATOM     65  C   UNL A   1      42.098  24.260  26.566  1.00  0.00     0.198 A 
ATOM     66  F   UNL A   1      40.831  24.538  28.528  1.00  0.00    -0.203 F 
ATOM     67  F   UNL A   1      44.264  26.569  24.804  1.00  0.00    -0.200 F 
ATOM     68  C   UNL A   1      42.969  24.769  25.614  1.00  0.00     0.200 A 
ATOM     69  F   UNL A   1      41.648  23.003  26.456  1.00  0.00    -0.200 F 
ATOM     70  F   UNL A   1      43.345  24.012  24.574  1.00  0.00    -0.200 F 
ENDBRANCH  46  60
BRANCH  47  71
ATOM     71  C   UNL A   1      39.077  32.053  35.409  1.00  0.00     0.064 A 
ATOM     72  C   UNL A   1      38.344  31.505  36.472  1.00  0.00     0.173 A 
ATOM     73  C   UNL A   1      39.394  33.417  35.473  1.00  0.00     0.173 A 
ATOM     74  F   UNL A   1      38.000  30.209  36.448  1.00  0.00    -0.203 F 
ATOM     75  C   UNL A   1      37.939  32.289  37.550  1.00  0.00     0.198 A 
ATOM     76  C   UNL A   1      39.012  34.195  36.565  1.00  0.00     0.198 A 
ATOM     77  F   UNL A   1      40.097  33.991  34.486  1.00  0.00    -0.203 F 
ATOM     78  F   UNL A   1      37.214  31.745  38.536  1.00  0.00    -0.200 F 
ATOM     79  C   UNL A   1      38.282  33.632  37.600  1.00  0.00     0.200 A 
ATOM     80  F   UNL A   1      39.359  35.489  36.618  1.00  0.00    -0.200 F 
ATOM     81  F   UNL A   1      37.906  34.382  38.645  1.00  0.00    -0.200 F 
ENDBRANCH  47  71
BRANCH  59  82
ATOM     82  C   UNL A   1      44.712  28.081  34.300  1.00  0.00     0.064 A 
ATOM     83  C   UNL A   1      44.756  26.947  35.121  1.00  0.00     0.173 A 
ATOM     84  C   UNL A   1      45.868  28.871  34.205  1.00  0.00     0.173 A 
ATOM     85  F   UNL A   1      43.673  26.166  35.253  1.00  0.00    -0.203 F 
ATOM     86  C   UNL A   1      45.910  26.621  35.827  1.00  0.00     0.198 A 
ATOM     87  C   UNL A   1      47.030  28.525  34.887  1.00  0.00     0.198 A 
ATOM     88  F   UNL A   1      45.880  29.962  33.424  1.00  0.00    -0.203 F 
ATOM     89  F   UNL A   1      45.921  25.548  36.632  1.00  0.00    -0.200 F 
ATOM     90  C   UNL A   1      47.049  27.402  35.701  1.00  0.00     0.200 A 
ATOM     91  F   UNL A   1      48.135  29.271  34.749  1.00  0.00    -0.200 F 
ATOM     92  F   UNL A   1      48.166  27.073  36.365  1.00  0.00    -0.200 F 
ENDBRANCH  59  82
ENDBRANCH  33  34
ENDBRANCH  25  28
ENDBRANCH  23  24
ENDBRANCH   1  23
TORSDOF 11
ENDMDL
MODEL 2
REMARK VINA RESULT:     -12.8      1.876      3.208
REMARK SMILES Cc1cc(=O)cc(C)n1-c1ccc(Cl)cc1C(=O)NCCCNC(=O)c1ccc(-c2c3nc(c(-c4c(F)c(F)c(F)c(F)c4F)c4ccc([nH]4)c(-c4c(F)c(F)c(F)c(F)c4F)c4nc(c(-c5c(F)c(F)c(F)c(F)c5F)c5ccc2[nH]5)C=C4)C=C3)cc1
REMARK SMILES IDX 21 1 20 2 19 3 17 4 18 5 16 7 10 8 11 9 12 10 15 11 13 12
REMARK SMILES IDX 14 13 9 14 1 15 2 16 3 17 4 18 7 19 5 20 6 21 8 22 22 23
REMARK SMILES IDX 23 24 24 25 25 27 26 28 27 29 88 30 28 31 87 32 29 33 30 34
REMARK SMILES IDX 31 35 81 36 32 37 86 38 80 39 82 40 33 41 85 42 79 43 78 44
REMARK SMILES IDX 34 46 66 47 46 48 65 49 47 50 50 51 64 52 83 53 48 54 49 55
REMARK SMILES IDX 63 57 84 58 51 59 35 60 36 61 44 62 37 63 38 64 42 65 45 66
REMARK SMILES IDX 39 67 40 68 43 69 41 70 67 71 68 72 76 73 69 74 70 75 74 76
REMARK SMILES IDX 77 77 71 78 72 79 75 80 73 81 52 82 53 83 61 84 54 85 55 86
REMARK SMILES IDX 59 87 62 88 56 89 57 90 60 91 58 92
REMARK H PARENT 19 6 23 26 82 45 50 56
REMARK Flexibility Score: inf
ROOT
ATOM      1  C   UNL A   1      31.358  31.561  26.737  1.00  0.00     0.042 C 
ENDROOT
BRANCH   1   2
ATOM      2  C   UNL A   1      31.833  30.137  26.560  1.00  0.00     0.118 C 
BRANCH   2   3
ATOM      3  N   UNL A   1      32.730  29.855  25.477  1.00  0.00    -0.352 N 
ATOM      4  C   UNL A   1      32.431  29.339  24.239  1.00  0.00     0.253 C 
ATOM      5  O   UNL A   1      33.344  29.336  23.409  1.00  0.00    -0.269 OA
ATOM      6  H   UNL A   1      33.680  30.055  25.641  1.00  0.00     0.163 HD
BRANCH   4   7
ATOM      7  C   UNL A   1      31.123  28.710  23.852  1.00  0.00     0.065 A 
ATOM      8  C   UNL A   1      30.754  27.341  23.814  1.00  0.00     0.058 A 
ATOM      9  C   UNL A   1      29.412  27.014  23.477  1.00  0.00     0.029 A 
ATOM     10  C   UNL A   1      28.467  27.987  23.163  1.00  0.00     0.023 A 
ATOM     11  C   UNL A   1      30.136  29.681  23.548  1.00  0.00     0.036 A 
ATOM     12  C   UNL A   1      28.834  29.321  23.203  1.00  0.00     0.041 A 
ATOM     13  Cl  UNL A   1      27.675  30.536  22.831  1.00  0.00    -0.084 Cl
BRANCH   8  14
ATOM     14  N   UNL A   1      31.608  26.224  24.107  1.00  0.00    -0.317 N 
ATOM     15  C   UNL A   1      31.108  26.479  26.591  1.00  0.00     0.065 C 
ATOM     16  C   UNL A   1      31.792  25.778  25.442  1.00  0.00     0.024 A 
ATOM     17  C   UNL A   1      32.583  24.727  25.738  1.00  0.00     0.073 A 
ATOM     18  C   UNL A   1      33.284  24.003  24.659  1.00  0.00     0.182 A 
ATOM     19  C   UNL A   1      32.231  25.501  23.046  1.00  0.00     0.024 A 
ATOM     20  O   UNL A   1      34.049  23.078  24.892  1.00  0.00    -0.290 OA
ATOM     21  C   UNL A   1      33.037  24.448  23.278  1.00  0.00     0.073 A 
ATOM     22  C   UNL A   1      32.153  25.956  21.599  1.00  0.00     0.065 C 
ENDBRANCH   8  14
ENDBRANCH   4   7
ENDBRANCH   2   3
ENDBRANCH   1   2
BRANCH   1  23
ATOM     23  C   UNL A   1      32.454  32.604  26.588  1.00  0.00     0.118 C 
BRANCH  23  24
ATOM     24  N   UNL A   1      32.249  33.830  27.356  1.00  0.00    -0.352 N 
ATOM     25  C   UNL A   1      32.939  34.444  28.378  1.00  0.00     0.251 C 
ATOM     26  H   UNL A   1      31.443  34.324  27.082  1.00  0.00     0.163 HD
ATOM     27  O   UNL A   1      32.509  35.495  28.834  1.00  0.00    -0.269 OA
BRANCH  25  28
ATOM     28  C   UNL A   1      34.164  33.848  28.965  1.00  0.00     0.039 A 
ATOM     29  C   UNL A   1      35.405  34.452  28.723  1.00  0.00     0.014 A 
ATOM     30  C   UNL A   1      34.119  32.681  29.719  1.00  0.00     0.014 A 
ATOM     31  C   UNL A   1      36.567  33.932  29.309  1.00  0.00     0.010 A 
ATOM     32  C   UNL A   1      35.239  32.255  30.419  1.00  0.00     0.010 A 
ATOM     33  C   UNL A   1      36.486  32.856  30.205  1.00  0.00    -0.014 A 
BRANCH  33  34
ATOM     34  C   UNL A   1      37.674  32.287  30.895  1.00  0.00     0.031 A 
ATOM     35  C   UNL A   1      38.472  31.196  30.226  1.00  0.00     0.074 A 
ATOM     36  C   UNL A   1      37.979  32.670  32.150  1.00  0.00     0.049 A 
ATOM     37  N   UNL A   1      39.432  30.450  30.712  1.00  0.00    -0.248 NA
ATOM     38  C   UNL A   1      38.109  30.865  28.837  1.00  0.00     0.031 C 
ATOM     39  C   UNL A   1      37.261  33.681  32.926  1.00  0.00     0.029 A 
ATOM     40  N   UNL A   1      38.970  32.243  32.999  1.00  0.00    -0.354 N 
ATOM     41  C   UNL A   1      39.758  29.552  29.703  1.00  0.00     0.074 A 
ATOM     42  C   UNL A   1      38.842  29.788  28.611  1.00  0.00     0.031 C 
ATOM     43  C   UNL A   1      37.859  33.826  34.120  1.00  0.00     0.029 A 
ATOM     44  C   UNL A   1      38.970  32.884  34.214  1.00  0.00     0.049 A 
ATOM     45  H   UNL A   1      39.620  31.543  32.761  1.00  0.00     0.167 HD
ATOM     46  C   UNL A   1      40.757  28.639  29.670  1.00  0.00     0.037 A 
ATOM     47  C   UNL A   1      39.775  32.728  35.284  1.00  0.00     0.037 A 
ATOM     48  C   UNL A   1      41.703  28.447  30.735  1.00  0.00     0.049 A 
ATOM     49  C   UNL A   1      40.876  31.704  35.228  1.00  0.00     0.074 A 
ATOM     50  C   UNL A   1      42.791  27.595  30.779  1.00  0.00     0.029 A 
ATOM     51  N   UNL A   1      41.676  29.128  31.944  1.00  0.00    -0.354 N 
ATOM     52  N   UNL A   1      41.204  30.893  34.252  1.00  0.00    -0.248 NA
ATOM     53  C   UNL A   1      41.721  31.573  36.424  1.00  0.00     0.031 C 
ATOM     54  C   UNL A   1      43.400  27.731  32.029  1.00  0.00     0.029 A 
ATOM     55  C   UNL A   1      42.720  28.702  32.747  1.00  0.00     0.049 A 
ATOM     56  H   UNL A   1      41.014  29.813  32.193  1.00  0.00     0.167 HD
ATOM     57  C   UNL A   1      42.302  30.174  34.703  1.00  0.00     0.074 A 
ATOM     58  C   UNL A   1      42.597  30.656  36.036  1.00  0.00     0.031 C 
ATOM     59  C   UNL A   1      43.000  29.199  34.071  1.00  0.00     0.037 A 
BRANCH  46  60
ATOM     60  C   UNL A   1      40.900  27.803  28.430  1.00  0.00     0.064 A 
ATOM     61  C   UNL A   1      40.246  26.568  28.299  1.00  0.00     0.173 A 
ATOM     62  C   UNL A   1      41.665  28.257  27.344  1.00  0.00     0.173 A 
ATOM     63  F   UNL A   1      39.513  26.081  29.311  1.00  0.00    -0.203 F 
ATOM     64  C   UNL A   1      40.377  25.806  27.141  1.00  0.00     0.198 A 
ATOM     65  C   UNL A   1      41.764  27.508  26.174  1.00  0.00     0.198 A 
ATOM     66  F   UNL A   1      42.307  29.433  27.413  1.00  0.00    -0.203 F 
ATOM     67  F   UNL A   1      39.787  24.605  27.062  1.00  0.00    -0.200 F 
ATOM     68  C   UNL A   1      41.128  26.280  26.077  1.00  0.00     0.200 A 
ATOM     69  F   UNL A   1      42.479  27.975  25.141  1.00  0.00    -0.200 F 
ATOM     70  F   UNL A   1      41.243  25.550  24.959  1.00  0.00    -0.200 F 
ENDBRANCH  46  60
BRANCH  47  71
ATOM     71  C   UNL A   1      39.594  33.599  36.475  1.00  0.00     0.064 A 
ATOM     72  C   UNL A   1      40.185  34.870  36.523  1.00  0.00     0.173 A 
ATOM     73  C   UNL A   1      38.810  33.204  37.568  1.00  0.00     0.173 A 
ATOM     74  F   UNL A   1      40.959  35.285  35.510  1.00  0.00    -0.203 F 
ATOM     75  C   UNL A   1      40.004  35.709  37.620  1.00  0.00     0.198 A 
ATOM     76  C   UNL A   1      38.607  34.054  38.654  1.00  0.00     0.198 A 
ATOM     77  F   UNL A   1      38.219  32.000  37.572  1.00  0.00    -0.203 F 
ATOM     78  F   UNL A   1      40.605  36.906  37.652  1.00  0.00    -0.200 F 
ATOM     79  C   UNL A   1      39.208  35.303  38.681  1.00  0.00     0.200 A 
ATOM     80  F   UNL A   1      37.824  33.666  39.670  1.00  0.00    -0.200 F 
ATOM     81  F   UNL A   1      39.021  36.117  39.730  1.00  0.00    -0.200 F 
ENDBRANCH  47  71
BRANCH  59  82
ATOM     82  C   UNL A   1      44.163  28.590  34.799  1.00  0.00     0.064 A 
ATOM     83  C   UNL A   1      45.437  29.172  34.755  1.00  0.00     0.173 A 
ATOM     84  C   UNL A   1      43.979  27.467  35.620  1.00  0.00     0.173 A 
ATOM     85  F   UNL A   1      45.666  30.240  33.976  1.00  0.00    -0.203 F 
ATOM     86  C   UNL A   1      46.489  28.643  35.498  1.00  0.00     0.198 A 
ATOM     87  C   UNL A   1      45.024  26.961  36.385  1.00  0.00     0.198 A 
ATOM     88  F   UNL A   1      42.775  26.881  35.704  1.00  0.00    -0.203 F 
ATOM     89  F   UNL A   1      47.708  29.196  35.417  1.00  0.00    -0.200 F 
ATOM     90  C   UNL A   1      46.279  27.547  36.321  1.00  0.00     0.200 A 
ATOM     91  F   UNL A   1      44.815  25.913  37.194  1.00  0.00    -0.200 F 
ATOM     92  F   UNL A   1      47.289  27.054  37.052  1.00  0.00    -0.200 F 
ENDBRANCH  59  82
ENDBRANCH  33  34
ENDBRANCH  25  28
ENDBRANCH  23  24
ENDBRANCH   1  23
TORSDOF 11
ENDMDL
MODEL 3
REMARK VINA RESULT:     -12.7      1.857      2.762
REMARK SMILES Cc1cc(=O)cc(C)n1-c1ccc(Cl)cc1C(=O)NCCCNC(=O)c1ccc(-c2c3nc(c(-c4c(F)c(F)c(F)c(F)c4F)c4ccc([nH]4)c(-c4c(F)c(F)c(F)c(F)c4F)c4nc(c(-c5c(F)c(F)c(F)c(F)c5F)c5ccc2[nH]5)C=C4)C=C3)cc1
REMARK SMILES IDX 21 1 20 2 19 3 17 4 18 5 16 7 10 8 11 9 12 10 15 11 13 12
REMARK SMILES IDX 14 13 9 14 1 15 2 16 3 17 4 18 7 19 5 20 6 21 8 22 22 23
REMARK SMILES IDX 23 24 24 25 25 27 26 28 27 29 88 30 28 31 87 32 29 33 30 34
REMARK SMILES IDX 31 35 81 36 32 37 86 38 80 39 82 40 33 41 85 42 79 43 78 44
REMARK SMILES IDX 34 46 66 47 46 48 65 49 47 50 50 51 64 52 83 53 48 54 49 55
REMARK SMILES IDX 63 57 84 58 51 59 35 60 36 61 44 62 37 63 38 64 42 65 45 66
REMARK SMILES IDX 39 67 40 68 43 69 41 70 67 71 68 72 76 73 69 74 70 75 74 76
REMARK SMILES IDX 77 77 71 78 72 79 75 80 73 81 52 82 53 83 61 84 54 85 55 86
REMARK SMILES IDX 59 87 62 88 56 89 57 90 60 91 58 92
REMARK H PARENT 19 6 23 26 82 45 50 56
REMARK Flexibility Score: inf
ROOT
ATOM      1  C   UNL A   1      31.320  31.599  26.688  1.00  0.00     0.042 C 
ENDROOT
BRANCH   1   2
ATOM      2  C   UNL A   1      31.779  30.167  26.529  1.00  0.00     0.118 C 
BRANCH   2   3
ATOM      3  N   UNL A   1      32.678  29.863  25.454  1.00  0.00    -0.352 N 
ATOM      4  C   UNL A   1      32.381  29.341  24.218  1.00  0.00     0.253 C 
ATOM      5  O   UNL A   1      33.299  29.318  23.394  1.00  0.00    -0.269 OA
ATOM      6  H   UNL A   1      33.630  30.051  25.623  1.00  0.00     0.163 HD
BRANCH   4   7
ATOM      7  C   UNL A   1      31.067  28.727  23.828  1.00  0.00     0.065 A 
ATOM      8  C   UNL A   1      30.679  27.363  23.801  1.00  0.00     0.058 A 
ATOM      9  C   UNL A   1      29.335  27.052  23.457  1.00  0.00     0.029 A 
ATOM     10  C   UNL A   1      28.406  28.035  23.126  1.00  0.00     0.023 A 
ATOM     11  C   UNL A   1      30.096  29.708  23.507  1.00  0.00     0.036 A 
ATOM     12  C   UNL A   1      28.792  29.364  23.155  1.00  0.00     0.041 A 
ATOM     13  Cl  UNL A   1      27.653  30.591  22.761  1.00  0.00    -0.084 Cl
BRANCH   8  14
ATOM     14  N   UNL A   1      31.514  26.237  24.112  1.00  0.00    -0.317 N 
ATOM     15  C   UNL A   1      31.002  26.527  26.590  1.00  0.00     0.065 C 
ATOM     16  C   UNL A   1      31.683  25.803  25.453  1.00  0.00     0.024 A 
ATOM     17  C   UNL A   1      32.456  24.743  25.766  1.00  0.00     0.073 A 
ATOM     18  C   UNL A   1      33.154  23.998  24.700  1.00  0.00     0.182 A 
ATOM     19  C   UNL A   1      32.133  25.493  23.063  1.00  0.00     0.024 A 
ATOM     20  O   UNL A   1      33.903  23.064  24.947  1.00  0.00    -0.290 OA
ATOM     21  C   UNL A   1      32.922  24.431  23.312  1.00  0.00     0.073 A 
ATOM     22  C   UNL A   1      32.071  25.933  21.611  1.00  0.00     0.065 C 
ENDBRANCH   8  14
ENDBRANCH   4   7
ENDBRANCH   2   3
ENDBRANCH   1   2
BRANCH   1  23
ATOM     23  C   UNL A   1      32.429  32.627  26.529  1.00  0.00     0.118 C 
BRANCH  23  24
ATOM     24  N   UNL A   1      32.244  33.857  27.294  1.00  0.00    -0.352 N 
ATOM     25  C   UNL A   1      32.938  34.455  28.324  1.00  0.00     0.251 C 
ATOM     26  H   UNL A   1      31.453  34.371  27.012  1.00  0.00     0.163 HD
ATOM     27  O   UNL A   1      32.528  35.517  28.774  1.00  0.00    -0.269 OA
BRANCH  25  28
ATOM     28  C   UNL A   1      34.142  33.831  28.924  1.00  0.00     0.039 A 
ATOM     29  C   UNL A   1      35.404  34.380  28.659  1.00  0.00     0.014 A 
ATOM     30  C   UNL A   1      34.057  32.690  29.713  1.00  0.00     0.014 A 
ATOM     31  C   UNL A   1      36.548  33.834  29.256  1.00  0.00     0.010 A 
ATOM     32  C   UNL A   1      35.163  32.244  30.422  1.00  0.00     0.010 A 
ATOM     33  C   UNL A   1      36.431  32.790  30.184  1.00  0.00    -0.014 A 
BRANCH  33  34
ATOM     34  C   UNL A   1      37.600  32.197  30.887  1.00  0.00     0.031 A 
ATOM     35  C   UNL A   1      38.398  31.108  30.216  1.00  0.00     0.074 A 
ATOM     36  C   UNL A   1      37.886  32.557  32.153  1.00  0.00     0.049 A 
ATOM     37  N   UNL A   1      39.340  30.343  30.708  1.00  0.00    -0.248 NA
ATOM     38  C   UNL A   1      38.056  30.802  28.816  1.00  0.00     0.031 C 
ATOM     39  C   UNL A   1      37.165  33.565  32.932  1.00  0.00     0.029 A 
ATOM     40  N   UNL A   1      38.856  32.106  33.013  1.00  0.00    -0.354 N 
ATOM     41  C   UNL A   1      39.675  29.457  29.691  1.00  0.00     0.074 A 
ATOM     42  C   UNL A   1      38.781  29.720  28.587  1.00  0.00     0.031 C 
ATOM     43  C   UNL A   1      37.743  33.684  34.138  1.00  0.00     0.029 A 
ATOM     44  C   UNL A   1      38.841  32.729  34.238  1.00  0.00     0.049 A 
ATOM     45  H   UNL A   1      39.503  31.402  32.776  1.00  0.00     0.167 HD
ATOM     46  C   UNL A   1      40.664  28.533  29.662  1.00  0.00     0.037 A 
ATOM     47  C   UNL A   1      39.625  32.547  35.319  1.00  0.00     0.037 A 
ATOM     48  C   UNL A   1      41.588  28.314  30.742  1.00  0.00     0.049 A 
ATOM     49  C   UNL A   1      40.716  31.512  35.268  1.00  0.00     0.074 A 
ATOM     50  C   UNL A   1      42.666  27.450  30.791  1.00  0.00     0.029 A 
ATOM     51  N   UNL A   1      41.547  28.978  31.960  1.00  0.00    -0.354 N 
ATOM     52  N   UNL A   1      41.052  30.713  34.285  1.00  0.00    -0.248 NA
ATOM     53  C   UNL A   1      41.537  31.353  36.477  1.00  0.00     0.031 C 
ATOM     54  C   UNL A   1      43.254  27.560  32.055  1.00  0.00     0.029 A 
ATOM     55  C   UNL A   1      42.571  28.528  32.775  1.00  0.00     0.049 A 
ATOM     56  H   UNL A   1      40.888  29.666  32.207  1.00  0.00     0.167 HD
ATOM     57  C   UNL A   1      42.134  29.975  34.745  1.00  0.00     0.074 A 
ATOM     58  C   UNL A   1      42.410  30.433  36.090  1.00  0.00     0.031 C 
ATOM     59  C   UNL A   1      42.833  29.002  34.111  1.00  0.00     0.037 A 
BRANCH  46  60
ATOM     60  C   UNL A   1      40.821  27.715  28.412  1.00  0.00     0.064 A 
ATOM     61  C   UNL A   1      41.635  28.145  27.352  1.00  0.00     0.173 A 
ATOM     62  C   UNL A   1      40.185  26.471  28.286  1.00  0.00     0.173 A 
ATOM     63  F   UNL A   1      42.255  29.333  27.415  1.00  0.00    -0.203 F 
ATOM     64  C   UNL A   1      41.782  27.375  26.202  1.00  0.00     0.198 A 
ATOM     65  C   UNL A   1      40.363  25.687  27.148  1.00  0.00     0.198 A 
ATOM     66  F   UNL A   1      39.401  26.008  29.271  1.00  0.00    -0.203 F 
ATOM     67  F   UNL A   1      42.520  27.832  25.182  1.00  0.00    -0.200 F 
ATOM     68  C   UNL A   1      41.153  26.143  26.104  1.00  0.00     0.200 A 
ATOM     69  F   UNL A   1      39.767  24.489  27.062  1.00  0.00    -0.200 F 
ATOM     70  F   UNL A   1      41.305  25.397  25.001  1.00  0.00    -0.200 F 
ENDBRANCH  46  60
BRANCH  47  71
ATOM     71  C   UNL A   1      39.432  33.402  36.520  1.00  0.00     0.064 A 
ATOM     72  C   UNL A   1      40.045  34.661  36.604  1.00  0.00     0.173 A 
ATOM     73  C   UNL A   1      38.615  33.004  37.588  1.00  0.00     0.173 A 
ATOM     74  F   UNL A   1      40.851  35.078  35.617  1.00  0.00    -0.203 F 
ATOM     75  C   UNL A   1      39.854  35.485  37.710  1.00  0.00     0.198 A 
ATOM     76  C   UNL A   1      38.402  33.841  38.683  1.00  0.00     0.198 A 
ATOM     77  F   UNL A   1      38.001  31.813  37.557  1.00  0.00    -0.203 F 
ATOM     78  F   UNL A   1      40.476  36.670  37.776  1.00  0.00    -0.200 F 
ATOM     79  C   UNL A   1      39.025  35.078  38.745  1.00  0.00     0.200 A 
ATOM     80  F   UNL A   1      37.587  33.452  39.673  1.00  0.00    -0.200 F 
ATOM     81  F   UNL A   1      38.829  35.878  39.802  1.00  0.00    -0.200 F 
ENDBRANCH  47  71
BRANCH  59  82
ATOM     82  C   UNL A   1      43.975  28.369  34.851  1.00  0.00     0.064 A 
ATOM     83  C   UNL A   1      43.801  27.194  35.594  1.00  0.00     0.173 A 
ATOM     84  C   UNL A   1      45.272  28.893  34.741  1.00  0.00     0.173 A 
ATOM     85  F   UNL A   1      42.578  26.660  35.739  1.00  0.00    -0.203 F 
ATOM     86  C   UNL A   1      44.883  26.572  36.211  1.00  0.00     0.198 A 
ATOM     87  C   UNL A   1      46.356  28.252  35.332  1.00  0.00     0.198 A 
ATOM     88  F   UNL A   1      45.492  30.010  34.031  1.00  0.00    -0.203 F 
ATOM     89  F   UNL A   1      44.690  25.466  36.944  1.00  0.00    -0.200 F 
ATOM     90  C   UNL A   1      46.160  27.094  36.069  1.00  0.00     0.200 A 
ATOM     91  F   UNL A   1      47.591  28.747  35.178  1.00  0.00    -0.200 F 
ATOM     92  F   UNL A   1      47.203  26.481  36.646  1.00  0.00    -0.200 F 
ENDBRANCH  59  82
ENDBRANCH  33  34
ENDBRANCH  25  28
ENDBRANCH  23  24
ENDBRANCH   1  23
TORSDOF 11
ENDMDL
