MODEL 1
REMARK VINA RESULT:     -13.3      0.000      0.000
REMARK SMILES CC[C@@H](C)c1ccccc1NC(=O)[C@@H]1[C@@H](C(=O)NCCCNC(=O)c2ccc(-c3c4nc(c(-c5c(F)c(F)c(F)c(F)c5F)c5ccc([nH]5)c(-c5c(F)c(F)c(F)c(F)c5F)c5nc(c(-c6c(F)c(F)c(F)c(F)c6F)c6ccc3[nH]6)C=C5)C=C4)cc2)[C@@H]2C=C[C@H]1C2
REMARK SMILES IDX 19 1 18 2 16 3 17 4 15 6 14 7 91 8 88 9 90 10 92 11 89 12
REMARK SMILES IDX 12 13 11 14 13 16 10 17 5 18 6 19 7 20 9 21 8 22 3 23 4 24
REMARK SMILES IDX 2 25 1 26 20 27 21 28 22 29 23 30 24 32 25 33 26 34 87 35
REMARK SMILES IDX 27 36 86 37 28 38 29 39 30 40 80 41 31 42 85 43 79 44 81 45
REMARK SMILES IDX 32 46 84 47 78 48 77 49 33 51 65 52 45 53 64 54 46 55 49 56
REMARK SMILES IDX 63 57 82 58 47 59 48 60 62 62 83 63 50 64 34 65 35 66 43 67
REMARK SMILES IDX 36 68 37 69 41 70 44 71 38 72 39 73 42 74 40 75 66 76 67 77
REMARK SMILES IDX 75 78 68 79 69 80 73 81 76 82 70 83 71 84 74 85 72 86 51 87
REMARK SMILES IDX 52 88 60 89 53 90 54 91 58 92 61 93 55 94 56 95 59 96 57 97
REMARK H PARENT 18 5 11 15 22 31 81 50 49 61
REMARK Flexibility Score: inf
ROOT
ATOM      1  C   UNL A   1      31.423  30.734  26.429  1.00  0.00     0.117 C 
ENDROOT
BRANCH   1   2
ATOM      2  N   UNL A   1      32.292  30.238  25.387  1.00  0.00    -0.356 N 
ATOM      3  C   UNL A   1      32.324  29.120  24.639  1.00  0.00     0.224 C 
ATOM      4  O   UNL A   1      33.233  29.085  23.801  1.00  0.00    -0.275 OA
ATOM      5  H   UNL A   1      33.025  30.859  25.175  1.00  0.00     0.163 HD
BRANCH   3   6
ATOM      6  C   UNL A   1      31.424  27.897  24.836  1.00  0.00     0.098 C 
ATOM      7  C   UNL A   1      32.323  26.639  24.731  1.00  0.00     0.099 C 
ATOM      8  C   UNL A   1      31.758  25.901  23.476  1.00  0.00     0.025 C 
ATOM      9  C   UNL A   1      30.306  27.548  23.816  1.00  0.00     0.025 C 
ATOM     10  C   UNL A   1      30.473  25.238  23.873  1.00  0.00    -0.027 C 
ATOM     11  C   UNL A   1      31.164  27.060  22.652  1.00  0.00     0.017 C 
ATOM     12  C   UNL A   1      29.602  26.226  24.098  1.00  0.00    -0.027 C 
BRANCH   7  13
ATOM     13  C   UNL A   1      32.577  25.697  25.906  1.00  0.00     0.228 C 
ATOM     14  N   UNL A   1      33.399  24.630  26.051  1.00  0.00    -0.326 N 
ATOM     15  H   UNL A   1      33.167  24.161  26.885  1.00  0.00     0.169 HD
ATOM     16  O   UNL A   1      31.870  25.899  26.914  1.00  0.00    -0.274 OA
BRANCH  14  17
ATOM     17  C   UNL A   1      34.471  23.953  25.431  1.00  0.00     0.044 A 
ATOM     18  C   UNL A   1      34.289  23.153  24.275  1.00  0.00    -0.022 A 
ATOM     19  C   UNL A   1      35.454  22.869  23.501  1.00  0.00     0.006 A 
ATOM     20  C   UNL A   1      36.738  23.226  23.903  1.00  0.00     0.000 A 
ATOM     21  C   UNL A   1      35.770  24.044  25.918  1.00  0.00     0.026 A 
ATOM     22  C   UNL A   1      36.902  23.748  25.162  1.00  0.00     0.002 A 
BRANCH  18  23
ATOM     23  C   UNL A   1      33.025  22.323  23.907  1.00  0.00     0.018 C 
ATOM     24  C   UNL A   1      33.047  20.896  24.492  1.00  0.00     0.013 C 
BRANCH  23  25
ATOM     25  C   UNL A   1      32.556  22.282  22.434  1.00  0.00     0.005 C 
ATOM     26  C   UNL A   1      31.859  20.999  21.997  1.00  0.00     0.004 C 
ENDBRANCH  23  25
ENDBRANCH  18  23
ENDBRANCH  14  17
ENDBRANCH   7  13
ENDBRANCH   3   6
ENDBRANCH   1   2
BRANCH   1  27
ATOM     27  C   UNL A   1      31.436  32.249  26.502  1.00  0.00     0.042 C 
BRANCH  27  28
ATOM     28  C   UNL A   1      32.616  32.780  27.300  1.00  0.00     0.118 C 
BRANCH  28  29
ATOM     29  N   UNL A   1      32.481  34.206  27.586  1.00  0.00    -0.352 N 
ATOM     30  C   UNL A   1      33.015  34.954  28.603  1.00  0.00     0.251 C 
ATOM     31  H   UNL A   1      31.920  34.708  26.950  1.00  0.00     0.163 HD
ATOM     32  O   UNL A   1      32.550  36.053  28.875  1.00  0.00    -0.269 OA
BRANCH  30  33
ATOM     33  C   UNL A   1      34.154  34.415  29.363  1.00  0.00     0.039 A 
ATOM     34  C   UNL A   1      33.927  33.768  30.577  1.00  0.00     0.014 A 
ATOM     35  C   UNL A   1      35.450  34.553  28.861  1.00  0.00     0.014 A 
ATOM     36  C   UNL A   1      35.003  33.200  31.257  1.00  0.00     0.010 A 
ATOM     37  C   UNL A   1      36.498  33.891  29.476  1.00  0.00     0.010 A 
ATOM     38  C   UNL A   1      36.289  33.225  30.691  1.00  0.00    -0.014 A 
BRANCH  38  39
ATOM     39  C   UNL A   1      37.442  32.584  31.361  1.00  0.00     0.031 A 
ATOM     40  C   UNL A   1      38.134  31.424  30.704  1.00  0.00     0.074 A 
ATOM     41  C   UNL A   1      37.811  33.001  32.586  1.00  0.00     0.049 A 
ATOM     42  N   UNL A   1      39.106  30.675  31.157  1.00  0.00    -0.248 NA
ATOM     43  C   UNL A   1      37.643  31.025  29.373  1.00  0.00     0.031 C 
ATOM     44  C   UNL A   1      37.173  34.080  33.343  1.00  0.00     0.029 A 
ATOM     45  N   UNL A   1      38.809  32.559  33.416  1.00  0.00    -0.354 N 
ATOM     46  C   UNL A   1      39.330  29.717  30.178  1.00  0.00     0.074 A 
ATOM     47  C   UNL A   1      38.348  29.929  29.139  1.00  0.00     0.031 C 
ATOM     48  C   UNL A   1      37.815  34.237  34.511  1.00  0.00     0.029 A 
ATOM     49  C   UNL A   1      38.878  33.242  34.605  1.00  0.00     0.049 A 
ATOM     50  H   UNL A   1      39.418  31.822  33.181  1.00  0.00     0.167 HD
ATOM     51  C   UNL A   1      40.289  28.764  30.137  1.00  0.00     0.037 A 
ATOM     52  C   UNL A   1      39.704  33.075  35.654  1.00  0.00     0.037 A 
ATOM     53  C   UNL A   1      41.280  28.579  31.164  1.00  0.00     0.049 A 
ATOM     54  C   UNL A   1      40.755  32.001  35.587  1.00  0.00     0.074 A 
ATOM     55  C   UNL A   1      42.336  27.687  31.193  1.00  0.00     0.029 A 
ATOM     56  N   UNL A   1      41.328  29.299  32.348  1.00  0.00    -0.354 N 
ATOM     57  N   UNL A   1      41.011  31.150  34.622  1.00  0.00    -0.248 NA
ATOM     58  C   UNL A   1      41.638  31.867  36.753  1.00  0.00     0.031 C 
ATOM     59  C   UNL A   1      42.992  27.830  32.420  1.00  0.00     0.029 A 
ATOM     60  C   UNL A   1      42.381  28.852  33.130  1.00  0.00     0.049 A 
ATOM     61  H   UNL A   1      40.707  30.021  32.597  1.00  0.00     0.167 HD
ATOM     62  C   UNL A   1      42.097  30.399  35.051  1.00  0.00     0.074 A 
ATOM     63  C   UNL A   1      42.466  30.911  36.355  1.00  0.00     0.031 C 
ATOM     64  C   UNL A   1      42.731  29.378  34.425  1.00  0.00     0.037 A 
BRANCH  51  65
ATOM     65  C   UNL A   1      40.317  27.855  28.941  1.00  0.00     0.064 A 
ATOM     66  C   UNL A   1      39.598  26.650  28.914  1.00  0.00     0.173 A 
ATOM     67  C   UNL A   1      41.047  28.207  27.796  1.00  0.00     0.173 A 
ATOM     68  F   UNL A   1      38.895  26.257  29.988  1.00  0.00    -0.203 F 
ATOM     69  C   UNL A   1      39.633  25.817  27.798  1.00  0.00     0.198 A 
ATOM     70  C   UNL A   1      41.052  27.389  26.669  1.00  0.00     0.198 A 
ATOM     71  F   UNL A   1      41.750  29.349  27.767  1.00  0.00    -0.203 F 
ATOM     72  F   UNL A   1      38.984  24.645  27.818  1.00  0.00    -0.200 F 
ATOM     73  C   UNL A   1      40.353  26.191  26.674  1.00  0.00     0.200 A 
ATOM     74  F   UNL A   1      41.738  27.759  25.578  1.00  0.00    -0.200 F 
ATOM     75  F   UNL A   1      40.380  25.394  25.598  1.00  0.00    -0.200 F 
ENDBRANCH  51  65
BRANCH  52  76
ATOM     76  C   UNL A   1      39.584  33.956  36.845  1.00  0.00     0.064 A 
ATOM     77  C   UNL A   1      38.810  33.573  37.950  1.00  0.00     0.173 A 
ATOM     78  C   UNL A   1      40.229  35.200  36.902  1.00  0.00     0.173 A 
ATOM     79  F   UNL A   1      38.160  32.400  37.937  1.00  0.00    -0.203 F 
ATOM     80  C   UNL A   1      38.665  34.412  39.053  1.00  0.00     0.198 A 
ATOM     81  C   UNL A   1      40.110  36.024  38.019  1.00  0.00     0.198 A 
ATOM     82  F   UNL A   1      40.989  35.611  35.876  1.00  0.00    -0.203 F 
ATOM     83  F   UNL A   1      37.877  34.043  40.073  1.00  0.00    -0.200 F 
ATOM     84  C   UNL A   1      39.319  35.634  39.090  1.00  0.00     0.200 A 
ATOM     85  F   UNL A   1      40.758  37.196  38.058  1.00  0.00    -0.200 F 
ATOM     86  F   UNL A   1      39.181  36.439  40.152  1.00  0.00    -0.200 F 
ENDBRANCH  52  76
BRANCH  64  87
ATOM     87  C   UNL A   1      43.908  28.766  35.130  1.00  0.00     0.064 A 
ATOM     88  C   UNL A   1      45.211  29.256  34.950  1.00  0.00     0.173 A 
ATOM     89  C   UNL A   1      43.723  27.704  36.027  1.00  0.00     0.173 A 
ATOM     90  F   UNL A   1      45.442  30.262  34.092  1.00  0.00    -0.203 F 
ATOM     91  C   UNL A   1      46.288  28.684  35.620  1.00  0.00     0.198 A 
ATOM     92  C   UNL A   1      44.798  27.159  36.722  1.00  0.00     0.198 A 
ATOM     93  F   UNL A   1      42.496  27.204  36.242  1.00  0.00    -0.203 F 
ATOM     94  F   UNL A   1      47.530  29.132  35.392  1.00  0.00    -0.200 F 
ATOM     95  C   UNL A   1      46.080  27.642  36.512  1.00  0.00     0.200 A 
ATOM     96  F   UNL A   1      44.592  26.163  37.597  1.00  0.00    -0.200 F 
ATOM     97  F   UNL A   1      47.117  27.100  37.164  1.00  0.00    -0.200 F 
ENDBRANCH  64  87
ENDBRANCH  38  39
ENDBRANCH  30  33
ENDBRANCH  28  29
ENDBRANCH  27  28
ENDBRANCH   1  27
TORSDOF 14
ENDMDL
MODEL 2
REMARK VINA RESULT:     -13.2      0.061      1.567
REMARK SMILES CC[C@@H](C)c1ccccc1NC(=O)[C@@H]1[C@@H](C(=O)NCCCNC(=O)c2ccc(-c3c4nc(c(-c5c(F)c(F)c(F)c(F)c5F)c5ccc([nH]5)c(-c5c(F)c(F)c(F)c(F)c5F)c5nc(c(-c6c(F)c(F)c(F)c(F)c6F)c6ccc3[nH]6)C=C5)C=C4)cc2)[C@@H]2C=C[C@H]1C2
REMARK SMILES IDX 19 1 18 2 16 3 17 4 15 6 14 7 91 8 88 9 90 10 92 11 89 12
REMARK SMILES IDX 12 13 11 14 13 16 10 17 5 18 6 19 7 20 9 21 8 22 3 23 4 24
REMARK SMILES IDX 2 25 1 26 20 27 21 28 22 29 23 30 24 32 25 33 26 34 87 35
REMARK SMILES IDX 27 36 86 37 28 38 29 39 30 40 80 41 31 42 85 43 79 44 81 45
REMARK SMILES IDX 32 46 84 47 78 48 77 49 33 51 65 52 45 53 64 54 46 55 49 56
REMARK SMILES IDX 63 57 82 58 47 59 48 60 62 62 83 63 50 64 34 65 35 66 43 67
REMARK SMILES IDX 36 68 37 69 41 70 44 71 38 72 39 73 42 74 40 75 66 76 67 77
REMARK SMILES IDX 75 78 68 79 69 80 73 81 76 82 70 83 71 84 74 85 72 86 51 87
REMARK SMILES IDX 52 88 60 89 53 90 54 91 58 92 61 93 55 94 56 95 59 96 57 97
REMARK H PARENT 18 5 11 15 22 31 81 50 49 61
REMARK Flexibility Score: inf
ROOT
ATOM      1  C   UNL A   1      31.400  30.722  26.409  1.00  0.00     0.117 C 
ENDROOT
BRANCH   1   2
ATOM      2  N   UNL A   1      32.302  30.208  25.404  1.00  0.00    -0.356 N 
ATOM      3  C   UNL A   1      32.354  29.081  24.672  1.00  0.00     0.224 C 
ATOM      4  O   UNL A   1      33.293  29.030  23.867  1.00  0.00    -0.275 OA
ATOM      5  H   UNL A   1      33.047  30.823  25.211  1.00  0.00     0.163 HD
BRANCH   3   6
ATOM      6  C   UNL A   1      31.440  27.866  24.851  1.00  0.00     0.098 C 
ATOM      7  C   UNL A   1      32.326  26.600  24.729  1.00  0.00     0.099 C 
ATOM      8  C   UNL A   1      31.753  25.885  23.464  1.00  0.00     0.025 C 
ATOM      9  C   UNL A   1      30.320  27.543  23.826  1.00  0.00     0.025 C 
ATOM     10  C   UNL A   1      30.461  25.230  23.851  1.00  0.00    -0.027 C 
ATOM     11  C   UNL A   1      31.172  27.062  22.656  1.00  0.00     0.017 C 
ATOM     12  C   UNL A   1      29.600  26.225  24.090  1.00  0.00    -0.027 C 
BRANCH   7  13
ATOM     13  C   UNL A   1      32.569  25.638  25.892  1.00  0.00     0.228 C 
ATOM     14  N   UNL A   1      33.399  24.578  26.032  1.00  0.00    -0.326 N 
ATOM     15  H   UNL A   1      33.157  24.090  26.853  1.00  0.00     0.169 HD
ATOM     16  O   UNL A   1      31.841  25.814  26.890  1.00  0.00    -0.274 OA
BRANCH  14  17
ATOM     17  C   UNL A   1      34.490  23.923  25.419  1.00  0.00     0.044 A 
ATOM     18  C   UNL A   1      34.334  23.121  24.261  1.00  0.00    -0.022 A 
ATOM     19  C   UNL A   1      35.510  22.862  23.496  1.00  0.00     0.006 A 
ATOM     20  C   UNL A   1      36.783  23.245  23.909  1.00  0.00     0.000 A 
ATOM     21  C   UNL A   1      35.783  24.041  25.917  1.00  0.00     0.026 A 
ATOM     22  C   UNL A   1      36.926  23.769  25.169  1.00  0.00     0.002 A 
BRANCH  18  23
ATOM     23  C   UNL A   1      33.089  22.266  23.883  1.00  0.00     0.018 C 
ATOM     24  C   UNL A   1      33.165  20.821  24.415  1.00  0.00     0.013 C 
BRANCH  23  25
ATOM     25  C   UNL A   1      32.598  22.263  22.416  1.00  0.00     0.005 C 
ATOM     26  C   UNL A   1      31.840  21.016  21.975  1.00  0.00     0.004 C 
ENDBRANCH  23  25
ENDBRANCH  18  23
ENDBRANCH  14  17
ENDBRANCH   7  13
ENDBRANCH   3   6
ENDBRANCH   1   2
BRANCH   1  27
ATOM     27  C   UNL A   1      31.432  32.237  26.475  1.00  0.00     0.042 C 
BRANCH  27  28
ATOM     28  C   UNL A   1      32.578  32.756  27.328  1.00  0.00     0.118 C 
BRANCH  28  29
ATOM     29  N   UNL A   1      32.461  34.189  27.583  1.00  0.00    -0.352 N 
ATOM     30  C   UNL A   1      33.006  34.953  28.581  1.00  0.00     0.251 C 
ATOM     31  H   UNL A   1      31.906  34.683  26.936  1.00  0.00     0.163 HD
ATOM     32  O   UNL A   1      32.555  36.064  28.829  1.00  0.00    -0.269 OA
BRANCH  30  33
ATOM     33  C   UNL A   1      34.140  34.416  29.352  1.00  0.00     0.039 A 
ATOM     34  C   UNL A   1      33.901  33.746  30.551  1.00  0.00     0.014 A 
ATOM     35  C   UNL A   1      35.442  34.581  28.874  1.00  0.00     0.014 A 
ATOM     36  C   UNL A   1      34.974  33.182  31.240  1.00  0.00     0.010 A 
ATOM     37  C   UNL A   1      36.489  33.924  29.496  1.00  0.00     0.010 A 
ATOM     38  C   UNL A   1      36.268  33.234  30.696  1.00  0.00    -0.014 A 
BRANCH  38  39
ATOM     39  C   UNL A   1      37.420  32.598  31.375  1.00  0.00     0.031 A 
ATOM     40  C   UNL A   1      38.120  31.440  30.724  1.00  0.00     0.074 A 
ATOM     41  C   UNL A   1      37.778  33.017  32.603  1.00  0.00     0.049 A 
ATOM     42  N   UNL A   1      39.092  30.695  31.184  1.00  0.00    -0.248 NA
ATOM     43  C   UNL A   1      37.641  31.039  29.390  1.00  0.00     0.031 C 
ATOM     44  C   UNL A   1      37.130  34.094  33.354  1.00  0.00     0.029 A 
ATOM     45  N   UNL A   1      38.772  32.579  33.440  1.00  0.00    -0.354 N 
ATOM     46  C   UNL A   1      39.326  29.737  30.208  1.00  0.00     0.074 A 
ATOM     47  C   UNL A   1      38.352  29.945  29.162  1.00  0.00     0.031 C 
ATOM     48  C   UNL A   1      37.763  34.254  34.526  1.00  0.00     0.029 A 
ATOM     49  C   UNL A   1      38.829  33.263  34.630  1.00  0.00     0.049 A 
ATOM     50  H   UNL A   1      39.385  31.844  33.211  1.00  0.00     0.167 HD
ATOM     51  C   UNL A   1      40.290  28.787  30.175  1.00  0.00     0.037 A 
ATOM     52  C   UNL A   1      39.647  33.100  35.685  1.00  0.00     0.037 A 
ATOM     53  C   UNL A   1      41.273  28.607  31.209  1.00  0.00     0.049 A 
ATOM     54  C   UNL A   1      40.703  32.030  35.626  1.00  0.00     0.074 A 
ATOM     55  C   UNL A   1      42.332  27.719  31.246  1.00  0.00     0.029 A 
ATOM     56  N   UNL A   1      41.310  29.328  32.393  1.00  0.00    -0.354 N 
ATOM     57  N   UNL A   1      40.969  31.179  34.663  1.00  0.00    -0.248 NA
ATOM     58  C   UNL A   1      41.578  31.900  36.799  1.00  0.00     0.031 C 
ATOM     59  C   UNL A   1      42.979  27.865  32.478  1.00  0.00     0.029 A 
ATOM     60  C   UNL A   1      42.359  28.885  33.183  1.00  0.00     0.049 A 
ATOM     61  H   UNL A   1      40.684  30.048  32.637  1.00  0.00     0.167 HD
ATOM     62  C   UNL A   1      42.055  30.433  35.101  1.00  0.00     0.074 A 
ATOM     63  C   UNL A   1      42.412  30.947  36.407  1.00  0.00     0.031 C 
ATOM     64  C   UNL A   1      42.698  29.414  34.480  1.00  0.00     0.037 A 
BRANCH  51  65
ATOM     65  C   UNL A   1      40.329  27.878  28.980  1.00  0.00     0.064 A 
ATOM     66  C   UNL A   1      39.608  26.674  28.945  1.00  0.00     0.173 A 
ATOM     67  C   UNL A   1      41.073  28.228  27.843  1.00  0.00     0.173 A 
ATOM     68  F   UNL A   1      38.893  26.283  30.011  1.00  0.00    -0.203 F 
ATOM     69  C   UNL A   1      39.656  25.841  27.831  1.00  0.00     0.198 A 
ATOM     70  C   UNL A   1      41.089  27.410  26.716  1.00  0.00     0.198 A 
ATOM     71  F   UNL A   1      41.778  29.369  27.821  1.00  0.00    -0.203 F 
ATOM     72  F   UNL A   1      39.004  24.670  27.844  1.00  0.00    -0.200 F 
ATOM     73  C   UNL A   1      40.389  26.213  26.714  1.00  0.00     0.200 A 
ATOM     74  F   UNL A   1      41.788  27.778  25.633  1.00  0.00    -0.200 F 
ATOM     75  F   UNL A   1      40.426  25.415  25.638  1.00  0.00    -0.200 F 
ENDBRANCH  51  65
BRANCH  52  76
ATOM     76  C   UNL A   1      39.515  33.982  36.874  1.00  0.00     0.064 A 
ATOM     77  C   UNL A   1      40.144  35.234  36.915  1.00  0.00     0.173 A 
ATOM     78  C   UNL A   1      38.769  33.591  37.996  1.00  0.00     0.173 A 
ATOM     79  F   UNL A   1      40.884  35.646  35.875  1.00  0.00    -0.203 F 
ATOM     80  C   UNL A   1      40.054  36.048  38.042  1.00  0.00     0.198 A 
ATOM     81  C   UNL A   1      38.652  34.420  39.109  1.00  0.00     0.198 A 
ATOM     82  F   UNL A   1      38.139  32.406  38.004  1.00  0.00    -0.203 F 
ATOM     83  F   UNL A   1      40.709  37.217  38.075  1.00  0.00    -0.200 F 
ATOM     84  C   UNL A   1      39.304  35.643  39.136  1.00  0.00     0.200 A 
ATOM     85  F   UNL A   1      37.911  34.032  40.156  1.00  0.00    -0.200 F 
ATOM     86  F   UNL A   1      39.215  36.428  40.218  1.00  0.00    -0.200 F 
ENDBRANCH  52  76
BRANCH  64  87
ATOM     87  C   UNL A   1      43.871  28.807  35.194  1.00  0.00     0.064 A 
ATOM     88  C   UNL A   1      43.723  27.707  36.052  1.00  0.00     0.173 A 
ATOM     89  C   UNL A   1      45.165  29.307  34.984  1.00  0.00     0.173 A 
ATOM     90  F   UNL A   1      42.505  27.200  36.297  1.00  0.00    -0.203 F 
ATOM     91  C   UNL A   1      44.824  27.149  36.696  1.00  0.00     0.198 A 
ATOM     92  C   UNL A   1      46.267  28.725  35.602  1.00  0.00     0.198 A 
ATOM     93  F   UNL A   1      45.363  30.353  34.166  1.00  0.00    -0.203 F 
ATOM     94  F   UNL A   1      44.652  26.134  37.553  1.00  0.00    -0.200 F 
ATOM     95  C   UNL A   1      46.096  27.653  36.464  1.00  0.00     0.200 A 
ATOM     96  F   UNL A   1      47.498  29.202  35.363  1.00  0.00    -0.200 F 
ATOM     97  F   UNL A   1      47.155  27.109  37.078  1.00  0.00    -0.200 F 
ENDBRANCH  64  87
ENDBRANCH  38  39
ENDBRANCH  30  33
ENDBRANCH  28  29
ENDBRANCH  27  28
ENDBRANCH   1  27
TORSDOF 14
ENDMDL
MODEL 3
REMARK VINA RESULT:     -13.1      5.569     11.028
REMARK SMILES CC[C@@H](C)c1ccccc1NC(=O)[C@@H]1[C@@H](C(=O)NCCCNC(=O)c2ccc(-c3c4nc(c(-c5c(F)c(F)c(F)c(F)c5F)c5ccc([nH]5)c(-c5c(F)c(F)c(F)c(F)c5F)c5nc(c(-c6c(F)c(F)c(F)c(F)c6F)c6ccc3[nH]6)C=C5)C=C4)cc2)[C@@H]2C=C[C@H]1C2
REMARK SMILES IDX 19 1 18 2 16 3 17 4 15 6 14 7 91 8 88 9 90 10 92 11 89 12
REMARK SMILES IDX 12 13 11 14 13 16 10 17 5 18 6 19 7 20 9 21 8 22 3 23 4 24
REMARK SMILES IDX 2 25 1 26 20 27 21 28 22 29 23 30 24 32 25 33 26 34 87 35
REMARK SMILES IDX 27 36 86 37 28 38 29 39 30 40 80 41 31 42 85 43 79 44 81 45
REMARK SMILES IDX 32 46 84 47 78 48 77 49 33 51 65 52 45 53 64 54 46 55 49 56
REMARK SMILES IDX 63 57 82 58 47 59 48 60 62 62 83 63 50 64 34 65 35 66 43 67
REMARK SMILES IDX 36 68 37 69 41 70 44 71 38 72 39 73 42 74 40 75 66 76 67 77
REMARK SMILES IDX 75 78 68 79 69 80 73 81 76 82 70 83 71 84 74 85 72 86 51 87
REMARK SMILES IDX 52 88 60 89 53 90 54 91 58 92 61 93 55 94 56 95 59 96 57 97
REMARK H PARENT 18 5 11 15 22 31 81 50 49 61
REMARK Flexibility Score: inf
ROOT
ATOM      1  C   UNL A   1      36.922  20.381  25.001  1.00  0.00     0.117 C 
ENDROOT
BRANCH   1   2
ATOM      2  N   UNL A   1      37.199  21.788  25.172  1.00  0.00    -0.356 N 
ATOM      3  C   UNL A   1      36.449  22.905  25.158  1.00  0.00     0.224 C 
ATOM      4  O   UNL A   1      37.072  23.949  25.391  1.00  0.00    -0.275 OA
ATOM      5  H   UNL A   1      38.152  21.971  25.336  1.00  0.00     0.163 HD
BRANCH   3   6
ATOM      6  C   UNL A   1      34.969  22.974  24.772  1.00  0.00     0.098 C 
ATOM      7  C   UNL A   1      34.475  24.408  25.088  1.00  0.00     0.099 C 
ATOM      8  C   UNL A   1      33.391  24.177  26.188  1.00  0.00     0.025 C 
ATOM      9  C   UNL A   1      33.903  22.123  25.515  1.00  0.00     0.025 C 
ATOM     10  C   UNL A   1      32.159  23.648  25.516  1.00  0.00    -0.027 C 
ATOM     11  C   UNL A   1      33.863  22.867  26.847  1.00  0.00     0.017 C 
ATOM     12  C   UNL A   1      32.470  22.419  25.091  1.00  0.00    -0.027 C 
BRANCH   7  13
ATOM     13  C   UNL A   1      34.022  25.390  24.009  1.00  0.00     0.228 C 
ATOM     14  N   UNL A   1      33.432  26.606  24.080  1.00  0.00    -0.326 N 
ATOM     15  H   UNL A   1      33.126  26.865  23.181  1.00  0.00     0.169 HD
ATOM     16  O   UNL A   1      34.168  24.994  22.834  1.00  0.00    -0.274 OA
BRANCH  14  17
ATOM     17  C   UNL A   1      33.101  27.637  24.987  1.00  0.00     0.044 A 
ATOM     18  C   UNL A   1      31.809  28.218  25.030  1.00  0.00    -0.022 A 
ATOM     19  C   UNL A   1      31.460  28.922  26.221  1.00  0.00     0.006 A 
ATOM     20  C   UNL A   1      32.365  29.164  27.251  1.00  0.00     0.000 A 
ATOM     21  C   UNL A   1      34.028  28.131  25.898  1.00  0.00     0.026 A 
ATOM     22  C   UNL A   1      33.682  28.834  27.050  1.00  0.00     0.002 A 
BRANCH  18  23
ATOM     23  C   UNL A   1      30.837  28.412  23.830  1.00  0.00     0.018 C 
ATOM     24  C   UNL A   1      30.130  29.783  23.842  1.00  0.00     0.013 C 
BRANCH  23  25
ATOM     25  C   UNL A   1      29.818  27.296  23.500  1.00  0.00     0.005 C 
ATOM     26  C   UNL A   1      29.666  26.206  24.555  1.00  0.00     0.004 C 
ENDBRANCH  23  25
ENDBRANCH  18  23
ENDBRANCH  14  17
ENDBRANCH   7  13
ENDBRANCH   3   6
ENDBRANCH   1   2
BRANCH   1  27
ATOM     27  C   UNL A   1      38.195  19.566  24.877  1.00  0.00     0.042 C 
BRANCH  27  28
ATOM     28  C   UNL A   1      39.314  20.103  25.754  1.00  0.00     0.118 C 
BRANCH  28  29
ATOM     29  N   UNL A   1      40.334  19.091  26.015  1.00  0.00    -0.352 N 
ATOM     30  C   UNL A   1      41.693  19.219  26.126  1.00  0.00     0.251 C 
ATOM     31  H   UNL A   1      39.991  18.175  26.132  1.00  0.00     0.163 HD
ATOM     32  O   UNL A   1      42.420  18.239  26.029  1.00  0.00    -0.269 OA
BRANCH  30  33
ATOM     33  C   UNL A   1      42.267  20.555  26.361  1.00  0.00     0.039 A 
ATOM     34  C   UNL A   1      42.664  21.334  25.275  1.00  0.00     0.014 A 
ATOM     35  C   UNL A   1      42.406  21.029  27.668  1.00  0.00     0.014 A 
ATOM     36  C   UNL A   1      43.142  22.624  25.502  1.00  0.00     0.010 A 
ATOM     37  C   UNL A   1      42.771  22.347  27.884  1.00  0.00     0.010 A 
ATOM     38  C   UNL A   1      43.162  23.151  26.805  1.00  0.00    -0.014 A 
BRANCH  38  39
ATOM     39  C   UNL A   1      43.612  24.535  27.073  1.00  0.00     0.031 A 
ATOM     40  C   UNL A   1      42.628  25.553  27.576  1.00  0.00     0.074 A 
ATOM     41  C   UNL A   1      44.881  24.884  26.792  1.00  0.00     0.049 A 
ATOM     42  N   UNL A   1      42.800  26.831  27.796  1.00  0.00    -0.248 NA
ATOM     43  C   UNL A   1      41.257  25.081  27.831  1.00  0.00     0.031 C 
ATOM     44  C   UNL A   1      45.904  23.992  26.245  1.00  0.00     0.029 A 
ATOM     45  N   UNL A   1      45.524  26.088  26.920  1.00  0.00    -0.354 N 
ATOM     46  C   UNL A   1      41.562  27.312  28.198  1.00  0.00     0.074 A 
ATOM     47  C   UNL A   1      40.630  26.210  28.125  1.00  0.00     0.031 C 
ATOM     48  C   UNL A   1      47.055  24.670  26.115  1.00  0.00     0.029 A 
ATOM     49  C   UNL A   1      46.838  26.054  26.524  1.00  0.00     0.049 A 
ATOM     50  H   UNL A   1      45.085  26.900  27.262  1.00  0.00     0.167 HD
ATOM     51  C   UNL A   1      41.239  28.556  28.622  1.00  0.00     0.037 A 
ATOM     52  C   UNL A   1      47.759  27.035  26.490  1.00  0.00     0.037 A 
ATOM     53  C   UNL A   1      42.181  29.639  28.717  1.00  0.00     0.049 A 
ATOM     54  C   UNL A   1      47.371  28.411  26.956  1.00  0.00     0.074 A 
ATOM     55  C   UNL A   1      41.976  30.921  29.194  1.00  0.00     0.029 A 
ATOM     56  N   UNL A   1      43.508  29.564  28.321  1.00  0.00    -0.354 N 
ATOM     57  N   UNL A   1      46.217  28.838  27.411  1.00  0.00    -0.248 NA
ATOM     58  C   UNL A   1      48.416  29.443  26.909  1.00  0.00     0.031 C 
ATOM     59  C   UNL A   1      43.166  31.639  29.035  1.00  0.00     0.029 A 
ATOM     60  C   UNL A   1      44.129  30.788  28.516  1.00  0.00     0.049 A 
ATOM     61  H   UNL A   1      43.946  28.761  27.956  1.00  0.00     0.167 HD
ATOM     62  C   UNL A   1      46.403  30.177  27.730  1.00  0.00     0.074 A 
ATOM     63  C   UNL A   1      47.788  30.485  27.435  1.00  0.00     0.031 C 
ATOM     64  C   UNL A   1      45.510  31.071  28.218  1.00  0.00     0.037 A 
BRANCH  51  65
ATOM     65  C   UNL A   1      39.812  28.809  29.017  1.00  0.00     0.064 A 
ATOM     66  C   UNL A   1      39.364  28.605  30.332  1.00  0.00     0.173 A 
ATOM     67  C   UNL A   1      38.888  29.291  28.078  1.00  0.00     0.173 A 
ATOM     68  F   UNL A   1      40.203  28.131  31.266  1.00  0.00    -0.203 F 
ATOM     69  C   UNL A   1      38.038  28.842  30.683  1.00  0.00     0.198 A 
ATOM     70  C   UNL A   1      37.571  29.561  28.441  1.00  0.00     0.198 A 
ATOM     71  F   UNL A   1      39.263  29.506  26.808  1.00  0.00    -0.203 F 
ATOM     72  F   UNL A   1      37.621  28.586  31.930  1.00  0.00    -0.200 F 
ATOM     73  C   UNL A   1      37.144  29.328  29.740  1.00  0.00     0.200 A 
ATOM     74  F   UNL A   1      36.713  30.043  27.532  1.00  0.00    -0.200 F 
ATOM     75  F   UNL A   1      35.871  29.566  30.082  1.00  0.00    -0.200 F 
ENDBRANCH  51  65
BRANCH  52  76
ATOM     76  C   UNL A   1      49.139  26.745  26.018  1.00  0.00     0.064 A 
ATOM     77  C   UNL A   1      50.109  26.243  26.896  1.00  0.00     0.173 A 
ATOM     78  C   UNL A   1      49.519  26.972  24.687  1.00  0.00     0.173 A 
ATOM     79  F   UNL A   1      49.800  26.026  28.182  1.00  0.00    -0.203 F 
ATOM     80  C   UNL A   1      51.414  26.005  26.467  1.00  0.00     0.198 A 
ATOM     81  C   UNL A   1      50.815  26.703  24.252  1.00  0.00     0.198 A 
ATOM     82  F   UNL A   1      48.626  27.443  23.803  1.00  0.00    -0.203 F 
ATOM     83  F   UNL A   1      52.336  25.576  27.341  1.00  0.00    -0.200 F 
ATOM     84  C   UNL A   1      51.764  26.230  25.145  1.00  0.00     0.200 A 
ATOM     85  F   UNL A   1      51.145  26.904  22.969  1.00  0.00    -0.200 F 
ATOM     86  F   UNL A   1      53.018  25.998  24.733  1.00  0.00    -0.200 F 
ENDBRANCH  52  76
BRANCH  64  87
ATOM     87  C   UNL A   1      46.011  32.460  28.494  1.00  0.00     0.064 A 
ATOM     88  C   UNL A   1      45.934  33.476  27.529  1.00  0.00     0.173 A 
ATOM     89  C   UNL A   1      46.535  32.788  29.754  1.00  0.00     0.173 A 
ATOM     90  F   UNL A   1      45.454  33.210  26.305  1.00  0.00    -0.203 F 
ATOM     91  C   UNL A   1      46.392  34.761  27.806  1.00  0.00     0.198 A 
ATOM     92  C   UNL A   1      46.959  34.082  30.038  1.00  0.00     0.198 A 
ATOM     93  F   UNL A   1      46.622  31.855  30.715  1.00  0.00    -0.203 F 
ATOM     94  F   UNL A   1      46.360  35.701  26.852  1.00  0.00    -0.200 F 
ATOM     95  C   UNL A   1      46.896  35.065  29.062  1.00  0.00     0.200 A 
ATOM     96  F   UNL A   1      47.430  34.379  31.258  1.00  0.00    -0.200 F 
ATOM     97  F   UNL A   1      47.327  36.305  29.330  1.00  0.00    -0.200 F 
ENDBRANCH  64  87
ENDBRANCH  38  39
ENDBRANCH  30  33
ENDBRANCH  28  29
ENDBRANCH  27  28
ENDBRANCH   1  27
TORSDOF 14
ENDMDL
