MODEL 1
REMARK VINA RESULT:     -11.4      0.000      0.000
REMARK SMILES C[C@H](C(=O)NCCCNC(=O)c1ccc(-c2c3nc(c(-c4c(F)c(F)c(F)c(F)c4F)c4ccc([nH]4)c(-c4c(F)c(F)c(F)c(F)c4F)c4nc(c(-c5c(F)c(F)c(F)c(F)c5F)c5ccc2[nH]5)C=C4)C=C3)cc1)c1ccc2c(c1)OCCO2
REMARK SMILES IDX 7 1 6 2 5 3 3 4 4 5 2 7 1 8 75 9 76 10 80 11 77 12 79 13
REMARK SMILES IDX 78 14 81 15 84 16 82 17 83 18 8 19 9 20 10 21 11 23 12 24
REMARK SMILES IDX 13 25 74 26 14 27 73 28 15 29 16 30 17 31 67 32 18 33 72 34
REMARK SMILES IDX 66 35 68 36 19 37 71 38 65 39 64 40 20 42 52 43 32 44 51 45
REMARK SMILES IDX 33 46 36 47 50 48 69 49 34 50 35 51 49 53 70 54 37 55 21 56
REMARK SMILES IDX 22 57 30 58 23 59 24 60 28 61 31 62 25 63 26 64 29 65 27 66
REMARK SMILES IDX 53 67 54 68 62 69 55 70 56 71 60 72 63 73 57 74 58 75 61 76
REMARK SMILES IDX 59 77 38 78 39 79 47 80 40 81 41 82 45 83 48 84 42 85 43 86
REMARK SMILES IDX 46 87 44 88
REMARK H PARENT 5 6 9 22 68 41 36 52
REMARK Flexibility Score: inf
ROOT
ATOM      1  C   UNL A   1      33.627  34.190  28.227  1.00  0.00     0.042 C 
ENDROOT
BRANCH   1   2
ATOM      2  C   UNL A   1      33.888  35.258  29.283  1.00  0.00     0.117 C 
BRANCH   2   3
ATOM      3  N   UNL A   1      32.798  35.332  30.236  1.00  0.00    -0.356 N 
ATOM      4  C   UNL A   1      32.844  35.411  31.599  1.00  0.00     0.227 C 
ATOM      5  O   UNL A   1      31.776  35.323  32.207  1.00  0.00    -0.274 OA
ATOM      6  H   UNL A   1      31.894  35.324  29.843  1.00  0.00     0.163 HD
BRANCH   4   7
ATOM      7  C   UNL A   1      34.183  35.639  32.302  1.00  0.00     0.105 C 
ATOM      8  C   UNL A   1      34.032  36.683  33.426  1.00  0.00     0.023 C 
BRANCH   7   9
ATOM      9  C   UNL A   1      34.825  34.365  32.841  1.00  0.00    -0.032 A 
ATOM     10  C   UNL A   1      35.277  33.374  31.946  1.00  0.00     0.008 A 
ATOM     11  C   UNL A   1      35.144  34.245  34.201  1.00  0.00     0.055 A 
ATOM     12  C   UNL A   1      36.098  32.336  32.376  1.00  0.00     0.051 A 
ATOM     13  C   UNL A   1      36.087  33.304  34.594  1.00  0.00     0.161 A 
ATOM     14  C   UNL A   1      36.568  32.366  33.679  1.00  0.00     0.161 A 
ATOM     15  O   UNL A   1      36.617  33.450  35.847  1.00  0.00    -0.486 OA
ATOM     16  O   UNL A   1      37.645  31.573  33.987  1.00  0.00    -0.486 OA
ATOM     17  C   UNL A   1      37.956  32.945  35.962  1.00  0.00     0.271 C 
ATOM     18  C   UNL A   1      38.568  32.439  34.658  1.00  0.00     0.271 C 
ENDBRANCH   7   9
ENDBRANCH   4   7
ENDBRANCH   2   3
ENDBRANCH   1   2
BRANCH   1  19
ATOM     19  C   UNL A   1      34.453  32.928  28.430  1.00  0.00     0.118 C 
BRANCH  19  20
ATOM     20  N   UNL A   1      33.764  31.745  27.940  1.00  0.00    -0.352 N 
ATOM     21  C   UNL A   1      34.243  30.490  27.664  1.00  0.00     0.251 C 
ATOM     22  H   UNL A   1      32.799  31.864  27.782  1.00  0.00     0.163 HD
ATOM     23  O   UNL A   1      33.537  29.705  27.038  1.00  0.00    -0.269 OA
BRANCH  21  24
ATOM     24  C   UNL A   1      35.595  30.071  28.101  1.00  0.00     0.039 A 
ATOM     25  C   UNL A   1      35.774  29.682  29.434  1.00  0.00     0.014 A 
ATOM     26  C   UNL A   1      36.697  30.121  27.244  1.00  0.00     0.014 A 
ATOM     27  C   UNL A   1      37.041  29.313  29.891  1.00  0.00     0.010 A 
ATOM     28  C   UNL A   1      37.942  29.668  27.675  1.00  0.00     0.010 A 
ATOM     29  C   UNL A   1      38.133  29.282  29.009  1.00  0.00    -0.014 A 
BRANCH  29  30
ATOM     30  C   UNL A   1      39.486  28.886  29.476  1.00  0.00     0.031 A 
ATOM     31  C   UNL A   1      40.233  29.756  30.451  1.00  0.00     0.074 A 
ATOM     32  C   UNL A   1      40.062  27.770  28.989  1.00  0.00     0.049 A 
ATOM     33  N   UNL A   1      41.441  29.612  30.937  1.00  0.00    -0.248 NA
ATOM     34  C   UNL A   1      39.541  30.966  30.923  1.00  0.00     0.031 C 
ATOM     35  C   UNL A   1      39.459  26.868  28.008  1.00  0.00     0.029 A 
ATOM     36  N   UNL A   1      41.287  27.209  29.250  1.00  0.00    -0.354 N 
ATOM     37  C   UNL A   1      41.657  30.716  31.749  1.00  0.00     0.074 A 
ATOM     38  C   UNL A   1      40.480  31.551  31.653  1.00  0.00     0.031 C 
ATOM     39  C   UNL A   1      40.304  25.853  27.769  1.00  0.00     0.029 A 
ATOM     40  C   UNL A   1      41.521  26.051  28.550  1.00  0.00     0.049 A 
ATOM     41  H   UNL A   1      41.936  27.599  29.878  1.00  0.00     0.167 HD
ATOM     42  C   UNL A   1      42.731  30.999  32.526  1.00  0.00     0.037 A 
ATOM     43  C   UNL A   1      42.598  25.243  28.537  1.00  0.00     0.037 A 
ATOM     44  C   UNL A   1      43.888  30.150  32.646  1.00  0.00     0.049 A 
ATOM     45  C   UNL A   1      43.777  25.578  29.412  1.00  0.00     0.074 A 
ATOM     46  C   UNL A   1      44.999  30.313  33.454  1.00  0.00     0.029 A 
ATOM     47  N   UNL A   1      44.081  28.976  31.933  1.00  0.00    -0.354 N 
ATOM     48  N   UNL A   1      43.941  26.589  30.229  1.00  0.00    -0.248 NA
ATOM     49  C   UNL A   1      44.917  24.653  29.365  1.00  0.00     0.031 C 
ATOM     50  C   UNL A   1      45.884  29.262  33.198  1.00  0.00     0.029 A 
ATOM     51  C   UNL A   1      45.303  28.416  32.268  1.00  0.00     0.049 A 
ATOM     52  H   UNL A   1      43.444  28.596  31.285  1.00  0.00     0.167 HD
ATOM     53  C   UNL A   1      45.186  26.408  30.816  1.00  0.00     0.074 A 
ATOM     54  C   UNL A   1      45.729  25.180  30.270  1.00  0.00     0.031 C 
ATOM     55  C   UNL A   1      45.823  27.187  31.723  1.00  0.00     0.037 A 
BRANCH  42  56
ATOM     56  C   UNL A   1      42.704  32.280  33.309  1.00  0.00     0.064 A 
ATOM     57  C   UNL A   1      43.188  33.482  32.771  1.00  0.00     0.173 A 
ATOM     58  C   UNL A   1      42.160  32.314  34.601  1.00  0.00     0.173 A 
ATOM     59  F   UNL A   1      43.730  33.504  31.544  1.00  0.00    -0.203 F 
ATOM     60  C   UNL A   1      43.157  34.662  33.509  1.00  0.00     0.198 A 
ATOM     61  C   UNL A   1      42.100  33.502  35.325  1.00  0.00     0.198 A 
ATOM     62  F   UNL A   1      41.676  31.195  35.162  1.00  0.00    -0.203 F 
ATOM     63  F   UNL A   1      43.674  35.787  32.994  1.00  0.00    -0.200 F 
ATOM     64  C   UNL A   1      42.608  34.674  34.782  1.00  0.00     0.200 A 
ATOM     65  F   UNL A   1      41.557  33.514  36.550  1.00  0.00    -0.200 F 
ATOM     66  F   UNL A   1      42.572  35.812  35.488  1.00  0.00    -0.200 F 
ENDBRANCH  42  56
BRANCH  43  67
ATOM     67  C   UNL A   1      42.600  24.021  27.692  1.00  0.00     0.064 A 
ATOM     68  C   UNL A   1      42.244  22.777  28.230  1.00  0.00     0.173 A 
ATOM     69  C   UNL A   1      42.958  24.069  26.338  1.00  0.00     0.173 A 
ATOM     70  F   UNL A   1      41.915  22.676  29.526  1.00  0.00    -0.203 F 
ATOM     71  C   UNL A   1      42.266  21.622  27.451  1.00  0.00     0.198 A 
ATOM     72  C   UNL A   1      42.952  22.918  25.551  1.00  0.00     0.198 A 
ATOM     73  F   UNL A   1      43.302  25.236  25.774  1.00  0.00    -0.203 F 
ATOM     74  F   UNL A   1      41.966  20.438  28.001  1.00  0.00    -0.200 F 
ATOM     75  C   UNL A   1      42.614  21.695  26.111  1.00  0.00     0.200 A 
ATOM     76  F   UNL A   1      43.276  22.994  24.253  1.00  0.00    -0.200 F 
ATOM     77  F   UNL A   1      42.632  20.585  25.359  1.00  0.00    -0.200 F 
ENDBRANCH  43  67
BRANCH  55  78
ATOM     78  C   UNL A   1      47.162  26.716  32.214  1.00  0.00     0.064 A 
ATOM     79  C   UNL A   1      47.284  25.900  33.347  1.00  0.00     0.173 A 
ATOM     80  C   UNL A   1      48.332  27.058  31.519  1.00  0.00     0.173 A 
ATOM     81  F   UNL A   1      46.197  25.557  34.055  1.00  0.00    -0.203 F 
ATOM     82  C   UNL A   1      48.533  25.466  33.784  1.00  0.00     0.198 A 
ATOM     83  C   UNL A   1      49.576  26.598  31.942  1.00  0.00     0.198 A 
ATOM     84  F   UNL A   1      48.268  27.832  30.426  1.00  0.00    -0.203 F 
ATOM     85  F   UNL A   1      48.632  24.727  34.898  1.00  0.00    -0.200 F 
ATOM     86  C   UNL A   1      49.676  25.808  33.077  1.00  0.00     0.200 A 
ATOM     87  F   UNL A   1      50.677  26.918  31.250  1.00  0.00    -0.200 F 
ATOM     88  F   UNL A   1      50.877  25.386  33.496  1.00  0.00    -0.200 F 
ENDBRANCH  55  78
ENDBRANCH  29  30
ENDBRANCH  21  24
ENDBRANCH  19  20
ENDBRANCH   1  19
TORSDOF 11
ENDMDL
MODEL 2
REMARK VINA RESULT:     -11.4      3.114      5.976
REMARK SMILES C[C@H](C(=O)NCCCNC(=O)c1ccc(-c2c3nc(c(-c4c(F)c(F)c(F)c(F)c4F)c4ccc([nH]4)c(-c4c(F)c(F)c(F)c(F)c4F)c4nc(c(-c5c(F)c(F)c(F)c(F)c5F)c5ccc2[nH]5)C=C4)C=C3)cc1)c1ccc2c(c1)OCCO2
REMARK SMILES IDX 7 1 6 2 5 3 3 4 4 5 2 7 1 8 75 9 76 10 80 11 77 12 79 13
REMARK SMILES IDX 78 14 81 15 84 16 82 17 83 18 8 19 9 20 10 21 11 23 12 24
REMARK SMILES IDX 13 25 74 26 14 27 73 28 15 29 16 30 17 31 67 32 18 33 72 34
REMARK SMILES IDX 66 35 68 36 19 37 71 38 65 39 64 40 20 42 52 43 32 44 51 45
REMARK SMILES IDX 33 46 36 47 50 48 69 49 34 50 35 51 49 53 70 54 37 55 21 56
REMARK SMILES IDX 22 57 30 58 23 59 24 60 28 61 31 62 25 63 26 64 29 65 27 66
REMARK SMILES IDX 53 67 54 68 62 69 55 70 56 71 60 72 63 73 57 74 58 75 61 76
REMARK SMILES IDX 59 77 38 78 39 79 47 80 40 81 41 82 45 83 48 84 42 85 43 86
REMARK SMILES IDX 46 87 44 88
REMARK H PARENT 5 6 9 22 68 41 36 52
REMARK Flexibility Score: inf
ROOT
ATOM      1  C   UNL A   1      33.290  27.661  26.396  1.00  0.00     0.042 C 
ENDROOT
BRANCH   1   2
ATOM      2  C   UNL A   1      31.809  27.997  26.523  1.00  0.00     0.117 C 
BRANCH   2   3
ATOM      3  N   UNL A   1      31.024  26.813  26.811  1.00  0.00    -0.356 N 
ATOM      4  C   UNL A   1      30.400  25.956  25.949  1.00  0.00     0.227 C 
ATOM      5  O   UNL A   1      29.671  25.092  26.438  1.00  0.00    -0.274 OA
ATOM      6  H   UNL A   1      30.926  26.596  27.767  1.00  0.00     0.163 HD
BRANCH   4   7
ATOM      7  C   UNL A   1      30.655  26.074  24.445  1.00  0.00     0.105 C 
ATOM      8  C   UNL A   1      30.696  24.677  23.793  1.00  0.00     0.023 C 
BRANCH   7   9
ATOM      9  C   UNL A   1      29.661  26.972  23.716  1.00  0.00    -0.032 A 
ATOM     10  C   UNL A   1      28.278  26.810  23.937  1.00  0.00     0.008 A 
ATOM     11  C   UNL A   1      30.104  28.077  22.978  1.00  0.00     0.055 A 
ATOM     12  C   UNL A   1      27.363  27.768  23.508  1.00  0.00     0.051 A 
ATOM     13  C   UNL A   1      29.211  29.103  22.693  1.00  0.00     0.161 A 
ATOM     14  C   UNL A   1      27.852  28.948  22.971  1.00  0.00     0.161 A 
ATOM     15  O   UNL A   1      29.749  30.292  22.285  1.00  0.00    -0.486 OA
ATOM     16  O   UNL A   1      26.994  30.018  22.895  1.00  0.00    -0.486 OA
ATOM     17  C   UNL A   1      28.948  31.431  22.636  1.00  0.00     0.271 C 
ATOM     18  C   UNL A   1      27.711  31.114  23.474  1.00  0.00     0.271 C 
ENDBRANCH   7   9
ENDBRANCH   4   7
ENDBRANCH   2   3
ENDBRANCH   1   2
BRANCH   1  19
ATOM     19  C   UNL A   1      34.123  28.808  25.843  1.00  0.00     0.118 C 
BRANCH  19  20
ATOM     20  N   UNL A   1      33.832  30.062  26.519  1.00  0.00    -0.352 N 
ATOM     21  C   UNL A   1      34.469  30.672  27.569  1.00  0.00     0.251 C 
ATOM     22  H   UNL A   1      33.055  30.552  26.166  1.00  0.00     0.163 HD
ATOM     23  O   UNL A   1      33.920  31.612  28.137  1.00  0.00    -0.269 OA
BRANCH  21  24
ATOM     24  C   UNL A   1      35.799  30.212  28.032  1.00  0.00     0.039 A 
ATOM     25  C   UNL A   1      35.905  29.665  29.316  1.00  0.00     0.014 A 
ATOM     26  C   UNL A   1      36.948  30.374  27.254  1.00  0.00     0.014 A 
ATOM     27  C   UNL A   1      37.149  29.250  29.799  1.00  0.00     0.010 A 
ATOM     28  C   UNL A   1      38.172  29.880  27.701  1.00  0.00     0.010 A 
ATOM     29  C   UNL A   1      38.291  29.335  28.987  1.00  0.00    -0.014 A 
BRANCH  29  30
ATOM     30  C   UNL A   1      39.620  28.894  29.482  1.00  0.00     0.031 A 
ATOM     31  C   UNL A   1      40.358  29.719  30.502  1.00  0.00     0.074 A 
ATOM     32  C   UNL A   1      40.184  27.778  28.982  1.00  0.00     0.049 A 
ATOM     33  N   UNL A   1      41.547  29.533  31.018  1.00  0.00    -0.248 NA
ATOM     34  C   UNL A   1      39.681  30.933  30.986  1.00  0.00     0.031 C 
ATOM     35  C   UNL A   1      39.589  26.917  27.959  1.00  0.00     0.029 A 
ATOM     36  N   UNL A   1      41.387  27.181  29.262  1.00  0.00    -0.354 N 
ATOM     37  C   UNL A   1      41.765  30.610  31.866  1.00  0.00     0.074 A 
ATOM     38  C   UNL A   1      40.611  31.475  31.758  1.00  0.00     0.031 C 
ATOM     39  C   UNL A   1      40.416  25.888  27.717  1.00  0.00     0.029 A 
ATOM     40  C   UNL A   1      41.614  26.036  28.538  1.00  0.00     0.049 A 
ATOM     41  H   UNL A   1      42.025  27.538  29.920  1.00  0.00     0.167 HD
ATOM     42  C   UNL A   1      42.822  30.846  32.681  1.00  0.00     0.037 A 
ATOM     43  C   UNL A   1      42.672  25.203  28.535  1.00  0.00     0.037 A 
ATOM     44  C   UNL A   1      43.955  29.967  32.811  1.00  0.00     0.049 A 
ATOM     45  C   UNL A   1      43.831  25.485  29.452  1.00  0.00     0.074 A 
ATOM     46  C   UNL A   1      45.044  30.081  33.655  1.00  0.00     0.029 A 
ATOM     47  N   UNL A   1      44.141  28.807  32.072  1.00  0.00    -0.354 N 
ATOM     48  N   UNL A   1      43.995  26.471  30.300  1.00  0.00    -0.248 NA
ATOM     49  C   UNL A   1      44.951  24.535  29.412  1.00  0.00     0.031 C 
ATOM     50  C   UNL A   1      45.912  29.015  33.396  1.00  0.00     0.029 A 
ATOM     51  C   UNL A   1      45.339  28.209  32.427  1.00  0.00     0.049 A 
ATOM     52  H   UNL A   1      43.514  28.460  31.396  1.00  0.00     0.167 HD
ATOM     53  C   UNL A   1      45.218  26.243  30.918  1.00  0.00     0.074 A 
ATOM     54  C   UNL A   1      45.748  25.018  30.355  1.00  0.00     0.031 C 
ATOM     55  C   UNL A   1      45.846  26.983  31.864  1.00  0.00     0.037 A 
BRANCH  42  56
ATOM     56  C   UNL A   1      42.802  32.106  33.498  1.00  0.00     0.064 A 
ATOM     57  C   UNL A   1      43.359  33.302  33.020  1.00  0.00     0.173 A 
ATOM     58  C   UNL A   1      42.191  32.128  34.760  1.00  0.00     0.173 A 
ATOM     59  F   UNL A   1      43.966  33.335  31.823  1.00  0.00    -0.203 F 
ATOM     60  C   UNL A   1      43.334  34.463  33.788  1.00  0.00     0.198 A 
ATOM     61  C   UNL A   1      42.138  33.298  35.513  1.00  0.00     0.198 A 
ATOM     62  F   UNL A   1      41.636  31.014  35.262  1.00  0.00    -0.203 F 
ATOM     63  F   UNL A   1      43.919  35.579  33.333  1.00  0.00    -0.200 F 
ATOM     64  C   UNL A   1      42.718  34.462  35.030  1.00  0.00     0.200 A 
ATOM     65  F   UNL A   1      41.531  33.299  36.707  1.00  0.00    -0.200 F 
ATOM     66  F   UNL A   1      42.688  35.582  35.766  1.00  0.00    -0.200 F 
ENDBRANCH  42  56
BRANCH  43  67
ATOM     67  C   UNL A   1      42.670  24.004  27.657  1.00  0.00     0.064 A 
ATOM     68  C   UNL A   1      42.297  22.749  28.158  1.00  0.00     0.173 A 
ATOM     69  C   UNL A   1      43.042  24.085  26.308  1.00  0.00     0.173 A 
ATOM     70  F   UNL A   1      41.953  22.618  29.448  1.00  0.00    -0.203 F 
ATOM     71  C   UNL A   1      42.315  21.616  27.347  1.00  0.00     0.198 A 
ATOM     72  C   UNL A   1      43.033  22.955  25.490  1.00  0.00     0.198 A 
ATOM     73  F   UNL A   1      43.404  25.263  25.779  1.00  0.00    -0.203 F 
ATOM     74  F   UNL A   1      41.998  20.421  27.863  1.00  0.00    -0.200 F 
ATOM     75  C   UNL A   1      42.677  21.721  26.013  1.00  0.00     0.200 A 
ATOM     76  F   UNL A   1      43.370  23.063  24.198  1.00  0.00    -0.200 F 
ATOM     77  F   UNL A   1      42.692  20.632  25.233  1.00  0.00    -0.200 F 
ENDBRANCH  43  67
BRANCH  55  78
ATOM     78  C   UNL A   1      47.158  26.466  32.381  1.00  0.00     0.064 A 
ATOM     79  C   UNL A   1      47.222  25.547  33.437  1.00  0.00     0.173 A 
ATOM     80  C   UNL A   1      48.363  26.872  31.787  1.00  0.00     0.173 A 
ATOM     81  F   UNL A   1      46.099  25.139  34.048  1.00  0.00    -0.203 F 
ATOM     82  C   UNL A   1      48.448  25.072  33.898  1.00  0.00     0.198 A 
ATOM     83  C   UNL A   1      49.584  26.373  32.230  1.00  0.00     0.198 A 
ATOM     84  F   UNL A   1      48.354  27.745  30.769  1.00  0.00    -0.203 F 
ATOM     85  F   UNL A   1      48.489  24.232  34.942  1.00  0.00    -0.200 F 
ATOM     86  C   UNL A   1      49.625  25.479  33.290  1.00  0.00     0.200 A 
ATOM     87  F   UNL A   1      50.720  26.757  31.633  1.00  0.00    -0.200 F 
ATOM     88  F   UNL A   1      50.804  25.018  33.732  1.00  0.00    -0.200 F 
ENDBRANCH  55  78
ENDBRANCH  29  30
ENDBRANCH  21  24
ENDBRANCH  19  20
ENDBRANCH   1  19
TORSDOF 11
ENDMDL
MODEL 3
REMARK VINA RESULT:     -11.4      3.184      6.224
REMARK SMILES C[C@H](C(=O)NCCCNC(=O)c1ccc(-c2c3nc(c(-c4c(F)c(F)c(F)c(F)c4F)c4ccc([nH]4)c(-c4c(F)c(F)c(F)c(F)c4F)c4nc(c(-c5c(F)c(F)c(F)c(F)c5F)c5ccc2[nH]5)C=C4)C=C3)cc1)c1ccc2c(c1)OCCO2
REMARK SMILES IDX 7 1 6 2 5 3 3 4 4 5 2 7 1 8 75 9 76 10 80 11 77 12 79 13
REMARK SMILES IDX 78 14 81 15 84 16 82 17 83 18 8 19 9 20 10 21 11 23 12 24
REMARK SMILES IDX 13 25 74 26 14 27 73 28 15 29 16 30 17 31 67 32 18 33 72 34
REMARK SMILES IDX 66 35 68 36 19 37 71 38 65 39 64 40 20 42 52 43 32 44 51 45
REMARK SMILES IDX 33 46 36 47 50 48 69 49 34 50 35 51 49 53 70 54 37 55 21 56
REMARK SMILES IDX 22 57 30 58 23 59 24 60 28 61 31 62 25 63 26 64 29 65 27 66
REMARK SMILES IDX 53 67 54 68 62 69 55 70 56 71 60 72 63 73 57 74 58 75 61 76
REMARK SMILES IDX 59 77 38 78 39 79 47 80 40 81 41 82 45 83 48 84 42 85 43 86
REMARK SMILES IDX 46 87 44 88
REMARK H PARENT 5 6 9 22 68 41 36 52
REMARK Flexibility Score: inf
ROOT
ATOM      1  C   UNL A   1      33.264  27.749  26.623  1.00  0.00     0.042 C 
ENDROOT
BRANCH   1   2
ATOM      2  C   UNL A   1      31.774  28.063  26.558  1.00  0.00     0.117 C 
BRANCH   2   3
ATOM      3  N   UNL A   1      30.976  26.891  26.857  1.00  0.00    -0.356 N 
ATOM      4  C   UNL A   1      30.348  26.029  26.002  1.00  0.00     0.227 C 
ATOM      5  O   UNL A   1      29.608  25.178  26.498  1.00  0.00    -0.274 OA
ATOM      6  H   UNL A   1      30.872  26.686  27.815  1.00  0.00     0.163 HD
BRANCH   4   7
ATOM      7  C   UNL A   1      30.611  26.126  24.498  1.00  0.00     0.105 C 
ATOM      8  C   UNL A   1      30.644  24.721  23.864  1.00  0.00     0.023 C 
BRANCH   7   9
ATOM      9  C   UNL A   1      29.628  27.023  23.754  1.00  0.00    -0.032 A 
ATOM     10  C   UNL A   1      28.241  26.849  23.939  1.00  0.00     0.008 A 
ATOM     11  C   UNL A   1      30.080  28.138  23.035  1.00  0.00     0.055 A 
ATOM     12  C   UNL A   1      27.330  27.804  23.497  1.00  0.00     0.051 A 
ATOM     13  C   UNL A   1      29.186  29.160  22.738  1.00  0.00     0.161 A 
ATOM     14  C   UNL A   1      27.822  28.992  22.982  1.00  0.00     0.161 A 
ATOM     15  O   UNL A   1      29.725  30.356  22.353  1.00  0.00    -0.486 OA
ATOM     16  O   UNL A   1      26.958  30.056  22.895  1.00  0.00    -0.486 OA
ATOM     17  C   UNL A   1      28.906  31.486  22.694  1.00  0.00     0.271 C 
ATOM     18  C   UNL A   1      27.653  31.153  23.500  1.00  0.00     0.271 C 
ENDBRANCH   7   9
ENDBRANCH   4   7
ENDBRANCH   2   3
ENDBRANCH   1   2
BRANCH   1  19
ATOM     19  C   UNL A   1      34.134  28.825  25.990  1.00  0.00     0.118 C 
BRANCH  19  20
ATOM     20  N   UNL A   1      33.899  30.131  26.586  1.00  0.00    -0.352 N 
ATOM     21  C   UNL A   1      34.548  30.767  27.613  1.00  0.00     0.251 C 
ATOM     22  H   UNL A   1      33.156  30.640  26.187  1.00  0.00     0.163 HD
ATOM     23  O   UNL A   1      34.040  31.766  28.113  1.00  0.00    -0.269 OA
BRANCH  21  24
ATOM     24  C   UNL A   1      35.842  30.265  28.132  1.00  0.00     0.039 A 
ATOM     25  C   UNL A   1      35.848  29.567  29.345  1.00  0.00     0.014 A 
ATOM     26  C   UNL A   1      37.050  30.529  27.482  1.00  0.00     0.014 A 
ATOM     27  C   UNL A   1      37.053  29.107  29.881  1.00  0.00     0.010 A 
ATOM     28  C   UNL A   1      38.240  29.995  27.971  1.00  0.00     0.010 A 
ATOM     29  C   UNL A   1      38.258  29.299  29.188  1.00  0.00    -0.014 A 
BRANCH  29  30
ATOM     30  C   UNL A   1      39.548  28.813  29.740  1.00  0.00     0.031 A 
ATOM     31  C   UNL A   1      40.202  29.539  30.885  1.00  0.00     0.074 A 
ATOM     32  C   UNL A   1      40.154  27.746  29.185  1.00  0.00     0.049 A 
ATOM     33  N   UNL A   1      41.349  29.304  31.471  1.00  0.00    -0.248 NA
ATOM     34  C   UNL A   1      39.483  30.705  31.426  1.00  0.00     0.031 C 
ATOM     35  C   UNL A   1      39.644  26.983  28.045  1.00  0.00     0.029 A 
ATOM     36  N   UNL A   1      41.336  27.123  29.500  1.00  0.00    -0.354 N 
ATOM     37  C   UNL A   1      41.496  30.299  32.428  1.00  0.00     0.074 A 
ATOM     38  C   UNL A   1      40.349  31.172  32.313  1.00  0.00     0.031 C 
ATOM     39  C   UNL A   1      40.493  25.980  27.773  1.00  0.00     0.029 A 
ATOM     40  C   UNL A   1      41.624  26.050  28.694  1.00  0.00     0.049 A 
ATOM     41  H   UNL A   1      41.921  27.418  30.234  1.00  0.00     0.167 HD
ATOM     42  C   UNL A   1      42.486  30.457  33.340  1.00  0.00     0.037 A 
ATOM     43  C   UNL A   1      42.683  25.219  28.695  1.00  0.00     0.037 A 
ATOM     44  C   UNL A   1      43.611  29.568  33.475  1.00  0.00     0.049 A 
ATOM     45  C   UNL A   1      43.768  25.414  29.720  1.00  0.00     0.074 A 
ATOM     46  C   UNL A   1      44.632  29.602  34.407  1.00  0.00     0.029 A 
ATOM     47  N   UNL A   1      43.859  28.480  32.649  1.00  0.00    -0.354 N 
ATOM     48  N   UNL A   1      43.862  26.317  30.665  1.00  0.00    -0.248 NA
ATOM     49  C   UNL A   1      44.892  24.469  29.679  1.00  0.00     0.031 C 
ATOM     50  C   UNL A   1      45.523  28.563  34.119  1.00  0.00     0.029 A 
ATOM     51  C   UNL A   1      45.029  27.850  33.039  1.00  0.00     0.049 A 
ATOM     52  H   UNL A   1      43.288  28.198  31.899  1.00  0.00     0.167 HD
ATOM     53  C   UNL A   1      45.035  26.032  31.351  1.00  0.00     0.074 A 
ATOM     54  C   UNL A   1      45.612  24.862  30.720  1.00  0.00     0.031 C 
ATOM     55  C   UNL A   1      45.585  26.680  32.406  1.00  0.00     0.037 A 
BRANCH  42  56
ATOM     56  C   UNL A   1      42.398  31.637  34.265  1.00  0.00     0.064 A 
ATOM     57  C   UNL A   1      41.723  31.561  35.493  1.00  0.00     0.173 A 
ATOM     58  C   UNL A   1      43.022  32.849  33.936  1.00  0.00     0.173 A 
ATOM     59  F   UNL A   1      41.099  30.428  35.852  1.00  0.00    -0.203 F 
ATOM     60  C   UNL A   1      41.649  32.662  36.341  1.00  0.00     0.198 A 
ATOM     61  C   UNL A   1      42.974  33.939  34.801  1.00  0.00     0.198 A 
ATOM     62  F   UNL A   1      43.688  32.974  32.778  1.00  0.00    -0.203 F 
ATOM     63  F   UNL A   1      40.953  32.581  37.484  1.00  0.00    -0.200 F 
ATOM     64  C   UNL A   1      42.280  33.848  35.998  1.00  0.00     0.200 A 
ATOM     65  F   UNL A   1      43.596  35.081  34.474  1.00  0.00    -0.200 F 
ATOM     66  F   UNL A   1      42.213  34.906  36.818  1.00  0.00    -0.200 F 
ENDBRANCH  42  56
BRANCH  43  67
ATOM     67  C   UNL A   1      42.755  24.105  27.713  1.00  0.00     0.064 A 
ATOM     68  C   UNL A   1      42.348  22.812  28.066  1.00  0.00     0.173 A 
ATOM     69  C   UNL A   1      43.231  24.308  26.411  1.00  0.00     0.173 A 
ATOM     70  F   UNL A   1      41.905  22.563  29.307  1.00  0.00    -0.203 F 
ATOM     71  C   UNL A   1      42.434  21.757  27.159  1.00  0.00     0.198 A 
ATOM     72  C   UNL A   1      43.290  23.259  25.495  1.00  0.00     0.198 A 
ATOM     73  F   UNL A   1      43.628  25.529  26.022  1.00  0.00    -0.203 F 
ATOM     74  F   UNL A   1      42.082  20.521  27.536  1.00  0.00    -0.200 F 
ATOM     75  C   UNL A   1      42.899  21.983  25.873  1.00  0.00     0.200 A 
ATOM     76  F   UNL A   1      43.727  23.484  24.249  1.00  0.00    -0.200 F 
ATOM     77  F   UNL A   1      42.979  20.970  24.999  1.00  0.00    -0.200 F 
ENDBRANCH  43  67
BRANCH  55  78
ATOM     78  C   UNL A   1      46.856  26.116  32.972  1.00  0.00     0.064 A 
ATOM     79  C   UNL A   1      48.114  26.570  32.553  1.00  0.00     0.173 A 
ATOM     80  C   UNL A   1      46.811  25.132  33.972  1.00  0.00     0.173 A 
ATOM     81  F   UNL A   1      48.211  27.499  31.589  1.00  0.00    -0.203 F 
ATOM     82  C   UNL A   1      49.283  26.041  33.095  1.00  0.00     0.198 A 
ATOM     83  C   UNL A   1      47.980  24.627  34.533  1.00  0.00     0.198 A 
ATOM     84  F   UNL A   1      45.632  24.669  34.412  1.00  0.00    -0.203 F 
ATOM     85  F   UNL A   1      50.475  26.455  32.644  1.00  0.00    -0.200 F 
ATOM     86  C   UNL A   1      49.215  25.076  34.088  1.00  0.00     0.200 A 
ATOM     87  F   UNL A   1      47.912  23.705  35.502  1.00  0.00    -0.200 F 
ATOM     88  F   UNL A   1      50.340  24.571  34.613  1.00  0.00    -0.200 F 
ENDBRANCH  55  78
ENDBRANCH  29  30
ENDBRANCH  21  24
ENDBRANCH  19  20
ENDBRANCH   1  19
TORSDOF 11
ENDMDL
