MODEL 1
REMARK VINA RESULT:     -12.9      0.000      0.000
REMARK SMILES COc1ccc([C@H]2[C@@H](C(=O)NCCCNC(=O)c3ccc(-c4c5nc(c(-c6c(F)c(F)c(F)c(F)c6F)c6ccc([nH]6)c(-c6c(F)c(F)c(F)c(F)c6F)c6nc(c(-c7c(F)c(F)c(F)c(F)c7F)c7ccc4[nH]7)C=C6)C=C5)cc3)CC(=O)N2Cc2ccccc2)cc1
REMARK SMILES IDX 13 1 12 2 11 3 9 4 10 5 8 7 7 8 84 9 81 10 82 11 83 12 6 13
REMARK SMILES IDX 3 14 4 15 93 16 5 17 92 18 2 19 1 20 85 21 86 22 87 23 91 24
REMARK SMILES IDX 88 25 90 26 89 27 14 28 15 29 16 30 17 32 18 33 19 34 80 35
REMARK SMILES IDX 20 36 79 37 21 38 22 39 23 40 73 41 24 42 78 43 72 44 74 45
REMARK SMILES IDX 25 46 77 47 71 48 70 49 26 51 58 52 38 53 57 54 39 55 42 56
REMARK SMILES IDX 56 57 75 58 40 59 41 60 55 62 76 63 43 64 27 65 28 66 36 67
REMARK SMILES IDX 29 68 30 69 34 70 37 71 31 72 32 73 35 74 33 75 59 76 60 77
REMARK SMILES IDX 68 78 61 79 62 80 66 81 69 82 63 83 64 84 67 85 65 86 44 87
REMARK SMILES IDX 45 88 53 89 46 90 47 91 51 92 54 93 48 94 49 95 52 96 50 97
REMARK H PARENT 11 6 15 31 74 50 42 61
REMARK Flexibility Score: inf
ROOT
ATOM      1  C   UNL A   1      32.437  27.894  25.596  1.00  0.00     0.042 C 
ENDROOT
BRANCH   1   2
ATOM      2  C   UNL A   1      33.305  26.660  25.674  1.00  0.00     0.117 C 
BRANCH   2   3
ATOM      3  N   UNL A   1      33.996  26.321  24.452  1.00  0.00    -0.356 N 
ATOM      4  C   UNL A   1      33.646  25.377  23.534  1.00  0.00     0.226 C 
ATOM      5  O   UNL A   1      34.138  25.468  22.406  1.00  0.00    -0.275 OA
ATOM      6  H   UNL A   1      34.816  26.831  24.260  1.00  0.00     0.163 HD
BRANCH   4   7
ATOM      7  C   UNL A   1      32.721  24.218  23.867  1.00  0.00     0.115 C 
ATOM      8  C   UNL A   1      33.251  23.024  24.687  1.00  0.00     0.128 C 
ATOM      9  N   UNL A   1      32.624  21.864  24.056  1.00  0.00    -0.330 N 
ATOM     10  C   UNL A   1      32.025  23.647  22.633  1.00  0.00     0.116 C 
ATOM     11  C   UNL A   1      31.972  22.168  22.873  1.00  0.00     0.224 C 
ATOM     12  O   UNL A   1      31.379  21.383  22.149  1.00  0.00    -0.275 OA
BRANCH   8  13
ATOM     13  C   UNL A   1      34.753  22.947  24.923  1.00  0.00    -0.024 A 
ATOM     14  C   UNL A   1      37.542  22.906  25.453  1.00  0.00     0.118 A 
ATOM     15  C   UNL A   1      36.647  23.373  26.412  1.00  0.00     0.047 A 
ATOM     16  C   UNL A   1      37.054  22.437  24.238  1.00  0.00     0.047 A 
ATOM     17  C   UNL A   1      35.271  23.395  26.153  1.00  0.00     0.010 A 
ATOM     18  C   UNL A   1      35.675  22.469  23.975  1.00  0.00     0.010 A 
BRANCH  14  19
ATOM     19  O   UNL A   1      38.858  22.859  25.821  1.00  0.00    -0.497 OA
ATOM     20  C   UNL A   1      39.357  21.543  26.055  1.00  0.00     0.278 C 
ENDBRANCH  14  19
ENDBRANCH   8  13
BRANCH   9  21
ATOM     21  C   UNL A   1      32.300  20.631  24.774  1.00  0.00     0.155 C 
BRANCH  21  22
ATOM     22  C   UNL A   1      33.048  19.409  24.317  1.00  0.00    -0.029 A 
ATOM     23  C   UNL A   1      34.361  19.174  24.753  1.00  0.00     0.005 A 
ATOM     24  C   UNL A   1      32.431  18.464  23.484  1.00  0.00     0.005 A 
ATOM     25  C   UNL A   1      35.031  18.006  24.380  1.00  0.00     0.000 A 
ATOM     26  C   UNL A   1      33.094  17.289  23.132  1.00  0.00     0.000 A 
ATOM     27  C   UNL A   1      34.393  17.060  23.581  1.00  0.00     0.000 A 
ENDBRANCH  21  22
ENDBRANCH   9  21
ENDBRANCH   4   7
ENDBRANCH   2   3
ENDBRANCH   1   2
BRANCH   1  28
ATOM     28  C   UNL A   1      33.251  29.155  25.349  1.00  0.00     0.118 C 
BRANCH  28  29
ATOM     29  N   UNL A   1      32.771  30.320  26.096  1.00  0.00    -0.352 N 
ATOM     30  C   UNL A   1      33.359  31.034  27.115  1.00  0.00     0.251 C 
ATOM     31  H   UNL A   1      31.883  30.647  25.823  1.00  0.00     0.163 HD
ATOM     32  O   UNL A   1      32.737  31.905  27.709  1.00  0.00    -0.269 OA
BRANCH  30  33
ATOM     33  C   UNL A   1      34.731  30.707  27.535  1.00  0.00     0.039 A 
ATOM     34  C   UNL A   1      35.645  31.750  27.704  1.00  0.00     0.014 A 
ATOM     35  C   UNL A   1      35.087  29.394  27.837  1.00  0.00     0.014 A 
ATOM     36  C   UNL A   1      36.870  31.489  28.310  1.00  0.00     0.010 A 
ATOM     37  C   UNL A   1      36.243  29.158  28.558  1.00  0.00     0.010 A 
ATOM     38  C   UNL A   1      37.137  30.207  28.813  1.00  0.00    -0.014 A 
BRANCH  38  39
ATOM     39  C   UNL A   1      38.332  29.939  29.642  1.00  0.00     0.031 A 
ATOM     40  C   UNL A   1      39.397  29.018  29.128  1.00  0.00     0.074 A 
ATOM     41  C   UNL A   1      38.386  30.442  30.890  1.00  0.00     0.049 A 
ATOM     42  N   UNL A   1      40.455  28.554  29.739  1.00  0.00    -0.248 NA
ATOM     43  C   UNL A   1      39.223  28.507  27.758  1.00  0.00     0.031 C 
ATOM     44  C   UNL A   1      37.358  31.284  31.511  1.00  0.00     0.029 A 
ATOM     45  N   UNL A   1      39.338  30.314  31.867  1.00  0.00    -0.354 N 
ATOM     46  C   UNL A   1      41.050  27.678  28.843  1.00  0.00     0.074 A 
ATOM     47  C   UNL A   1      40.204  27.623  27.672  1.00  0.00     0.031 C 
ATOM     48  C   UNL A   1      37.754  31.627  32.746  1.00  0.00     0.029 A 
ATOM     49  C   UNL A   1      39.039  30.997  33.020  1.00  0.00     0.049 A 
ATOM     50  H   UNL A   1      40.159  29.783  31.753  1.00  0.00     0.167 HD
ATOM     51  C   UNL A   1      42.214  27.003  28.978  1.00  0.00     0.037 A 
ATOM     52  C   UNL A   1      39.731  31.099  34.171  1.00  0.00     0.037 A 
ATOM     53  C   UNL A   1      43.061  27.107  30.137  1.00  0.00     0.049 A 
ATOM     54  C   UNL A   1      41.048  30.383  34.275  1.00  0.00     0.074 A 
ATOM     55  C   UNL A   1      44.293  26.523  30.364  1.00  0.00     0.029 A 
ATOM     56  N   UNL A   1      42.756  27.859  31.264  1.00  0.00    -0.354 N 
ATOM     57  N   UNL A   1      41.637  29.607  33.396  1.00  0.00    -0.248 NA
ATOM     58  C   UNL A   1      41.801  30.560  35.522  1.00  0.00     0.031 C 
ATOM     59  C   UNL A   1      44.719  26.896  31.644  1.00  0.00     0.029 A 
ATOM     60  C   UNL A   1      43.773  27.748  32.195  1.00  0.00     0.049 A 
ATOM     61  H   UNL A   1      41.937  28.392  31.383  1.00  0.00     0.167 HD
ATOM     62  C   UNL A   1      42.839  29.223  33.972  1.00  0.00     0.074 A 
ATOM     63  C   UNL A   1      42.901  29.865  35.270  1.00  0.00     0.031 C 
ATOM     64  C   UNL A   1      43.804  28.411  33.474  1.00  0.00     0.037 A 
BRANCH  51  65
ATOM     65  C   UNL A   1      42.630  26.110  27.846  1.00  0.00     0.064 A 
ATOM     66  C   UNL A   1      42.238  24.763  27.786  1.00  0.00     0.173 A 
ATOM     67  C   UNL A   1      43.439  26.601  26.810  1.00  0.00     0.173 A 
ATOM     68  F   UNL A   1      41.480  24.237  28.761  1.00  0.00    -0.203 F 
ATOM     69  C   UNL A   1      42.673  23.933  26.756  1.00  0.00     0.198 A 
ATOM     70  C   UNL A   1      43.844  25.776  25.763  1.00  0.00     0.198 A 
ATOM     71  F   UNL A   1      43.843  27.880  26.815  1.00  0.00    -0.203 F 
ATOM     72  F   UNL A   1      42.339  22.635  26.759  1.00  0.00    -0.200 F 
ATOM     73  C   UNL A   1      43.471  24.440  25.743  1.00  0.00     0.200 A 
ATOM     74  F   UNL A   1      44.609  26.271  24.781  1.00  0.00    -0.200 F 
ATOM     75  F   UNL A   1      43.891  23.640  24.754  1.00  0.00    -0.200 F 
ENDBRANCH  51  65
BRANCH  52  76
ATOM     76  C   UNL A   1      39.213  31.944  35.277  1.00  0.00     0.064 A 
ATOM     77  C   UNL A   1      39.448  33.326  35.294  1.00  0.00     0.173 A 
ATOM     78  C   UNL A   1      38.449  31.402  36.321  1.00  0.00     0.173 A 
ATOM     79  F   UNL A   1      40.184  33.890  34.325  1.00  0.00    -0.203 F 
ATOM     80  C   UNL A   1      38.955  34.130  36.319  1.00  0.00     0.198 A 
ATOM     81  C   UNL A   1      37.933  32.210  37.332  1.00  0.00     0.198 A 
ATOM     82  F   UNL A   1      38.183  30.087  36.345  1.00  0.00    -0.203 F 
ATOM     83  F   UNL A   1      39.226  35.443  36.329  1.00  0.00    -0.200 F 
ATOM     84  C   UNL A   1      38.192  33.573  37.334  1.00  0.00     0.200 A 
ATOM     85  F   UNL A   1      37.182  31.671  38.302  1.00  0.00    -0.200 F 
ATOM     86  F   UNL A   1      37.709  34.347  38.315  1.00  0.00    -0.200 F 
ENDBRANCH  52  76
BRANCH  64  87
ATOM     87  C   UNL A   1      45.020  28.202  34.327  1.00  0.00     0.064 A 
ATOM     88  C   UNL A   1      46.117  29.070  34.262  1.00  0.00     0.173 A 
ATOM     89  C   UNL A   1      45.059  27.150  35.254  1.00  0.00     0.173 A 
ATOM     90  F   UNL A   1      46.129  30.081  33.381  1.00  0.00    -0.203 F 
ATOM     91  C   UNL A   1      47.225  28.879  35.083  1.00  0.00     0.198 A 
ATOM     92  C   UNL A   1      46.156  26.978  36.091  1.00  0.00     0.198 A 
ATOM     93  F   UNL A   1      44.028  26.298  35.354  1.00  0.00    -0.203 F 
ATOM     94  F   UNL A   1      48.283  29.694  34.977  1.00  0.00    -0.200 F 
ATOM     95  C   UNL A   1      47.240  27.839  36.002  1.00  0.00     0.200 A 
ATOM     96  F   UNL A   1      46.163  25.982  36.987  1.00  0.00    -0.200 F 
ATOM     97  F   UNL A   1      48.302  27.663  36.798  1.00  0.00    -0.200 F 
ENDBRANCH  64  87
ENDBRANCH  38  39
ENDBRANCH  30  33
ENDBRANCH  28  29
ENDBRANCH   1  28
TORSDOF 14
ENDMDL
MODEL 2
REMARK VINA RESULT:     -12.7      3.510      7.233
REMARK SMILES COc1ccc([C@H]2[C@@H](C(=O)NCCCNC(=O)c3ccc(-c4c5nc(c(-c6c(F)c(F)c(F)c(F)c6F)c6ccc([nH]6)c(-c6c(F)c(F)c(F)c(F)c6F)c6nc(c(-c7c(F)c(F)c(F)c(F)c7F)c7ccc4[nH]7)C=C6)C=C5)cc3)CC(=O)N2Cc2ccccc2)cc1
REMARK SMILES IDX 13 1 12 2 11 3 9 4 10 5 8 7 7 8 84 9 81 10 82 11 83 12 6 13
REMARK SMILES IDX 3 14 4 15 93 16 5 17 92 18 2 19 1 20 85 21 86 22 87 23 91 24
REMARK SMILES IDX 88 25 90 26 89 27 14 28 15 29 16 30 17 32 18 33 19 34 80 35
REMARK SMILES IDX 20 36 79 37 21 38 22 39 23 40 73 41 24 42 78 43 72 44 74 45
REMARK SMILES IDX 25 46 77 47 71 48 70 49 26 51 58 52 38 53 57 54 39 55 42 56
REMARK SMILES IDX 56 57 75 58 40 59 41 60 55 62 76 63 43 64 27 65 28 66 36 67
REMARK SMILES IDX 29 68 30 69 34 70 37 71 31 72 32 73 35 74 33 75 59 76 60 77
REMARK SMILES IDX 68 78 61 79 62 80 66 81 69 82 63 83 64 84 67 85 65 86 44 87
REMARK SMILES IDX 45 88 53 89 46 90 47 91 51 92 54 93 48 94 49 95 52 96 50 97
REMARK H PARENT 11 6 15 31 74 50 42 61
REMARK Flexibility Score: inf
ROOT
ATOM      1  C   UNL A   1      35.801  23.152  25.779  1.00  0.00     0.042 C 
ENDROOT
BRANCH   1   2
ATOM      2  C   UNL A   1      34.615  23.966  25.319  1.00  0.00     0.117 C 
BRANCH   2   3
ATOM      3  N   UNL A   1      33.671  24.307  26.357  1.00  0.00    -0.356 N 
ATOM      4  C   UNL A   1      32.347  24.597  26.213  1.00  0.00     0.226 C 
ATOM      5  O   UNL A   1      31.633  24.516  27.217  1.00  0.00    -0.275 OA
ATOM      6  H   UNL A   1      34.024  24.334  27.276  1.00  0.00     0.163 HD
BRANCH   4   7
ATOM      7  C   UNL A   1      31.749  25.049  24.892  1.00  0.00     0.115 C 
ATOM      8  C   UNL A   1      31.933  26.508  24.425  1.00  0.00     0.128 C 
ATOM      9  N   UNL A   1      30.642  26.847  23.828  1.00  0.00    -0.330 N 
ATOM     10  C   UNL A   1      30.263  24.720  24.775  1.00  0.00     0.116 C 
ATOM     11  C   UNL A   1      29.667  25.890  24.050  1.00  0.00     0.224 C 
ATOM     12  O   UNL A   1      28.507  25.934  23.669  1.00  0.00    -0.275 OA
BRANCH   8  13
ATOM     13  C   UNL A   1      32.504  27.500  25.430  1.00  0.00    -0.024 A 
ATOM     14  C   UNL A   1      33.690  29.292  27.283  1.00  0.00     0.118 A 
ATOM     15  C   UNL A   1      34.445  28.740  26.253  1.00  0.00     0.047 A 
ATOM     16  C   UNL A   1      32.340  28.976  27.384  1.00  0.00     0.047 A 
ATOM     17  C   UNL A   1      33.862  27.854  25.338  1.00  0.00     0.010 A 
ATOM     18  C   UNL A   1      31.759  28.080  26.472  1.00  0.00     0.010 A 
BRANCH  14  19
ATOM     19  O   UNL A   1      34.327  30.198  28.086  1.00  0.00    -0.497 OA
ATOM     20  C   UNL A   1      34.126  31.559  27.713  1.00  0.00     0.278 C 
ENDBRANCH  14  19
ENDBRANCH   8  13
BRANCH   9  21
ATOM     21  C   UNL A   1      30.484  27.815  22.741  1.00  0.00     0.155 C 
BRANCH  21  22
ATOM     22  C   UNL A   1      29.631  29.009  23.069  1.00  0.00    -0.029 A 
ATOM     23  C   UNL A   1      30.142  30.055  23.853  1.00  0.00     0.005 A 
ATOM     24  C   UNL A   1      28.329  29.118  22.561  1.00  0.00     0.005 A 
ATOM     25  C   UNL A   1      29.372  31.193  24.102  1.00  0.00     0.000 A 
ATOM     26  C   UNL A   1      27.570  30.265  22.791  1.00  0.00     0.000 A 
ATOM     27  C   UNL A   1      28.093  31.303  23.561  1.00  0.00     0.000 A 
ENDBRANCH  21  22
ENDBRANCH   9  21
ENDBRANCH   4   7
ENDBRANCH   2   3
ENDBRANCH   1   2
BRANCH   1  28
ATOM     28  C   UNL A   1      37.107  23.641  25.170  1.00  0.00     0.118 C 
BRANCH  28  29
ATOM     29  N   UNL A   1      38.275  22.856  25.574  1.00  0.00    -0.352 N 
ATOM     30  C   UNL A   1      39.374  23.208  26.325  1.00  0.00     0.251 C 
ATOM     31  H   UNL A   1      38.274  21.924  25.257  1.00  0.00     0.163 HD
ATOM     32  O   UNL A   1      40.321  22.442  26.444  1.00  0.00    -0.269 OA
BRANCH  30  33
ATOM     33  C   UNL A   1      39.436  24.542  26.943  1.00  0.00     0.039 A 
ATOM     34  C   UNL A   1      38.931  24.704  28.235  1.00  0.00     0.014 A 
ATOM     35  C   UNL A   1      40.060  25.601  26.286  1.00  0.00     0.014 A 
ATOM     36  C   UNL A   1      39.180  25.890  28.919  1.00  0.00     0.010 A 
ATOM     37  C   UNL A   1      40.422  26.723  27.008  1.00  0.00     0.010 A 
ATOM     38  C   UNL A   1      39.996  26.870  28.335  1.00  0.00    -0.014 A 
BRANCH  38  39
ATOM     39  C   UNL A   1      40.454  28.048  29.103  1.00  0.00     0.031 A 
ATOM     40  C   UNL A   1      41.852  28.083  29.640  1.00  0.00     0.074 A 
ATOM     41  C   UNL A   1      39.568  29.018  29.398  1.00  0.00     0.049 A 
ATOM     42  N   UNL A   1      42.411  28.956  30.437  1.00  0.00    -0.248 NA
ATOM     43  C   UNL A   1      42.728  26.957  29.275  1.00  0.00     0.031 C 
ATOM     44  C   UNL A   1      38.160  29.034  28.990  1.00  0.00     0.029 A 
ATOM     45  N   UNL A   1      39.712  30.175  30.118  1.00  0.00    -0.354 N 
ATOM     46  C   UNL A   1      43.686  28.469  30.689  1.00  0.00     0.074 A 
ATOM     47  C   UNL A   1      43.798  27.194  30.017  1.00  0.00     0.031 C 
ATOM     48  C   UNL A   1      37.583  30.162  29.432  1.00  0.00     0.029 A 
ATOM     49  C   UNL A   1      38.565  30.927  30.189  1.00  0.00     0.049 A 
ATOM     50  H   UNL A   1      40.559  30.442  30.545  1.00  0.00     0.167 HD
ATOM     51  C   UNL A   1      44.680  29.050  31.398  1.00  0.00     0.037 A 
ATOM     52  C   UNL A   1      38.338  32.104  30.801  1.00  0.00     0.037 A 
ATOM     53  C   UNL A   1      44.558  30.340  32.023  1.00  0.00     0.049 A 
ATOM     54  C   UNL A   1      39.475  32.756  31.536  1.00  0.00     0.074 A 
ATOM     55  C   UNL A   1      45.514  31.062  32.713  1.00  0.00     0.029 A 
ATOM     56  N   UNL A   1      43.398  31.104  32.021  1.00  0.00    -0.354 N 
ATOM     57  N   UNL A   1      40.700  32.319  31.716  1.00  0.00    -0.248 NA
ATOM     58  C   UNL A   1      39.207  34.064  32.145  1.00  0.00     0.031 C 
ATOM     59  C   UNL A   1      44.922  32.249  33.157  1.00  0.00     0.029 A 
ATOM     60  C   UNL A   1      43.611  32.287  32.707  1.00  0.00     0.049 A 
ATOM     61  H   UNL A   1      42.549  30.842  31.597  1.00  0.00     0.167 HD
ATOM     62  C   UNL A   1      41.355  33.306  32.436  1.00  0.00     0.074 A 
ATOM     63  C   UNL A   1      40.395  34.373  32.647  1.00  0.00     0.031 C 
ATOM     64  C   UNL A   1      42.633  33.330  32.887  1.00  0.00     0.037 A 
BRANCH  51  65
ATOM     65  C   UNL A   1      45.973  28.297  31.519  1.00  0.00     0.064 A 
ATOM     66  C   UNL A   1      47.003  28.443  30.576  1.00  0.00     0.173 A 
ATOM     67  C   UNL A   1      46.184  27.410  32.585  1.00  0.00     0.173 A 
ATOM     68  F   UNL A   1      46.845  29.264  29.526  1.00  0.00    -0.203 F 
ATOM     69  C   UNL A   1      48.176  27.700  30.673  1.00  0.00     0.198 A 
ATOM     70  C   UNL A   1      47.374  26.694  32.698  1.00  0.00     0.198 A 
ATOM     71  F   UNL A   1      45.235  27.232  33.516  1.00  0.00    -0.203 F 
ATOM     72  F   UNL A   1      49.115  27.808  29.722  1.00  0.00    -0.200 F 
ATOM     73  C   UNL A   1      48.364  26.830  31.736  1.00  0.00     0.200 A 
ATOM     74  F   UNL A   1      47.557  25.860  33.730  1.00  0.00    -0.200 F 
ATOM     75  F   UNL A   1      49.493  26.114  31.827  1.00  0.00    -0.200 F 
ENDBRANCH  51  65
BRANCH  52  76
ATOM     76  C   UNL A   1      37.004  32.750  30.698  1.00  0.00     0.064 A 
ATOM     77  C   UNL A   1      36.035  32.556  31.692  1.00  0.00     0.173 A 
ATOM     78  C   UNL A   1      36.678  33.597  29.628  1.00  0.00     0.173 A 
ATOM     79  F   UNL A   1      36.294  31.745  32.729  1.00  0.00    -0.203 F 
ATOM     80  C   UNL A   1      34.786  33.168  31.612  1.00  0.00     0.198 A 
ATOM     81  C   UNL A   1      35.438  34.231  29.563  1.00  0.00     0.198 A 
ATOM     82  F   UNL A   1      37.575  33.828  28.658  1.00  0.00    -0.203 F 
ATOM     83  F   UNL A   1      33.866  32.936  32.559  1.00  0.00    -0.200 F 
ATOM     84  C   UNL A   1      34.491  34.010  30.551  1.00  0.00     0.200 A 
ATOM     85  F   UNL A   1      35.163  35.057  28.544  1.00  0.00    -0.200 F 
ATOM     86  F   UNL A   1      33.294  34.607  30.479  1.00  0.00    -0.200 F 
ENDBRANCH  52  76
BRANCH  64  87
ATOM     87  C   UNL A   1      43.070  34.562  33.620  1.00  0.00     0.064 A 
ATOM     88  C   UNL A   1      43.524  35.699  32.938  1.00  0.00     0.173 A 
ATOM     89  C   UNL A   1      42.984  34.618  35.019  1.00  0.00     0.173 A 
ATOM     90  F   UNL A   1      43.636  35.685  31.601  1.00  0.00    -0.203 F 
ATOM     91  C   UNL A   1      43.896  36.845  33.634  1.00  0.00     0.198 A 
ATOM     92  C   UNL A   1      43.331  35.775  35.709  1.00  0.00     0.198 A 
ATOM     93  F   UNL A   1      42.549  33.556  35.713  1.00  0.00    -0.203 F 
ATOM     94  F   UNL A   1      44.367  37.908  32.967  1.00  0.00    -0.200 F 
ATOM     95  C   UNL A   1      43.792  36.885  35.017  1.00  0.00     0.200 A 
ATOM     96  F   UNL A   1      43.218  35.817  37.043  1.00  0.00    -0.200 F 
ATOM     97  F   UNL A   1      44.142  37.993  35.684  1.00  0.00    -0.200 F 
ENDBRANCH  64  87
ENDBRANCH  38  39
ENDBRANCH  30  33
ENDBRANCH  28  29
ENDBRANCH   1  28
TORSDOF 14
ENDMDL
MODEL 3
REMARK VINA RESULT:     -12.7      1.764      7.959
REMARK SMILES COc1ccc([C@H]2[C@@H](C(=O)NCCCNC(=O)c3ccc(-c4c5nc(c(-c6c(F)c(F)c(F)c(F)c6F)c6ccc([nH]6)c(-c6c(F)c(F)c(F)c(F)c6F)c6nc(c(-c7c(F)c(F)c(F)c(F)c7F)c7ccc4[nH]7)C=C6)C=C5)cc3)CC(=O)N2Cc2ccccc2)cc1
REMARK SMILES IDX 13 1 12 2 11 3 9 4 10 5 8 7 7 8 84 9 81 10 82 11 83 12 6 13
REMARK SMILES IDX 3 14 4 15 93 16 5 17 92 18 2 19 1 20 85 21 86 22 87 23 91 24
REMARK SMILES IDX 88 25 90 26 89 27 14 28 15 29 16 30 17 32 18 33 19 34 80 35
REMARK SMILES IDX 20 36 79 37 21 38 22 39 23 40 73 41 24 42 78 43 72 44 74 45
REMARK SMILES IDX 25 46 77 47 71 48 70 49 26 51 58 52 38 53 57 54 39 55 42 56
REMARK SMILES IDX 56 57 75 58 40 59 41 60 55 62 76 63 43 64 27 65 28 66 36 67
REMARK SMILES IDX 29 68 30 69 34 70 37 71 31 72 32 73 35 74 33 75 59 76 60 77
REMARK SMILES IDX 68 78 61 79 62 80 66 81 69 82 63 83 64 84 67 85 65 86 44 87
REMARK SMILES IDX 45 88 53 89 46 90 47 91 51 92 54 93 48 94 49 95 52 96 50 97
REMARK H PARENT 11 6 15 31 74 50 42 61
REMARK Flexibility Score: inf
ROOT
ATOM      1  C   UNL A   1      31.749  29.127  27.451  1.00  0.00     0.042 C 
ENDROOT
BRANCH   1   2
ATOM      2  C   UNL A   1      32.060  27.656  27.299  1.00  0.00     0.117 C 
BRANCH   2   3
ATOM      3  N   UNL A   1      30.952  26.841  26.859  1.00  0.00    -0.356 N 
ATOM      4  C   UNL A   1      30.974  25.520  26.524  1.00  0.00     0.226 C 
ATOM      5  O   UNL A   1      29.899  24.915  26.518  1.00  0.00    -0.275 OA
ATOM      6  H   UNL A   1      30.079  27.291  26.793  1.00  0.00     0.163 HD
BRANCH   4   7
ATOM      7  C   UNL A   1      32.252  24.800  26.127  1.00  0.00     0.115 C 
ATOM      8  C   UNL A   1      33.052  25.280  24.899  1.00  0.00     0.128 C 
ATOM      9  N   UNL A   1      33.499  24.038  24.268  1.00  0.00    -0.330 N 
ATOM     10  C   UNL A   1      32.057  23.293  25.980  1.00  0.00     0.116 C 
ATOM     11  C   UNL A   1      32.919  22.906  24.816  1.00  0.00     0.224 C 
ATOM     12  O   UNL A   1      33.112  21.751  24.467  1.00  0.00    -0.275 OA
BRANCH   8  13
ATOM     13  C   UNL A   1      32.395  26.310  23.991  1.00  0.00    -0.024 A 
ATOM     14  C   UNL A   1      31.224  28.330  22.377  1.00  0.00     0.118 A 
ATOM     15  C   UNL A   1      32.388  28.586  23.094  1.00  0.00     0.047 A 
ATOM     16  C   UNL A   1      30.649  27.065  22.439  1.00  0.00     0.047 A 
ATOM     17  C   UNL A   1      32.968  27.592  23.893  1.00  0.00     0.010 A 
ATOM     18  C   UNL A   1      31.226  26.071  23.247  1.00  0.00     0.010 A 
BRANCH  14  19
ATOM     19  O   UNL A   1      30.770  29.339  21.573  1.00  0.00    -0.497 OA
ATOM     20  C   UNL A   1      29.563  29.952  22.023  1.00  0.00     0.278 C 
ENDBRANCH  14  19
ENDBRANCH   8  13
BRANCH   9  21
ATOM     21  C   UNL A   1      34.733  23.925  23.491  1.00  0.00     0.155 C 
BRANCH  21  22
ATOM     22  C   UNL A   1      35.922  23.406  24.251  1.00  0.00    -0.029 A 
ATOM     23  C   UNL A   1      36.400  24.091  25.379  1.00  0.00     0.005 A 
ATOM     24  C   UNL A   1      36.546  22.209  23.871  1.00  0.00     0.005 A 
ATOM     25  C   UNL A   1      37.463  23.574  26.122  1.00  0.00     0.000 A 
ATOM     26  C   UNL A   1      37.592  21.683  24.628  1.00  0.00     0.000 A 
ATOM     27  C   UNL A   1      38.050  22.365  25.753  1.00  0.00     0.000 A 
ENDBRANCH  21  22
ENDBRANCH   9  21
ENDBRANCH   4   7
ENDBRANCH   2   3
ENDBRANCH   1   2
BRANCH   1  28
ATOM     28  C   UNL A   1      32.613  29.994  26.549  1.00  0.00     0.118 C 
BRANCH  28  29
ATOM     29  N   UNL A   1      32.604  31.413  26.912  1.00  0.00    -0.352 N 
ATOM     30  C   UNL A   1      33.538  32.172  27.579  1.00  0.00     0.251 C 
ATOM     31  H   UNL A   1      31.797  31.904  26.633  1.00  0.00     0.163 HD
ATOM     32  O   UNL A   1      33.288  33.325  27.909  1.00  0.00    -0.269 OA
BRANCH  30  33
ATOM     33  C   UNL A   1      34.831  31.575  27.951  1.00  0.00     0.039 A 
ATOM     34  C   UNL A   1      35.912  32.422  28.200  1.00  0.00     0.014 A 
ATOM     35  C   UNL A   1      34.950  30.198  28.130  1.00  0.00     0.014 A 
ATOM     36  C   UNL A   1      37.070  31.898  28.765  1.00  0.00     0.010 A 
ATOM     37  C   UNL A   1      36.045  29.700  28.812  1.00  0.00     0.010 A 
ATOM     38  C   UNL A   1      37.108  30.549  29.148  1.00  0.00    -0.014 A 
BRANCH  38  39
ATOM     39  C   UNL A   1      38.235  30.003  29.934  1.00  0.00     0.031 A 
ATOM     40  C   UNL A   1      38.434  30.452  31.350  1.00  0.00     0.074 A 
ATOM     41  C   UNL A   1      39.124  29.195  29.326  1.00  0.00     0.049 A 
ATOM     42  N   UNL A   1      39.420  30.195  32.168  1.00  0.00    -0.248 NA
ATOM     43  C   UNL A   1      37.413  31.356  31.906  1.00  0.00     0.031 C 
ATOM     44  C   UNL A   1      39.060  28.765  27.926  1.00  0.00     0.029 A 
ATOM     45  N   UNL A   1      40.261  28.596  29.800  1.00  0.00    -0.354 N 
ATOM     46  C   UNL A   1      39.153  30.927  33.317  1.00  0.00     0.074 A 
ATOM     47  C   UNL A   1      37.950  31.688  33.069  1.00  0.00     0.031 C 
ATOM     48  C   UNL A   1      40.089  27.943  27.667  1.00  0.00     0.029 A 
ATOM     49  C   UNL A   1      40.906  27.822  28.867  1.00  0.00     0.049 A 
ATOM     50  H   UNL A   1      40.586  28.711  30.723  1.00  0.00     0.167 HD
ATOM     51  C   UNL A   1      39.840  30.938  34.482  1.00  0.00     0.037 A 
ATOM     52  C   UNL A   1      42.035  27.096  28.976  1.00  0.00     0.037 A 
ATOM     53  C   UNL A   1      41.011  30.139  34.719  1.00  0.00     0.049 A 
ATOM     54  C   UNL A   1      42.749  27.082  30.298  1.00  0.00     0.074 A 
ATOM     55  C   UNL A   1      41.756  30.016  35.878  1.00  0.00     0.029 A 
ATOM     56  N   UNL A   1      41.603  29.316  33.770  1.00  0.00    -0.354 N 
ATOM     57  N   UNL A   1      42.453  27.726  31.402  1.00  0.00    -0.248 NA
ATOM     58  C   UNL A   1      43.944  26.237  30.396  1.00  0.00     0.031 C 
ATOM     59  C   UNL A   1      42.818  29.142  35.618  1.00  0.00     0.029 A 
ATOM     60  C   UNL A   1      42.710  28.687  34.312  1.00  0.00     0.049 A 
ATOM     61  H   UNL A   1      41.283  29.198  32.846  1.00  0.00     0.167 HD
ATOM     62  C   UNL A   1      43.409  27.348  32.332  1.00  0.00     0.074 A 
ATOM     63  C   UNL A   1      44.286  26.405  31.666  1.00  0.00     0.031 C 
ATOM     64  C   UNL A   1      43.553  27.746  33.621  1.00  0.00     0.037 A 
BRANCH  51  65
ATOM     65  C   UNL A   1      39.330  31.832  35.575  1.00  0.00     0.064 A 
ATOM     66  C   UNL A   1      39.752  33.167  35.694  1.00  0.00     0.173 A 
ATOM     67  C   UNL A   1      38.415  31.350  36.523  1.00  0.00     0.173 A 
ATOM     68  F   UNL A   1      40.640  33.673  34.824  1.00  0.00    -0.203 F 
ATOM     69  C   UNL A   1      39.310  33.969  36.742  1.00  0.00     0.198 A 
ATOM     70  C   UNL A   1      37.950  32.167  37.551  1.00  0.00     0.198 A 
ATOM     71  F   UNL A   1      37.978  30.084  36.458  1.00  0.00    -0.203 F 
ATOM     72  F   UNL A   1      39.780  35.218  36.870  1.00  0.00    -0.200 F 
ATOM     73  C   UNL A   1      38.406  33.471  37.667  1.00  0.00     0.200 A 
ATOM     74  F   UNL A   1      37.069  31.686  38.439  1.00  0.00    -0.200 F 
ATOM     75  F   UNL A   1      37.983  34.245  38.676  1.00  0.00    -0.200 F 
ENDBRANCH  51  65
BRANCH  52  76
ATOM     76  C   UNL A   1      42.517  26.296  27.821  1.00  0.00     0.064 A 
ATOM     77  C   UNL A   1      41.984  25.026  27.556  1.00  0.00     0.173 A 
ATOM     78  C   UNL A   1      43.492  26.788  26.941  1.00  0.00     0.173 A 
ATOM     79  F   UNL A   1      41.058  24.506  28.375  1.00  0.00    -0.203 F 
ATOM     80  C   UNL A   1      42.419  24.273  26.468  1.00  0.00     0.198 A 
ATOM     81  C   UNL A   1      43.908  26.046  25.837  1.00  0.00     0.198 A 
ATOM     82  F   UNL A   1      44.025  28.003  27.141  1.00  0.00    -0.203 F 
ATOM     83  F   UNL A   1      41.917  23.048  26.259  1.00  0.00    -0.200 F 
ATOM     84  C   UNL A   1      43.376  24.786  25.605  1.00  0.00     0.200 A 
ATOM     85  F   UNL A   1      44.820  26.552  24.996  1.00  0.00    -0.200 F 
ATOM     86  F   UNL A   1      43.788  24.067  24.552  1.00  0.00    -0.200 F 
ENDBRANCH  52  76
BRANCH  64  87
ATOM     87  C   UNL A   1      44.680  27.134  34.397  1.00  0.00     0.064 A 
ATOM     88  C   UNL A   1      45.941  27.741  34.459  1.00  0.00     0.173 A 
ATOM     89  C   UNL A   1      44.475  25.953  35.126  1.00  0.00     0.173 A 
ATOM     90  F   UNL A   1      46.186  28.863  33.767  1.00  0.00    -0.203 F 
ATOM     91  C   UNL A   1      46.967  27.175  35.210  1.00  0.00     0.198 A 
ATOM     92  C   UNL A   1      45.495  25.405  35.897  1.00  0.00     0.198 A 
ATOM     93  F   UNL A   1      43.282  25.341  35.101  1.00  0.00    -0.203 F 
ATOM     94  F   UNL A   1      48.178  27.748  35.224  1.00  0.00    -0.200 F 
ATOM     95  C   UNL A   1      46.741  26.014  35.934  1.00  0.00     0.200 A 
ATOM     96  F   UNL A   1      45.271  24.291  36.606  1.00  0.00    -0.200 F 
ATOM     97  F   UNL A   1      47.727  25.475  36.664  1.00  0.00    -0.200 F 
ENDBRANCH  64  87
ENDBRANCH  38  39
ENDBRANCH  30  33
ENDBRANCH  28  29
ENDBRANCH   1  28
TORSDOF 14
ENDMDL
