MODEL 1
REMARK VINA RESULT:     -10.1      0.000      0.000
REMARK SMILES Cc1cc(CS(=O)(=O)N[C@@H]2C=C[C@H](C(=O)NCCCNC(=O)c3ccc(-c4c5nc(c(-c6c(F)c(F)c(F)c(F)c6F)c6ccc([nH]6)c(-c6c(F)c(F)c(F)c(F)c6F)c6nc(c(-c7c(F)c(F)c(F)c(F)c7F)c7ccc4[nH]7)C=C6)C=C5)cc3)C2)no1
REMARK SMILES IDX 17 1 16 2 14 3 15 4 13 6 10 7 11 8 86 9 12 10 9 11 6 13 7 14
REMARK SMILES IDX 8 15 5 16 4 17 1 18 2 19 3 20 88 21 87 22 18 23 19 24 20 25
REMARK SMILES IDX 21 26 22 28 23 29 24 30 85 31 25 32 84 33 26 34 27 35 28 36
REMARK SMILES IDX 78 37 29 38 83 39 77 40 79 41 30 42 82 43 76 44 75 45 31 47
REMARK SMILES IDX 63 48 43 49 62 50 44 51 47 52 61 53 80 54 45 55 46 56 60 58
REMARK SMILES IDX 81 59 48 60 32 61 33 62 41 63 34 64 35 65 39 66 42 67 36 68
REMARK SMILES IDX 37 69 40 70 38 71 64 72 65 73 73 74 66 75 67 76 71 77 74 78
REMARK SMILES IDX 68 79 69 80 72 81 70 82 49 83 50 84 58 85 51 86 52 87 56 88
REMARK SMILES IDX 59 89 53 90 54 91 57 92 55 93
REMARK H PARENT 16 5 9 12 20 27 79 46 47 57
REMARK Flexibility Score: inf
ROOT
ATOM      1  C   UNL A   1      42.594  20.289  26.484  1.00  0.00     0.117 C 
ENDROOT
BRANCH   1   2
ATOM      2  N   UNL A   1      43.033  21.118  25.373  1.00  0.00    -0.356 N 
ATOM      3  C   UNL A   1      43.327  22.437  25.251  1.00  0.00     0.226 C 
ATOM      4  O   UNL A   1      43.565  22.834  24.104  1.00  0.00    -0.274 OA
ATOM      5  H   UNL A   1      43.139  20.616  24.532  1.00  0.00     0.163 HD
BRANCH   3   6
ATOM      6  C   UNL A   1      43.464  23.417  26.421  1.00  0.00     0.103 C 
ATOM      7  C   UNL A   1      45.361  24.999  26.616  1.00  0.00     0.093 C 
ATOM      8  C   UNL A   1      45.430  23.869  27.589  1.00  0.00    -0.011 C 
ATOM      9  C   UNL A   1      44.023  24.764  25.911  1.00  0.00     0.042 C 
ATOM     10  C   UNL A   1      44.375  23.055  27.537  1.00  0.00    -0.016 C 
BRANCH   7  11
ATOM     11  N   UNL A   1      46.517  24.874  25.726  1.00  0.00    -0.208 NA
ATOM     12  H   UNL A   1      47.163  24.214  26.159  1.00  0.00     0.141 HD
BRANCH  11  13
ATOM     13  S   UNL A   1      47.396  26.267  25.361  1.00  0.00     0.218 S 
ATOM     14  O   UNL A   1      48.423  25.906  24.412  1.00  0.00    -0.212 OA
ATOM     15  O   UNL A   1      47.772  26.793  26.662  1.00  0.00    -0.212 OA
BRANCH  13  16
ATOM     16  C   UNL A   1      46.202  27.430  24.646  1.00  0.00     0.213 C 
BRANCH  16  17
ATOM     17  C   UNL A   1      45.882  28.592  25.509  1.00  0.00     0.100 A 
ATOM     18  C   UNL A   1      43.874  30.860  27.555  1.00  0.00     0.091 C 
ATOM     19  C   UNL A   1      44.827  30.018  26.812  1.00  0.00     0.133 A 
ATOM     20  C   UNL A   1      44.913  28.673  26.540  1.00  0.00     0.073 A 
ATOM     21  O   UNL A   1      45.813  30.669  26.140  1.00  0.00    -0.361 OA
ATOM     22  N   UNL A   1      46.505  29.766  25.354  1.00  0.00    -0.084 NA
ENDBRANCH  16  17
ENDBRANCH  13  16
ENDBRANCH  11  13
ENDBRANCH   7  11
ENDBRANCH   3   6
ENDBRANCH   1   2
BRANCH   1  23
ATOM     23  C   UNL A   1      41.071  20.192  26.544  1.00  0.00     0.042 C 
BRANCH  23  24
ATOM     24  C   UNL A   1      40.412  21.492  26.995  1.00  0.00     0.118 C 
BRANCH  24  25
ATOM     25  N   UNL A   1      39.383  21.934  26.062  1.00  0.00    -0.352 N 
ATOM     26  C   UNL A   1      38.720  23.130  25.971  1.00  0.00     0.251 C 
ATOM     27  H   UNL A   1      39.122  21.266  25.387  1.00  0.00     0.163 HD
ATOM     28  O   UNL A   1      37.717  23.215  25.270  1.00  0.00    -0.269 OA
BRANCH  26  29
ATOM     29  C   UNL A   1      39.205  24.313  26.709  1.00  0.00     0.039 A 
ATOM     30  C   UNL A   1      40.038  25.224  26.053  1.00  0.00     0.014 A 
ATOM     31  C   UNL A   1      38.888  24.499  28.056  1.00  0.00     0.014 A 
ATOM     32  C   UNL A   1      40.518  26.341  26.737  1.00  0.00     0.010 A 
ATOM     33  C   UNL A   1      39.291  25.657  28.710  1.00  0.00     0.010 A 
ATOM     34  C   UNL A   1      40.129  26.578  28.065  1.00  0.00    -0.014 A 
BRANCH  34  35
ATOM     35  C   UNL A   1      40.618  27.762  28.811  1.00  0.00     0.031 A 
ATOM     36  C   UNL A   1      42.040  27.806  29.300  1.00  0.00     0.074 A 
ATOM     37  C   UNL A   1      39.769  28.765  29.103  1.00  0.00     0.049 A 
ATOM     38  N   UNL A   1      42.640  28.712  30.029  1.00  0.00    -0.248 NA
ATOM     39  C   UNL A   1      42.893  26.659  28.949  1.00  0.00     0.031 C 
ATOM     40  C   UNL A   1      38.357  28.812  28.725  1.00  0.00     0.029 A 
ATOM     41  N   UNL A   1      39.969  29.932  29.795  1.00  0.00    -0.354 N 
ATOM     42  C   UNL A   1      43.927  28.235  30.240  1.00  0.00     0.074 A 
ATOM     43  C   UNL A   1      44.003  26.931  29.618  1.00  0.00     0.031 C 
ATOM     44  C   UNL A   1      37.822  29.961  29.169  1.00  0.00     0.029 A 
ATOM     45  C   UNL A   1      38.843  30.711  29.894  1.00  0.00     0.049 A 
ATOM     46  H   UNL A   1      40.837  30.187  30.183  1.00  0.00     0.167 HD
ATOM     47  C   UNL A   1      44.961  28.840  30.873  1.00  0.00     0.037 A 
ATOM     48  C   UNL A   1      38.655  31.894  30.508  1.00  0.00     0.037 A 
ATOM     49  C   UNL A   1      44.883  30.147  31.469  1.00  0.00     0.049 A 
ATOM     50  C   UNL A   1      39.818  32.550  31.201  1.00  0.00     0.074 A 
ATOM     51  C   UNL A   1      45.883  30.878  32.084  1.00  0.00     0.029 A 
ATOM     52  N   UNL A   1      43.731  30.919  31.526  1.00  0.00    -0.354 N 
ATOM     53  N   UNL A   1      41.050  32.123  31.337  1.00  0.00    -0.248 NA
ATOM     54  C   UNL A   1      39.567  33.861  31.814  1.00  0.00     0.031 C 
ATOM     55  C   UNL A   1      45.324  32.068  32.561  1.00  0.00     0.029 A 
ATOM     56  C   UNL A   1      43.991  32.111  32.186  1.00  0.00     0.049 A 
ATOM     57  H   UNL A   1      42.857  30.661  31.153  1.00  0.00     0.167 HD
ATOM     58  C   UNL A   1      41.730  33.123  32.018  1.00  0.00     0.074 A 
ATOM     59  C   UNL A   1      40.774  34.184  32.258  1.00  0.00     0.031 C 
ATOM     60  C   UNL A   1      43.029  33.161  32.408  1.00  0.00     0.037 A 
BRANCH  47  61
ATOM     61  C   UNL A   1      46.260  28.086  30.953  1.00  0.00     0.064 A 
ATOM     62  C   UNL A   1      46.505  27.139  31.960  1.00  0.00     0.173 A 
ATOM     63  C   UNL A   1      47.271  28.307  30.006  1.00  0.00     0.173 A 
ATOM     64  F   UNL A   1      45.577  26.895  32.899  1.00  0.00    -0.203 F 
ATOM     65  C   UNL A   1      47.727  26.476  32.041  1.00  0.00     0.198 A 
ATOM     66  C   UNL A   1      48.477  27.615  30.068  1.00  0.00     0.198 A 
ATOM     67  F   UNL A   1      47.091  29.197  29.018  1.00  0.00    -0.203 F 
ATOM     68  F   UNL A   1      47.961  25.627  33.051  1.00  0.00    -0.200 F 
ATOM     69  C   UNL A   1      48.709  26.710  31.092  1.00  0.00     0.200 A 
ATOM     70  F   UNL A   1      49.421  27.832  29.140  1.00  0.00    -0.200 F 
ATOM     71  F   UNL A   1      49.884  26.070  31.170  1.00  0.00    -0.200 F 
ENDBRANCH  47  61
BRANCH  48  72
ATOM     72  C   UNL A   1      37.322  32.548  30.459  1.00  0.00     0.064 A 
ATOM     73  C   UNL A   1      36.976  33.400  29.401  1.00  0.00     0.173 A 
ATOM     74  C   UNL A   1      36.362  32.326  31.458  1.00  0.00     0.173 A 
ATOM     75  F   UNL A   1      37.865  33.656  28.430  1.00  0.00    -0.203 F 
ATOM     76  C   UNL A   1      35.729  34.020  29.354  1.00  0.00     0.198 A 
ATOM     77  C   UNL A   1      35.105  32.924  31.394  1.00  0.00     0.198 A 
ATOM     78  F   UNL A   1      36.639  31.512  32.487  1.00  0.00    -0.203 F 
ATOM     79  F   UNL A   1      35.441  34.863  28.352  1.00  0.00    -0.200 F 
ATOM     80  C   UNL A   1      34.792  33.777  30.347  1.00  0.00     0.200 A 
ATOM     81  F   UNL A   1      34.196  32.670  32.345  1.00  0.00    -0.200 F 
ATOM     82  F   UNL A   1      33.590  34.367  30.295  1.00  0.00    -0.200 F 
ENDBRANCH  48  72
BRANCH  60  83
ATOM     83  C   UNL A   1      43.507  34.413  33.087  1.00  0.00     0.064 A 
ATOM     84  C   UNL A   1      43.538  34.535  34.483  1.00  0.00     0.173 A 
ATOM     85  C   UNL A   1      43.973  35.495  32.323  1.00  0.00     0.173 A 
ATOM     86  F   UNL A   1      43.091  33.535  35.259  1.00  0.00    -0.203 F 
ATOM     87  C   UNL A   1      43.987  35.706  35.089  1.00  0.00     0.198 A 
ATOM     88  C   UNL A   1      44.453  36.650  32.933  1.00  0.00     0.198 A 
ATOM     89  F   UNL A   1      43.972  35.428  30.983  1.00  0.00    -0.203 F 
ATOM     90  F   UNL A   1      43.954  35.821  36.424  1.00  0.00    -0.200 F 
ATOM     91  C   UNL A   1      44.450  36.759  34.315  1.00  0.00     0.200 A 
ATOM     92  F   UNL A   1      44.916  37.659  32.182  1.00  0.00    -0.200 F 
ATOM     93  F   UNL A   1      44.887  37.882  34.901  1.00  0.00    -0.200 F 
ENDBRANCH  60  83
ENDBRANCH  34  35
ENDBRANCH  26  29
ENDBRANCH  24  25
ENDBRANCH  23  24
ENDBRANCH   1  23
TORSDOF 14
ENDMDL
MODEL 2
REMARK VINA RESULT:     -10.1      5.978     10.404
REMARK SMILES Cc1cc(CS(=O)(=O)N[C@@H]2C=C[C@H](C(=O)NCCCNC(=O)c3ccc(-c4c5nc(c(-c6c(F)c(F)c(F)c(F)c6F)c6ccc([nH]6)c(-c6c(F)c(F)c(F)c(F)c6F)c6nc(c(-c7c(F)c(F)c(F)c(F)c7F)c7ccc4[nH]7)C=C6)C=C5)cc3)C2)no1
REMARK SMILES IDX 17 1 16 2 14 3 15 4 13 6 10 7 11 8 86 9 12 10 9 11 6 13 7 14
REMARK SMILES IDX 8 15 5 16 4 17 1 18 2 19 3 20 88 21 87 22 18 23 19 24 20 25
REMARK SMILES IDX 21 26 22 28 23 29 24 30 85 31 25 32 84 33 26 34 27 35 28 36
REMARK SMILES IDX 78 37 29 38 83 39 77 40 79 41 30 42 82 43 76 44 75 45 31 47
REMARK SMILES IDX 63 48 43 49 62 50 44 51 47 52 61 53 80 54 45 55 46 56 60 58
REMARK SMILES IDX 81 59 48 60 32 61 33 62 41 63 34 64 35 65 39 66 42 67 36 68
REMARK SMILES IDX 37 69 40 70 38 71 64 72 65 73 73 74 66 75 67 76 71 77 74 78
REMARK SMILES IDX 68 79 69 80 72 81 70 82 49 83 50 84 58 85 51 86 52 87 56 88
REMARK SMILES IDX 59 89 53 90 54 91 57 92 55 93
REMARK H PARENT 16 5 9 12 20 27 79 46 47 57
REMARK Flexibility Score: inf
ROOT
ATOM      1  C   UNL A   1      31.751  30.781  26.522  1.00  0.00     0.117 C 
ENDROOT
BRANCH   1   2
ATOM      2  N   UNL A   1      33.174  30.480  26.518  1.00  0.00    -0.356 N 
ATOM      3  C   UNL A   1      33.890  29.350  26.749  1.00  0.00     0.226 C 
ATOM      4  O   UNL A   1      35.119  29.485  26.773  1.00  0.00    -0.274 OA
ATOM      5  H   UNL A   1      33.735  31.259  26.303  1.00  0.00     0.163 HD
BRANCH   3   6
ATOM      6  C   UNL A   1      33.292  27.947  26.890  1.00  0.00     0.103 C 
ATOM      7  C   UNL A   1      31.527  27.093  25.375  1.00  0.00     0.093 C 
ATOM      8  C   UNL A   1      31.028  27.414  26.744  1.00  0.00    -0.011 C 
ATOM      9  C   UNL A   1      33.033  27.347  25.490  1.00  0.00     0.042 C 
ATOM     10  C   UNL A   1      31.987  27.805  27.584  1.00  0.00    -0.016 C 
BRANCH   7  11
ATOM     11  N   UNL A   1      30.854  28.003  24.445  1.00  0.00    -0.208 NA
ATOM     12  H   UNL A   1      30.230  28.593  24.996  1.00  0.00     0.141 HD
BRANCH  11  13
ATOM     13  S   UNL A   1      29.936  27.332  23.199  1.00  0.00     0.218 S 
ATOM     14  O   UNL A   1      29.668  25.954  23.539  1.00  0.00    -0.212 OA
ATOM     15  O   UNL A   1      30.696  27.641  21.999  1.00  0.00    -0.212 OA
BRANCH  13  16
ATOM     16  C   UNL A   1      28.412  28.312  23.125  1.00  0.00     0.213 C 
BRANCH  16  17
ATOM     17  C   UNL A   1      28.600  29.707  22.659  1.00  0.00     0.100 A 
ATOM     18  C   UNL A   1      28.779  33.354  22.822  1.00  0.00     0.091 C 
ATOM     19  C   UNL A   1      28.800  31.897  22.603  1.00  0.00     0.133 A 
ATOM     20  C   UNL A   1      29.104  30.812  23.390  1.00  0.00     0.073 A 
ATOM     21  O   UNL A   1      28.335  31.460  21.404  1.00  0.00    -0.361 OA
ATOM     22  N   UNL A   1      28.250  30.079  21.422  1.00  0.00    -0.084 NA
ENDBRANCH  16  17
ENDBRANCH  13  16
ENDBRANCH  11  13
ENDBRANCH   7  11
ENDBRANCH   3   6
ENDBRANCH   1   2
BRANCH   1  23
ATOM     23  C   UNL A   1      31.490  32.251  26.842  1.00  0.00     0.042 C 
BRANCH  23  24
ATOM     24  C   UNL A   1      32.774  33.062  26.986  1.00  0.00     0.118 C 
BRANCH  24  25
ATOM     25  N   UNL A   1      32.536  34.350  27.626  1.00  0.00    -0.352 N 
ATOM     26  C   UNL A   1      33.044  34.875  28.786  1.00  0.00     0.251 C 
ATOM     27  H   UNL A   1      31.909  34.940  27.148  1.00  0.00     0.163 HD
ATOM     28  O   UNL A   1      32.528  35.874  29.276  1.00  0.00    -0.269 OA
BRANCH  26  29
ATOM     29  C   UNL A   1      34.204  34.245  29.447  1.00  0.00     0.039 A 
ATOM     30  C   UNL A   1      35.490  34.568  29.004  1.00  0.00     0.014 A 
ATOM     31  C   UNL A   1      34.029  33.301  30.461  1.00  0.00     0.014 A 
ATOM     32  C   UNL A   1      36.599  33.972  29.606  1.00  0.00     0.010 A 
ATOM     33  C   UNL A   1      35.135  32.778  31.120  1.00  0.00     0.010 A 
ATOM     34  C   UNL A   1      36.430  33.090  30.685  1.00  0.00    -0.014 A 
BRANCH  34  35
ATOM     35  C   UNL A   1      37.593  32.452  31.348  1.00  0.00     0.031 A 
ATOM     36  C   UNL A   1      38.337  31.344  30.653  1.00  0.00     0.074 A 
ATOM     37  C   UNL A   1      37.938  32.824  32.594  1.00  0.00     0.049 A 
ATOM     38  N   UNL A   1      39.329  30.611  31.089  1.00  0.00    -0.248 NA
ATOM     39  C   UNL A   1      37.881  30.991  29.299  1.00  0.00     0.031 C 
ATOM     40  C   UNL A   1      37.262  33.851  33.386  1.00  0.00     0.029 A 
ATOM     41  N   UNL A   1      38.938  32.372  33.417  1.00  0.00    -0.354 N 
ATOM     42  C   UNL A   1      39.598  29.701  30.075  1.00  0.00     0.074 A 
ATOM     43  C   UNL A   1      38.625  29.931  29.029  1.00  0.00     0.031 C 
ATOM     44  C   UNL A   1      37.880  33.969  34.573  1.00  0.00     0.029 A 
ATOM     45  C   UNL A   1      38.970  32.999  34.638  1.00  0.00     0.049 A 
ATOM     46  H   UNL A   1      39.572  31.664  33.158  1.00  0.00     0.167 HD
ATOM     47  C   UNL A   1      40.585  28.774  30.009  1.00  0.00     0.037 A 
ATOM     48  C   UNL A   1      39.783  32.807  35.693  1.00  0.00     0.037 A 
ATOM     49  C   UNL A   1      41.563  28.568  31.044  1.00  0.00     0.049 A 
ATOM     50  C   UNL A   1      40.874  31.776  35.596  1.00  0.00     0.074 A 
ATOM     51  C   UNL A   1      42.638  27.698  31.056  1.00  0.00     0.029 A 
ATOM     52  N   UNL A   1      41.580  29.243  32.257  1.00  0.00    -0.354 N 
ATOM     53  N   UNL A   1      41.164  30.967  34.607  1.00  0.00    -0.248 NA
ATOM     54  C   UNL A   1      41.760  31.641  36.761  1.00  0.00     0.031 C 
ATOM     55  C   UNL A   1      43.274  27.807  32.297  1.00  0.00     0.029 A 
ATOM     56  C   UNL A   1      42.636  28.791  33.034  1.00  0.00     0.049 A 
ATOM     57  H   UNL A   1      40.939  29.939  32.526  1.00  0.00     0.167 HD
ATOM     58  C   UNL A   1      42.284  30.253  35.011  1.00  0.00     0.074 A 
ATOM     59  C   UNL A   1      42.626  30.734  36.333  1.00  0.00     0.031 C 
ATOM     60  C   UNL A   1      42.968  29.289  34.346  1.00  0.00     0.037 A 
BRANCH  47  61
ATOM     61  C   UNL A   1      40.646  27.914  28.776  1.00  0.00     0.064 A 
ATOM     62  C   UNL A   1      39.947  26.699  28.686  1.00  0.00     0.173 A 
ATOM     63  C   UNL A   1      41.406  28.314  27.666  1.00  0.00     0.173 A 
ATOM     64  F   UNL A   1      39.214  26.264  29.722  1.00  0.00    -0.203 F 
ATOM     65  C   UNL A   1      40.043  25.899  27.551  1.00  0.00     0.198 A 
ATOM     66  C   UNL A   1      41.469  27.528  26.519  1.00  0.00     0.198 A 
ATOM     67  F   UNL A   1      42.089  29.468  27.693  1.00  0.00    -0.203 F 
ATOM     68  F   UNL A   1      39.422  24.712  27.517  1.00  0.00    -0.200 F 
ATOM     69  C   UNL A   1      40.798  26.315  26.467  1.00  0.00     0.200 A 
ATOM     70  F   UNL A   1      42.188  27.940  25.465  1.00  0.00    -0.200 F 
ATOM     71  F   UNL A   1      40.889  25.544  25.375  1.00  0.00    -0.200 F 
ENDBRANCH  47  61
BRANCH  48  72
ATOM     72  C   UNL A   1      39.617  33.638  36.914  1.00  0.00     0.064 A 
ATOM     73  C   UNL A   1      40.263  34.876  37.037  1.00  0.00     0.173 A 
ATOM     74  C   UNL A   1      38.800  33.221  37.975  1.00  0.00     0.173 A 
ATOM     75  F   UNL A   1      41.067  35.311  36.055  1.00  0.00    -0.203 F 
ATOM     76  C   UNL A   1      40.116  35.655  38.182  1.00  0.00     0.198 A 
ATOM     77  C   UNL A   1      38.629  34.015  39.108  1.00  0.00     0.198 A 
ATOM     78  F   UNL A   1      38.151  32.050  37.905  1.00  0.00    -0.203 F 
ATOM     79  F   UNL A   1      40.779  36.815  38.290  1.00  0.00    -0.200 F 
ATOM     80  C   UNL A   1      39.293  35.228  39.214  1.00  0.00     0.200 A 
ATOM     81  F   UNL A   1      37.819  33.608  40.094  1.00  0.00    -0.200 F 
ATOM     82  F   UNL A   1      39.145  35.982  40.311  1.00  0.00    -0.200 F 
ENDBRANCH  48  72
BRANCH  60  83
ATOM     83  C   UNL A   1      44.190  28.726  35.017  1.00  0.00     0.064 A 
ATOM     84  C   UNL A   1      45.456  29.308  34.862  1.00  0.00     0.173 A 
ATOM     85  C   UNL A   1      44.080  27.607  35.856  1.00  0.00     0.173 A 
ATOM     86  F   UNL A   1      45.618  30.373  34.060  1.00  0.00    -0.203 F 
ATOM     87  C   UNL A   1      46.573  28.769  35.495  1.00  0.00     0.198 A 
ATOM     88  C   UNL A   1      45.193  27.091  36.515  1.00  0.00     0.198 A 
ATOM     89  F   UNL A   1      42.890  27.016  36.045  1.00  0.00    -0.203 F 
ATOM     90  F   UNL A   1      47.783  29.307  35.287  1.00  0.00    -0.200 F 
ATOM     91  C   UNL A   1      46.440  27.667  36.326  1.00  0.00     0.200 A 
ATOM     92  F   UNL A   1      45.058  26.037  37.330  1.00  0.00    -0.200 F 
ATOM     93  F   UNL A   1      47.515  27.154  36.939  1.00  0.00    -0.200 F 
ENDBRANCH  60  83
ENDBRANCH  34  35
ENDBRANCH  26  29
ENDBRANCH  24  25
ENDBRANCH  23  24
ENDBRANCH   1  23
TORSDOF 14
ENDMDL
MODEL 3
REMARK VINA RESULT:     -10.1      5.856     11.252
REMARK SMILES Cc1cc(CS(=O)(=O)N[C@@H]2C=C[C@H](C(=O)NCCCNC(=O)c3ccc(-c4c5nc(c(-c6c(F)c(F)c(F)c(F)c6F)c6ccc([nH]6)c(-c6c(F)c(F)c(F)c(F)c6F)c6nc(c(-c7c(F)c(F)c(F)c(F)c7F)c7ccc4[nH]7)C=C6)C=C5)cc3)C2)no1
REMARK SMILES IDX 17 1 16 2 14 3 15 4 13 6 10 7 11 8 86 9 12 10 9 11 6 13 7 14
REMARK SMILES IDX 8 15 5 16 4 17 1 18 2 19 3 20 88 21 87 22 18 23 19 24 20 25
REMARK SMILES IDX 21 26 22 28 23 29 24 30 85 31 25 32 84 33 26 34 27 35 28 36
REMARK SMILES IDX 78 37 29 38 83 39 77 40 79 41 30 42 82 43 76 44 75 45 31 47
REMARK SMILES IDX 63 48 43 49 62 50 44 51 47 52 61 53 80 54 45 55 46 56 60 58
REMARK SMILES IDX 81 59 48 60 32 61 33 62 41 63 34 64 35 65 39 66 42 67 36 68
REMARK SMILES IDX 37 69 40 70 38 71 64 72 65 73 73 74 66 75 67 76 71 77 74 78
REMARK SMILES IDX 68 79 69 80 72 81 70 82 49 83 50 84 58 85 51 86 52 87 56 88
REMARK SMILES IDX 59 89 53 90 54 91 57 92 55 93
REMARK H PARENT 16 5 9 12 20 27 79 46 47 57
REMARK Flexibility Score: inf
ROOT
ATOM      1  C   UNL A   1      31.771  30.801  26.499  1.00  0.00     0.117 C 
ENDROOT
BRANCH   1   2
ATOM      2  N   UNL A   1      33.180  30.470  26.632  1.00  0.00    -0.356 N 
ATOM      3  C   UNL A   1      33.846  29.338  26.972  1.00  0.00     0.226 C 
ATOM      4  O   UNL A   1      35.072  29.448  27.098  1.00  0.00    -0.274 OA
ATOM      5  H   UNL A   1      33.777  31.228  26.435  1.00  0.00     0.163 HD
BRANCH   3   6
ATOM      6  C   UNL A   1      33.205  27.954  27.119  1.00  0.00     0.103 C 
ATOM      7  C   UNL A   1      31.837  26.924  25.328  1.00  0.00     0.093 C 
ATOM      8  C   UNL A   1      31.031  27.392  26.494  1.00  0.00    -0.011 C 
ATOM      9  C   UNL A   1      33.276  27.200  25.773  1.00  0.00     0.042 C 
ATOM     10  C   UNL A   1      31.769  27.881  27.491  1.00  0.00    -0.016 C 
BRANCH   7  11
ATOM     11  N   UNL A   1      31.424  27.719  24.170  1.00  0.00    -0.208 NA
ATOM     12  H   UNL A   1      31.053  28.601  24.524  1.00  0.00     0.141 HD
BRANCH  11  13
ATOM     13  S   UNL A   1      30.264  27.070  23.131  1.00  0.00     0.218 S 
ATOM     14  O   UNL A   1      30.065  25.688  23.499  1.00  0.00    -0.212 OA
ATOM     15  O   UNL A   1      30.762  27.396  21.805  1.00  0.00    -0.212 OA
BRANCH  13  16
ATOM     16  C   UNL A   1      28.764  28.055  23.389  1.00  0.00     0.213 C 
BRANCH  16  17
ATOM     17  C   UNL A   1      28.825  29.427  22.831  1.00  0.00     0.100 A 
ATOM     18  C   UNL A   1      28.762  33.081  22.769  1.00  0.00     0.091 C 
ATOM     19  C   UNL A   1      28.870  31.618  22.634  1.00  0.00     0.133 A 
ATOM     20  C   UNL A   1      29.297  30.606  23.461  1.00  0.00     0.073 A 
ATOM     21  O   UNL A   1      28.361  31.077  21.496  1.00  0.00    -0.361 OA
ATOM     22  N   UNL A   1      28.373  29.698  21.601  1.00  0.00    -0.084 NA
ENDBRANCH  16  17
ENDBRANCH  13  16
ENDBRANCH  11  13
ENDBRANCH   7  11
ENDBRANCH   3   6
ENDBRANCH   1   2
BRANCH   1  23
ATOM     23  C   UNL A   1      31.492  32.246  26.904  1.00  0.00     0.042 C 
BRANCH  23  24
ATOM     24  C   UNL A   1      32.744  33.118  26.881  1.00  0.00     0.118 C 
BRANCH  24  25
ATOM     25  N   UNL A   1      32.554  34.362  27.618  1.00  0.00    -0.352 N 
ATOM     26  C   UNL A   1      33.088  34.781  28.809  1.00  0.00     0.251 C 
ATOM     27  H   UNL A   1      31.945  35.007  27.191  1.00  0.00     0.163 HD
ATOM     28  O   UNL A   1      32.611  35.758  29.377  1.00  0.00    -0.269 OA
BRANCH  26  29
ATOM     29  C   UNL A   1      34.230  34.064  29.410  1.00  0.00     0.039 A 
ATOM     30  C   UNL A   1      35.527  34.415  29.022  1.00  0.00     0.014 A 
ATOM     31  C   UNL A   1      34.028  33.016  30.310  1.00  0.00     0.014 A 
ATOM     32  C   UNL A   1      36.619  33.740  29.567  1.00  0.00     0.010 A 
ATOM     33  C   UNL A   1      35.117  32.407  30.921  1.00  0.00     0.010 A 
ATOM     34  C   UNL A   1      36.423  32.746  30.539  1.00  0.00    -0.014 A 
BRANCH  34  35
ATOM     35  C   UNL A   1      37.568  32.021  31.142  1.00  0.00     0.031 A 
ATOM     36  C   UNL A   1      38.035  32.376  32.527  1.00  0.00     0.074 A 
ATOM     37  C   UNL A   1      38.224  31.092  30.421  1.00  0.00     0.049 A 
ATOM     38  N   UNL A   1      39.057  31.915  33.201  1.00  0.00    -0.248 NA
ATOM     39  C   UNL A   1      37.269  33.414  33.235  1.00  0.00     0.031 C 
ATOM     40  C   UNL A   1      37.894  30.699  29.051  1.00  0.00     0.029 A 
ATOM     41  N   UNL A   1      39.313  30.320  30.738  1.00  0.00    -0.354 N 
ATOM     42  C   UNL A   1      39.067  32.620  34.398  1.00  0.00     0.074 A 
ATOM     43  C   UNL A   1      37.990  33.584  34.331  1.00  0.00     0.031 C 
ATOM     44  C   UNL A   1      38.747  29.740  28.653  1.00  0.00     0.029 A 
ATOM     45  C   UNL A   1      39.705  29.482  29.724  1.00  0.00     0.049 A 
ATOM     46  H   UNL A   1      39.769  30.363  31.609  1.00  0.00     0.167 HD
ATOM     47  C   UNL A   1      39.884  32.460  35.467  1.00  0.00     0.037 A 
ATOM     48  C   UNL A   1      40.728  28.609  29.664  1.00  0.00     0.037 A 
ATOM     49  C   UNL A   1      40.938  31.483  35.534  1.00  0.00     0.049 A 
ATOM     50  C   UNL A   1      41.619  28.445  30.864  1.00  0.00     0.074 A 
ATOM     51  C   UNL A   1      41.787  31.198  36.588  1.00  0.00     0.029 A 
ATOM     52  N   UNL A   1      41.289  30.631  34.495  1.00  0.00    -0.354 N 
ATOM     53  N   UNL A   1      41.580  29.068  32.018  1.00  0.00    -0.248 NA
ATOM     54  C   UNL A   1      42.691  27.446  30.759  1.00  0.00     0.031 C 
ATOM     55  C   UNL A   1      42.686  30.211  36.169  1.00  0.00     0.029 A 
ATOM     56  C   UNL A   1      42.357  29.834  34.878  1.00  0.00     0.049 A 
ATOM     57  H   UNL A   1      40.845  30.597  33.618  1.00  0.00     0.167 HD
ATOM     58  C   UNL A   1      42.594  28.515  32.787  1.00  0.00     0.074 A 
ATOM     59  C   UNL A   1      43.224  27.497  31.972  1.00  0.00     0.031 C 
ATOM     60  C   UNL A   1      42.967  28.819  34.055  1.00  0.00     0.037 A 
BRANCH  47  61
ATOM     61  C   UNL A   1      39.667  33.369  36.646  1.00  0.00     0.064 A 
ATOM     62  C   UNL A   1      40.338  34.597  36.767  1.00  0.00     0.173 A 
ATOM     63  C   UNL A   1      38.770  33.013  37.664  1.00  0.00     0.173 A 
ATOM     64  F   UNL A   1      41.215  34.983  35.828  1.00  0.00    -0.203 F 
ATOM     65  C   UNL A   1      40.151  35.410  37.882  1.00  0.00     0.198 A 
ATOM     66  C   UNL A   1      38.558  33.846  38.759  1.00  0.00     0.198 A 
ATOM     67  F   UNL A   1      38.096  31.854  37.599  1.00  0.00    -0.203 F 
ATOM     68  F   UNL A   1      40.855  36.544  38.007  1.00  0.00    -0.200 F 
ATOM     69  C   UNL A   1      39.258  35.037  38.874  1.00  0.00     0.200 A 
ATOM     70  F   UNL A   1      37.682  33.491  39.710  1.00  0.00    -0.200 F 
ATOM     71  F   UNL A   1      39.079  35.821  39.946  1.00  0.00    -0.200 F 
ENDBRANCH  47  61
BRANCH  48  72
ATOM     72  C   UNL A   1      40.935  27.798  28.436  1.00  0.00     0.064 A 
ATOM     73  C   UNL A   1      40.288  26.566  28.269  1.00  0.00     0.173 A 
ATOM     74  C   UNL A   1      41.771  28.242  27.401  1.00  0.00     0.173 A 
ATOM     75  F   UNL A   1      39.491  26.092  29.238  1.00  0.00    -0.203 F 
ATOM     76  C   UNL A   1      40.484  25.799  27.123  1.00  0.00     0.198 A 
ATOM     77  C   UNL A   1      41.943  27.488  26.241  1.00  0.00     0.198 A 
ATOM     78  F   UNL A   1      42.406  29.418  27.506  1.00  0.00    -0.203 F 
ATOM     79  F   UNL A   1      39.886  24.605  27.008  1.00  0.00    -0.200 F 
ATOM     80  C   UNL A   1      41.306  26.263  26.106  1.00  0.00     0.200 A 
ATOM     81  F   UNL A   1      42.723  27.949  25.254  1.00  0.00    -0.200 F 
ATOM     82  F   UNL A   1      41.487  25.529  25.000  1.00  0.00    -0.200 F 
ENDBRANCH  48  72
BRANCH  60  83
ATOM     83  C   UNL A   1      44.076  28.005  34.659  1.00  0.00     0.064 A 
ATOM     84  C   UNL A   1      45.416  28.413  34.596  1.00  0.00     0.173 A 
ATOM     85  C   UNL A   1      43.785  26.814  35.343  1.00  0.00     0.173 A 
ATOM     86  F   UNL A   1      45.750  29.538  33.943  1.00  0.00    -0.203 F 
ATOM     87  C   UNL A   1      46.426  27.642  35.165  1.00  0.00     0.198 A 
ATOM     88  C   UNL A   1      44.793  26.064  35.940  1.00  0.00     0.198 A 
ATOM     89  F   UNL A   1      42.518  26.382  35.440  1.00  0.00    -0.203 F 
ATOM     90  F   UNL A   1      47.706  28.023  35.042  1.00  0.00    -0.200 F 
ATOM     91  C   UNL A   1      46.114  26.473  35.842  1.00  0.00     0.200 A 
ATOM     92  F   UNL A   1      44.486  24.944  36.609  1.00  0.00    -0.200 F 
ATOM     93  F   UNL A   1      47.088  25.736  36.394  1.00  0.00    -0.200 F 
ENDBRANCH  60  83
ENDBRANCH  34  35
ENDBRANCH  26  29
ENDBRANCH  24  25
ENDBRANCH  23  24
ENDBRANCH   1  23
TORSDOF 14
ENDMDL
