MODEL 1
REMARK VINA RESULT:     -13.5      0.000      0.000
REMARK SMILES O=C(NCCCNC(=O)c1ccc(NS(=O)(=O)c2ccc3c(c2)CCC3)cc1Cl)c1ccc(-c2c3nc(c(-c4c(F)c(F)c(F)c(F)c4F)c4ccc([nH]4)c(-c4c(F)c(F)c(F)c(F)c4F)c4nc(c(-c5c(F)c(F)c(F)c(F)c5F)c5ccc2[nH]5)C=C4)C=C3)cc1
REMARK SMILES IDX 5 1 4 2 3 3 1 4 2 5 30 7 31 8 92 9 32 10 91 11 33 12 34 13
REMARK SMILES IDX 35 14 85 15 36 16 90 17 84 18 86 19 37 20 89 21 83 22 82 23
REMARK SMILES IDX 38 25 70 26 50 27 69 28 51 29 54 30 68 31 87 32 52 33 53 34
REMARK SMILES IDX 67 36 88 37 55 38 39 39 40 40 48 41 41 42 42 43 46 44 49 45
REMARK SMILES IDX 43 46 44 47 47 48 45 49 71 50 72 51 80 52 73 53 74 54 78 55
REMARK SMILES IDX 81 56 75 57 76 58 79 59 77 60 56 61 57 62 65 63 58 64 59 65
REMARK SMILES IDX 63 66 66 67 60 68 61 69 64 70 62 71 6 72 7 73 8 74 9 76
REMARK SMILES IDX 10 77 11 78 28 79 12 80 27 81 29 82 13 83 14 84 15 86 16 87
REMARK SMILES IDX 17 88 18 89 19 90 23 91 20 92 22 93 21 94 24 95 26 96 25 97
REMARK H PARENT 3 6 86 24 54 35 7 75 14 85
REMARK Flexibility Score: inf
ROOT
ATOM      1  C   UNL A   1      31.319  32.219  26.501  1.00  0.00     0.042 C 
ENDROOT
BRANCH   1   2
ATOM      2  C   UNL A   1      32.591  32.794  27.105  1.00  0.00     0.118 C 
BRANCH   2   3
ATOM      3  N   UNL A   1      32.417  34.146  27.626  1.00  0.00    -0.352 N 
ATOM      4  O   UNL A   1      32.626  35.891  29.034  1.00  0.00    -0.269 OA
ATOM      5  C   UNL A   1      33.049  34.803  28.655  1.00  0.00     0.251 C 
ATOM      6  H   UNL A   1      31.731  34.677  27.162  1.00  0.00     0.163 HD
BRANCH   5   7
ATOM      7  C   UNL A   1      34.219  34.197  29.325  1.00  0.00     0.039 A 
ATOM      8  C   UNL A   1      35.511  34.508  28.907  1.00  0.00     0.014 A 
ATOM      9  C   UNL A   1      34.028  33.322  30.399  1.00  0.00     0.014 A 
ATOM     10  C   UNL A   1      36.589  33.801  29.417  1.00  0.00     0.010 A 
ATOM     11  C   UNL A   1      35.131  32.707  31.004  1.00  0.00     0.010 A 
ATOM     12  C   UNL A   1      36.420  32.914  30.493  1.00  0.00    -0.014 A 
BRANCH  12  13
ATOM     13  C   UNL A   1      37.634  32.302  31.093  1.00  0.00     0.031 A 
ATOM     14  C   UNL A   1      38.085  32.638  32.486  1.00  0.00     0.074 A 
ATOM     15  C   UNL A   1      38.283  31.360  30.379  1.00  0.00     0.049 A 
ATOM     16  N   UNL A   1      39.068  32.119  33.179  1.00  0.00    -0.248 NA
ATOM     17  C   UNL A   1      37.349  33.696  33.195  1.00  0.00     0.031 C 
ATOM     18  C   UNL A   1      37.951  30.973  29.005  1.00  0.00     0.029 A 
ATOM     19  N   UNL A   1      39.322  30.530  30.712  1.00  0.00    -0.354 N 
ATOM     20  C   UNL A   1      39.075  32.788  34.396  1.00  0.00     0.074 A 
ATOM     21  C   UNL A   1      38.019  33.776  34.338  1.00  0.00     0.031 C 
ATOM     22  C   UNL A   1      38.713  29.932  28.642  1.00  0.00     0.029 A 
ATOM     23  C   UNL A   1      39.643  29.632  29.723  1.00  0.00     0.049 A 
ATOM     24  H   UNL A   1      39.792  30.572  31.577  1.00  0.00     0.167 HD
ATOM     25  C   UNL A   1      39.884  32.585  35.465  1.00  0.00     0.037 A 
ATOM     26  C   UNL A   1      40.591  28.679  29.680  1.00  0.00     0.037 A 
ATOM     27  C   UNL A   1      40.929  31.594  35.516  1.00  0.00     0.049 A 
ATOM     28  C   UNL A   1      41.473  28.485  30.879  1.00  0.00     0.074 A 
ATOM     29  C   UNL A   1      41.798  31.306  36.555  1.00  0.00     0.029 A 
ATOM     30  N   UNL A   1      41.249  30.726  34.481  1.00  0.00    -0.354 N 
ATOM     31  N   UNL A   1      41.452  29.112  32.029  1.00  0.00    -0.248 NA
ATOM     32  C   UNL A   1      42.511  27.454  30.771  1.00  0.00     0.031 C 
ATOM     33  C   UNL A   1      42.668  30.295  36.135  1.00  0.00     0.029 A 
ATOM     34  C   UNL A   1      42.310  29.914  34.853  1.00  0.00     0.049 A 
ATOM     35  H   UNL A   1      40.789  30.691  33.611  1.00  0.00     0.167 HD
ATOM     36  C   UNL A   1      42.470  28.553  32.785  1.00  0.00     0.074 A 
ATOM     37  C   UNL A   1      43.061  27.505  31.976  1.00  0.00     0.031 C 
ATOM     38  C   UNL A   1      42.891  28.883  34.030  1.00  0.00     0.037 A 
BRANCH  25  39
ATOM     39  C   UNL A   1      39.681  33.453  36.674  1.00  0.00     0.064 A 
ATOM     40  C   UNL A   1      40.309  34.703  36.795  1.00  0.00     0.173 A 
ATOM     41  C   UNL A   1      38.791  33.068  37.688  1.00  0.00     0.173 A 
ATOM     42  F   UNL A   1      41.177  35.115  35.858  1.00  0.00    -0.203 F 
ATOM     43  C   UNL A   1      40.064  35.526  37.892  1.00  0.00     0.198 A 
ATOM     44  C   UNL A   1      38.529  33.904  38.771  1.00  0.00     0.198 A 
ATOM     45  F   UNL A   1      38.159  31.887  37.620  1.00  0.00    -0.203 F 
ATOM     46  F   UNL A   1      40.700  36.700  38.001  1.00  0.00    -0.200 F 
ATOM     47  C   UNL A   1      39.168  35.130  38.873  1.00  0.00     0.200 A 
ATOM     48  F   UNL A   1      37.652  33.527  39.711  1.00  0.00    -0.200 F 
ATOM     49  F   UNL A   1      38.922  35.931  39.920  1.00  0.00    -0.200 F 
ENDBRANCH  25  39
BRANCH  26  50
ATOM     50  C   UNL A   1      40.765  27.861  28.452  1.00  0.00     0.064 A 
ATOM     51  C   UNL A   1      41.594  28.285  27.405  1.00  0.00     0.173 A 
ATOM     52  C   UNL A   1      40.099  26.635  28.300  1.00  0.00     0.173 A 
ATOM     53  F   UNL A   1      42.240  29.457  27.494  1.00  0.00    -0.203 F 
ATOM     54  C   UNL A   1      41.732  27.526  26.245  1.00  0.00     0.198 A 
ATOM     55  C   UNL A   1      40.267  25.859  27.157  1.00  0.00     0.198 A 
ATOM     56  F   UNL A   1      39.299  26.179  29.276  1.00  0.00    -0.203 F 
ATOM     57  F   UNL A   1      42.489  27.979  25.237  1.00  0.00    -0.200 F 
ATOM     58  C   UNL A   1      41.074  26.310  26.125  1.00  0.00     0.200 A 
ATOM     59  F   UNL A   1      39.646  24.676  27.057  1.00  0.00    -0.200 F 
ATOM     60  F   UNL A   1      41.212  25.577  25.011  1.00  0.00    -0.200 F 
ENDBRANCH  26  50
BRANCH  38  61
ATOM     61  C   UNL A   1      44.036  28.090  34.585  1.00  0.00     0.064 A 
ATOM     62  C   UNL A   1      43.825  26.916  35.324  1.00  0.00     0.173 A 
ATOM     63  C   UNL A   1      45.359  28.511  34.384  1.00  0.00     0.173 A 
ATOM     64  F   UNL A   1      42.576  26.482  35.559  1.00  0.00    -0.203 F 
ATOM     65  C   UNL A   1      44.894  26.215  35.876  1.00  0.00     0.198 A 
ATOM     66  C   UNL A   1      46.427  27.789  34.909  1.00  0.00     0.198 A 
ATOM     67  F   UNL A   1      45.615  29.624  33.680  1.00  0.00    -0.203 F 
ATOM     68  F   UNL A   1      44.663  25.135  36.634  1.00  0.00    -0.200 F 
ATOM     69  C   UNL A   1      46.193  26.650  35.664  1.00  0.00     0.200 A 
ATOM     70  F   UNL A   1      47.683  28.204  34.695  1.00  0.00    -0.200 F 
ATOM     71  F   UNL A   1      47.221  25.978  36.201  1.00  0.00    -0.200 F 
ENDBRANCH  38  61
ENDBRANCH  12  13
ENDBRANCH   5   7
ENDBRANCH   2   3
ENDBRANCH   1   2
BRANCH   1  72
ATOM     72  C   UNL A   1      31.408  30.732  26.192  1.00  0.00     0.118 C 
BRANCH  72  73
ATOM     73  N   UNL A   1      32.229  30.453  25.023  1.00  0.00    -0.352 N 
ATOM     74  C   UNL A   1      32.392  29.264  24.357  1.00  0.00     0.252 C 
ATOM     75  H   UNL A   1      32.734  31.217  24.662  1.00  0.00     0.163 HD
ATOM     76  O   UNL A   1      33.161  29.160  23.409  1.00  0.00    -0.269 OA
BRANCH  74  77
ATOM     77  C   UNL A   1      31.697  28.077  24.872  1.00  0.00     0.058 A 
ATOM     78  C   UNL A   1      30.602  27.634  24.133  1.00  0.00     0.017 A 
ATOM     79  C   UNL A   1      32.162  27.341  25.966  1.00  0.00     0.055 A 
ATOM     80  C   UNL A   1      30.025  26.406  24.444  1.00  0.00     0.027 A 
ATOM     81  C   UNL A   1      31.541  26.129  26.302  1.00  0.00     0.048 A 
ATOM     82  Cl  UNL A   1      33.544  27.832  26.877  1.00  0.00    -0.083 Cl
ATOM     83  C   UNL A   1      30.472  25.655  25.536  1.00  0.00     0.050 A 
BRANCH  83  84
ATOM     84  N   UNL A   1      29.934  24.343  25.767  1.00  0.00    -0.280 N 
ATOM     85  H   UNL A   1      28.969  24.183  25.656  1.00  0.00     0.180 HD
BRANCH  84  86
ATOM     86  S   UNL A   1      30.963  23.057  26.233  1.00  0.00     0.261 S 
ATOM     87  O   UNL A   1      31.280  23.276  27.626  1.00  0.00    -0.201 OA
ATOM     88  O   UNL A   1      30.296  21.840  25.813  1.00  0.00    -0.201 OA
BRANCH  86  89
ATOM     89  C   UNL A   1      32.450  23.232  25.287  1.00  0.00     0.088 A 
ATOM     90  C   UNL A   1      32.393  23.168  23.880  1.00  0.00     0.022 A 
ATOM     91  C   UNL A   1      33.668  23.344  25.966  1.00  0.00     0.026 A 
ATOM     92  C   UNL A   1      33.578  23.106  23.141  1.00  0.00     0.005 A 
ATOM     93  C   UNL A   1      34.827  23.282  25.218  1.00  0.00    -0.043 A 
ATOM     94  C   UNL A   1      34.784  23.140  23.825  1.00  0.00    -0.045 A 
ATOM     95  C   UNL A   1      36.235  23.232  25.722  1.00  0.00     0.036 C 
ATOM     96  C   UNL A   1      36.163  22.948  23.275  1.00  0.00     0.036 C 
ATOM     97  C   UNL A   1      37.026  23.474  24.431  1.00  0.00     0.010 C 
ENDBRANCH  86  89
ENDBRANCH  84  86
ENDBRANCH  83  84
ENDBRANCH  74  77
ENDBRANCH  72  73
ENDBRANCH   1  72
TORSDOF 13
ENDMDL
MODEL 2
REMARK VINA RESULT:     -13.5      5.279     10.534
REMARK SMILES O=C(NCCCNC(=O)c1ccc(NS(=O)(=O)c2ccc3c(c2)CCC3)cc1Cl)c1ccc(-c2c3nc(c(-c4c(F)c(F)c(F)c(F)c4F)c4ccc([nH]4)c(-c4c(F)c(F)c(F)c(F)c4F)c4nc(c(-c5c(F)c(F)c(F)c(F)c5F)c5ccc2[nH]5)C=C4)C=C3)cc1
REMARK SMILES IDX 5 1 4 2 3 3 1 4 2 5 30 7 31 8 92 9 32 10 91 11 33 12 34 13
REMARK SMILES IDX 35 14 85 15 36 16 90 17 84 18 86 19 37 20 89 21 83 22 82 23
REMARK SMILES IDX 38 25 70 26 50 27 69 28 51 29 54 30 68 31 87 32 52 33 53 34
REMARK SMILES IDX 67 36 88 37 55 38 39 39 40 40 48 41 41 42 42 43 46 44 49 45
REMARK SMILES IDX 43 46 44 47 47 48 45 49 71 50 72 51 80 52 73 53 74 54 78 55
REMARK SMILES IDX 81 56 75 57 76 58 79 59 77 60 56 61 57 62 65 63 58 64 59 65
REMARK SMILES IDX 63 66 66 67 60 68 61 69 64 70 62 71 6 72 7 73 8 74 9 76
REMARK SMILES IDX 10 77 11 78 28 79 12 80 27 81 29 82 13 83 14 84 15 86 16 87
REMARK SMILES IDX 17 88 18 89 19 90 23 91 20 92 22 93 21 94 24 95 26 96 25 97
REMARK H PARENT 3 6 86 24 54 35 7 75 14 85
REMARK Flexibility Score: inf
ROOT
ATOM      1  C   UNL A   1      38.049  19.521  24.899  1.00  0.00     0.042 C 
ENDROOT
BRANCH   1   2
ATOM      2  C   UNL A   1      39.181  19.988  25.802  1.00  0.00     0.118 C 
BRANCH   2   3
ATOM      3  N   UNL A   1      40.302  19.055  25.843  1.00  0.00    -0.352 N 
ATOM      4  O   UNL A   1      42.441  18.350  25.878  1.00  0.00    -0.269 OA
ATOM      5  C   UNL A   1      41.644  19.267  26.051  1.00  0.00     0.251 C 
ATOM      6  H   UNL A   1      40.056  18.113  25.696  1.00  0.00     0.163 HD
BRANCH   5   7
ATOM      7  C   UNL A   1      42.138  20.600  26.460  1.00  0.00     0.039 A 
ATOM      8  C   UNL A   1      42.120  20.979  27.800  1.00  0.00     0.014 A 
ATOM      9  C   UNL A   1      42.644  21.478  25.496  1.00  0.00     0.014 A 
ATOM     10  C   UNL A   1      42.411  22.289  28.149  1.00  0.00     0.010 A 
ATOM     11  C   UNL A   1      43.066  22.760  25.871  1.00  0.00     0.010 A 
ATOM     12  C   UNL A   1      42.918  23.188  27.197  1.00  0.00    -0.014 A 
BRANCH  12  13
ATOM     13  C   UNL A   1      43.355  24.530  27.665  1.00  0.00     0.031 A 
ATOM     14  C   UNL A   1      44.801  24.938  27.662  1.00  0.00     0.074 A 
ATOM     15  C   UNL A   1      42.400  25.416  28.016  1.00  0.00     0.049 A 
ATOM     16  N   UNL A   1      45.325  26.103  27.952  1.00  0.00    -0.248 NA
ATOM     17  C   UNL A   1      45.789  23.913  27.297  1.00  0.00     0.031 C 
ATOM     18  C   UNL A   1      40.966  25.120  28.082  1.00  0.00     0.029 A 
ATOM     19  N   UNL A   1      42.477  26.746  28.340  1.00  0.00    -0.354 N 
ATOM     20  C   UNL A   1      46.699  25.950  27.813  1.00  0.00     0.074 A 
ATOM     21  C   UNL A   1      46.932  24.570  27.445  1.00  0.00     0.031 C 
ATOM     22  C   UNL A   1      40.294  26.249  28.348  1.00  0.00     0.029 A 
ATOM     23  C   UNL A   1      41.251  27.328  28.551  1.00  0.00     0.049 A 
ATOM     24  H   UNL A   1      43.328  27.235  28.414  1.00  0.00     0.167 HD
ATOM     25  C   UNL A   1      47.670  26.883  27.970  1.00  0.00     0.037 A 
ATOM     26  C   UNL A   1      40.928  28.590  28.887  1.00  0.00     0.037 A 
ATOM     27  C   UNL A   1      47.427  28.257  28.331  1.00  0.00     0.049 A 
ATOM     28  C   UNL A   1      42.029  29.595  29.058  1.00  0.00     0.074 A 
ATOM     29  C   UNL A   1      48.344  29.279  28.507  1.00  0.00     0.029 A 
ATOM     30  N   UNL A   1      46.174  28.803  28.572  1.00  0.00    -0.354 N 
ATOM     31  N   UNL A   1      43.321  29.438  28.902  1.00  0.00    -0.248 NA
ATOM     32  C   UNL A   1      41.628  30.949  29.454  1.00  0.00     0.031 C 
ATOM     33  C   UNL A   1      47.651  30.431  28.894  1.00  0.00     0.029 A 
ATOM     34  C   UNL A   1      46.297  30.143  28.909  1.00  0.00     0.049 A 
ATOM     35  H   UNL A   1      45.324  28.311  28.511  1.00  0.00     0.167 HD
ATOM     36  C   UNL A   1      43.888  30.672  29.178  1.00  0.00     0.074 A 
ATOM     37  C   UNL A   1      42.794  31.578  29.469  1.00  0.00     0.031 C 
ATOM     38  C   UNL A   1      45.196  31.025  29.205  1.00  0.00     0.037 A 
BRANCH  25  39
ATOM     39  C   UNL A   1      49.095  26.454  27.758  1.00  0.00     0.064 A 
ATOM     40  C   UNL A   1      49.640  26.329  26.470  1.00  0.00     0.173 A 
ATOM     41  C   UNL A   1      49.946  26.238  28.852  1.00  0.00     0.173 A 
ATOM     42  F   UNL A   1      48.867  26.515  25.389  1.00  0.00    -0.203 F 
ATOM     43  C   UNL A   1      50.979  25.992  26.287  1.00  0.00     0.198 A 
ATOM     44  C   UNL A   1      51.291  25.926  28.666  1.00  0.00     0.198 A 
ATOM     45  F   UNL A   1      49.479  26.351  30.104  1.00  0.00    -0.203 F 
ATOM     46  F   UNL A   1      51.468  25.847  25.049  1.00  0.00    -0.200 F 
ATOM     47  C   UNL A   1      51.805  25.800  27.385  1.00  0.00     0.200 A 
ATOM     48  F   UNL A   1      52.091  25.755  29.727  1.00  0.00    -0.200 F 
ATOM     49  F   UNL A   1      53.097  25.490  27.207  1.00  0.00    -0.200 F 
ENDBRANCH  25  39
BRANCH  26  50
ATOM     50  C   UNL A   1      39.505  28.957  29.106  1.00  0.00     0.064 A 
ATOM     51  C   UNL A   1      38.913  28.857  30.372  1.00  0.00     0.173 A 
ATOM     52  C   UNL A   1      38.706  29.414  28.047  1.00  0.00     0.173 A 
ATOM     53  F   UNL A   1      39.629  28.410  31.414  1.00  0.00    -0.203 F 
ATOM     54  C   UNL A   1      37.570  29.178  30.565  1.00  0.00     0.198 A 
ATOM     55  C   UNL A   1      37.375  29.771  28.249  1.00  0.00     0.198 A 
ATOM     56  F   UNL A   1      39.226  29.536  26.816  1.00  0.00    -0.203 F 
ATOM     57  F   UNL A   1      37.015  29.023  31.774  1.00  0.00    -0.200 F 
ATOM     58  C   UNL A   1      36.805  29.642  29.505  1.00  0.00     0.200 A 
ATOM     59  F   UNL A   1      36.648  30.239  27.226  1.00  0.00    -0.200 F 
ATOM     60  F   UNL A   1      35.516  29.956  29.693  1.00  0.00    -0.200 F 
ENDBRANCH  26  50
BRANCH  38  61
ATOM     61  C   UNL A   1      45.502  32.452  29.550  1.00  0.00     0.064 A 
ATOM     62  C   UNL A   1      45.566  33.447  28.562  1.00  0.00     0.173 A 
ATOM     63  C   UNL A   1      45.740  32.829  30.880  1.00  0.00     0.173 A 
ATOM     64  F   UNL A   1      45.363  33.133  27.273  1.00  0.00    -0.203 F 
ATOM     65  C   UNL A   1      45.898  34.759  28.889  1.00  0.00     0.198 A 
ATOM     66  C   UNL A   1      46.039  34.149  31.206  1.00  0.00     0.198 A 
ATOM     67  F   UNL A   1      45.685  31.917  31.862  1.00  0.00    -0.203 F 
ATOM     68  F   UNL A   1      46.020  35.677  27.921  1.00  0.00    -0.200 F 
ATOM     69  C   UNL A   1      46.130  35.109  30.210  1.00  0.00     0.200 A 
ATOM     70  F   UNL A   1      46.253  34.488  32.485  1.00  0.00    -0.200 F 
ATOM     71  F   UNL A   1      46.456  36.371  30.522  1.00  0.00    -0.200 F 
ENDBRANCH  38  61
ENDBRANCH  12  13
ENDBRANCH   5   7
ENDBRANCH   2   3
ENDBRANCH   1   2
BRANCH   1  72
ATOM     72  C   UNL A   1      36.968  20.569  24.683  1.00  0.00     0.118 C 
BRANCH  72  73
ATOM     73  N   UNL A   1      36.097  20.721  25.839  1.00  0.00    -0.352 N 
ATOM     74  C   UNL A   1      34.907  21.398  25.930  1.00  0.00     0.252 C 
ATOM     75  H   UNL A   1      36.402  20.280  26.665  1.00  0.00     0.163 HD
ATOM     76  O   UNL A   1      34.299  21.486  26.989  1.00  0.00    -0.269 OA
BRANCH  74  77
ATOM     77  C   UNL A   1      34.420  22.111  24.742  1.00  0.00     0.058 A 
ATOM     78  C   UNL A   1      33.333  21.542  24.082  1.00  0.00     0.017 A 
ATOM     79  C   UNL A   1      34.918  23.357  24.348  1.00  0.00     0.055 A 
ATOM     80  C   UNL A   1      32.693  22.264  23.079  1.00  0.00     0.027 A 
ATOM     81  C   UNL A   1      34.297  24.054  23.302  1.00  0.00     0.048 A 
ATOM     82  Cl  UNL A   1      36.233  24.117  25.170  1.00  0.00    -0.083 Cl
ATOM     83  C   UNL A   1      33.177  23.510  22.667  1.00  0.00     0.050 A 
BRANCH  83  84
ATOM     84  N   UNL A   1      32.435  24.281  21.709  1.00  0.00    -0.280 N 
ATOM     85  H   UNL A   1      31.920  23.824  21.005  1.00  0.00     0.180 HD
BRANCH  84  86
ATOM     86  S   UNL A   1      32.441  25.991  21.784  1.00  0.00     0.261 S 
ATOM     87  O   UNL A   1      33.750  26.412  21.338  1.00  0.00    -0.201 OA
ATOM     88  O   UNL A   1      31.249  26.426  21.083  1.00  0.00    -0.201 OA
BRANCH  86  89
ATOM     89  C   UNL A   1      32.269  26.421  23.494  1.00  0.00     0.088 A 
ATOM     90  C   UNL A   1      31.098  26.056  24.191  1.00  0.00     0.022 A 
ATOM     91  C   UNL A   1      33.268  27.195  24.095  1.00  0.00     0.026 A 
ATOM     92  C   UNL A   1      30.870  26.561  25.474  1.00  0.00     0.005 A 
ATOM     93  C   UNL A   1      33.024  27.683  25.364  1.00  0.00    -0.043 A 
ATOM     94  C   UNL A   1      31.830  27.390  26.035  1.00  0.00    -0.045 A 
ATOM     95  C   UNL A   1      33.864  28.641  26.148  1.00  0.00     0.036 C 
ATOM     96  C   UNL A   1      31.750  28.157  27.319  1.00  0.00     0.036 C 
ATOM     97  C   UNL A   1      33.221  28.538  27.537  1.00  0.00     0.010 C 
ENDBRANCH  86  89
ENDBRANCH  84  86
ENDBRANCH  83  84
ENDBRANCH  74  77
ENDBRANCH  72  73
ENDBRANCH   1  72
TORSDOF 13
ENDMDL
MODEL 3
REMARK VINA RESULT:     -13.4      0.927      2.009
REMARK SMILES O=C(NCCCNC(=O)c1ccc(NS(=O)(=O)c2ccc3c(c2)CCC3)cc1Cl)c1ccc(-c2c3nc(c(-c4c(F)c(F)c(F)c(F)c4F)c4ccc([nH]4)c(-c4c(F)c(F)c(F)c(F)c4F)c4nc(c(-c5c(F)c(F)c(F)c(F)c5F)c5ccc2[nH]5)C=C4)C=C3)cc1
REMARK SMILES IDX 5 1 4 2 3 3 1 4 2 5 30 7 31 8 92 9 32 10 91 11 33 12 34 13
REMARK SMILES IDX 35 14 85 15 36 16 90 17 84 18 86 19 37 20 89 21 83 22 82 23
REMARK SMILES IDX 38 25 70 26 50 27 69 28 51 29 54 30 68 31 87 32 52 33 53 34
REMARK SMILES IDX 67 36 88 37 55 38 39 39 40 40 48 41 41 42 42 43 46 44 49 45
REMARK SMILES IDX 43 46 44 47 47 48 45 49 71 50 72 51 80 52 73 53 74 54 78 55
REMARK SMILES IDX 81 56 75 57 76 58 79 59 77 60 56 61 57 62 65 63 58 64 59 65
REMARK SMILES IDX 63 66 66 67 60 68 61 69 64 70 62 71 6 72 7 73 8 74 9 76
REMARK SMILES IDX 10 77 11 78 28 79 12 80 27 81 29 82 13 83 14 84 15 86 16 87
REMARK SMILES IDX 17 88 18 89 19 90 23 91 20 92 22 93 21 94 24 95 26 96 25 97
REMARK H PARENT 3 6 86 24 54 35 7 75 14 85
REMARK Flexibility Score: inf
ROOT
ATOM      1  C   UNL A   1      31.045  31.529  26.139  1.00  0.00     0.042 C 
ENDROOT
BRANCH   1   2
ATOM      2  C   UNL A   1      32.273  32.056  26.869  1.00  0.00     0.118 C 
BRANCH   2   3
ATOM      3  N   UNL A   1      32.147  33.455  27.263  1.00  0.00    -0.352 N 
ATOM      4  O   UNL A   1      32.497  35.335  28.452  1.00  0.00    -0.269 OA
ATOM      5  C   UNL A   1      32.883  34.212  28.144  1.00  0.00     0.251 C 
ATOM      6  H   UNL A   1      31.410  33.939  26.826  1.00  0.00     0.163 HD
BRANCH   5   7
ATOM      7  C   UNL A   1      34.125  33.674  28.739  1.00  0.00     0.039 A 
ATOM      8  C   UNL A   1      34.088  32.539  29.545  1.00  0.00     0.014 A 
ATOM      9  C   UNL A   1      35.349  34.298  28.474  1.00  0.00     0.014 A 
ATOM     10  C   UNL A   1      35.222  32.151  30.242  1.00  0.00     0.010 A 
ATOM     11  C   UNL A   1      36.521  33.822  29.076  1.00  0.00     0.010 A 
ATOM     12  C   UNL A   1      36.460  32.766  29.995  1.00  0.00    -0.014 A 
BRANCH  12  13
ATOM     13  C   UNL A   1      37.665  32.205  30.660  1.00  0.00     0.031 A 
ATOM     14  C   UNL A   1      38.054  32.598  32.058  1.00  0.00     0.074 A 
ATOM     15  C   UNL A   1      38.363  31.257  30.003  1.00  0.00     0.049 A 
ATOM     16  N   UNL A   1      39.022  32.127  32.803  1.00  0.00    -0.248 NA
ATOM     17  C   UNL A   1      37.266  33.659  32.702  1.00  0.00     0.031 C 
ATOM     18  C   UNL A   1      38.093  30.817  28.631  1.00  0.00     0.029 A 
ATOM     19  N   UNL A   1      39.408  30.465  30.402  1.00  0.00    -0.354 N 
ATOM     20  C   UNL A   1      38.967  32.836  33.997  1.00  0.00     0.074 A 
ATOM     21  C   UNL A   1      37.890  33.794  33.866  1.00  0.00     0.031 C 
ATOM     22  C   UNL A   1      38.893  29.785  28.332  1.00  0.00     0.029 A 
ATOM     23  C   UNL A   1      39.788  29.544  29.456  1.00  0.00     0.049 A 
ATOM     24  H   UNL A   1      39.844  30.547  31.282  1.00  0.00     0.167 HD
ATOM     25  C   UNL A   1      39.739  32.688  35.101  1.00  0.00     0.037 A 
ATOM     26  C   UNL A   1      40.760  28.614  29.481  1.00  0.00     0.037 A 
ATOM     27  C   UNL A   1      40.806  31.726  35.224  1.00  0.00     0.049 A 
ATOM     28  C   UNL A   1      41.600  28.483  30.717  1.00  0.00     0.074 A 
ATOM     29  C   UNL A   1      41.641  31.494  36.304  1.00  0.00     0.029 A 
ATOM     30  N   UNL A   1      41.186  30.833  34.231  1.00  0.00    -0.354 N 
ATOM     31  N   UNL A   1      41.520  29.146  31.845  1.00  0.00    -0.248 NA
ATOM     32  C   UNL A   1      42.667  27.475  30.683  1.00  0.00     0.031 C 
ATOM     33  C   UNL A   1      42.551  30.492  35.950  1.00  0.00     0.029 A 
ATOM     34  C   UNL A   1      42.251  30.060  34.670  1.00  0.00     0.049 A 
ATOM     35  H   UNL A   1      40.760  30.758  33.347  1.00  0.00     0.167 HD
ATOM     36  C   UNL A   1      42.522  28.637  32.655  1.00  0.00     0.074 A 
ATOM     37  C   UNL A   1      43.168  27.579  31.905  1.00  0.00     0.031 C 
ATOM     38  C   UNL A   1      42.887  29.019  33.904  1.00  0.00     0.037 A 
BRANCH  25  39
ATOM     39  C   UNL A   1      39.469  33.589  36.272  1.00  0.00     0.064 A 
ATOM     40  C   UNL A   1      38.679  33.171  37.354  1.00  0.00     0.173 A 
ATOM     41  C   UNL A   1      40.067  34.857  36.350  1.00  0.00     0.173 A 
ATOM     42  F   UNL A   1      38.076  31.972  37.326  1.00  0.00    -0.203 F 
ATOM     43  C   UNL A   1      38.486  33.993  38.462  1.00  0.00     0.198 A 
ATOM     44  C   UNL A   1      39.894  35.666  37.471  1.00  0.00     0.198 A 
ATOM     45  F   UNL A   1      40.837  35.304  35.347  1.00  0.00    -0.203 F 
ATOM     46  F   UNL A   1      37.702  33.585  39.468  1.00  0.00    -0.200 F 
ATOM     47  C   UNL A   1      39.101  35.235  38.524  1.00  0.00     0.200 A 
ATOM     48  F   UNL A   1      40.499  36.859  37.535  1.00  0.00    -0.200 F 
ATOM     49  F   UNL A   1      38.927  36.018  39.598  1.00  0.00    -0.200 F 
ENDBRANCH  25  39
BRANCH  26  50
ATOM     50  C   UNL A   1      41.000  27.762  28.288  1.00  0.00     0.064 A 
ATOM     51  C   UNL A   1      40.388  26.509  28.152  1.00  0.00     0.173 A 
ATOM     52  C   UNL A   1      41.853  28.185  27.257  1.00  0.00     0.173 A 
ATOM     53  F   UNL A   1      39.577  26.051  29.117  1.00  0.00    -0.203 F 
ATOM     54  C   UNL A   1      40.638  25.703  27.043  1.00  0.00     0.198 A 
ATOM     55  C   UNL A   1      42.072  27.396  26.132  1.00  0.00     0.198 A 
ATOM     56  F   UNL A   1      42.458  29.381  27.333  1.00  0.00    -0.203 F 
ATOM     57  F   UNL A   1      40.082  24.487  26.963  1.00  0.00    -0.200 F 
ATOM     58  C   UNL A   1      41.474  26.151  26.030  1.00  0.00     0.200 A 
ATOM     59  F   UNL A   1      42.863  27.844  25.148  1.00  0.00    -0.200 F 
ATOM     60  F   UNL A   1      41.710  25.377  24.961  1.00  0.00    -0.200 F 
ENDBRANCH  26  50
BRANCH  38  61
ATOM     61  C   UNL A   1      44.030  28.274  34.528  1.00  0.00     0.064 A 
ATOM     62  C   UNL A   1      43.822  27.101  35.269  1.00  0.00     0.173 A 
ATOM     63  C   UNL A   1      45.345  28.740  34.390  1.00  0.00     0.173 A 
ATOM     64  F   UNL A   1      42.579  26.625  35.445  1.00  0.00    -0.203 F 
ATOM     65  C   UNL A   1      44.885  26.445  35.884  1.00  0.00     0.198 A 
ATOM     66  C   UNL A   1      46.409  28.063  34.978  1.00  0.00     0.198 A 
ATOM     67  F   UNL A   1      45.598  29.853  33.686  1.00  0.00    -0.203 F 
ATOM     68  F   UNL A   1      44.653  25.366  36.644  1.00  0.00    -0.200 F 
ATOM     69  C   UNL A   1      46.177  26.924  35.735  1.00  0.00     0.200 A 
ATOM     70  F   UNL A   1      47.660  28.521  34.824  1.00  0.00    -0.200 F 
ATOM     71  F   UNL A   1      47.198  26.296  36.333  1.00  0.00    -0.200 F 
ENDBRANCH  38  61
ENDBRANCH  12  13
ENDBRANCH   5   7
ENDBRANCH   2   3
ENDBRANCH   1   2
BRANCH   1  72
ATOM     72  C   UNL A   1      31.295  30.236  25.379  1.00  0.00     0.118 C 
BRANCH  72  73
ATOM     73  N   UNL A   1      30.837  30.301  23.999  1.00  0.00    -0.352 N 
ATOM     74  C   UNL A   1      30.479  29.270  23.168  1.00  0.00     0.252 C 
ATOM     75  H   UNL A   1      30.776  31.204  23.611  1.00  0.00     0.163 HD
ATOM     76  O   UNL A   1      30.157  29.467  22.003  1.00  0.00    -0.269 OA
BRANCH  74  77
ATOM     77  C   UNL A   1      30.588  27.896  23.676  1.00  0.00     0.058 A 
ATOM     78  C   UNL A   1      29.395  27.276  24.042  1.00  0.00     0.017 A 
ATOM     79  C   UNL A   1      31.791  27.183  23.683  1.00  0.00     0.055 A 
ATOM     80  C   UNL A   1      29.399  25.915  24.335  1.00  0.00     0.027 A 
ATOM     81  C   UNL A   1      31.792  25.824  24.030  1.00  0.00     0.048 A 
ATOM     82  Cl  UNL A   1      33.282  27.903  23.191  1.00  0.00    -0.083 Cl
ATOM     83  C   UNL A   1      30.592  25.185  24.352  1.00  0.00     0.050 A 
BRANCH  83  84
ATOM     84  N   UNL A   1      30.553  23.762  24.549  1.00  0.00    -0.280 N 
ATOM     85  H   UNL A   1      30.296  23.171  23.804  1.00  0.00     0.180 HD
BRANCH  84  86
ATOM     86  S   UNL A   1      30.951  23.089  26.072  1.00  0.00     0.261 S 
ATOM     87  O   UNL A   1      30.889  24.175  27.024  1.00  0.00    -0.201 OA
ATOM     88  O   UNL A   1      30.104  21.923  26.227  1.00  0.00    -0.201 OA
BRANCH  86  89
ATOM     89  C   UNL A   1      32.633  22.543  25.958  1.00  0.00     0.088 A 
ATOM     90  C   UNL A   1      33.278  22.028  27.101  1.00  0.00     0.022 A 
ATOM     91  C   UNL A   1      33.315  22.718  24.748  1.00  0.00     0.026 A 
ATOM     92  C   UNL A   1      34.653  21.783  27.068  1.00  0.00     0.005 A 
ATOM     93  C   UNL A   1      34.673  22.469  24.737  1.00  0.00    -0.043 A 
ATOM     94  C   UNL A   1      35.339  22.031  25.888  1.00  0.00    -0.045 A 
ATOM     95  C   UNL A   1      35.635  22.721  23.619  1.00  0.00     0.036 C 
ATOM     96  C   UNL A   1      36.817  21.982  25.652  1.00  0.00     0.036 C 
ATOM     97  C   UNL A   1      36.879  21.973  24.118  1.00  0.00     0.010 C 
ENDBRANCH  86  89
ENDBRANCH  84  86
ENDBRANCH  83  84
ENDBRANCH  74  77
ENDBRANCH  72  73
ENDBRANCH   1  72
TORSDOF 13
ENDMDL
