MODEL 1
REMARK VINA RESULT:     -14.2      0.000      0.000
REMARK SMILES C[C@H](C(=O)NCCCNC(=O)c1ccc(-c2c3nc(c(-c4c(F)c(F)c(F)c(F)c4F)c4ccc([nH]4)c(-c4c(F)c(F)c(F)c(F)c4F)c4nc(c(-c5c(F)c(F)c(F)c(F)c5F)c5ccc2[nH]5)C=C4)C=C3)cc1)n1ccc2c(cnc3nc(C4CCCCC4)nn32)c1=O
REMARK SMILES IDX 7 1 6 2 5 3 3 4 4 5 2 7 1 8 75 9 76 10 93 11 77 12 79 13
REMARK SMILES IDX 94 14 78 15 80 16 92 17 81 18 82 19 91 20 83 21 84 22 85 23
REMARK SMILES IDX 86 24 90 25 87 26 89 27 88 28 8 29 9 30 10 31 11 33 12 34
REMARK SMILES IDX 13 35 74 36 14 37 73 38 15 39 16 40 17 41 67 42 18 43 72 44
REMARK SMILES IDX 66 45 68 46 19 47 71 48 65 49 64 50 20 52 52 53 32 54 51 55
REMARK SMILES IDX 33 56 36 57 50 58 69 59 34 60 35 61 49 63 70 64 37 65 21 66
REMARK SMILES IDX 22 67 30 68 23 69 24 70 28 71 31 72 25 73 26 74 29 75 27 76
REMARK SMILES IDX 53 77 54 78 62 79 55 80 56 81 60 82 63 83 57 84 58 85 61 86
REMARK SMILES IDX 59 87 38 88 39 89 47 90 40 91 41 92 45 93 48 94 42 95 43 96
REMARK SMILES IDX 46 97 44 98
REMARK H PARENT 5 6 9 32 68 51 36 62
REMARK Flexibility Score: inf
ROOT
ATOM      1  C   UNL A   1      31.444  32.084  26.619  1.00  0.00     0.042 C 
ENDROOT
BRANCH   1   2
ATOM      2  C   UNL A   1      31.523  30.562  26.533  1.00  0.00     0.117 C 
BRANCH   2   3
ATOM      3  N   UNL A   1      32.890  30.097  26.690  1.00  0.00    -0.354 N 
ATOM      4  C   UNL A   1      33.597  29.144  26.013  1.00  0.00     0.242 C 
ATOM      5  O   UNL A   1      34.688  28.826  26.489  1.00  0.00    -0.273 OA
ATOM      6  H   UNL A   1      33.393  30.547  27.406  1.00  0.00     0.163 HD
BRANCH   4   7
ATOM      7  C   UNL A   1      33.001  28.467  24.760  1.00  0.00     0.176 C 
ATOM      8  C   UNL A   1      33.749  28.941  23.511  1.00  0.00     0.042 C 
BRANCH   7   9
ATOM      9  N   UNL A   1      32.945  26.994  24.938  1.00  0.00    -0.303 N 
ATOM     10  C   UNL A   1      34.010  26.247  24.452  1.00  0.00     0.092 A 
ATOM     11  C   UNL A   1      31.826  26.377  25.519  1.00  0.00     0.262 A 
ATOM     12  C   UNL A   1      34.012  24.913  24.490  1.00  0.00     0.047 A 
ATOM     13  C   UNL A   1      31.857  24.892  25.572  1.00  0.00     0.084 A 
ATOM     14  O   UNL A   1      30.852  26.960  25.984  1.00  0.00    -0.269 OA
ATOM     15  C   UNL A   1      32.892  24.203  25.064  1.00  0.00     0.084 A 
ATOM     16  C   UNL A   1      30.764  24.068  26.161  1.00  0.00     0.131 A 
ATOM     17  N   UNL A   1      32.836  22.810  25.063  1.00  0.00    -0.196 N 
ATOM     18  N   UNL A   1      30.696  22.769  26.173  1.00  0.00    -0.219 NA
ATOM     19  C   UNL A   1      31.732  22.114  25.568  1.00  0.00     0.252 A 
ATOM     20  N   UNL A   1      33.728  21.935  24.548  1.00  0.00    -0.149 NA
ATOM     21  N   UNL A   1      31.871  20.836  25.287  1.00  0.00    -0.194 NA
ATOM     22  C   UNL A   1      33.068  20.777  24.631  1.00  0.00     0.156 A 
BRANCH  22  23
ATOM     23  C   UNL A   1      33.554  19.537  23.949  1.00  0.00     0.060 C 
ATOM     24  C   UNL A   1      34.429  18.700  24.899  1.00  0.00     0.012 C 
ATOM     25  C   UNL A   1      32.398  18.700  23.380  1.00  0.00     0.012 C 
ATOM     26  C   UNL A   1      34.899  17.412  24.252  1.00  0.00     0.001 C 
ATOM     27  C   UNL A   1      32.892  17.398  22.750  1.00  0.00     0.001 C 
ATOM     28  C   UNL A   1      33.730  16.590  23.729  1.00  0.00     0.000 C 
ENDBRANCH  22  23
ENDBRANCH   7   9
ENDBRANCH   4   7
ENDBRANCH   2   3
ENDBRANCH   1   2
BRANCH   1  29
ATOM     29  C   UNL A   1      32.636  32.714  27.331  1.00  0.00     0.118 C 
BRANCH  29  30
ATOM     30  N   UNL A   1      32.427  34.127  27.625  1.00  0.00    -0.352 N 
ATOM     31  C   UNL A   1      33.037  34.930  28.557  1.00  0.00     0.251 C 
ATOM     32  H   UNL A   1      31.745  34.572  27.072  1.00  0.00     0.163 HD
ATOM     33  O   UNL A   1      32.589  36.050  28.788  1.00  0.00    -0.269 OA
BRANCH  31  34
ATOM     34  C   UNL A   1      34.215  34.439  29.300  1.00  0.00     0.039 A 
ATOM     35  C   UNL A   1      34.027  33.790  30.524  1.00  0.00     0.014 A 
ATOM     36  C   UNL A   1      35.504  34.621  28.794  1.00  0.00     0.014 A 
ATOM     37  C   UNL A   1      35.126  33.254  31.200  1.00  0.00     0.010 A 
ATOM     38  C   UNL A   1      36.585  34.012  29.423  1.00  0.00     0.010 A 
ATOM     39  C   UNL A   1      36.408  33.320  30.632  1.00  0.00    -0.014 A 
BRANCH  39  40
ATOM     40  C   UNL A   1      37.587  32.686  31.276  1.00  0.00     0.031 A 
ATOM     41  C   UNL A   1      38.274  31.531  30.605  1.00  0.00     0.074 A 
ATOM     42  C   UNL A   1      37.997  33.094  32.491  1.00  0.00     0.049 A 
ATOM     43  N   UNL A   1      39.216  30.747  31.062  1.00  0.00    -0.248 NA
ATOM     44  C   UNL A   1      37.822  31.204  29.245  1.00  0.00     0.031 C 
ATOM     45  C   UNL A   1      37.430  34.218  33.232  1.00  0.00     0.029 A 
ATOM     46  N   UNL A   1      38.984  32.615  33.318  1.00  0.00    -0.354 N 
ATOM     47  C   UNL A   1      39.455  29.823  30.055  1.00  0.00     0.074 A 
ATOM     48  C   UNL A   1      38.520  30.108  28.987  1.00  0.00     0.031 C 
ATOM     49  C   UNL A   1      38.108  34.373  34.378  1.00  0.00     0.029 A 
ATOM     50  C   UNL A   1      39.096  33.303  34.503  1.00  0.00     0.049 A 
ATOM     51  H   UNL A   1      39.559  31.850  33.084  1.00  0.00     0.167 HD
ATOM     52  C   UNL A   1      40.385  28.839  30.016  1.00  0.00     0.037 A 
ATOM     53  C   UNL A   1      39.879  33.076  35.580  1.00  0.00     0.037 A 
ATOM     54  C   UNL A   1      41.323  28.574  31.074  1.00  0.00     0.049 A 
ATOM     55  C   UNL A   1      40.799  31.883  35.569  1.00  0.00     0.074 A 
ATOM     56  C   UNL A   1      42.343  27.640  31.109  1.00  0.00     0.029 A 
ATOM     57  N   UNL A   1      41.346  29.239  32.293  1.00  0.00    -0.354 N 
ATOM     58  N   UNL A   1      41.051  31.042  34.595  1.00  0.00    -0.248 NA
ATOM     59  C   UNL A   1      41.532  31.593  36.809  1.00  0.00     0.031 C 
ATOM     60  C   UNL A   1      42.940  27.694  32.372  1.00  0.00     0.029 A 
ATOM     61  C   UNL A   1      42.339  28.708  33.101  1.00  0.00     0.049 A 
ATOM     62  H   UNL A   1      40.746  29.977  32.546  1.00  0.00     0.167 HD
ATOM     63  C   UNL A   1      42.021  30.173  35.079  1.00  0.00     0.074 A 
ATOM     64  C   UNL A   1      42.297  30.573  36.442  1.00  0.00     0.031 C 
ATOM     65  C   UNL A   1      42.637  29.146  34.442  1.00  0.00     0.037 A 
BRANCH  52  66
ATOM     66  C   UNL A   1      40.413  27.967  28.793  1.00  0.00     0.064 A 
ATOM     67  C   UNL A   1      41.183  28.295  27.665  1.00  0.00     0.173 A 
ATOM     68  C   UNL A   1      39.660  26.784  28.748  1.00  0.00     0.173 A 
ATOM     69  F   UNL A   1      41.916  29.419  27.651  1.00  0.00    -0.203 F 
ATOM     70  C   UNL A   1      41.156  27.500  26.523  1.00  0.00     0.198 A 
ATOM     71  C   UNL A   1      39.666  25.971  27.617  1.00  0.00     0.198 A 
ATOM     72  F   UNL A   1      38.912  26.417  29.799  1.00  0.00    -0.203 F 
ATOM     73  F   UNL A   1      41.841  27.874  25.433  1.00  0.00    -0.200 F 
ATOM     74  C   UNL A   1      40.403  26.337  26.501  1.00  0.00     0.200 A 
ATOM     75  F   UNL A   1      38.949  24.838  27.605  1.00  0.00    -0.200 F 
ATOM     76  F   UNL A   1      40.376  25.574  25.400  1.00  0.00    -0.200 F 
ENDBRANCH  52  66
BRANCH  53  77
ATOM     77  C   UNL A   1      39.820  33.993  36.755  1.00  0.00     0.064 A 
ATOM     78  C   UNL A   1      40.530  35.202  36.783  1.00  0.00     0.173 A 
ATOM     79  C   UNL A   1      39.025  33.696  37.869  1.00  0.00     0.173 A 
ATOM     80  F   UNL A   1      41.320  35.539  35.753  1.00  0.00    -0.203 F 
ATOM     81  C   UNL A   1      40.456  36.063  37.878  1.00  0.00     0.198 A 
ATOM     82  C   UNL A   1      38.894  34.592  38.928  1.00  0.00     0.198 A 
ATOM     83  F   UNL A   1      38.332  32.550  37.895  1.00  0.00    -0.203 F 
ATOM     84  F   UNL A   1      41.183  37.187  37.897  1.00  0.00    -0.200 F 
ATOM     85  C   UNL A   1      39.625  35.764  38.944  1.00  0.00     0.200 A 
ATOM     86  F   UNL A   1      38.032  34.341  39.921  1.00  0.00    -0.200 F 
ATOM     87  F   UNL A   1      39.522  36.604  39.983  1.00  0.00    -0.200 F 
ENDBRANCH  53  77
BRANCH  65  88
ATOM     88  C   UNL A   1      43.750  28.443  35.165  1.00  0.00     0.064 A 
ATOM     89  C   UNL A   1      43.531  27.303  35.948  1.00  0.00     0.173 A 
ATOM     90  C   UNL A   1      45.074  28.885  35.004  1.00  0.00     0.173 A 
ATOM     91  F   UNL A   1      42.285  26.850  36.149  1.00  0.00    -0.203 F 
ATOM     92  C   UNL A   1      44.594  26.635  36.553  1.00  0.00     0.198 A 
ATOM     93  C   UNL A   1      46.137  28.198  35.582  1.00  0.00     0.198 A 
ATOM     94  F   UNL A   1      45.339  29.971  34.261  1.00  0.00    -0.203 F 
ATOM     95  F   UNL A   1      44.359  25.568  37.328  1.00  0.00    -0.200 F 
ATOM     96  C   UNL A   1      45.896  27.076  36.359  1.00  0.00     0.200 A 
ATOM     97  F   UNL A   1      47.393  28.617  35.379  1.00  0.00    -0.200 F 
ATOM     98  F   UNL A   1      46.918  26.421  36.925  1.00  0.00    -0.200 F 
ENDBRANCH  65  88
ENDBRANCH  39  40
ENDBRANCH  31  34
ENDBRANCH  29  30
ENDBRANCH   1  29
TORSDOF 12
ENDMDL
MODEL 2
REMARK VINA RESULT:     -14.1      5.614     11.024
REMARK SMILES C[C@H](C(=O)NCCCNC(=O)c1ccc(-c2c3nc(c(-c4c(F)c(F)c(F)c(F)c4F)c4ccc([nH]4)c(-c4c(F)c(F)c(F)c(F)c4F)c4nc(c(-c5c(F)c(F)c(F)c(F)c5F)c5ccc2[nH]5)C=C4)C=C3)cc1)n1ccc2c(cnc3nc(C4CCCCC4)nn32)c1=O
REMARK SMILES IDX 7 1 6 2 5 3 3 4 4 5 2 7 1 8 75 9 76 10 93 11 77 12 79 13
REMARK SMILES IDX 94 14 78 15 80 16 92 17 81 18 82 19 91 20 83 21 84 22 85 23
REMARK SMILES IDX 86 24 90 25 87 26 89 27 88 28 8 29 9 30 10 31 11 33 12 34
REMARK SMILES IDX 13 35 74 36 14 37 73 38 15 39 16 40 17 41 67 42 18 43 72 44
REMARK SMILES IDX 66 45 68 46 19 47 71 48 65 49 64 50 20 52 52 53 32 54 51 55
REMARK SMILES IDX 33 56 36 57 50 58 69 59 34 60 35 61 49 63 70 64 37 65 21 66
REMARK SMILES IDX 22 67 30 68 23 69 24 70 28 71 31 72 25 73 26 74 29 75 27 76
REMARK SMILES IDX 53 77 54 78 62 79 55 80 56 81 60 82 63 83 57 84 58 85 61 86
REMARK SMILES IDX 59 87 38 88 39 89 47 90 40 91 41 92 45 93 48 94 42 95 43 96
REMARK SMILES IDX 46 97 44 98
REMARK H PARENT 5 6 9 32 68 51 36 62
REMARK Flexibility Score: inf
ROOT
ATOM      1  C   UNL A   1      38.063  19.893  24.974  1.00  0.00     0.042 C 
ENDROOT
BRANCH   1   2
ATOM      2  C   UNL A   1      37.176  21.051  24.526  1.00  0.00     0.117 C 
BRANCH   2   3
ATOM      3  N   UNL A   1      37.451  22.251  25.297  1.00  0.00    -0.354 N 
ATOM      4  C   UNL A   1      36.609  23.145  25.896  1.00  0.00     0.242 C 
ATOM      5  O   UNL A   1      37.121  24.181  26.326  1.00  0.00    -0.273 OA
ATOM      6  H   UNL A   1      38.408  22.454  25.407  1.00  0.00     0.163 HD
BRANCH   4   7
ATOM      7  C   UNL A   1      35.091  22.878  25.951  1.00  0.00     0.176 C 
ATOM      8  C   UNL A   1      34.656  22.661  27.402  1.00  0.00     0.042 C 
BRANCH   7   9
ATOM      9  N   UNL A   1      34.346  23.936  25.223  1.00  0.00    -0.303 N 
ATOM     10  C   UNL A   1      33.871  25.012  25.963  1.00  0.00     0.092 A 
ATOM     11  C   UNL A   1      34.079  23.820  23.850  1.00  0.00     0.262 A 
ATOM     12  C   UNL A   1      33.119  25.969  25.414  1.00  0.00     0.047 A 
ATOM     13  C   UNL A   1      33.261  24.908  23.253  1.00  0.00     0.084 A 
ATOM     14  O   UNL A   1      34.471  22.915  23.122  1.00  0.00    -0.269 OA
ATOM     15  C   UNL A   1      32.793  25.916  24.007  1.00  0.00     0.084 A 
ATOM     16  C   UNL A   1      32.887  24.957  21.811  1.00  0.00     0.131 A 
ATOM     17  N   UNL A   1      31.961  26.867  23.417  1.00  0.00    -0.196 N 
ATOM     18  N   UNL A   1      32.115  25.837  21.242  1.00  0.00    -0.219 NA
ATOM     19  C   UNL A   1      31.595  26.794  22.068  1.00  0.00     0.252 A 
ATOM     20  N   UNL A   1      31.336  27.912  24.002  1.00  0.00    -0.149 NA
ATOM     21  N   UNL A   1      30.680  27.708  21.827  1.00  0.00    -0.194 NA
ATOM     22  C   UNL A   1      30.519  28.332  23.032  1.00  0.00     0.156 A 
BRANCH  22  23
ATOM     23  C   UNL A   1      29.431  29.326  23.287  1.00  0.00     0.060 C 
ATOM     24  C   UNL A   1      30.005  30.618  23.894  1.00  0.00     0.012 C 
ATOM     25  C   UNL A   1      28.614  29.625  22.021  1.00  0.00     0.012 C 
ATOM     26  C   UNL A   1      28.932  31.666  24.122  1.00  0.00     0.001 C 
ATOM     27  C   UNL A   1      27.552  30.697  22.266  1.00  0.00     0.001 C 
ATOM     28  C   UNL A   1      28.164  31.965  22.842  1.00  0.00     0.000 C 
ENDBRANCH  22  23
ENDBRANCH   7   9
ENDBRANCH   4   7
ENDBRANCH   2   3
ENDBRANCH   1   2
BRANCH   1  29
ATOM     29  C   UNL A   1      39.294  20.337  25.756  1.00  0.00     0.118 C 
BRANCH  29  30
ATOM     30  N   UNL A   1      40.283  19.274  25.891  1.00  0.00    -0.352 N 
ATOM     31  C   UNL A   1      41.629  19.354  26.146  1.00  0.00     0.251 C 
ATOM     32  H   UNL A   1      39.932  18.360  25.782  1.00  0.00     0.163 HD
ATOM     33  O   UNL A   1      42.336  18.356  26.032  1.00  0.00    -0.269 OA
BRANCH  31  34
ATOM     34  C   UNL A   1      42.234  20.644  26.535  1.00  0.00     0.039 A 
ATOM     35  C   UNL A   1      42.686  21.513  25.537  1.00  0.00     0.014 A 
ATOM     36  C   UNL A   1      42.358  20.998  27.881  1.00  0.00     0.014 A 
ATOM     37  C   UNL A   1      43.190  22.768  25.887  1.00  0.00     0.010 A 
ATOM     38  C   UNL A   1      42.778  22.279  28.222  1.00  0.00     0.010 A 
ATOM     39  C   UNL A   1      43.197  23.180  27.230  1.00  0.00    -0.014 A 
BRANCH  39  40
ATOM     40  C   UNL A   1      43.641  24.538  27.634  1.00  0.00     0.031 A 
ATOM     41  C   UNL A   1      42.623  25.583  27.989  1.00  0.00     0.074 A 
ATOM     42  C   UNL A   1      44.949  24.858  27.613  1.00  0.00     0.049 A 
ATOM     43  N   UNL A   1      42.790  26.859  28.221  1.00  0.00    -0.248 NA
ATOM     44  C   UNL A   1      41.226  25.132  28.072  1.00  0.00     0.031 C 
ATOM     45  C   UNL A   1      46.033  23.927  27.310  1.00  0.00     0.029 A 
ATOM     46  N   UNL A   1      45.590  26.050  27.850  1.00  0.00    -0.354 N 
ATOM     47  C   UNL A   1      41.520  27.366  28.457  1.00  0.00     0.074 A 
ATOM     48  C   UNL A   1      40.588  26.272  28.284  1.00  0.00     0.031 C 
ATOM     49  C   UNL A   1      47.205  24.568  27.429  1.00  0.00     0.029 A 
ATOM     50  C   UNL A   1      46.957  25.978  27.719  1.00  0.00     0.049 A 
ATOM     51  H   UNL A   1      45.115  26.879  28.090  1.00  0.00     0.167 HD
ATOM     52  C   UNL A   1      41.166  28.626  28.808  1.00  0.00     0.037 A 
ATOM     53  C   UNL A   1      47.897  26.945  27.791  1.00  0.00     0.037 A 
ATOM     54  C   UNL A   1      42.101  29.703  28.996  1.00  0.00     0.049 A 
ATOM     55  C   UNL A   1      47.459  28.367  28.034  1.00  0.00     0.074 A 
ATOM     56  C   UNL A   1      41.851  31.000  29.409  1.00  0.00     0.029 A 
ATOM     57  N   UNL A   1      43.468  29.610  28.770  1.00  0.00    -0.354 N 
ATOM     58  N   UNL A   1      46.262  28.828  28.302  1.00  0.00    -0.248 NA
ATOM     59  C   UNL A   1      48.497  29.405  27.970  1.00  0.00     0.031 C 
ATOM     60  C   UNL A   1      43.055  31.709  29.368  1.00  0.00     0.029 A 
ATOM     61  C   UNL A   1      44.068  30.839  28.998  1.00  0.00     0.049 A 
ATOM     62  H   UNL A   1      43.940  28.793  28.490  1.00  0.00     0.167 HD
ATOM     63  C   UNL A   1      46.414  30.193  28.508  1.00  0.00     0.074 A 
ATOM     64  C   UNL A   1      47.817  30.491  28.314  1.00  0.00     0.031 C 
ATOM     65  C   UNL A   1      45.476  31.112  28.846  1.00  0.00     0.037 A 
BRANCH  52  66
ATOM     66  C   UNL A   1      39.701  28.904  28.990  1.00  0.00     0.064 A 
ATOM     67  C   UNL A   1      39.070  28.774  30.237  1.00  0.00     0.173 A 
ATOM     68  C   UNL A   1      38.915  29.306  27.899  1.00  0.00     0.173 A 
ATOM     69  F   UNL A   1      39.772  28.383  31.312  1.00  0.00    -0.203 F 
ATOM     70  C   UNL A   1      37.702  28.987  30.375  1.00  0.00     0.198 A 
ATOM     71  C   UNL A   1      37.553  29.557  28.049  1.00  0.00     0.198 A 
ATOM     72  F   UNL A   1      39.466  29.455  26.685  1.00  0.00    -0.203 F 
ATOM     73  F   UNL A   1      37.110  28.784  31.560  1.00  0.00    -0.200 F 
ATOM     74  C   UNL A   1      36.945  29.382  29.283  1.00  0.00     0.200 A 
ATOM     75  F   UNL A   1      36.827  29.955  26.995  1.00  0.00    -0.200 F 
ATOM     76  F   UNL A   1      35.627  29.584  29.416  1.00  0.00    -0.200 F 
ENDBRANCH  52  66
BRANCH  53  77
ATOM     77  C   UNL A   1      49.339  26.601  27.624  1.00  0.00     0.064 A 
ATOM     78  C   UNL A   1      50.188  26.426  28.726  1.00  0.00     0.173 A 
ATOM     79  C   UNL A   1      49.897  26.406  26.355  1.00  0.00     0.173 A 
ATOM     80  F   UNL A   1      49.718  26.611  29.969  1.00  0.00    -0.203 F 
ATOM     81  C   UNL A   1      51.531  26.086  28.563  1.00  0.00     0.198 A 
ATOM     82  C   UNL A   1      51.219  25.993  26.196  1.00  0.00     0.198 A 
ATOM     83  F   UNL A   1      49.130  26.567  25.267  1.00  0.00    -0.203 F 
ATOM     84  F   UNL A   1      52.329  25.975  29.633  1.00  0.00    -0.200 F 
ATOM     85  C   UNL A   1      52.042  25.855  27.297  1.00  0.00     0.200 A 
ATOM     86  F   UNL A   1      51.691  25.693  24.980  1.00  0.00    -0.200 F 
ATOM     87  F   UNL A   1      53.322  25.494  27.136  1.00  0.00    -0.200 F 
ENDBRANCH  53  77
BRANCH  65  88
ATOM     88  C   UNL A   1      45.940  32.512  29.134  1.00  0.00     0.064 A 
ATOM     89  C   UNL A   1      46.390  32.905  30.401  1.00  0.00     0.173 A 
ATOM     90  C   UNL A   1      46.002  33.453  28.093  1.00  0.00     0.173 A 
ATOM     91  F   UNL A   1      46.334  32.051  31.433  1.00  0.00    -0.203 F 
ATOM     92  C   UNL A   1      46.876  34.193  30.619  1.00  0.00     0.198 A 
ATOM     93  C   UNL A   1      46.517  34.728  28.306  1.00  0.00     0.198 A 
ATOM     94  F   UNL A   1      45.587  33.126  26.860  1.00  0.00    -0.203 F 
ATOM     95  F   UNL A   1      47.267  34.561  31.847  1.00  0.00    -0.200 F 
ATOM     96  C   UNL A   1      46.950  35.098  29.570  1.00  0.00     0.200 A 
ATOM     97  F   UNL A   1      46.603  35.593  27.287  1.00  0.00    -0.200 F 
ATOM     98  F   UNL A   1      47.437  36.329  29.777  1.00  0.00    -0.200 F 
ENDBRANCH  65  88
ENDBRANCH  39  40
ENDBRANCH  31  34
ENDBRANCH  29  30
ENDBRANCH   1  29
TORSDOF 12
ENDMDL
MODEL 3
REMARK VINA RESULT:     -14.1      5.342     10.978
REMARK SMILES C[C@H](C(=O)NCCCNC(=O)c1ccc(-c2c3nc(c(-c4c(F)c(F)c(F)c(F)c4F)c4ccc([nH]4)c(-c4c(F)c(F)c(F)c(F)c4F)c4nc(c(-c5c(F)c(F)c(F)c(F)c5F)c5ccc2[nH]5)C=C4)C=C3)cc1)n1ccc2c(cnc3nc(C4CCCCC4)nn32)c1=O
REMARK SMILES IDX 7 1 6 2 5 3 3 4 4 5 2 7 1 8 75 9 76 10 93 11 77 12 79 13
REMARK SMILES IDX 94 14 78 15 80 16 92 17 81 18 82 19 91 20 83 21 84 22 85 23
REMARK SMILES IDX 86 24 90 25 87 26 89 27 88 28 8 29 9 30 10 31 11 33 12 34
REMARK SMILES IDX 13 35 74 36 14 37 73 38 15 39 16 40 17 41 67 42 18 43 72 44
REMARK SMILES IDX 66 45 68 46 19 47 71 48 65 49 64 50 20 52 52 53 32 54 51 55
REMARK SMILES IDX 33 56 36 57 50 58 69 59 34 60 35 61 49 63 70 64 37 65 21 66
REMARK SMILES IDX 22 67 30 68 23 69 24 70 28 71 31 72 25 73 26 74 29 75 27 76
REMARK SMILES IDX 53 77 54 78 62 79 55 80 56 81 60 82 63 83 57 84 58 85 61 86
REMARK SMILES IDX 59 87 38 88 39 89 47 90 40 91 41 92 45 93 48 94 42 95 43 96
REMARK SMILES IDX 46 97 44 98
REMARK H PARENT 5 6 9 32 68 51 36 62
REMARK Flexibility Score: inf
ROOT
ATOM      1  C   UNL A   1      37.611  20.071  25.021  1.00  0.00     0.042 C 
ENDROOT
BRANCH   1   2
ATOM      2  C   UNL A   1      36.626  21.220  24.825  1.00  0.00     0.117 C 
BRANCH   2   3
ATOM      3  N   UNL A   1      35.513  21.121  25.752  1.00  0.00    -0.354 N 
ATOM      4  C   UNL A   1      34.198  21.467  25.616  1.00  0.00     0.242 C 
ATOM      5  O   UNL A   1      33.513  21.445  26.641  1.00  0.00    -0.273 OA
ATOM      6  H   UNL A   1      35.746  20.739  26.629  1.00  0.00     0.163 HD
BRANCH   4   7
ATOM      7  C   UNL A   1      33.645  21.927  24.251  1.00  0.00     0.176 C 
ATOM      8  C   UNL A   1      32.670  20.880  23.708  1.00  0.00     0.042 C 
BRANCH   7   9
ATOM      9  N   UNL A   1      33.100  23.305  24.344  1.00  0.00    -0.303 N 
ATOM     10  C   UNL A   1      31.750  23.482  24.066  1.00  0.00     0.092 A 
ATOM     11  C   UNL A   1      33.933  24.395  24.641  1.00  0.00     0.262 A 
ATOM     12  C   UNL A   1      31.187  24.692  24.041  1.00  0.00     0.047 A 
ATOM     13  C   UNL A   1      33.282  25.731  24.632  1.00  0.00     0.084 A 
ATOM     14  O   UNL A   1      35.126  24.326  24.912  1.00  0.00    -0.269 OA
ATOM     15  C   UNL A   1      31.980  25.866  24.327  1.00  0.00     0.084 A 
ATOM     16  C   UNL A   1      34.005  26.999  24.933  1.00  0.00     0.131 A 
ATOM     17  N   UNL A   1      31.437  27.147  24.250  1.00  0.00    -0.196 N 
ATOM     18  N   UNL A   1      33.515  28.203  24.870  1.00  0.00    -0.219 NA
ATOM     19  C   UNL A   1      32.210  28.292  24.473  1.00  0.00     0.252 A 
ATOM     20  N   UNL A   1      30.183  27.506  23.899  1.00  0.00    -0.149 NA
ATOM     21  N   UNL A   1      31.493  29.354  24.170  1.00  0.00    -0.194 NA
ATOM     22  C   UNL A   1      30.290  28.833  23.785  1.00  0.00     0.156 A 
BRANCH  22  23
ATOM     23  C   UNL A   1      29.211  29.665  23.168  1.00  0.00     0.060 C 
ATOM     24  C   UNL A   1      29.056  31.000  23.918  1.00  0.00     0.012 C 
ATOM     25  C   UNL A   1      29.448  29.898  21.668  1.00  0.00     0.012 C 
ATOM     26  C   UNL A   1      28.000  31.887  23.288  1.00  0.00     0.001 C 
ATOM     27  C   UNL A   1      28.385  30.811  21.057  1.00  0.00     0.001 C 
ATOM     28  C   UNL A   1      28.282  32.128  21.811  1.00  0.00     0.000 C 
ENDBRANCH  22  23
ENDBRANCH   7   9
ENDBRANCH   4   7
ENDBRANCH   2   3
ENDBRANCH   1   2
BRANCH   1  29
ATOM     29  C   UNL A   1      38.889  20.483  25.743  1.00  0.00     0.118 C 
BRANCH  29  30
ATOM     30  N   UNL A   1      39.859  19.398  25.824  1.00  0.00    -0.352 N 
ATOM     31  C   UNL A   1      41.213  19.443  26.049  1.00  0.00     0.251 C 
ATOM     32  H   UNL A   1      39.487  18.494  25.698  1.00  0.00     0.163 HD
ATOM     33  O   UNL A   1      41.895  18.435  25.889  1.00  0.00    -0.269 OA
BRANCH  31  34
ATOM     34  C   UNL A   1      41.853  20.710  26.459  1.00  0.00     0.039 A 
ATOM     35  C   UNL A   1      42.282  21.606  25.475  1.00  0.00     0.014 A 
ATOM     36  C   UNL A   1      42.033  21.014  27.810  1.00  0.00     0.014 A 
ATOM     37  C   UNL A   1      42.820  22.840  25.848  1.00  0.00     0.010 A 
ATOM     38  C   UNL A   1      42.487  22.275  28.179  1.00  0.00     0.010 A 
ATOM     39  C   UNL A   1      42.884  23.204  27.203  1.00  0.00    -0.014 A 
BRANCH  39  40
ATOM     40  C   UNL A   1      43.365  24.541  27.636  1.00  0.00     0.031 A 
ATOM     41  C   UNL A   1      42.376  25.610  28.000  1.00  0.00     0.074 A 
ATOM     42  C   UNL A   1      44.682  24.819  27.635  1.00  0.00     0.049 A 
ATOM     43  N   UNL A   1      42.580  26.876  28.256  1.00  0.00    -0.248 NA
ATOM     44  C   UNL A   1      40.965  25.201  28.061  1.00  0.00     0.031 C 
ATOM     45  C   UNL A   1      45.741  23.861  27.326  1.00  0.00     0.029 A 
ATOM     46  N   UNL A   1      45.357  25.986  27.900  1.00  0.00    -0.354 N 
ATOM     47  C   UNL A   1      41.324  27.418  28.489  1.00  0.00     0.074 A 
ATOM     48  C   UNL A   1      40.360  26.357  28.286  1.00  0.00     0.031 C 
ATOM     49  C   UNL A   1      46.930  24.462  27.469  1.00  0.00     0.029 A 
ATOM     50  C   UNL A   1      46.723  25.874  27.783  1.00  0.00     0.049 A 
ATOM     51  H   UNL A   1      44.906  26.825  28.150  1.00  0.00     0.167 HD
ATOM     52  C   UNL A   1      41.005  28.681  28.859  1.00  0.00     0.037 A 
ATOM     53  C   UNL A   1      47.692  26.810  27.881  1.00  0.00     0.037 A 
ATOM     54  C   UNL A   1      41.971  29.725  29.076  1.00  0.00     0.049 A 
ATOM     55  C   UNL A   1      47.296  28.240  28.146  1.00  0.00     0.074 A 
ATOM     56  C   UNL A   1      41.757  31.022  29.510  1.00  0.00     0.029 A 
ATOM     57  N   UNL A   1      43.337  29.594  28.863  1.00  0.00    -0.354 N 
ATOM     58  N   UNL A   1      46.110  28.734  28.410  1.00  0.00    -0.248 NA
ATOM     59  C   UNL A   1      48.366  29.246  28.111  1.00  0.00     0.031 C 
ATOM     60  C   UNL A   1      42.983  31.694  29.495  1.00  0.00     0.029 A 
ATOM     61  C   UNL A   1      43.972  30.799  29.119  1.00  0.00     0.049 A 
ATOM     62  H   UNL A   1      43.787  28.768  28.573  1.00  0.00     0.167 HD
ATOM     63  C   UNL A   1      46.302  30.090  28.643  1.00  0.00     0.074 A 
ATOM     64  C   UNL A   1      47.716  30.347  28.468  1.00  0.00     0.031 C 
ATOM     65  C   UNL A   1      45.389  31.031  28.987  1.00  0.00     0.037 A 
BRANCH  52  66
ATOM     66  C   UNL A   1      39.547  29.002  29.031  1.00  0.00     0.064 A 
ATOM     67  C   UNL A   1      38.911  28.917  30.279  1.00  0.00     0.173 A 
ATOM     68  C   UNL A   1      38.775  29.399  27.929  1.00  0.00     0.173 A 
ATOM     69  F   UNL A   1      39.601  28.533  31.364  1.00  0.00    -0.203 F 
ATOM     70  C   UNL A   1      37.548  29.169  30.409  1.00  0.00     0.198 A 
ATOM     71  C   UNL A   1      37.419  29.688  28.070  1.00  0.00     0.198 A 
ATOM     72  F   UNL A   1      39.331  29.505  26.714  1.00  0.00    -0.203 F 
ATOM     73  F   UNL A   1      36.950  29.009  31.597  1.00  0.00    -0.200 F 
ATOM     74  C   UNL A   1      36.804  29.559  29.306  1.00  0.00     0.200 A 
ATOM     75  F   UNL A   1      36.706  30.081  27.005  1.00  0.00    -0.200 F 
ATOM     76  F   UNL A   1      35.492  29.797  29.431  1.00  0.00    -0.200 F 
ENDBRANCH  52  66
BRANCH  53  77
ATOM     77  C   UNL A   1      49.124  26.424  27.723  1.00  0.00     0.064 A 
ATOM     78  C   UNL A   1      49.706  26.251  26.460  1.00  0.00     0.173 A 
ATOM     79  C   UNL A   1      49.956  26.250  28.836  1.00  0.00     0.173 A 
ATOM     80  F   UNL A   1      48.960  26.391  25.354  1.00  0.00    -0.203 F 
ATOM     81  C   UNL A   1      51.051  25.909  26.320  1.00  0.00     0.198 A 
ATOM     82  C   UNL A   1      51.316  25.981  28.693  1.00  0.00     0.198 A 
ATOM     83  F   UNL A   1      49.447  26.397  30.067  1.00  0.00    -0.203 F 
ATOM     84  F   UNL A   1      51.566  25.702  25.101  1.00  0.00    -0.200 F 
ATOM     85  C   UNL A   1      51.859  25.789  27.437  1.00  0.00     0.200 A 
ATOM     86  F   UNL A   1      52.114  25.943  29.767  1.00  0.00    -0.200 F 
ATOM     87  F   UNL A   1      53.160  25.494  27.308  1.00  0.00    -0.200 F 
ENDBRANCH  53  77
BRANCH  65  88
ATOM     88  C   UNL A   1      45.893  32.410  29.306  1.00  0.00     0.064 A 
ATOM     89  C   UNL A   1      45.921  33.436  28.353  1.00  0.00     0.173 A 
ATOM     90  C   UNL A   1      46.287  32.722  30.619  1.00  0.00     0.173 A 
ATOM     91  F   UNL A   1      45.574  33.187  27.082  1.00  0.00    -0.203 F 
ATOM     92  C   UNL A   1      46.333  34.722  28.698  1.00  0.00     0.198 A 
ATOM     93  C   UNL A   1      46.667  34.014  30.968  1.00  0.00     0.198 A 
ATOM     94  F   UNL A   1      46.275  31.776  31.571  1.00  0.00    -0.203 F 
ATOM     95  F   UNL A   1      46.388  35.680  27.763  1.00  0.00    -0.200 F 
ATOM     96  C   UNL A   1      46.694  35.011  30.006  1.00  0.00     0.200 A 
ATOM     97  F   UNL A   1      46.997  34.293  32.235  1.00  0.00    -0.200 F 
ATOM     98  F   UNL A   1      47.070  36.253  30.340  1.00  0.00    -0.200 F 
ENDBRANCH  65  88
ENDBRANCH  39  40
ENDBRANCH  31  34
ENDBRANCH  29  30
ENDBRANCH   1  29
TORSDOF 12
ENDMDL
