MODEL 1
REMARK VINA RESULT:     -12.6      0.000      0.000
REMARK SMILES CCCN1C(=O)/C(=C\c2ccc(OC)c(OC)c2C(=O)NCCCNC(=O)c2ccc(-c3c4nc(c(-c5c(F)c(F)c(F)c(F)c5F)c5ccc([nH]5)c(-c5c(F)c(F)c(F)c(F)c5F)c5nc(c(-c6c(F)c(F)c(F)c(F)c6F)c6ccc3[nH]6)C=C5)C=C4)cc2)S/C1=[NH+]\c1nccs1
REMARK SMILES IDX 22 1 21 2 19 3 20 4 18 6 9 7 10 8 11 9 15 10 12 11 8 12 4 13
REMARK SMILES IDX 5 14 92 15 6 16 7 17 91 18 93 19 3 21 2 22 1 23 94 24 95 25
REMARK SMILES IDX 98 26 96 27 97 28 16 29 17 30 13 31 14 32 23 33 24 34 25 35
REMARK SMILES IDX 26 36 27 38 28 39 29 40 90 41 30 42 89 43 31 44 32 45 33 46
REMARK SMILES IDX 83 47 34 48 88 49 82 50 84 51 35 52 87 53 81 54 80 55 36 57
REMARK SMILES IDX 68 58 48 59 67 60 49 61 52 62 66 63 85 64 50 65 51 66 65 68
REMARK SMILES IDX 86 69 53 70 37 71 38 72 46 73 39 74 40 75 44 76 47 77 41 78
REMARK SMILES IDX 42 79 45 80 43 81 69 82 70 83 78 84 71 85 72 86 76 87 79 88
REMARK SMILES IDX 73 89 74 90 77 91 75 92 54 93 55 94 63 95 56 96 57 97 61 98
REMARK SMILES IDX 64 99 58 100 59 101 62 102 60 103
REMARK H PARENT 21 5 93 20 25 37 84 56 52 67
REMARK Flexibility Score: inf
ROOT
ATOM      1  C   UNL A   1      34.872  22.859  25.360  1.00  0.00     0.118 C 
ENDROOT
BRANCH   1   2
ATOM      2  N   UNL A   1      34.010  23.573  26.262  1.00  0.00    -0.352 N 
ATOM      3  C   UNL A   1      33.127  24.570  25.918  1.00  0.00     0.255 C 
ATOM      4  O   UNL A   1      32.173  24.759  26.669  1.00  0.00    -0.269 OA
ATOM      5  H   UNL A   1      34.055  23.326  27.214  1.00  0.00     0.163 HD
BRANCH   3   6
ATOM      6  C   UNL A   1      33.324  25.402  24.696  1.00  0.00     0.092 A 
ATOM      7  C   UNL A   1      33.708  26.782  24.771  1.00  0.00    -0.007 A 
ATOM      8  C   UNL A   1      33.822  27.518  23.584  1.00  0.00     0.013 A 
ATOM      9  C   UNL A   1      33.654  26.903  22.346  1.00  0.00     0.051 A 
ATOM     10  C   UNL A   1      33.127  24.787  23.427  1.00  0.00     0.174 A 
ATOM     11  C   UNL A   1      33.344  25.545  22.260  1.00  0.00     0.161 A 
BRANCH   7  12
ATOM     12  C   UNL A   1      33.930  27.581  26.007  1.00  0.00     0.032 C 
ATOM     13  N   UNL A   1      31.749  30.445  26.113  1.00  0.00    -0.219 N 
ATOM     14  C   UNL A   1      32.021  29.152  25.722  1.00  0.00     0.321 C 
ATOM     15  C   UNL A   1      32.641  31.025  26.998  1.00  0.00     0.271 C 
ATOM     16  O   UNL A   1      31.413  28.448  24.940  1.00  0.00    -0.250 OA
ATOM     17  C   UNL A   1      33.241  28.665  26.394  1.00  0.00     0.100 C 
ATOM     18  S   UNL A   1      33.720  29.790  27.608  1.00  0.00    -0.012 SA
ATOM     19  N   UNL A   1      32.595  32.297  27.211  1.00  0.00    -0.228 N 
ATOM     20  H   UNL A   1      31.798  32.791  26.913  1.00  0.00     0.268 HD
BRANCH  13  21
ATOM     21  C   UNL A   1      30.658  31.244  25.565  1.00  0.00     0.206 C 
BRANCH  21  22
ATOM     22  C   UNL A   1      30.031  30.815  24.242  1.00  0.00     0.035 C 
ATOM     23  C   UNL A   1      28.762  31.576  23.878  1.00  0.00     0.007 C 
ENDBRANCH  21  22
ENDBRANCH  13  21
BRANCH  19  24
ATOM     24  C   UNL A   1      33.586  32.988  27.822  1.00  0.00     0.319 A 
ATOM     25  N   UNL A   1      34.869  32.746  27.615  1.00  0.00    -0.101 NA
ATOM     26  S   UNL A   1      33.284  34.464  28.676  1.00  0.00    -0.070 S 
ATOM     27  C   UNL A   1      35.657  33.738  28.164  1.00  0.00     0.219 A 
ATOM     28  C   UNL A   1      34.975  34.745  28.805  1.00  0.00     0.110 A 
ENDBRANCH  19  24
ENDBRANCH   7  12
BRANCH  10  29
ATOM     29  O   UNL A   1      32.483  23.586  23.226  1.00  0.00    -0.492 OA
ATOM     30  C   UNL A   1      31.078  23.532  23.446  1.00  0.00     0.278 C 
ENDBRANCH  10  29
BRANCH  11  31
ATOM     31  O   UNL A   1      33.191  25.096  20.970  1.00  0.00    -0.493 OA
ATOM     32  C   UNL A   1      32.170  25.749  20.221  1.00  0.00     0.278 C 
ENDBRANCH  11  31
ENDBRANCH   3   6
ENDBRANCH   1   2
BRANCH   1  33
ATOM     33  C   UNL A   1      36.034  22.130  25.984  1.00  0.00     0.042 C 
BRANCH  33  34
ATOM     34  C   UNL A   1      37.276  22.106  25.100  1.00  0.00     0.118 C 
BRANCH  34  35
ATOM     35  N   UNL A   1      38.326  21.228  25.617  1.00  0.00    -0.352 N 
ATOM     36  C   UNL A   1      39.546  21.523  26.172  1.00  0.00     0.251 C 
ATOM     37  H   UNL A   1      38.123  20.266  25.557  1.00  0.00     0.163 HD
ATOM     38  O   UNL A   1      40.509  20.782  25.996  1.00  0.00    -0.269 OA
BRANCH  36  39
ATOM     39  C   UNL A   1      39.742  22.744  26.966  1.00  0.00     0.039 A 
ATOM     40  C   UNL A   1      40.834  22.812  27.837  1.00  0.00     0.014 A 
ATOM     41  C   UNL A   1      38.894  23.832  26.822  1.00  0.00     0.014 A 
ATOM     42  C   UNL A   1      41.193  24.037  28.375  1.00  0.00     0.010 A 
ATOM     43  C   UNL A   1      39.370  25.076  27.163  1.00  0.00     0.010 A 
ATOM     44  C   UNL A   1      40.545  25.189  27.912  1.00  0.00    -0.014 A 
BRANCH  44  45
ATOM     45  C   UNL A   1      41.135  26.525  28.099  1.00  0.00     0.031 A 
ATOM     46  C   UNL A   1      42.514  26.802  27.588  1.00  0.00     0.074 A 
ATOM     47  C   UNL A   1      40.461  27.410  28.861  1.00  0.00     0.049 A 
ATOM     48  N   UNL A   1      43.260  27.858  27.769  1.00  0.00    -0.248 NA
ATOM     49  C   UNL A   1      43.173  25.725  26.828  1.00  0.00     0.031 C 
ATOM     50  C   UNL A   1      39.160  27.167  29.498  1.00  0.00     0.029 A 
ATOM     51  N   UNL A   1      40.771  28.688  29.239  1.00  0.00    -0.354 N 
ATOM     52  C   UNL A   1      44.475  27.559  27.171  1.00  0.00     0.074 A 
ATOM     53  C   UNL A   1      44.404  26.194  26.705  1.00  0.00     0.031 C 
ATOM     54  C   UNL A   1      38.755  28.279  30.127  1.00  0.00     0.029 A 
ATOM     55  C   UNL A   1      39.794  29.288  29.996  1.00  0.00     0.049 A 
ATOM     56  H   UNL A   1      41.613  29.134  28.993  1.00  0.00     0.167 HD
ATOM     57  C   UNL A   1      45.537  28.375  26.994  1.00  0.00     0.037 A 
ATOM     58  C   UNL A   1      39.752  30.524  30.525  1.00  0.00     0.037 A 
ATOM     59  C   UNL A   1      45.555  29.739  27.445  1.00  0.00     0.049 A 
ATOM     60  C   UNL A   1      40.931  31.421  30.281  1.00  0.00     0.074 A 
ATOM     61  C   UNL A   1      46.537  30.695  27.273  1.00  0.00     0.029 A 
ATOM     62  N   UNL A   1      44.526  30.339  28.163  1.00  0.00    -0.354 N 
ATOM     63  N   UNL A   1      42.043  31.164  29.633  1.00  0.00    -0.248 NA
ATOM     64  C   UNL A   1      40.853  32.776  30.833  1.00  0.00     0.031 C 
ATOM     65  C   UNL A   1      46.124  31.857  27.931  1.00  0.00     0.029 A 
ATOM     66  C   UNL A   1      44.858  31.649  28.459  1.00  0.00     0.049 A 
ATOM     67  H   UNL A   1      43.686  29.896  28.424  1.00  0.00     0.167 HD
ATOM     68  C   UNL A   1      42.787  32.332  29.674  1.00  0.00     0.074 A 
ATOM     69  C   UNL A   1      41.985  33.305  30.392  1.00  0.00     0.031 C 
ATOM     70  C   UNL A   1      44.021  32.583  29.171  1.00  0.00     0.037 A 
BRANCH  57  71
ATOM     71  C   UNL A   1      46.731  27.815  26.277  1.00  0.00     0.064 A 
ATOM     72  C   UNL A   1      47.846  27.318  26.974  1.00  0.00     0.173 A 
ATOM     73  C   UNL A   1      46.768  27.773  24.876  1.00  0.00     0.173 A 
ATOM     74  F   UNL A   1      47.875  27.352  28.315  1.00  0.00    -0.203 F 
ATOM     75  C   UNL A   1      48.963  26.836  26.296  1.00  0.00     0.198 A 
ATOM     76  C   UNL A   1      47.872  27.255  24.201  1.00  0.00     0.198 A 
ATOM     77  F   UNL A   1      45.736  28.238  24.157  1.00  0.00    -0.203 F 
ATOM     78  F   UNL A   1      50.038  26.430  26.985  1.00  0.00    -0.200 F 
ATOM     79  C   UNL A   1      48.972  26.797  24.911  1.00  0.00     0.200 A 
ATOM     80  F   UNL A   1      47.875  27.209  22.862  1.00  0.00    -0.200 F 
ATOM     81  F   UNL A   1      50.045  26.328  24.260  1.00  0.00    -0.200 F 
ENDBRANCH  57  71
BRANCH  58  82
ATOM     82  C   UNL A   1      38.555  30.981  31.281  1.00  0.00     0.064 A 
ATOM     83  C   UNL A   1      37.356  31.275  30.617  1.00  0.00     0.173 A 
ATOM     84  C   UNL A   1      38.574  31.121  32.677  1.00  0.00     0.173 A 
ATOM     85  F   UNL A   1      37.285  31.161  29.283  1.00  0.00    -0.203 F 
ATOM     86  C   UNL A   1      36.234  31.720  31.314  1.00  0.00     0.198 A 
ATOM     87  C   UNL A   1      37.442  31.534  33.377  1.00  0.00     0.198 A 
ATOM     88  F   UNL A   1      39.688  30.834  33.368  1.00  0.00    -0.203 F 
ATOM     89  F   UNL A   1      35.119  32.042  30.646  1.00  0.00    -0.200 F 
ATOM     90  C   UNL A   1      36.276  31.845  32.694  1.00  0.00     0.200 A 
ATOM     91  F   UNL A   1      37.479  31.631  34.713  1.00  0.00    -0.200 F 
ATOM     92  F   UNL A   1      35.196  32.271  33.364  1.00  0.00    -0.200 F 
ENDBRANCH  58  82
BRANCH  70  93
ATOM     93  C   UNL A   1      44.551  33.973  29.352  1.00  0.00     0.064 A 
ATOM     94  C   UNL A   1      44.294  34.984  28.416  1.00  0.00     0.173 A 
ATOM     95  C   UNL A   1      45.288  34.301  30.498  1.00  0.00     0.173 A 
ATOM     96  F   UNL A   1      43.606  34.711  27.296  1.00  0.00    -0.203 F 
ATOM     97  C   UNL A   1      44.785  36.271  28.607  1.00  0.00     0.198 A 
ATOM     98  C   UNL A   1      45.744  35.598  30.705  1.00  0.00     0.198 A 
ATOM     99  F   UNL A   1      45.551  33.369  31.425  1.00  0.00    -0.203 F 
ATOM    100  F   UNL A   1      44.579  37.210  27.673  1.00  0.00    -0.200 F 
ATOM    101  C   UNL A   1      45.501  36.579  29.755  1.00  0.00     0.200 A 
ATOM    102  F   UNL A   1      46.418  35.899  31.823  1.00  0.00    -0.200 F 
ATOM    103  F   UNL A   1      45.963  37.823  29.943  1.00  0.00    -0.200 F 
ENDBRANCH  70  93
ENDBRANCH  44  45
ENDBRANCH  36  39
ENDBRANCH  34  35
ENDBRANCH  33  34
ENDBRANCH   1  33
TORSDOF 16
ENDMDL
MODEL 2
REMARK VINA RESULT:     -12.2      2.354      8.130
REMARK SMILES CCCN1C(=O)/C(=C\c2ccc(OC)c(OC)c2C(=O)NCCCNC(=O)c2ccc(-c3c4nc(c(-c5c(F)c(F)c(F)c(F)c5F)c5ccc([nH]5)c(-c5c(F)c(F)c(F)c(F)c5F)c5nc(c(-c6c(F)c(F)c(F)c(F)c6F)c6ccc3[nH]6)C=C5)C=C4)cc2)S/C1=[NH+]\c1nccs1
REMARK SMILES IDX 22 1 21 2 19 3 20 4 18 6 9 7 10 8 11 9 15 10 12 11 8 12 4 13
REMARK SMILES IDX 5 14 92 15 6 16 7 17 91 18 93 19 3 21 2 22 1 23 94 24 95 25
REMARK SMILES IDX 98 26 96 27 97 28 16 29 17 30 13 31 14 32 23 33 24 34 25 35
REMARK SMILES IDX 26 36 27 38 28 39 29 40 90 41 30 42 89 43 31 44 32 45 33 46
REMARK SMILES IDX 83 47 34 48 88 49 82 50 84 51 35 52 87 53 81 54 80 55 36 57
REMARK SMILES IDX 68 58 48 59 67 60 49 61 52 62 66 63 85 64 50 65 51 66 65 68
REMARK SMILES IDX 86 69 53 70 37 71 38 72 46 73 39 74 40 75 44 76 47 77 41 78
REMARK SMILES IDX 42 79 45 80 43 81 69 82 70 83 78 84 71 85 72 86 76 87 79 88
REMARK SMILES IDX 73 89 74 90 77 91 75 92 54 93 55 94 63 95 56 96 57 97 61 98
REMARK SMILES IDX 64 99 58 100 59 101 62 102 60 103
REMARK H PARENT 21 5 93 20 25 37 84 56 52 67
REMARK Flexibility Score: inf
ROOT
ATOM      1  C   UNL A   1      36.235  22.645  24.658  1.00  0.00     0.118 C 
ENDROOT
BRANCH   1   2
ATOM      2  N   UNL A   1      35.604  22.600  25.949  1.00  0.00    -0.352 N 
ATOM      3  C   UNL A   1      34.701  21.654  26.375  1.00  0.00     0.255 C 
ATOM      4  O   UNL A   1      34.602  21.477  27.588  1.00  0.00    -0.269 OA
ATOM      5  H   UNL A   1      35.839  23.312  26.587  1.00  0.00     0.163 HD
BRANCH   3   6
ATOM      6  C   UNL A   1      33.861  20.884  25.413  1.00  0.00     0.092 A 
ATOM      7  C   UNL A   1      32.574  21.351  24.986  1.00  0.00    -0.007 A 
ATOM      8  C   UNL A   1      31.816  20.550  24.122  1.00  0.00     0.013 A 
ATOM      9  C   UNL A   1      32.335  19.363  23.612  1.00  0.00     0.051 A 
ATOM     10  C   UNL A   1      34.375  19.656  24.908  1.00  0.00     0.174 A 
ATOM     11  C   UNL A   1      33.613  18.932  23.969  1.00  0.00     0.161 A 
BRANCH   7  12
ATOM     12  C   UNL A   1      31.882  22.592  25.431  1.00  0.00     0.032 C 
ATOM     13  N   UNL A   1      32.781  25.397  23.358  1.00  0.00    -0.219 N 
ATOM     14  C   UNL A   1      32.576  24.045  23.533  1.00  0.00     0.321 C 
ATOM     15  C   UNL A   1      32.393  26.222  24.399  1.00  0.00     0.271 C 
ATOM     16  O   UNL A   1      32.857  23.128  22.787  1.00  0.00    -0.250 OA
ATOM     17  C   UNL A   1      31.937  23.795  24.840  1.00  0.00     0.100 C 
ATOM     18  S   UNL A   1      31.449  25.292  25.540  1.00  0.00    -0.012 SA
ATOM     19  N   UNL A   1      32.777  27.454  24.415  1.00  0.00    -0.228 N 
ATOM     20  H   UNL A   1      33.151  27.836  23.589  1.00  0.00     0.268 HD
BRANCH  13  21
ATOM     21  C   UNL A   1      33.471  25.967  22.207  1.00  0.00     0.206 C 
BRANCH  21  22
ATOM     22  C   UNL A   1      32.651  26.355  20.980  1.00  0.00     0.035 C 
ATOM     23  C   UNL A   1      32.670  25.319  19.863  1.00  0.00     0.007 C 
ENDBRANCH  21  22
ENDBRANCH  13  21
BRANCH  19  24
ATOM     24  C   UNL A   1      32.695  28.248  25.509  1.00  0.00     0.319 A 
ATOM     25  N   UNL A   1      33.516  28.143  26.540  1.00  0.00    -0.101 NA
ATOM     26  S   UNL A   1      31.727  29.683  25.532  1.00  0.00    -0.070 S 
ATOM     27  C   UNL A   1      33.373  29.215  27.400  1.00  0.00     0.219 A 
ATOM     28  C   UNL A   1      32.429  30.143  27.032  1.00  0.00     0.110 A 
ENDBRANCH  19  24
ENDBRANCH   7  12
BRANCH  10  29
ATOM     29  O   UNL A   1      35.435  18.964  25.450  1.00  0.00    -0.492 OA
ATOM     30  C   UNL A   1      36.539  18.657  24.606  1.00  0.00     0.278 C 
ENDBRANCH  10  29
BRANCH  11  31
ATOM     31  O   UNL A   1      33.970  17.735  23.398  1.00  0.00    -0.493 OA
ATOM     32  C   UNL A   1      33.352  16.585  23.971  1.00  0.00     0.278 C 
ENDBRANCH  11  31
ENDBRANCH   3   6
ENDBRANCH   1   2
BRANCH   1  33
ATOM     33  C   UNL A   1      37.514  21.863  24.511  1.00  0.00     0.042 C 
BRANCH  33  34
ATOM     34  C   UNL A   1      38.390  21.900  25.758  1.00  0.00     0.118 C 
BRANCH  34  35
ATOM     35  N   UNL A   1      38.985  20.602  26.075  1.00  0.00    -0.352 N 
ATOM     36  C   UNL A   1      40.297  20.196  26.081  1.00  0.00     0.251 C 
ATOM     37  H   UNL A   1      38.338  19.903  26.327  1.00  0.00     0.163 HD
ATOM     38  O   UNL A   1      40.598  19.048  25.769  1.00  0.00    -0.269 OA
BRANCH  36  39
ATOM     39  C   UNL A   1      41.376  21.129  26.433  1.00  0.00     0.039 A 
ATOM     40  C   UNL A   1      42.022  21.828  25.410  1.00  0.00     0.014 A 
ATOM     41  C   UNL A   1      41.719  21.356  27.758  1.00  0.00     0.014 A 
ATOM     42  C   UNL A   1      42.835  22.903  25.733  1.00  0.00     0.010 A 
ATOM     43  C   UNL A   1      42.332  22.544  28.076  1.00  0.00     0.010 A 
ATOM     44  C   UNL A   1      42.863  23.345  27.061  1.00  0.00    -0.014 A 
BRANCH  44  45
ATOM     45  C   UNL A   1      43.339  24.695  27.407  1.00  0.00     0.031 A 
ATOM     46  C   UNL A   1      42.383  25.692  27.983  1.00  0.00     0.074 A 
ATOM     47  C   UNL A   1      44.595  25.030  27.048  1.00  0.00     0.049 A 
ATOM     48  N   UNL A   1      42.567  26.961  28.225  1.00  0.00    -0.248 NA
ATOM     49  C   UNL A   1      41.016  25.219  28.265  1.00  0.00     0.031 C 
ATOM     50  C   UNL A   1      45.551  24.146  26.368  1.00  0.00     0.029 A 
ATOM     51  N   UNL A   1      45.288  26.201  27.195  1.00  0.00    -0.354 N 
ATOM     52  C   UNL A   1      41.338  27.436  28.659  1.00  0.00     0.074 A 
ATOM     53  C   UNL A   1      40.394  26.349  28.560  1.00  0.00     0.031 C 
ATOM     54  C   UNL A   1      46.721  24.782  26.220  1.00  0.00     0.029 A 
ATOM     55  C   UNL A   1      46.580  26.136  26.731  1.00  0.00     0.049 A 
ATOM     56  H   UNL A   1      44.899  27.013  27.594  1.00  0.00     0.167 HD
ATOM     57  C   UNL A   1      41.045  28.665  29.138  1.00  0.00     0.037 A 
ATOM     58  C   UNL A   1      47.541  27.077  26.722  1.00  0.00     0.037 A 
ATOM     59  C   UNL A   1      42.023  29.711  29.251  1.00  0.00     0.049 A 
ATOM     60  C   UNL A   1      47.196  28.422  27.294  1.00  0.00     0.074 A 
ATOM     61  C   UNL A   1      41.877  30.979  29.779  1.00  0.00     0.029 A 
ATOM     62  N   UNL A   1      43.341  29.599  28.823  1.00  0.00    -0.354 N 
ATOM     63  N   UNL A   1      46.055  28.840  27.791  1.00  0.00    -0.248 NA
ATOM     64  C   UNL A   1      48.265  29.424  27.311  1.00  0.00     0.031 C 
ATOM     65  C   UNL A   1      43.094  31.651  29.625  1.00  0.00     0.029 A 
ATOM     66  C   UNL A   1      44.017  30.783  29.058  1.00  0.00     0.049 A 
ATOM     67  H   UNL A   1      43.736  28.795  28.412  1.00  0.00     0.167 HD
ATOM     68  C   UNL A   1      46.274  30.143  28.205  1.00  0.00     0.074 A 
ATOM     69  C   UNL A   1      47.666  30.437  27.921  1.00  0.00     0.031 C 
ATOM     70  C   UNL A   1      45.408  31.024  28.765  1.00  0.00     0.037 A 
BRANCH  57  71
ATOM     71  C   UNL A   1      39.633  28.919  29.580  1.00  0.00     0.064 A 
ATOM     72  C   UNL A   1      38.660  29.417  28.698  1.00  0.00     0.173 A 
ATOM     73  C   UNL A   1      39.242  28.664  30.903  1.00  0.00     0.173 A 
ATOM     74  F   UNL A   1      38.982  29.699  27.425  1.00  0.00    -0.203 F 
ATOM     75  C   UNL A   1      37.363  29.683  29.130  1.00  0.00     0.198 A 
ATOM     76  C   UNL A   1      37.934  28.895  31.323  1.00  0.00     0.198 A 
ATOM     77  F   UNL A   1      40.129  28.192  31.792  1.00  0.00    -0.203 F 
ATOM     78  F   UNL A   1      36.474  30.220  28.284  1.00  0.00    -0.200 F 
ATOM     79  C   UNL A   1      36.999  29.415  30.440  1.00  0.00     0.200 A 
ATOM     80  F   UNL A   1      37.580  28.626  32.587  1.00  0.00    -0.200 F 
ATOM     81  F   UNL A   1      35.750  29.666  30.854  1.00  0.00    -0.200 F 
ENDBRANCH  57  71
BRANCH  58  82
ATOM     82  C   UNL A   1      48.900  26.764  26.204  1.00  0.00     0.064 A 
ATOM     83  C   UNL A   1      49.860  26.161  27.028  1.00  0.00     0.173 A 
ATOM     84  C   UNL A   1      49.265  27.043  24.879  1.00  0.00     0.173 A 
ATOM     85  F   UNL A   1      49.564  25.877  28.305  1.00  0.00    -0.203 F 
ATOM     86  C   UNL A   1      51.142  25.880  26.557  1.00  0.00     0.198 A 
ATOM     87  C   UNL A   1      50.536  26.730  24.399  1.00  0.00     0.198 A 
ATOM     88  F   UNL A   1      48.380  27.601  24.039  1.00  0.00    -0.203 F 
ATOM     89  F   UNL A   1      52.054  25.350  27.384  1.00  0.00    -0.200 F 
ATOM     90  C   UNL A   1      51.478  26.160  25.242  1.00  0.00     0.200 A 
ATOM     91  F   UNL A   1      50.849  26.981  23.120  1.00  0.00    -0.200 F 
ATOM     92  F   UNL A   1      52.709  25.886  24.790  1.00  0.00    -0.200 F 
ENDBRANCH  58  82
BRANCH  70  93
ATOM     93  C   UNL A   1      45.961  32.366  29.137  1.00  0.00     0.064 A 
ATOM     94  C   UNL A   1      46.556  32.596  30.385  1.00  0.00     0.173 A 
ATOM     95  C   UNL A   1      45.929  33.421  28.213  1.00  0.00     0.173 A 
ATOM     96  F   UNL A   1      46.594  31.620  31.306  1.00  0.00    -0.203 F 
ATOM     97  C   UNL A   1      47.073  33.845  30.707  1.00  0.00     0.198 A 
ATOM     98  C   UNL A   1      46.483  34.658  28.524  1.00  0.00     0.198 A 
ATOM     99  F   UNL A   1      45.378  33.246  27.004  1.00  0.00    -0.203 F 
ATOM    100  F   UNL A   1      47.586  34.061  31.927  1.00  0.00    -0.200 F 
ATOM    101  C   UNL A   1      47.045  34.871  29.774  1.00  0.00     0.200 A 
ATOM    102  F   UNL A   1      46.472  35.641  27.616  1.00  0.00    -0.200 F 
ATOM    103  F   UNL A   1      47.555  36.072  30.083  1.00  0.00    -0.200 F 
ENDBRANCH  70  93
ENDBRANCH  44  45
ENDBRANCH  36  39
ENDBRANCH  34  35
ENDBRANCH  33  34
ENDBRANCH   1  33
TORSDOF 16
ENDMDL
MODEL 3
REMARK VINA RESULT:     -12.0      2.249      4.301
REMARK SMILES CCCN1C(=O)/C(=C\c2ccc(OC)c(OC)c2C(=O)NCCCNC(=O)c2ccc(-c3c4nc(c(-c5c(F)c(F)c(F)c(F)c5F)c5ccc([nH]5)c(-c5c(F)c(F)c(F)c(F)c5F)c5nc(c(-c6c(F)c(F)c(F)c(F)c6F)c6ccc3[nH]6)C=C5)C=C4)cc2)S/C1=[NH+]\c1nccs1
REMARK SMILES IDX 22 1 21 2 19 3 20 4 18 6 9 7 10 8 11 9 15 10 12 11 8 12 4 13
REMARK SMILES IDX 5 14 92 15 6 16 7 17 91 18 93 19 3 21 2 22 1 23 94 24 95 25
REMARK SMILES IDX 98 26 96 27 97 28 16 29 17 30 13 31 14 32 23 33 24 34 25 35
REMARK SMILES IDX 26 36 27 38 28 39 29 40 90 41 30 42 89 43 31 44 32 45 33 46
REMARK SMILES IDX 83 47 34 48 88 49 82 50 84 51 35 52 87 53 81 54 80 55 36 57
REMARK SMILES IDX 68 58 48 59 67 60 49 61 52 62 66 63 85 64 50 65 51 66 65 68
REMARK SMILES IDX 86 69 53 70 37 71 38 72 46 73 39 74 40 75 44 76 47 77 41 78
REMARK SMILES IDX 42 79 45 80 43 81 69 82 70 83 78 84 71 85 72 86 76 87 79 88
REMARK SMILES IDX 73 89 74 90 77 91 75 92 54 93 55 94 63 95 56 96 57 97 61 98
REMARK SMILES IDX 64 99 58 100 59 101 62 102 60 103
REMARK H PARENT 21 5 93 20 25 37 84 56 52 67
REMARK Flexibility Score: inf
ROOT
ATOM      1  C   UNL A   1      36.364  22.464  24.609  1.00  0.00     0.118 C 
ENDROOT
BRANCH   1   2
ATOM      2  N   UNL A   1      35.726  22.487  25.898  1.00  0.00    -0.352 N 
ATOM      3  C   UNL A   1      34.795  21.585  26.357  1.00  0.00     0.255 C 
ATOM      4  O   UNL A   1      34.687  21.459  27.574  1.00  0.00    -0.269 OA
ATOM      5  H   UNL A   1      35.980  23.216  26.509  1.00  0.00     0.163 HD
BRANCH   3   6
ATOM      6  C   UNL A   1      33.936  20.803  25.420  1.00  0.00     0.092 A 
ATOM      7  C   UNL A   1      32.637  21.259  25.022  1.00  0.00    -0.007 A 
ATOM      8  C   UNL A   1      31.863  20.447  24.182  1.00  0.00     0.013 A 
ATOM      9  C   UNL A   1      32.376  19.259  23.669  1.00  0.00     0.051 A 
ATOM     10  C   UNL A   1      34.445  19.574  24.913  1.00  0.00     0.174 A 
ATOM     11  C   UNL A   1      33.665  18.838  23.999  1.00  0.00     0.161 A 
BRANCH   7  12
ATOM     12  C   UNL A   1      31.949  22.500  25.473  1.00  0.00     0.032 C 
ATOM     13  N   UNL A   1      32.802  25.298  23.373  1.00  0.00    -0.219 N 
ATOM     14  C   UNL A   1      32.604  23.947  23.557  1.00  0.00     0.321 C 
ATOM     15  C   UNL A   1      32.430  26.127  24.417  1.00  0.00     0.271 C 
ATOM     16  O   UNL A   1      32.876  23.028  22.810  1.00  0.00    -0.250 OA
ATOM     17  C   UNL A   1      31.989  23.700  24.876  1.00  0.00     0.100 C 
ATOM     18  S   UNL A   1      31.508  25.199  25.578  1.00  0.00    -0.012 SA
ATOM     19  N   UNL A   1      32.810  27.360  24.421  1.00  0.00    -0.228 N 
ATOM     20  H   UNL A   1      33.168  27.741  23.587  1.00  0.00     0.268 HD
BRANCH  13  21
ATOM     21  C   UNL A   1      33.470  25.866  22.207  1.00  0.00     0.206 C 
BRANCH  21  22
ATOM     22  C   UNL A   1      32.623  26.272  21.004  1.00  0.00     0.035 C 
ATOM     23  C   UNL A   1      32.666  25.280  19.848  1.00  0.00     0.007 C 
ENDBRANCH  21  22
ENDBRANCH  13  21
BRANCH  19  24
ATOM     24  C   UNL A   1      32.744  28.159  25.512  1.00  0.00     0.319 A 
ATOM     25  N   UNL A   1      33.589  28.067  26.525  1.00  0.00    -0.101 NA
ATOM     26  S   UNL A   1      31.763  29.585  25.550  1.00  0.00    -0.070 S 
ATOM     27  C   UNL A   1      33.455  29.141  27.383  1.00  0.00     0.219 A 
ATOM     28  C   UNL A   1      32.493  30.059  27.032  1.00  0.00     0.110 A 
ENDBRANCH  19  24
ENDBRANCH   7  12
BRANCH  10  29
ATOM     29  O   UNL A   1      35.522  18.892  25.435  1.00  0.00    -0.492 OA
ATOM     30  C   UNL A   1      36.693  18.773  24.635  1.00  0.00     0.278 C 
ENDBRANCH  10  29
BRANCH  11  31
ATOM     31  O   UNL A   1      34.015  17.638  23.429  1.00  0.00    -0.493 OA
ATOM     32  C   UNL A   1      33.387  16.493  23.999  1.00  0.00     0.278 C 
ENDBRANCH  11  31
ENDBRANCH   3   6
ENDBRANCH   1   2
BRANCH   1  33
ATOM     33  C   UNL A   1      37.696  21.765  24.535  1.00  0.00     0.042 C 
BRANCH  33  34
ATOM     34  C   UNL A   1      38.516  21.892  25.814  1.00  0.00     0.118 C 
BRANCH  34  35
ATOM     35  N   UNL A   1      39.202  20.652  26.176  1.00  0.00    -0.352 N 
ATOM     36  C   UNL A   1      40.538  20.337  26.180  1.00  0.00     0.251 C 
ATOM     37  H   UNL A   1      38.607  19.922  26.466  1.00  0.00     0.163 HD
ATOM     38  O   UNL A   1      40.914  19.199  25.911  1.00  0.00    -0.269 OA
BRANCH  36  39
ATOM     39  C   UNL A   1      41.556  21.354  26.477  1.00  0.00     0.039 A 
ATOM     40  C   UNL A   1      42.145  22.047  25.415  1.00  0.00     0.014 A 
ATOM     41  C   UNL A   1      41.893  21.665  27.786  1.00  0.00     0.014 A 
ATOM     42  C   UNL A   1      42.886  23.187  25.680  1.00  0.00     0.010 A 
ATOM     43  C   UNL A   1      42.427  22.905  28.042  1.00  0.00     0.010 A 
ATOM     44  C   UNL A   1      42.895  23.692  26.986  1.00  0.00    -0.014 A 
BRANCH  44  45
ATOM     45  C   UNL A   1      43.283  25.085  27.264  1.00  0.00     0.031 A 
ATOM     46  C   UNL A   1      44.693  25.523  27.018  1.00  0.00     0.074 A 
ATOM     47  C   UNL A   1      42.380  25.880  27.874  1.00  0.00     0.049 A 
ATOM     48  N   UNL A   1      45.265  26.656  27.324  1.00  0.00    -0.248 NA
ATOM     49  C   UNL A   1      45.602  24.536  26.410  1.00  0.00     0.031 C 
ATOM     50  C   UNL A   1      41.018  25.484  28.257  1.00  0.00     0.029 A 
ATOM     51  N   UNL A   1      42.465  27.181  28.287  1.00  0.00    -0.354 N 
ATOM     52  C   UNL A   1      46.597  26.504  26.969  1.00  0.00     0.074 A 
ATOM     53  C   UNL A   1      46.771  25.145  26.515  1.00  0.00     0.031 C 
ATOM     54  C   UNL A   1      40.378  26.536  28.785  1.00  0.00     0.029 A 
ATOM     55  C   UNL A   1      41.300  27.659  28.839  1.00  0.00     0.049 A 
ATOM     56  H   UNL A   1      43.282  27.724  28.199  1.00  0.00     0.167 HD
ATOM     57  C   UNL A   1      47.573  27.438  26.985  1.00  0.00     0.037 A 
ATOM     58  C   UNL A   1      41.018  28.876  29.336  1.00  0.00     0.037 A 
ATOM     59  C   UNL A   1      47.350  28.791  27.414  1.00  0.00     0.049 A 
ATOM     60  C   UNL A   1      42.113  29.905  29.307  1.00  0.00     0.074 A 
ATOM     61  C   UNL A   1      48.231  29.854  27.418  1.00  0.00     0.029 A 
ATOM     62  N   UNL A   1      46.142  29.262  27.918  1.00  0.00    -0.354 N 
ATOM     63  N   UNL A   1      43.349  29.783  28.883  1.00  0.00    -0.248 NA
ATOM     64  C   UNL A   1      41.777  31.237  29.817  1.00  0.00     0.031 C 
ATOM     65  C   UNL A   1      47.571  30.956  27.972  1.00  0.00     0.029 A 
ATOM     66  C   UNL A   1      46.260  30.599  28.255  1.00  0.00     0.049 A 
ATOM     67  H   UNL A   1      45.324  28.723  28.021  1.00  0.00     0.167 HD
ATOM     68  C   UNL A   1      43.933  31.028  29.049  1.00  0.00     0.074 A 
ATOM     69  C   UNL A   1      42.904  31.896  29.591  1.00  0.00     0.031 C 
ATOM     70  C   UNL A   1      45.203  31.424  28.785  1.00  0.00     0.037 A 
BRANCH  57  71
ATOM     71  C   UNL A   1      48.937  27.026  26.513  1.00  0.00     0.064 A 
ATOM     72  C   UNL A   1      49.316  27.133  25.164  1.00  0.00     0.173 A 
ATOM     73  C   UNL A   1      49.882  26.515  27.416  1.00  0.00     0.173 A 
ATOM     74  F   UNL A   1      48.446  27.594  24.252  1.00  0.00    -0.203 F 
ATOM     75  C   UNL A   1      50.571  26.712  24.733  1.00  0.00     0.198 A 
ATOM     76  C   UNL A   1      51.151  26.131  26.987  1.00  0.00     0.198 A 
ATOM     77  F   UNL A   1      49.575  26.385  28.715  1.00  0.00    -0.203 F 
ATOM     78  F   UNL A   1      50.882  26.763  23.431  1.00  0.00    -0.200 F 
ATOM     79  C   UNL A   1      51.491  26.219  25.646  1.00  0.00     0.200 A 
ATOM     80  F   UNL A   1      52.041  25.664  27.872  1.00  0.00    -0.200 F 
ATOM     81  F   UNL A   1      52.700  25.820  25.231  1.00  0.00    -0.200 F 
ENDBRANCH  57  71
BRANCH  58  82
ATOM     82  C   UNL A   1      39.657  29.186  29.847  1.00  0.00     0.064 A 
ATOM     83  C   UNL A   1      39.352  29.045  31.208  1.00  0.00     0.173 A 
ATOM     84  C   UNL A   1      38.637  29.643  28.998  1.00  0.00     0.173 A 
ATOM     85  F   UNL A   1      40.289  28.607  32.062  1.00  0.00    -0.203 F 
ATOM     86  C   UNL A   1      38.074  29.316  31.695  1.00  0.00     0.198 A 
ATOM     87  C   UNL A   1      37.369  29.947  29.491  1.00  0.00     0.198 A 
ATOM     88  F   UNL A   1      38.877  29.818  27.690  1.00  0.00    -0.203 F 
ATOM     89  F   UNL A   1      37.799  29.122  32.991  1.00  0.00    -0.200 F 
ATOM     90  C   UNL A   1      37.084  29.772  30.837  1.00  0.00     0.200 A 
ATOM     91  F   UNL A   1      36.422  30.410  28.663  1.00  0.00    -0.200 F 
ATOM     92  F   UNL A   1      35.857  30.036  31.306  1.00  0.00    -0.200 F 
ENDBRANCH  58  82
BRANCH  70  93
ATOM     93  C   UNL A   1      45.526  32.864  29.044  1.00  0.00     0.064 A 
ATOM     94  C   UNL A   1      46.067  33.288  30.266  1.00  0.00     0.173 A 
ATOM     95  C   UNL A   1      45.329  33.821  28.038  1.00  0.00     0.173 A 
ATOM     96  F   UNL A   1      46.258  32.409  31.262  1.00  0.00    -0.203 F 
ATOM     97  C   UNL A   1      46.371  34.627  30.482  1.00  0.00     0.198 A 
ATOM     98  C   UNL A   1      45.670  35.153  28.245  1.00  0.00     0.198 A 
ATOM     99  F   UNL A   1      44.822  33.461  26.850  1.00  0.00    -0.203 F 
ATOM    100  F   UNL A   1      46.832  35.022  31.677  1.00  0.00    -0.200 F 
ATOM    101  C   UNL A   1      46.181  35.556  29.470  1.00  0.00     0.200 A 
ATOM    102  F   UNL A   1      45.505  36.045  27.260  1.00  0.00    -0.200 F 
ATOM    103  F   UNL A   1      46.486  36.845  29.677  1.00  0.00    -0.200 F 
ENDBRANCH  70  93
ENDBRANCH  44  45
ENDBRANCH  36  39
ENDBRANCH  34  35
ENDBRANCH  33  34
ENDBRANCH   1  33
TORSDOF 16
ENDMDL
