MODEL 1
REMARK VINA RESULT:     -12.9      0.000      0.000
REMARK SMILES C[C@H]1[C@H](C(=O)NCCCNC(=O)c2ccc(-c3c4nc(c(-c5c(F)c(F)c(F)c(F)c5F)c5ccc([nH]5)c(-c5c(F)c(F)c(F)c(F)c5F)c5nc(c(-c6c(F)c(F)c(F)c(F)c6F)c6ccc3[nH]6)C=C5)C=C4)cc2)CC[N@@H+]1[C@@H](c1ccccc1)c1ccco1
REMARK SMILES IDX 8 1 7 2 6 3 4 4 5 5 3 7 1 8 2 9 78 10 76 11 77 12 79 14
REMARK SMILES IDX 80 15 81 16 85 17 82 18 84 19 83 20 86 21 87 22 90 23 88 24
REMARK SMILES IDX 89 25 9 26 10 27 11 28 12 30 13 31 14 32 75 33 15 34 74 35
REMARK SMILES IDX 16 36 17 37 18 38 68 39 19 40 73 41 67 42 69 43 20 44 72 45
REMARK SMILES IDX 66 46 65 47 21 49 53 50 33 51 52 52 34 53 37 54 51 55 70 56
REMARK SMILES IDX 35 57 36 58 50 60 71 61 38 62 22 63 23 64 31 65 24 66 25 67
REMARK SMILES IDX 29 68 32 69 26 70 27 71 30 72 28 73 54 74 55 75 63 76 56 77
REMARK SMILES IDX 57 78 61 79 64 80 58 81 59 82 62 83 60 84 39 85 40 86 48 87
REMARK SMILES IDX 41 88 42 89 46 90 49 91 43 92 44 93 47 94 45 95
REMARK H PARENT 6 6 78 13 10 29 69 48 37 59
REMARK Flexibility Score: inf
ROOT
ATOM      1  C   UNL A   1      33.518  29.214  23.410  1.00  0.00     0.042 C 
ENDROOT
BRANCH   1   2
ATOM      2  C   UNL A   1      32.489  28.322  22.723  1.00  0.00     0.117 C 
BRANCH   2   3
ATOM      3  N   UNL A   1      33.095  27.212  22.026  1.00  0.00    -0.356 N 
ATOM      4  C   UNL A   1      33.152  25.897  22.362  1.00  0.00     0.229 C 
ATOM      5  O   UNL A   1      33.680  25.145  21.535  1.00  0.00    -0.275 OA
ATOM      6  H   UNL A   1      33.533  27.443  21.175  1.00  0.00     0.163 HD
BRANCH   4   7
ATOM      7  C   UNL A   1      32.571  25.313  23.650  1.00  0.00     0.142 C 
ATOM      8  C   UNL A   1      30.752  23.594  23.487  1.00  0.00     0.076 C 
ATOM      9  C   UNL A   1      32.260  23.805  23.689  1.00  0.00     0.194 C 
ATOM     10  N   UNL A   1      32.627  23.333  25.043  1.00  0.00    -0.319 N 
ATOM     11  C   UNL A   1      33.393  25.571  24.903  1.00  0.00     0.081 C 
ATOM     12  C   UNL A   1      32.885  24.506  25.868  1.00  0.00     0.264 C 
ATOM     13  H   UNL A   1      31.833  22.840  25.452  1.00  0.00     0.349 HD
BRANCH  10  14
ATOM     14  C   UNL A   1      33.540  22.166  25.146  1.00  0.00     0.283 C 
BRANCH  14  15
ATOM     15  C   UNL A   1      33.072  20.771  24.702  1.00  0.00     0.017 A 
ATOM     16  C   UNL A   1      33.213  19.693  25.600  1.00  0.00     0.010 A 
ATOM     17  C   UNL A   1      32.631  20.462  23.404  1.00  0.00     0.010 A 
ATOM     18  C   UNL A   1      32.833  18.396  25.244  1.00  0.00     0.001 A 
ATOM     19  C   UNL A   1      32.216  19.172  23.057  1.00  0.00     0.001 A 
ATOM     20  C   UNL A   1      32.305  18.142  23.983  1.00  0.00     0.000 A 
ENDBRANCH  14  15
BRANCH  14  21
ATOM     21  C   UNL A   1      34.930  22.459  24.621  1.00  0.00     0.165 A 
ATOM     22  C   UNL A   1      35.435  22.678  23.354  1.00  0.00     0.052 A 
ATOM     23  O   UNL A   1      35.913  22.701  25.545  1.00  0.00    -0.463 OA
ATOM     24  C   UNL A   1      36.772  23.120  23.522  1.00  0.00     0.042 A 
ATOM     25  C   UNL A   1      37.011  23.120  24.873  1.00  0.00     0.195 A 
ENDBRANCH  14  21
ENDBRANCH  10  14
ENDBRANCH   4   7
ENDBRANCH   2   3
ENDBRANCH   1   2
BRANCH   1  26
ATOM     26  C   UNL A   1      33.492  29.118  24.930  1.00  0.00     0.118 C 
BRANCH  26  27
ATOM     27  N   UNL A   1      32.853  30.263  25.578  1.00  0.00    -0.352 N 
ATOM     28  C   UNL A   1      33.149  30.991  26.700  1.00  0.00     0.251 C 
ATOM     29  H   UNL A   1      32.044  30.575  25.111  1.00  0.00     0.163 HD
ATOM     30  O   UNL A   1      32.341  31.846  27.082  1.00  0.00    -0.269 OA
BRANCH  28  31
ATOM     31  C   UNL A   1      34.380  30.776  27.491  1.00  0.00     0.039 A 
ATOM     32  C   UNL A   1      35.265  31.848  27.669  1.00  0.00     0.014 A 
ATOM     33  C   UNL A   1      34.718  29.525  28.000  1.00  0.00     0.014 A 
ATOM     34  C   UNL A   1      36.450  31.675  28.393  1.00  0.00     0.010 A 
ATOM     35  C   UNL A   1      35.835  29.379  28.814  1.00  0.00     0.010 A 
ATOM     36  C   UNL A   1      36.731  30.443  28.998  1.00  0.00    -0.014 A 
BRANCH  36  37
ATOM     37  C   UNL A   1      37.979  30.200  29.768  1.00  0.00     0.031 A 
ATOM     38  C   UNL A   1      39.021  29.263  29.214  1.00  0.00     0.074 A 
ATOM     39  C   UNL A   1      38.137  30.735  30.994  1.00  0.00     0.049 A 
ATOM     40  N   UNL A   1      40.083  28.760  29.792  1.00  0.00    -0.248 NA
ATOM     41  C   UNL A   1      38.811  28.788  27.836  1.00  0.00     0.031 C 
ATOM     42  C   UNL A   1      37.186  31.625  31.660  1.00  0.00     0.029 A 
ATOM     43  N   UNL A   1      39.150  30.584  31.909  1.00  0.00    -0.354 N 
ATOM     44  C   UNL A   1      40.638  27.885  28.865  1.00  0.00     0.074 A 
ATOM     45  C   UNL A   1      39.763  27.878  27.713  1.00  0.00     0.031 C 
ATOM     46  C   UNL A   1      37.664  31.951  32.872  1.00  0.00     0.029 A 
ATOM     47  C   UNL A   1      38.930  31.257  33.086  1.00  0.00     0.049 A 
ATOM     48  H   UNL A   1      39.955  30.046  31.738  1.00  0.00     0.167 HD
ATOM     49  C   UNL A   1      41.787  27.173  28.954  1.00  0.00     0.037 A 
ATOM     50  C   UNL A   1      39.662  31.295  34.217  1.00  0.00     0.037 A 
ATOM     51  C   UNL A   1      42.677  27.223  30.084  1.00  0.00     0.049 A 
ATOM     52  C   UNL A   1      40.947  30.515  34.284  1.00  0.00     0.074 A 
ATOM     53  C   UNL A   1      43.897  26.591  30.251  1.00  0.00     0.029 A 
ATOM     54  N   UNL A   1      42.445  27.959  31.237  1.00  0.00    -0.354 N 
ATOM     55  N   UNL A   1      41.483  29.723  33.387  1.00  0.00    -0.248 NA
ATOM     56  C   UNL A   1      41.731  30.639  35.520  1.00  0.00     0.031 C 
ATOM     57  C   UNL A   1      44.384  26.914  31.523  1.00  0.00     0.029 A 
ATOM     58  C   UNL A   1      43.493  27.788  32.126  1.00  0.00     0.049 A 
ATOM     59  H   UNL A   1      41.652  28.520  31.399  1.00  0.00     0.167 HD
ATOM     60  C   UNL A   1      42.678  29.276  33.937  1.00  0.00     0.074 A 
ATOM     61  C   UNL A   1      42.796  29.902  35.238  1.00  0.00     0.031 C 
ATOM     62  C   UNL A   1      43.593  28.423  33.415  1.00  0.00     0.037 A 
BRANCH  49  63
ATOM     63  C   UNL A   1      42.145  26.286  27.794  1.00  0.00     0.064 A 
ATOM     64  C   UNL A   1      43.049  26.700  26.801  1.00  0.00     0.173 A 
ATOM     65  C   UNL A   1      41.595  25.001  27.681  1.00  0.00     0.173 A 
ATOM     66  F   UNL A   1      43.596  27.924  26.853  1.00  0.00    -0.203 F 
ATOM     67  C   UNL A   1      43.355  25.877  25.720  1.00  0.00     0.198 A 
ATOM     68  C   UNL A   1      41.932  24.167  26.617  1.00  0.00     0.198 A 
ATOM     69  F   UNL A   1      40.731  24.551  28.603  1.00  0.00    -0.203 F 
ATOM     70  F   UNL A   1      44.169  26.320  24.753  1.00  0.00    -0.200 F 
ATOM     71  C   UNL A   1      42.802  24.609  25.633  1.00  0.00     0.200 A 
ATOM     72  F   UNL A   1      41.407  22.935  26.542  1.00  0.00    -0.200 F 
ATOM     73  F   UNL A   1      43.100  23.816  24.594  1.00  0.00    -0.200 F 
ENDBRANCH  49  63
BRANCH  50  74
ATOM     74  C   UNL A   1      39.205  32.119  35.367  1.00  0.00     0.064 A 
ATOM     75  C   UNL A   1      39.518  33.483  35.443  1.00  0.00     0.173 A 
ATOM     76  C   UNL A   1      38.443  31.566  36.407  1.00  0.00     0.173 A 
ATOM     77  F   UNL A   1      40.261  34.053  34.483  1.00  0.00    -0.203 F 
ATOM     78  C   UNL A   1      39.106  34.258  36.525  1.00  0.00     0.198 A 
ATOM     79  C   UNL A   1      38.006  32.349  37.474  1.00  0.00     0.198 A 
ATOM     80  F   UNL A   1      38.110  30.267  36.380  1.00  0.00    -0.203 F 
ATOM     81  F   UNL A   1      39.458  35.549  36.593  1.00  0.00    -0.200 F 
ATOM     82  C   UNL A   1      38.345  33.692  37.536  1.00  0.00     0.200 A 
ATOM     83  F   UNL A   1      37.256  31.803  38.441  1.00  0.00    -0.200 F 
ATOM     84  F   UNL A   1      37.941  34.440  38.572  1.00  0.00    -0.200 F 
ENDBRANCH  50  74
BRANCH  62  85
ATOM     85  C   UNL A   1      44.817  28.145  34.240  1.00  0.00     0.064 A 
ATOM     86  C   UNL A   1      45.963  28.951  34.152  1.00  0.00     0.173 A 
ATOM     87  C   UNL A   1      44.834  27.074  35.146  1.00  0.00     0.173 A 
ATOM     88  F   UNL A   1      46.002  29.977  33.290  1.00  0.00    -0.203 F 
ATOM     89  C   UNL A   1      47.091  28.673  34.919  1.00  0.00     0.198 A 
ATOM     90  C   UNL A   1      45.952  26.821  35.935  1.00  0.00     0.198 A 
ATOM     91  F   UNL A   1      43.761  26.280  35.275  1.00  0.00    -0.203 F 
ATOM     92  F   UNL A   1      48.194  29.423  34.778  1.00  0.00    -0.200 F 
ATOM     93  C   UNL A   1      47.083  27.614  35.813  1.00  0.00     0.200 A 
ATOM     94  F   UNL A   1      45.937  25.806  36.810  1.00  0.00    -0.200 F 
ATOM     95  F   UNL A   1      48.169  27.351  36.553  1.00  0.00    -0.200 F 
ENDBRANCH  62  85
ENDBRANCH  36  37
ENDBRANCH  28  31
ENDBRANCH  26  27
ENDBRANCH   1  26
TORSDOF 13
ENDMDL
MODEL 2
REMARK VINA RESULT:     -12.8      4.425      9.578
REMARK SMILES C[C@H]1[C@H](C(=O)NCCCNC(=O)c2ccc(-c3c4nc(c(-c5c(F)c(F)c(F)c(F)c5F)c5ccc([nH]5)c(-c5c(F)c(F)c(F)c(F)c5F)c5nc(c(-c6c(F)c(F)c(F)c(F)c6F)c6ccc3[nH]6)C=C5)C=C4)cc2)CC[N@@H+]1[C@@H](c1ccccc1)c1ccco1
REMARK SMILES IDX 8 1 7 2 6 3 4 4 5 5 3 7 1 8 2 9 78 10 76 11 77 12 79 14
REMARK SMILES IDX 80 15 81 16 85 17 82 18 84 19 83 20 86 21 87 22 90 23 88 24
REMARK SMILES IDX 89 25 9 26 10 27 11 28 12 30 13 31 14 32 75 33 15 34 74 35
REMARK SMILES IDX 16 36 17 37 18 38 68 39 19 40 73 41 67 42 69 43 20 44 72 45
REMARK SMILES IDX 66 46 65 47 21 49 53 50 33 51 52 52 34 53 37 54 51 55 70 56
REMARK SMILES IDX 35 57 36 58 50 60 71 61 38 62 22 63 23 64 31 65 24 66 25 67
REMARK SMILES IDX 29 68 32 69 26 70 27 71 30 72 28 73 54 74 55 75 63 76 56 77
REMARK SMILES IDX 57 78 61 79 64 80 58 81 59 82 62 83 60 84 39 85 40 86 48 87
REMARK SMILES IDX 41 88 42 89 46 90 49 91 43 92 44 93 47 94 45 95
REMARK H PARENT 6 6 78 13 10 29 69 48 37 59
REMARK Flexibility Score: inf
ROOT
ATOM      1  C   UNL A   1      37.788  19.597  24.931  1.00  0.00     0.042 C 
ENDROOT
BRANCH   1   2
ATOM      2  C   UNL A   1      36.511  20.427  25.022  1.00  0.00     0.117 C 
BRANCH   2   3
ATOM      3  N   UNL A   1      36.538  21.584  24.159  1.00  0.00    -0.356 N 
ATOM      4  C   UNL A   1      35.586  22.526  23.933  1.00  0.00     0.229 C 
ATOM      5  O   UNL A   1      35.908  23.459  23.186  1.00  0.00    -0.275 OA
ATOM      6  H   UNL A   1      37.375  21.710  23.657  1.00  0.00     0.163 HD
BRANCH   4   7
ATOM      7  C   UNL A   1      34.198  22.518  24.574  1.00  0.00     0.142 C 
ATOM      8  C   UNL A   1      33.959  23.263  26.957  1.00  0.00     0.076 C 
ATOM      9  C   UNL A   1      33.812  23.695  25.490  1.00  0.00     0.194 C 
ATOM     10  N   UNL A   1      32.386  23.988  25.223  1.00  0.00    -0.319 N 
ATOM     11  C   UNL A   1      33.039  22.390  23.598  1.00  0.00     0.081 C 
ATOM     12  C   UNL A   1      31.854  22.902  24.410  1.00  0.00     0.264 C 
ATOM     13  H   UNL A   1      31.875  23.988  26.105  1.00  0.00     0.349 HD
BRANCH  10  14
ATOM     14  C   UNL A   1      32.017  25.386  24.886  1.00  0.00     0.283 C 
BRANCH  14  15
ATOM     15  C   UNL A   1      32.434  26.544  25.807  1.00  0.00     0.017 A 
ATOM     16  C   UNL A   1      31.466  27.114  26.657  1.00  0.00     0.010 A 
ATOM     17  C   UNL A   1      33.692  27.170  25.767  1.00  0.00     0.010 A 
ATOM     18  C   UNL A   1      31.776  28.188  27.496  1.00  0.00     0.001 A 
ATOM     19  C   UNL A   1      34.016  28.221  26.632  1.00  0.00     0.001 A 
ATOM     20  C   UNL A   1      33.061  28.720  27.506  1.00  0.00     0.000 A 
ENDBRANCH  14  15
BRANCH  14  21
ATOM     21  C   UNL A   1      32.282  25.730  23.436  1.00  0.00     0.165 A 
ATOM     22  C   UNL A   1      33.438  25.836  22.685  1.00  0.00     0.052 A 
ATOM     23  O   UNL A   1      31.197  25.844  22.607  1.00  0.00    -0.463 OA
ATOM     24  C   UNL A   1      33.032  25.970  21.333  1.00  0.00     0.042 A 
ATOM     25  C   UNL A   1      31.659  25.965  21.341  1.00  0.00     0.195 A 
ENDBRANCH  14  21
ENDBRANCH  10  14
ENDBRANCH   4   7
ENDBRANCH   2   3
ENDBRANCH   1   2
BRANCH   1  26
ATOM     26  C   UNL A   1      38.917  20.115  25.814  1.00  0.00     0.118 C 
BRANCH  26  27
ATOM     27  N   UNL A   1      40.101  19.258  25.812  1.00  0.00    -0.352 N 
ATOM     28  C   UNL A   1      41.430  19.494  26.048  1.00  0.00     0.251 C 
ATOM     29  H   UNL A   1      39.903  18.318  25.597  1.00  0.00     0.163 HD
ATOM     30  O   UNL A   1      42.239  18.580  25.850  1.00  0.00    -0.269 OA
BRANCH  28  31
ATOM     31  C   UNL A   1      41.941  20.806  26.501  1.00  0.00     0.039 A 
ATOM     32  C   UNL A   1      42.095  21.033  27.876  1.00  0.00     0.014 A 
ATOM     33  C   UNL A   1      42.203  21.841  25.608  1.00  0.00     0.014 A 
ATOM     34  C   UNL A   1      42.554  22.271  28.341  1.00  0.00     0.010 A 
ATOM     35  C   UNL A   1      42.767  23.029  26.059  1.00  0.00     0.010 A 
ATOM     36  C   UNL A   1      42.923  23.271  27.433  1.00  0.00    -0.014 A 
BRANCH  36  37
ATOM     37  C   UNL A   1      43.407  24.606  27.872  1.00  0.00     0.031 A 
ATOM     38  C   UNL A   1      42.407  25.678  28.221  1.00  0.00     0.074 A 
ATOM     39  C   UNL A   1      44.723  24.889  27.865  1.00  0.00     0.049 A 
ATOM     40  N   UNL A   1      42.594  26.955  28.440  1.00  0.00    -0.248 NA
ATOM     41  C   UNL A   1      40.995  25.264  28.284  1.00  0.00     0.031 C 
ATOM     42  C   UNL A   1      45.790  23.954  27.508  1.00  0.00     0.029 A 
ATOM     43  N   UNL A   1      45.385  26.059  28.144  1.00  0.00    -0.354 N 
ATOM     44  C   UNL A   1      41.328  27.497  28.625  1.00  0.00     0.074 A 
ATOM     45  C   UNL A   1      40.377  26.424  28.431  1.00  0.00     0.031 C 
ATOM     46  C   UNL A   1      46.973  24.582  27.601  1.00  0.00     0.029 A 
ATOM     47  C   UNL A   1      46.746  25.974  27.977  1.00  0.00     0.049 A 
ATOM     48  H   UNL A   1      44.929  26.881  28.436  1.00  0.00     0.167 HD
ATOM     49  C   UNL A   1      40.988  28.766  28.954  1.00  0.00     0.037 A 
ATOM     50  C   UNL A   1      47.700  26.917  28.097  1.00  0.00     0.037 A 
ATOM     51  C   UNL A   1      41.942  29.816  29.193  1.00  0.00     0.049 A 
ATOM     52  C   UNL A   1      47.301  28.315  28.487  1.00  0.00     0.074 A 
ATOM     53  C   UNL A   1      41.710  31.121  29.592  1.00  0.00     0.029 A 
ATOM     54  N   UNL A   1      43.317  29.676  29.065  1.00  0.00    -0.354 N 
ATOM     55  N   UNL A   1      46.104  28.807  28.699  1.00  0.00    -0.248 NA
ATOM     56  C   UNL A   1      48.388  29.288  28.660  1.00  0.00     0.031 C 
ATOM     57  C   UNL A   1      42.942  31.781  29.667  1.00  0.00     0.029 A 
ATOM     58  C   UNL A   1      43.945  30.873  29.365  1.00  0.00     0.049 A 
ATOM     59  H   UNL A   1      43.777  28.847  28.799  1.00  0.00     0.167 HD
ATOM     60  C   UNL A   1      46.294  30.135  29.056  1.00  0.00     0.074 A 
ATOM     61  C   UNL A   1      47.724  30.367  29.050  1.00  0.00     0.031 C 
ATOM     62  C   UNL A   1      45.371  31.081  29.357  1.00  0.00     0.037 A 
BRANCH  49  63
ATOM     63  C   UNL A   1      39.523  29.082  29.079  1.00  0.00     0.064 A 
ATOM     64  C   UNL A   1      38.864  29.043  30.319  1.00  0.00     0.173 A 
ATOM     65  C   UNL A   1      38.772  29.447  27.953  1.00  0.00     0.173 A 
ATOM     66  F   UNL A   1      39.531  28.688  31.428  1.00  0.00    -0.203 F 
ATOM     67  C   UNL A   1      37.501  29.316  30.417  1.00  0.00     0.198 A 
ATOM     68  C   UNL A   1      37.418  29.756  28.061  1.00  0.00     0.198 A 
ATOM     69  F   UNL A   1      39.351  29.508  26.743  1.00  0.00    -0.203 F 
ATOM     70  F   UNL A   1      36.883  29.207  31.601  1.00  0.00    -0.200 F 
ATOM     71  C   UNL A   1      36.782  29.679  29.290  1.00  0.00     0.200 A 
ATOM     72  F   UNL A   1      36.726  30.120  26.971  1.00  0.00    -0.200 F 
ATOM     73  F   UNL A   1      35.472  29.946  29.386  1.00  0.00    -0.200 F 
ENDBRANCH  49  63
BRANCH  50  74
ATOM     74  C   UNL A   1      49.125  26.563  27.868  1.00  0.00     0.064 A 
ATOM     75  C   UNL A   1      49.640  26.463  26.568  1.00  0.00     0.173 A 
ATOM     76  C   UNL A   1      50.003  26.325  28.936  1.00  0.00     0.173 A 
ATOM     77  F   UNL A   1      48.836  26.661  25.513  1.00  0.00    -0.203 F 
ATOM     78  C   UNL A   1      50.971  26.117  26.345  1.00  0.00     0.198 A 
ATOM     79  C   UNL A   1      51.341  26.008  28.712  1.00  0.00     0.198 A 
ATOM     80  F   UNL A   1      49.562  26.415  30.200  1.00  0.00    -0.203 F 
ATOM     81  F   UNL A   1      51.425  25.984  25.091  1.00  0.00    -0.200 F 
ATOM     82  C   UNL A   1      51.822  25.897  27.416  1.00  0.00     0.200 A 
ATOM     83  F   UNL A   1      52.164  25.813  29.751  1.00  0.00    -0.200 F 
ATOM     84  F   UNL A   1      53.104  25.573  27.202  1.00  0.00    -0.200 F 
ENDBRANCH  50  74
BRANCH  62  85
ATOM     85  C   UNL A   1      45.882  32.441  29.738  1.00  0.00     0.064 A 
ATOM     86  C   UNL A   1      46.059  33.455  28.784  1.00  0.00     0.173 A 
ATOM     87  C   UNL A   1      46.172  32.739  31.078  1.00  0.00     0.173 A 
ATOM     88  F   UNL A   1      45.810  33.214  27.489  1.00  0.00    -0.203 F 
ATOM     89  C   UNL A   1      46.541  34.707  29.155  1.00  0.00     0.198 A 
ATOM     90  C   UNL A   1      46.621  34.003  31.448  1.00  0.00     0.198 A 
ATOM     91  F   UNL A   1      46.009  31.808  32.029  1.00  0.00    -0.203 F 
ATOM     92  F   UNL A   1      46.757  35.643  28.219  1.00  0.00    -0.200 F 
ATOM     93  C   UNL A   1      46.815  34.983  30.486  1.00  0.00     0.200 A 
ATOM     94  F   UNL A   1      46.871  34.272  32.738  1.00  0.00    -0.200 F 
ATOM     95  F   UNL A   1      47.275  36.190  30.841  1.00  0.00    -0.200 F 
ENDBRANCH  62  85
ENDBRANCH  36  37
ENDBRANCH  28  31
ENDBRANCH  26  27
ENDBRANCH   1  26
TORSDOF 13
ENDMDL
MODEL 3
REMARK VINA RESULT:     -12.8      0.178      1.947
REMARK SMILES C[C@H]1[C@H](C(=O)NCCCNC(=O)c2ccc(-c3c4nc(c(-c5c(F)c(F)c(F)c(F)c5F)c5ccc([nH]5)c(-c5c(F)c(F)c(F)c(F)c5F)c5nc(c(-c6c(F)c(F)c(F)c(F)c6F)c6ccc3[nH]6)C=C5)C=C4)cc2)CC[N@@H+]1[C@@H](c1ccccc1)c1ccco1
REMARK SMILES IDX 8 1 7 2 6 3 4 4 5 5 3 7 1 8 2 9 78 10 76 11 77 12 79 14
REMARK SMILES IDX 80 15 81 16 85 17 82 18 84 19 83 20 86 21 87 22 90 23 88 24
REMARK SMILES IDX 89 25 9 26 10 27 11 28 12 30 13 31 14 32 75 33 15 34 74 35
REMARK SMILES IDX 16 36 17 37 18 38 68 39 19 40 73 41 67 42 69 43 20 44 72 45
REMARK SMILES IDX 66 46 65 47 21 49 53 50 33 51 52 52 34 53 37 54 51 55 70 56
REMARK SMILES IDX 35 57 36 58 50 60 71 61 38 62 22 63 23 64 31 65 24 66 25 67
REMARK SMILES IDX 29 68 32 69 26 70 27 71 30 72 28 73 54 74 55 75 63 76 56 77
REMARK SMILES IDX 57 78 61 79 64 80 58 81 59 82 62 83 60 84 39 85 40 86 48 87
REMARK SMILES IDX 41 88 42 89 46 90 49 91 43 92 44 93 47 94 45 95
REMARK H PARENT 6 6 78 13 10 29 69 48 37 59
REMARK Flexibility Score: inf
ROOT
ATOM      1  C   UNL A   1      33.656  29.006  23.502  1.00  0.00     0.042 C 
ENDROOT
BRANCH   1   2
ATOM      2  C   UNL A   1      32.582  28.226  22.750  1.00  0.00     0.117 C 
BRANCH   2   3
ATOM      3  N   UNL A   1      33.113  27.072  22.064  1.00  0.00    -0.356 N 
ATOM      4  C   UNL A   1      33.178  25.774  22.461  1.00  0.00     0.229 C 
ATOM      5  O   UNL A   1      33.626  24.972  21.633  1.00  0.00    -0.275 OA
ATOM      6  H   UNL A   1      33.484  27.252  21.170  1.00  0.00     0.163 HD
BRANCH   4   7
ATOM      7  C   UNL A   1      32.696  25.265  23.820  1.00  0.00     0.142 C 
ATOM      8  C   UNL A   1      30.780  23.647  23.896  1.00  0.00     0.076 C 
ATOM      9  C   UNL A   1      32.310  23.779  23.944  1.00  0.00     0.194 C 
ATOM     10  N   UNL A   1      32.782  23.330  25.274  1.00  0.00    -0.319 N 
ATOM     11  C   UNL A   1      33.649  25.517  24.978  1.00  0.00     0.081 C 
ATOM     12  C   UNL A   1      33.181  24.513  26.026  1.00  0.00     0.264 C 
ATOM     13  H   UNL A   1      32.007  22.897  25.775  1.00  0.00     0.349 HD
BRANCH  10  14
ATOM     14  C   UNL A   1      33.637  22.118  25.333  1.00  0.00     0.283 C 
BRANCH  14  15
ATOM     15  C   UNL A   1      33.116  20.772  24.805  1.00  0.00     0.017 A 
ATOM     16  C   UNL A   1      33.172  19.646  25.651  1.00  0.00     0.010 A 
ATOM     17  C   UNL A   1      32.704  20.550  23.479  1.00  0.00     0.010 A 
ATOM     18  C   UNL A   1      32.740  18.389  25.220  1.00  0.00     0.001 A 
ATOM     19  C   UNL A   1      32.237  19.301  23.055  1.00  0.00     0.001 A 
ATOM     20  C   UNL A   1      32.243  18.224  23.931  1.00  0.00     0.000 A 
ENDBRANCH  14  15
BRANCH  14  21
ATOM     21  C   UNL A   1      35.051  22.372  24.853  1.00  0.00     0.165 A 
ATOM     22  C   UNL A   1      35.584  22.725  23.628  1.00  0.00     0.052 A 
ATOM     23  O   UNL A   1      36.041  22.406  25.800  1.00  0.00    -0.463 OA
ATOM     24  C   UNL A   1      36.949  23.035  23.855  1.00  0.00     0.042 A 
ATOM     25  C   UNL A   1      37.174  22.828  25.193  1.00  0.00     0.195 A 
ENDBRANCH  14  21
ENDBRANCH  10  14
ENDBRANCH   4   7
ENDBRANCH   2   3
ENDBRANCH   1   2
BRANCH   1  26
ATOM     26  C   UNL A   1      33.523  28.923  25.018  1.00  0.00     0.118 C 
BRANCH  26  27
ATOM     27  N   UNL A   1      32.901  30.102  25.616  1.00  0.00    -0.352 N 
ATOM     28  C   UNL A   1      33.210  30.876  26.703  1.00  0.00     0.251 C 
ATOM     29  H   UNL A   1      32.094  30.403  25.139  1.00  0.00     0.163 HD
ATOM     30  O   UNL A   1      32.414  31.757  27.050  1.00  0.00    -0.269 OA
BRANCH  28  31
ATOM     31  C   UNL A   1      34.442  30.682  27.499  1.00  0.00     0.039 A 
ATOM     32  C   UNL A   1      35.322  31.762  27.657  1.00  0.00     0.014 A 
ATOM     33  C   UNL A   1      34.786  29.442  28.030  1.00  0.00     0.014 A 
ATOM     34  C   UNL A   1      36.508  31.608  28.384  1.00  0.00     0.010 A 
ATOM     35  C   UNL A   1      35.905  29.316  28.847  1.00  0.00     0.010 A 
ATOM     36  C   UNL A   1      36.795  30.388  29.011  1.00  0.00    -0.014 A 
BRANCH  36  37
ATOM     37  C   UNL A   1      38.044  30.166  29.786  1.00  0.00     0.031 A 
ATOM     38  C   UNL A   1      39.105  29.249  29.234  1.00  0.00     0.074 A 
ATOM     39  C   UNL A   1      38.188  30.700  31.013  1.00  0.00     0.049 A 
ATOM     40  N   UNL A   1      40.173  28.763  29.814  1.00  0.00    -0.248 NA
ATOM     41  C   UNL A   1      38.908  28.773  27.853  1.00  0.00     0.031 C 
ATOM     42  C   UNL A   1      37.219  31.572  31.678  1.00  0.00     0.029 A 
ATOM     43  N   UNL A   1      39.199  30.565  31.932  1.00  0.00    -0.354 N 
ATOM     44  C   UNL A   1      40.747  27.901  28.888  1.00  0.00     0.074 A 
ATOM     45  C   UNL A   1      39.877  27.881  27.732  1.00  0.00     0.031 C 
ATOM     46  C   UNL A   1      37.686  31.903  32.892  1.00  0.00     0.029 A 
ATOM     47  C   UNL A   1      38.964  31.231  33.110  1.00  0.00     0.049 A 
ATOM     48  H   UNL A   1      40.015  30.042  31.763  1.00  0.00     0.167 HD
ATOM     49  C   UNL A   1      41.908  27.209  28.979  1.00  0.00     0.037 A 
ATOM     50  C   UNL A   1      39.690  31.279  34.243  1.00  0.00     0.037 A 
ATOM     51  C   UNL A   1      42.793  27.272  30.112  1.00  0.00     0.049 A 
ATOM     52  C   UNL A   1      40.988  30.522  34.314  1.00  0.00     0.074 A 
ATOM     53  C   UNL A   1      44.023  26.662  30.283  1.00  0.00     0.029 A 
ATOM     54  N   UNL A   1      42.544  28.001  31.267  1.00  0.00    -0.354 N 
ATOM     55  N   UNL A   1      41.542  29.742  33.417  1.00  0.00    -0.248 NA
ATOM     56  C   UNL A   1      41.766  30.658  35.553  1.00  0.00     0.031 C 
ATOM     57  C   UNL A   1      44.500  26.989  31.558  1.00  0.00     0.029 A 
ATOM     58  C   UNL A   1      43.591  27.846  32.159  1.00  0.00     0.049 A 
ATOM     59  H   UNL A   1      41.740  28.547  31.427  1.00  0.00     0.167 HD
ATOM     60  C   UNL A   1      42.742  29.316  33.970  1.00  0.00     0.074 A 
ATOM     61  C   UNL A   1      42.844  29.941  35.273  1.00  0.00     0.031 C 
ATOM     62  C   UNL A   1      43.675  28.480  33.451  1.00  0.00     0.037 A 
BRANCH  49  63
ATOM     63  C   UNL A   1      42.287  26.332  27.819  1.00  0.00     0.064 A 
ATOM     64  C   UNL A   1      41.760  25.038  27.668  1.00  0.00     0.173 A 
ATOM     65  C   UNL A   1      43.173  26.793  26.834  1.00  0.00     0.173 A 
ATOM     66  F   UNL A   1      40.919  24.541  28.587  1.00  0.00    -0.203 F 
ATOM     67  C   UNL A   1      42.138  24.228  26.600  1.00  0.00     0.198 A 
ATOM     68  C   UNL A   1      43.520  25.994  25.747  1.00  0.00     0.198 A 
ATOM     69  F   UNL A   1      43.703  28.023  26.922  1.00  0.00    -0.203 F 
ATOM     70  F   UNL A   1      41.671  22.975  26.516  1.00  0.00    -0.200 F 
ATOM     71  C   UNL A   1      43.011  24.709  25.637  1.00  0.00     0.200 A 
ATOM     72  F   UNL A   1      44.354  26.465  24.809  1.00  0.00    -0.200 F 
ATOM     73  F   UNL A   1      43.370  23.930  24.607  1.00  0.00    -0.200 F 
ENDBRANCH  49  63
BRANCH  50  74
ATOM     74  C   UNL A   1      39.214  32.092  35.394  1.00  0.00     0.064 A 
ATOM     75  C   UNL A   1      38.454  31.511  36.418  1.00  0.00     0.173 A 
ATOM     76  C   UNL A   1      39.511  33.459  35.499  1.00  0.00     0.173 A 
ATOM     77  F   UNL A   1      38.125  30.212  36.353  1.00  0.00    -0.203 F 
ATOM     78  C   UNL A   1      37.992  32.269  37.492  1.00  0.00     0.198 A 
ATOM     79  C   UNL A   1      39.074  34.209  36.588  1.00  0.00     0.198 A 
ATOM     80  F   UNL A   1      40.242  34.062  34.549  1.00  0.00    -0.203 F 
ATOM     81  F   UNL A   1      37.229  31.697  38.433  1.00  0.00    -0.200 F 
ATOM     82  C   UNL A   1      38.308  33.616  37.580  1.00  0.00     0.200 A 
ATOM     83  F   UNL A   1      39.396  35.507  36.677  1.00  0.00    -0.200 F 
ATOM     84  F   UNL A   1      37.871  34.343  38.617  1.00  0.00    -0.200 F 
ENDBRANCH  50  74
BRANCH  62  85
ATOM     85  C   UNL A   1      44.901  28.222  34.279  1.00  0.00     0.064 A 
ATOM     86  C   UNL A   1      44.971  27.144  35.175  1.00  0.00     0.173 A 
ATOM     87  C   UNL A   1      46.028  29.048  34.154  1.00  0.00     0.173 A 
ATOM     88  F   UNL A   1      43.915  26.334  35.341  1.00  0.00    -0.203 F 
ATOM     89  C   UNL A   1      46.113  26.925  35.940  1.00  0.00     0.198 A 
ATOM     90  C   UNL A   1      47.180  28.805  34.896  1.00  0.00     0.198 A 
ATOM     91  F   UNL A   1      46.016  30.085  33.304  1.00  0.00    -0.203 F 
ATOM     92  F   UNL A   1      46.137  25.923  36.831  1.00  0.00    -0.200 F 
ATOM     93  C   UNL A   1      47.218  27.750  35.796  1.00  0.00     0.200 A 
ATOM     94  F   UNL A   1      48.252  29.595  34.744  1.00  0.00    -0.200 F 
ATOM     95  F   UNL A   1      48.318  27.535  36.530  1.00  0.00    -0.200 F 
ENDBRANCH  62  85
ENDBRANCH  36  37
ENDBRANCH  28  31
ENDBRANCH  26  27
ENDBRANCH   1  26
TORSDOF 13
ENDMDL
