MODEL 1
REMARK VINA RESULT:     -12.3      0.000      0.000
REMARK SMILES CC[C@H](C)[C@H](NS(=O)(=O)c1ccc(C)cc1)C(=O)NCCCNC(=O)c1ccc(-c2c3nc(c(-c4c(F)c(F)c(F)c(F)c4F)c4ccc([nH]4)c(-c4c(F)c(F)c(F)c(F)c4F)c4nc(c(-c5c(F)c(F)c(F)c(F)c5F)c5ccc2[nH]5)C=C4)C=C3)cc1
REMARK SMILES IDX 20 1 19 2 17 3 18 4 5 6 3 7 4 8 2 9 1 10 6 11 7 13 8 14 9 15
REMARK SMILES IDX 10 16 11 17 16 18 12 19 15 20 13 21 14 22 21 23 22 24 23 25
REMARK SMILES IDX 24 26 25 28 26 29 27 30 88 31 28 32 87 33 29 34 30 35 31 36
REMARK SMILES IDX 81 37 32 38 86 39 80 40 82 41 33 42 85 43 79 44 78 45 34 47
REMARK SMILES IDX 66 48 46 49 65 50 47 51 50 52 64 53 83 54 48 55 49 56 63 58
REMARK SMILES IDX 84 59 51 60 35 61 36 62 44 63 37 64 38 65 42 66 45 67 39 68
REMARK SMILES IDX 40 69 43 70 41 71 67 72 68 73 76 74 69 75 70 76 74 77 77 78
REMARK SMILES IDX 71 79 72 80 75 81 73 82 52 83 53 84 61 85 54 86 55 87 59 88
REMARK SMILES IDX 62 89 56 90 57 91 60 92 58 93
REMARK H PARENT 19 5 6 12 23 27 82 46 50 57
REMARK Flexibility Score: inf
ROOT
ATOM      1  C   UNL A   1      32.104  30.804  26.642  1.00  0.00     0.117 C 
ENDROOT
BRANCH   1   2
ATOM      2  N   UNL A   1      31.757  29.653  27.425  1.00  0.00    -0.355 N 
ATOM      3  C   UNL A   1      31.506  28.378  27.064  1.00  0.00     0.238 C 
ATOM      4  O   UNL A   1      31.102  27.654  27.988  1.00  0.00    -0.273 OA
ATOM      5  H   UNL A   1      31.691  29.823  28.392  1.00  0.00     0.163 HD
BRANCH   3   6
ATOM      6  C   UNL A   1      31.788  27.771  25.688  1.00  0.00     0.161 C 
BRANCH   6   7
ATOM      7  C   UNL A   1      33.172  27.075  25.469  1.00  0.00     0.013 C 
ATOM      8  C   UNL A   1      34.385  27.877  25.895  1.00  0.00     0.010 C 
BRANCH   7   9
ATOM      9  C   UNL A   1      33.285  25.599  25.918  1.00  0.00     0.002 C 
ATOM     10  C   UNL A   1      34.472  24.814  25.369  1.00  0.00     0.004 C 
ENDBRANCH   7   9
ENDBRANCH   6   7
BRANCH   6  11
ATOM     11  N   UNL A   1      31.177  28.161  24.389  1.00  0.00    -0.198 NA
ATOM     12  H   UNL A   1      31.271  29.178  24.386  1.00  0.00     0.142 HD
BRANCH  11  13
ATOM     13  S   UNL A   1      31.479  27.748  22.804  1.00  0.00     0.241 S 
ATOM     14  O   UNL A   1      30.268  28.089  22.101  1.00  0.00    -0.207 OA
ATOM     15  O   UNL A   1      32.732  28.360  22.416  1.00  0.00    -0.207 OA
BRANCH  13  16
ATOM     16  C   UNL A   1      31.613  25.971  22.713  1.00  0.00     0.082 A 
ATOM     17  C   UNL A   1      32.652  25.369  22.013  1.00  0.00     0.022 A 
ATOM     18  C   UNL A   1      30.676  25.156  23.356  1.00  0.00     0.022 A 
ATOM     19  C   UNL A   1      32.903  24.003  22.162  1.00  0.00     0.005 A 
ATOM     20  C   UNL A   1      30.915  23.776  23.477  1.00  0.00     0.005 A 
ATOM     21  C   UNL A   1      32.076  23.204  22.944  1.00  0.00    -0.051 A 
ATOM     22  C   UNL A   1      32.427  21.761  23.170  1.00  0.00     0.044 C 
ENDBRANCH  13  16
ENDBRANCH  11  13
ENDBRANCH   6  11
ENDBRANCH   3   6
ENDBRANCH   1   2
BRANCH   1  23
ATOM     23  C   UNL A   1      33.525  31.225  26.944  1.00  0.00     0.042 C 
BRANCH  23  24
ATOM     24  C   UNL A   1      33.662  32.253  28.044  1.00  0.00     0.118 C 
BRANCH  24  25
ATOM     25  N   UNL A   1      35.025  32.605  28.456  1.00  0.00    -0.352 N 
ATOM     26  C   UNL A   1      36.165  31.839  28.701  1.00  0.00     0.251 C 
ATOM     27  H   UNL A   1      35.162  33.571  28.586  1.00  0.00     0.163 HD
ATOM     28  O   UNL A   1      37.234  32.393  28.941  1.00  0.00    -0.269 OA
BRANCH  26  29
ATOM     29  C   UNL A   1      36.174  30.365  28.501  1.00  0.00     0.039 A 
ATOM     30  C   UNL A   1      36.276  29.677  29.721  1.00  0.00     0.014 A 
ATOM     31  C   UNL A   1      36.851  29.909  27.393  1.00  0.00     0.014 A 
ATOM     32  C   UNL A   1      37.441  28.981  29.980  1.00  0.00     0.010 A 
ATOM     33  C   UNL A   1      38.071  29.345  27.677  1.00  0.00     0.010 A 
ATOM     34  C   UNL A   1      38.409  29.009  28.999  1.00  0.00    -0.014 A 
BRANCH  34  35
ATOM     35  C   UNL A   1      39.809  28.696  29.194  1.00  0.00     0.031 A 
ATOM     36  C   UNL A   1      40.189  27.324  28.823  1.00  0.00     0.074 A 
ATOM     37  C   UNL A   1      40.719  29.663  29.464  1.00  0.00     0.049 A 
ATOM     38  N   UNL A   1      41.343  26.821  29.035  1.00  0.00    -0.248 NA
ATOM     39  C   UNL A   1      39.270  26.386  28.184  1.00  0.00     0.031 C 
ATOM     40  C   UNL A   1      42.172  29.605  29.278  1.00  0.00     0.029 A 
ATOM     41  N   UNL A   1      40.526  30.881  30.144  1.00  0.00    -0.354 N 
ATOM     42  C   UNL A   1      41.423  25.640  28.338  1.00  0.00     0.074 A 
ATOM     43  C   UNL A   1      40.094  25.393  27.854  1.00  0.00     0.031 C 
ATOM     44  C   UNL A   1      42.759  30.517  30.071  1.00  0.00     0.029 A 
ATOM     45  C   UNL A   1      41.714  31.080  30.899  1.00  0.00     0.049 A 
ATOM     46  H   UNL A   1      39.737  31.469  30.104  1.00  0.00     0.167 HD
ATOM     47  C   UNL A   1      42.661  25.098  28.192  1.00  0.00     0.037 A 
ATOM     48  C   UNL A   1      41.693  31.035  32.263  1.00  0.00     0.037 A 
ATOM     49  C   UNL A   1      43.612  25.836  29.027  1.00  0.00     0.049 A 
ATOM     50  C   UNL A   1      42.532  29.912  32.838  1.00  0.00     0.074 A 
ATOM     51  C   UNL A   1      44.532  26.841  28.782  1.00  0.00     0.029 A 
ATOM     52  N   UNL A   1      43.394  25.843  30.399  1.00  0.00    -0.354 N 
ATOM     53  N   UNL A   1      42.939  28.871  32.163  1.00  0.00    -0.248 NA
ATOM     54  C   UNL A   1      42.984  29.883  34.220  1.00  0.00     0.031 C 
ATOM     55  C   UNL A   1      44.888  27.425  30.032  1.00  0.00     0.029 A 
ATOM     56  C   UNL A   1      44.201  26.761  31.035  1.00  0.00     0.049 A 
ATOM     57  H   UNL A   1      42.745  25.265  30.861  1.00  0.00     0.167 HD
ATOM     58  C   UNL A   1      43.678  28.035  32.973  1.00  0.00     0.074 A 
ATOM     59  C   UNL A   1      43.679  28.732  34.247  1.00  0.00     0.031 C 
ATOM     60  C   UNL A   1      44.190  26.850  32.495  1.00  0.00     0.037 A 
BRANCH  47  61
ATOM     61  C   UNL A   1      43.060  24.046  27.188  1.00  0.00     0.064 A 
ATOM     62  C   UNL A   1      42.644  22.710  27.380  1.00  0.00     0.173 A 
ATOM     63  C   UNL A   1      43.877  24.244  26.058  1.00  0.00     0.173 A 
ATOM     64  F   UNL A   1      41.829  22.368  28.386  1.00  0.00    -0.203 F 
ATOM     65  C   UNL A   1      43.057  21.665  26.550  1.00  0.00     0.198 A 
ATOM     66  C   UNL A   1      44.315  23.195  25.245  1.00  0.00     0.198 A 
ATOM     67  F   UNL A   1      44.254  25.457  25.651  1.00  0.00    -0.203 F 
ATOM     68  F   UNL A   1      42.629  20.419  26.794  1.00  0.00    -0.200 F 
ATOM     69  C   UNL A   1      43.908  21.904  25.492  1.00  0.00     0.200 A 
ATOM     70  F   UNL A   1      45.134  23.453  24.214  1.00  0.00    -0.200 F 
ATOM     71  F   UNL A   1      44.316  20.901  24.705  1.00  0.00    -0.200 F 
ENDBRANCH  47  61
BRANCH  48  72
ATOM     72  C   UNL A   1      40.403  31.559  32.804  1.00  0.00     0.064 A 
ATOM     73  C   UNL A   1      40.120  32.920  32.559  1.00  0.00     0.173 A 
ATOM     74  C   UNL A   1      39.318  30.704  33.020  1.00  0.00     0.173 A 
ATOM     75  F   UNL A   1      41.128  33.791  32.379  1.00  0.00    -0.203 F 
ATOM     76  C   UNL A   1      38.820  33.353  32.307  1.00  0.00     0.198 A 
ATOM     77  C   UNL A   1      38.010  31.156  32.819  1.00  0.00     0.198 A 
ATOM     78  F   UNL A   1      39.518  29.401  33.270  1.00  0.00    -0.203 F 
ATOM     79  F   UNL A   1      38.604  34.603  31.873  1.00  0.00    -0.200 F 
ATOM     80  C   UNL A   1      37.770  32.457  32.395  1.00  0.00     0.200 A 
ATOM     81  F   UNL A   1      36.987  30.295  32.908  1.00  0.00    -0.200 F 
ATOM     82  F   UNL A   1      36.537  32.827  32.021  1.00  0.00    -0.200 F 
ENDBRANCH  48  72
BRANCH  60  83
ATOM     83  C   UNL A   1      44.747  25.642  33.273  1.00  0.00     0.064 A 
ATOM     84  C   UNL A   1      46.074  25.190  33.252  1.00  0.00     0.173 A 
ATOM     85  C   UNL A   1      43.917  24.907  34.175  1.00  0.00     0.173 A 
ATOM     86  F   UNL A   1      47.002  25.737  32.469  1.00  0.00    -0.203 F 
ATOM     87  C   UNL A   1      46.531  24.134  34.058  1.00  0.00     0.198 A 
ATOM     88  C   UNL A   1      44.383  23.893  35.011  1.00  0.00     0.198 A 
ATOM     89  F   UNL A   1      42.605  25.137  34.308  1.00  0.00    -0.203 F 
ATOM     90  F   UNL A   1      47.812  23.747  33.966  1.00  0.00    -0.200 F 
ATOM     91  C   UNL A   1      45.695  23.499  34.950  1.00  0.00     0.200 A 
ATOM     92  F   UNL A   1      43.544  23.314  35.883  1.00  0.00    -0.200 F 
ATOM     93  F   UNL A   1      46.148  22.519  35.740  1.00  0.00    -0.200 F 
ENDBRANCH  60  83
ENDBRANCH  34  35
ENDBRANCH  26  29
ENDBRANCH  24  25
ENDBRANCH  23  24
ENDBRANCH   1  23
TORSDOF 15
ENDMDL
MODEL 2
REMARK VINA RESULT:     -12.0      3.471      9.386
REMARK SMILES CC[C@H](C)[C@H](NS(=O)(=O)c1ccc(C)cc1)C(=O)NCCCNC(=O)c1ccc(-c2c3nc(c(-c4c(F)c(F)c(F)c(F)c4F)c4ccc([nH]4)c(-c4c(F)c(F)c(F)c(F)c4F)c4nc(c(-c5c(F)c(F)c(F)c(F)c5F)c5ccc2[nH]5)C=C4)C=C3)cc1
REMARK SMILES IDX 20 1 19 2 17 3 18 4 5 6 3 7 4 8 2 9 1 10 6 11 7 13 8 14 9 15
REMARK SMILES IDX 10 16 11 17 16 18 12 19 15 20 13 21 14 22 21 23 22 24 23 25
REMARK SMILES IDX 24 26 25 28 26 29 27 30 88 31 28 32 87 33 29 34 30 35 31 36
REMARK SMILES IDX 81 37 32 38 86 39 80 40 82 41 33 42 85 43 79 44 78 45 34 47
REMARK SMILES IDX 66 48 46 49 65 50 47 51 50 52 64 53 83 54 48 55 49 56 63 58
REMARK SMILES IDX 84 59 51 60 35 61 36 62 44 63 37 64 38 65 42 66 45 67 39 68
REMARK SMILES IDX 40 69 43 70 41 71 67 72 68 73 76 74 69 75 70 76 74 77 77 78
REMARK SMILES IDX 71 79 72 80 75 81 73 82 52 83 53 84 61 85 54 86 55 87 59 88
REMARK SMILES IDX 62 89 56 90 57 91 60 92 58 93
REMARK H PARENT 19 5 6 12 23 27 82 46 50 57
REMARK Flexibility Score: inf
ROOT
ATOM      1  C   UNL A   1      37.291  21.885  24.786  1.00  0.00     0.117 C 
ENDROOT
BRANCH   1   2
ATOM      2  N   UNL A   1      36.375  20.789  24.657  1.00  0.00    -0.355 N 
ATOM      3  C   UNL A   1      35.029  20.745  24.729  1.00  0.00     0.238 C 
ATOM      4  O   UNL A   1      34.552  19.599  24.703  1.00  0.00    -0.273 OA
ATOM      5  H   UNL A   1      36.803  19.919  24.486  1.00  0.00     0.163 HD
BRANCH   3   6
ATOM      6  C   UNL A   1      34.098  21.959  24.720  1.00  0.00     0.161 C 
BRANCH   6   7
ATOM      7  C   UNL A   1      34.099  22.868  23.447  1.00  0.00     0.013 C 
ATOM      8  C   UNL A   1      32.904  22.712  22.527  1.00  0.00     0.010 C 
BRANCH   7   9
ATOM      9  C   UNL A   1      34.457  24.358  23.659  1.00  0.00     0.002 C 
ATOM     10  C   UNL A   1      33.660  25.368  22.838  1.00  0.00     0.004 C 
ENDBRANCH   7   9
ENDBRANCH   6   7
BRANCH   6  11
ATOM     11  N   UNL A   1      33.565  22.694  25.898  1.00  0.00    -0.198 NA
ATOM     12  H   UNL A   1      33.929  23.638  25.766  1.00  0.00     0.142 HD
BRANCH  11  13
ATOM     13  S   UNL A   1      32.031  22.960  26.491  1.00  0.00     0.241 S 
ATOM     14  O   UNL A   1      31.205  21.993  25.813  1.00  0.00    -0.207 OA
ATOM     15  O   UNL A   1      32.106  22.954  27.937  1.00  0.00    -0.207 OA
BRANCH  13  16
ATOM     16  C   UNL A   1      31.486  24.559  25.915  1.00  0.00     0.082 A 
ATOM     17  C   UNL A   1      31.988  25.728  26.475  1.00  0.00     0.022 A 
ATOM     18  C   UNL A   1      30.550  24.657  24.881  1.00  0.00     0.022 A 
ATOM     19  C   UNL A   1      31.764  26.959  25.853  1.00  0.00     0.005 A 
ATOM     20  C   UNL A   1      30.302  25.903  24.279  1.00  0.00     0.005 A 
ATOM     21  C   UNL A   1      30.971  27.053  24.714  1.00  0.00    -0.051 A 
ATOM     22  C   UNL A   1      30.831  28.371  24.009  1.00  0.00     0.044 C 
ENDBRANCH  13  16
ENDBRANCH  11  13
ENDBRANCH   6  11
ENDBRANCH   3   6
ENDBRANCH   1   2
BRANCH   1  23
ATOM     23  C   UNL A   1      38.115  21.725  26.045  1.00  0.00     0.042 C 
BRANCH  23  24
ATOM     24  C   UNL A   1      39.567  21.374  25.812  1.00  0.00     0.118 C 
BRANCH  24  25
ATOM     25  N   UNL A   1      40.550  21.992  26.709  1.00  0.00    -0.352 N 
ATOM     26  C   UNL A   1      40.782  23.315  27.087  1.00  0.00     0.251 C 
ATOM     27  H   UNL A   1      41.167  21.348  27.125  1.00  0.00     0.163 HD
ATOM     28  O   UNL A   1      41.619  23.566  27.949  1.00  0.00    -0.269 OA
BRANCH  26  29
ATOM     29  C   UNL A   1      39.917  24.427  26.613  1.00  0.00     0.039 A 
ATOM     30  C   UNL A   1      40.655  25.397  25.916  1.00  0.00     0.014 A 
ATOM     31  C   UNL A   1      38.902  24.810  27.461  1.00  0.00     0.014 A 
ATOM     32  C   UNL A   1      40.801  26.643  26.495  1.00  0.00     0.010 A 
ATOM     33  C   UNL A   1      39.144  25.987  28.125  1.00  0.00     0.010 A 
ATOM     34  C   UNL A   1      40.188  26.835  27.714  1.00  0.00    -0.014 A 
BRANCH  34  35
ATOM     35  C   UNL A   1      40.511  27.882  28.660  1.00  0.00     0.031 A 
ATOM     36  C   UNL A   1      39.554  28.998  28.693  1.00  0.00     0.074 A 
ATOM     37  C   UNL A   1      41.479  27.716  29.595  1.00  0.00     0.049 A 
ATOM     38  N   UNL A   1      39.727  30.068  29.367  1.00  0.00    -0.248 NA
ATOM     39  C   UNL A   1      38.305  29.000  27.936  1.00  0.00     0.031 C 
ATOM     40  C   UNL A   1      41.651  28.455  30.849  1.00  0.00     0.029 A 
ATOM     41  N   UNL A   1      42.645  26.930  29.517  1.00  0.00    -0.354 N 
ATOM     42  C   UNL A   1      38.541  30.760  29.371  1.00  0.00     0.074 A 
ATOM     43  C   UNL A   1      37.696  30.074  28.436  1.00  0.00     0.031 C 
ATOM     44  C   UNL A   1      42.928  28.355  31.253  1.00  0.00     0.029 A 
ATOM     45  C   UNL A   1      43.646  27.678  30.193  1.00  0.00     0.049 A 
ATOM     46  H   UNL A   1      42.744  26.050  29.087  1.00  0.00     0.167 HD
ATOM     47  C   UNL A   1      38.427  31.772  30.271  1.00  0.00     0.037 A 
ATOM     48  C   UNL A   1      44.708  28.203  29.514  1.00  0.00     0.037 A 
ATOM     49  C   UNL A   1      39.731  32.012  30.895  1.00  0.00     0.049 A 
ATOM     50  C   UNL A   1      44.755  29.717  29.555  1.00  0.00     0.074 A 
ATOM     51  C   UNL A   1      40.310  31.634  32.095  1.00  0.00     0.029 A 
ATOM     52  N   UNL A   1      40.779  32.397  30.069  1.00  0.00    -0.354 N 
ATOM     53  N   UNL A   1      43.741  30.482  29.862  1.00  0.00    -0.248 NA
ATOM     54  C   UNL A   1      45.954  30.485  29.258  1.00  0.00     0.031 C 
ATOM     55  C   UNL A   1      41.717  31.832  31.985  1.00  0.00     0.029 A 
ATOM     56  C   UNL A   1      41.988  32.350  30.730  1.00  0.00     0.049 A 
ATOM     57  H   UNL A   1      40.673  32.670  29.129  1.00  0.00     0.167 HD
ATOM     58  C   UNL A   1      44.110  31.809  29.805  1.00  0.00     0.074 A 
ATOM     59  C   UNL A   1      45.512  31.743  29.432  1.00  0.00     0.031 C 
ATOM     60  C   UNL A   1      43.202  32.812  30.057  1.00  0.00     0.037 A 
BRANCH  47  61
ATOM     61  C   UNL A   1      37.143  32.421  30.725  1.00  0.00     0.064 A 
ATOM     62  C   UNL A   1      36.469  33.308  29.858  1.00  0.00     0.173 A 
ATOM     63  C   UNL A   1      36.540  32.273  31.990  1.00  0.00     0.173 A 
ATOM     64  F   UNL A   1      36.895  33.522  28.606  1.00  0.00    -0.203 F 
ATOM     65  C   UNL A   1      35.332  34.023  30.244  1.00  0.00     0.198 A 
ATOM     66  C   UNL A   1      35.420  33.010  32.387  1.00  0.00     0.198 A 
ATOM     67  F   UNL A   1      36.965  31.381  32.885  1.00  0.00    -0.203 F 
ATOM     68  F   UNL A   1      34.746  34.853  29.372  1.00  0.00    -0.200 F 
ATOM     69  C   UNL A   1      34.818  33.887  31.515  1.00  0.00     0.200 A 
ATOM     70  F   UNL A   1      34.931  32.853  33.626  1.00  0.00    -0.200 F 
ATOM     71  F   UNL A   1      33.737  34.582  31.892  1.00  0.00    -0.200 F 
ENDBRANCH  47  61
BRANCH  48  72
ATOM     72  C   UNL A   1      45.115  27.323  28.379  1.00  0.00     0.064 A 
ATOM     73  C   UNL A   1      45.604  26.041  28.715  1.00  0.00     0.173 A 
ATOM     74  C   UNL A   1      44.550  27.485  27.109  1.00  0.00     0.173 A 
ATOM     75  F   UNL A   1      46.186  25.840  29.909  1.00  0.00    -0.203 F 
ATOM     76  C   UNL A   1      45.326  24.932  27.920  1.00  0.00     0.198 A 
ATOM     77  C   UNL A   1      44.322  26.375  26.291  1.00  0.00     0.198 A 
ATOM     78  F   UNL A   1      44.078  28.679  26.724  1.00  0.00    -0.203 F 
ATOM     79  F   UNL A   1      45.619  23.702  28.364  1.00  0.00    -0.200 F 
ATOM     80  C   UNL A   1      44.645  25.096  26.727  1.00  0.00     0.200 A 
ATOM     81  F   UNL A   1      43.668  26.527  25.130  1.00  0.00    -0.200 F 
ATOM     82  F   UNL A   1      44.253  24.025  26.024  1.00  0.00    -0.200 F 
ENDBRANCH  48  72
BRANCH  60  83
ATOM     83  C   UNL A   1      43.296  34.318  29.742  1.00  0.00     0.064 A 
ATOM     84  C   UNL A   1      43.379  35.353  30.685  1.00  0.00     0.173 A 
ATOM     85  C   UNL A   1      43.385  34.779  28.392  1.00  0.00     0.173 A 
ATOM     86  F   UNL A   1      43.306  35.130  31.996  1.00  0.00    -0.203 F 
ATOM     87  C   UNL A   1      43.553  36.699  30.324  1.00  0.00     0.198 A 
ATOM     88  C   UNL A   1      43.608  36.109  28.037  1.00  0.00     0.198 A 
ATOM     89  F   UNL A   1      43.272  33.965  27.336  1.00  0.00    -0.203 F 
ATOM     90  F   UNL A   1      43.603  37.633  31.286  1.00  0.00    -0.200 F 
ATOM     91  C   UNL A   1      43.687  37.076  29.006  1.00  0.00     0.200 A 
ATOM     92  F   UNL A   1      43.757  36.435  26.745  1.00  0.00    -0.200 F 
ATOM     93  F   UNL A   1      43.890  38.356  28.674  1.00  0.00    -0.200 F 
ENDBRANCH  60  83
ENDBRANCH  34  35
ENDBRANCH  26  29
ENDBRANCH  24  25
ENDBRANCH  23  24
ENDBRANCH   1  23
TORSDOF 15
ENDMDL
MODEL 3
REMARK VINA RESULT:     -11.9      1.791      2.916
REMARK SMILES CC[C@H](C)[C@H](NS(=O)(=O)c1ccc(C)cc1)C(=O)NCCCNC(=O)c1ccc(-c2c3nc(c(-c4c(F)c(F)c(F)c(F)c4F)c4ccc([nH]4)c(-c4c(F)c(F)c(F)c(F)c4F)c4nc(c(-c5c(F)c(F)c(F)c(F)c5F)c5ccc2[nH]5)C=C4)C=C3)cc1
REMARK SMILES IDX 20 1 19 2 17 3 18 4 5 6 3 7 4 8 2 9 1 10 6 11 7 13 8 14 9 15
REMARK SMILES IDX 10 16 11 17 16 18 12 19 15 20 13 21 14 22 21 23 22 24 23 25
REMARK SMILES IDX 24 26 25 28 26 29 27 30 88 31 28 32 87 33 29 34 30 35 31 36
REMARK SMILES IDX 81 37 32 38 86 39 80 40 82 41 33 42 85 43 79 44 78 45 34 47
REMARK SMILES IDX 66 48 46 49 65 50 47 51 50 52 64 53 83 54 48 55 49 56 63 58
REMARK SMILES IDX 84 59 51 60 35 61 36 62 44 63 37 64 38 65 42 66 45 67 39 68
REMARK SMILES IDX 40 69 43 70 41 71 67 72 68 73 76 74 69 75 70 76 74 77 77 78
REMARK SMILES IDX 71 79 72 80 75 81 73 82 52 83 53 84 61 85 54 86 55 87 59 88
REMARK SMILES IDX 62 89 56 90 57 91 60 92 58 93
REMARK H PARENT 19 5 6 12 23 27 82 46 50 57
REMARK Flexibility Score: inf
ROOT
ATOM      1  C   UNL A   1      33.695  30.211  27.228  1.00  0.00     0.117 C 
ENDROOT
BRANCH   1   2
ATOM      2  N   UNL A   1      33.704  29.980  25.813  1.00  0.00    -0.355 N 
ATOM      3  C   UNL A   1      33.256  28.938  25.081  1.00  0.00     0.238 C 
ATOM      4  O   UNL A   1      33.542  28.999  23.875  1.00  0.00    -0.273 OA
ATOM      5  H   UNL A   1      34.106  30.706  25.283  1.00  0.00     0.163 HD
BRANCH   3   6
ATOM      6  C   UNL A   1      32.363  27.808  25.597  1.00  0.00     0.161 C 
BRANCH   6   7
ATOM      7  C   UNL A   1      33.058  26.484  26.059  1.00  0.00     0.013 C 
ATOM      8  C   UNL A   1      32.129  25.391  26.549  1.00  0.00     0.010 C 
BRANCH   7   9
ATOM      9  C   UNL A   1      34.156  25.916  25.129  1.00  0.00     0.002 C 
ATOM     10  C   UNL A   1      34.216  24.396  25.004  1.00  0.00     0.004 C 
ENDBRANCH   7   9
ENDBRANCH   6   7
BRANCH   6  11
ATOM     11  N   UNL A   1      30.931  27.572  25.273  1.00  0.00    -0.198 NA
ATOM     12  H   UNL A   1      30.511  28.494  25.399  1.00  0.00     0.142 HD
BRANCH  11  13
ATOM     13  S   UNL A   1      30.136  26.974  23.936  1.00  0.00     0.241 S 
ATOM     14  O   UNL A   1      31.179  26.413  23.113  1.00  0.00    -0.207 OA
ATOM     15  O   UNL A   1      29.056  26.131  24.401  1.00  0.00    -0.207 OA
BRANCH  13  16
ATOM     16  C   UNL A   1      29.481  28.357  23.019  1.00  0.00     0.082 A 
ATOM     17  C   UNL A   1      28.135  28.694  23.102  1.00  0.00     0.022 A 
ATOM     18  C   UNL A   1      30.318  29.131  22.209  1.00  0.00     0.022 A 
ATOM     19  C   UNL A   1      27.683  29.918  22.601  1.00  0.00     0.005 A 
ATOM     20  C   UNL A   1      29.850  30.346  21.679  1.00  0.00     0.005 A 
ATOM     21  C   UNL A   1      28.547  30.784  21.939  1.00  0.00    -0.051 A 
ATOM     22  C   UNL A   1      28.059  32.136  21.502  1.00  0.00     0.044 C 
ENDBRANCH  13  16
ENDBRANCH  11  13
ENDBRANCH   6  11
ENDBRANCH   3   6
ENDBRANCH   1   2
BRANCH   1  23
ATOM     23  C   UNL A   1      34.030  31.658  27.518  1.00  0.00     0.042 C 
BRANCH  23  24
ATOM     24  C   UNL A   1      34.418  31.945  28.950  1.00  0.00     0.118 C 
BRANCH  24  25
ATOM     25  N   UNL A   1      35.825  32.278  29.201  1.00  0.00    -0.352 N 
ATOM     26  C   UNL A   1      36.990  31.511  29.205  1.00  0.00     0.251 C 
ATOM     27  H   UNL A   1      35.976  33.228  29.408  1.00  0.00     0.163 HD
ATOM     28  O   UNL A   1      38.081  32.056  29.348  1.00  0.00    -0.269 OA
BRANCH  26  29
ATOM     29  C   UNL A   1      36.976  30.065  28.857  1.00  0.00     0.039 A 
ATOM     30  C   UNL A   1      37.025  29.255  30.003  1.00  0.00     0.014 A 
ATOM     31  C   UNL A   1      37.678  29.707  27.728  1.00  0.00     0.014 A 
ATOM     32  C   UNL A   1      38.167  28.510  30.224  1.00  0.00     0.010 A 
ATOM     33  C   UNL A   1      38.876  29.089  27.990  1.00  0.00     0.010 A 
ATOM     34  C   UNL A   1      39.166  28.613  29.280  1.00  0.00    -0.014 A 
BRANCH  34  35
ATOM     35  C   UNL A   1      40.553  28.249  29.483  1.00  0.00     0.031 A 
ATOM     36  C   UNL A   1      40.908  26.899  29.022  1.00  0.00     0.074 A 
ATOM     37  C   UNL A   1      41.480  29.170  29.845  1.00  0.00     0.049 A 
ATOM     38  N   UNL A   1      42.043  26.351  29.222  1.00  0.00    -0.248 NA
ATOM     39  C   UNL A   1      39.981  26.035  28.294  1.00  0.00     0.031 C 
ATOM     40  C   UNL A   1      42.934  29.087  29.687  1.00  0.00     0.029 A 
ATOM     41  N   UNL A   1      41.300  30.340  30.608  1.00  0.00    -0.354 N 
ATOM     42  C   UNL A   1      42.110  25.222  28.442  1.00  0.00     0.074 A 
ATOM     43  C   UNL A   1      40.788  25.047  27.911  1.00  0.00     0.031 C 
ATOM     44  C   UNL A   1      43.524  29.922  30.559  1.00  0.00     0.029 A 
ATOM     45  C   UNL A   1      42.473  30.451  31.402  1.00  0.00     0.049 A 
ATOM     46  H   UNL A   1      40.528  30.950  30.593  1.00  0.00     0.167 HD
ATOM     47  C   UNL A   1      43.337  24.660  28.285  1.00  0.00     0.037 A 
ATOM     48  C   UNL A   1      42.418  30.308  32.759  1.00  0.00     0.037 A 
ATOM     49  C   UNL A   1      44.286  25.309  29.193  1.00  0.00     0.049 A 
ATOM     50  C   UNL A   1      43.215  29.124  33.268  1.00  0.00     0.074 A 
ATOM     51  C   UNL A   1      45.236  26.304  29.044  1.00  0.00     0.029 A 
ATOM     52  N   UNL A   1      44.035  25.222  30.557  1.00  0.00    -0.354 N 
ATOM     53  N   UNL A   1      43.612  28.124  32.527  1.00  0.00    -0.248 NA
ATOM     54  C   UNL A   1      43.632  28.982  34.654  1.00  0.00     0.031 C 
ATOM     55  C   UNL A   1      45.576  26.786  30.341  1.00  0.00     0.029 A 
ATOM     56  C   UNL A   1      44.849  26.069  31.277  1.00  0.00     0.049 A 
ATOM     57  H   UNL A   1      43.360  24.629  30.960  1.00  0.00     0.167 HD
ATOM     58  C   UNL A   1      44.310  27.212  33.291  1.00  0.00     0.074 A 
ATOM     59  C   UNL A   1      44.297  27.814  34.612  1.00  0.00     0.031 C 
ATOM     60  C   UNL A   1      44.803  26.052  32.739  1.00  0.00     0.037 A 
BRANCH  47  61
ATOM     61  C   UNL A   1      43.735  23.673  27.216  1.00  0.00     0.064 A 
ATOM     62  C   UNL A   1      44.577  24.092  26.163  1.00  0.00     0.173 A 
ATOM     63  C   UNL A   1      43.301  22.336  27.117  1.00  0.00     0.173 A 
ATOM     64  F   UNL A   1      45.106  25.322  26.137  1.00  0.00    -0.203 F 
ATOM     65  C   UNL A   1      44.906  23.266  25.085  1.00  0.00     0.198 A 
ATOM     66  C   UNL A   1      43.605  21.518  26.024  1.00  0.00     0.198 A 
ATOM     67  F   UNL A   1      42.608  21.736  28.085  1.00  0.00    -0.203 F 
ATOM     68  F   UNL A   1      45.706  23.730  24.117  1.00  0.00    -0.200 F 
ATOM     69  C   UNL A   1      44.405  21.984  25.007  1.00  0.00     0.200 A 
ATOM     70  F   UNL A   1      43.115  20.271  25.975  1.00  0.00    -0.200 F 
ATOM     71  F   UNL A   1      44.707  21.196  23.967  1.00  0.00    -0.200 F 
ENDBRANCH  47  61
BRANCH  48  72
ATOM     72  C   UNL A   1      41.129  30.825  33.307  1.00  0.00     0.064 A 
ATOM     73  C   UNL A   1      40.867  32.199  33.119  1.00  0.00     0.173 A 
ATOM     74  C   UNL A   1      40.030  29.976  33.473  1.00  0.00     0.173 A 
ATOM     75  F   UNL A   1      41.888  33.063  32.988  1.00  0.00    -0.203 F 
ATOM     76  C   UNL A   1      39.576  32.660  32.871  1.00  0.00     0.198 A 
ATOM     77  C   UNL A   1      38.731  30.454  33.276  1.00  0.00     0.198 A 
ATOM     78  F   UNL A   1      40.210  28.662  33.668  1.00  0.00    -0.203 F 
ATOM     79  F   UNL A   1      39.381  33.931  32.489  1.00  0.00    -0.200 F 
ATOM     80  C   UNL A   1      38.513  31.775  32.907  1.00  0.00     0.200 A 
ATOM     81  F   UNL A   1      37.695  29.604  33.316  1.00  0.00    -0.200 F 
ATOM     82  F   UNL A   1      37.290  32.179  32.536  1.00  0.00    -0.200 F 
ENDBRANCH  48  72
BRANCH  60  83
ATOM     83  C   UNL A   1      45.310  24.776  33.438  1.00  0.00     0.064 A 
ATOM     84  C   UNL A   1      44.547  23.635  33.726  1.00  0.00     0.173 A 
ATOM     85  C   UNL A   1      46.688  24.634  33.792  1.00  0.00     0.173 A 
ATOM     86  F   UNL A   1      43.240  23.572  33.481  1.00  0.00    -0.203 F 
ATOM     87  C   UNL A   1      45.098  22.471  34.286  1.00  0.00     0.198 A 
ATOM     88  C   UNL A   1      47.244  23.460  34.301  1.00  0.00     0.198 A 
ATOM     89  F   UNL A   1      47.580  25.621  33.654  1.00  0.00    -0.203 F 
ATOM     90  F   UNL A   1      44.297  21.429  34.551  1.00  0.00    -0.200 F 
ATOM     91  C   UNL A   1      46.446  22.375  34.555  1.00  0.00     0.200 A 
ATOM     92  F   UNL A   1      48.564  23.396  34.529  1.00  0.00    -0.200 F 
ATOM     93  F   UNL A   1      46.969  21.249  35.054  1.00  0.00    -0.200 F 
ENDBRANCH  60  83
ENDBRANCH  34  35
ENDBRANCH  26  29
ENDBRANCH  24  25
ENDBRANCH  23  24
ENDBRANCH   1  23
TORSDOF 15
ENDMDL
