MODEL 1
REMARK VINA RESULT:     -11.4      0.000      0.000
REMARK SMILES CC[C@H]1CN(C(=O)N(CC(=O)NCCCNC(=O)c2ccc(-c3c4nc(c(-c5c(F)c(F)c(F)c(F)c5F)c5ccc([nH]5)c(-c5c(F)c(F)c(F)c(F)c5F)c5nc(c(-c6c(F)c(F)c(F)c(F)c6F)c6ccc3[nH]6)C=C5)C=C4)cc2)C(C)(C)C)CC[N@@H+]1C
REMARK SMILES IDX 13 1 12 2 10 3 11 4 9 6 8 7 6 8 7 9 5 10 3 11 4 12 88 13
REMARK SMILES IDX 87 14 89 15 86 17 2 18 1 19 82 20 83 21 84 22 85 23 14 24
REMARK SMILES IDX 15 25 16 26 17 27 18 29 19 30 20 31 81 32 21 33 80 34 22 35
REMARK SMILES IDX 23 36 24 37 74 38 25 39 79 40 73 41 75 42 26 43 78 44 72 45
REMARK SMILES IDX 71 46 27 48 59 49 39 50 58 51 40 52 43 53 57 54 76 55 41 56
REMARK SMILES IDX 42 57 56 59 77 60 44 61 28 62 29 63 37 64 30 65 31 66 35 67
REMARK SMILES IDX 38 68 32 69 33 70 36 71 34 72 60 73 61 74 69 75 62 76 63 77
REMARK SMILES IDX 67 78 70 79 64 80 65 81 68 82 66 83 45 84 46 85 54 86 47 87
REMARK SMILES IDX 48 88 52 89 55 90 49 91 50 92 53 93 51 94
REMARK H PARENT 12 5 88 16 16 28 75 47 43 58
REMARK Flexibility Score: inf
ROOT
ATOM      1  C   UNL A   1      31.343  30.937  26.090  1.00  0.00     0.117 C 
ENDROOT
BRANCH   1   2
ATOM      2  N   UNL A   1      32.587  30.303  26.462  1.00  0.00    -0.354 N 
ATOM      3  C   UNL A   1      33.253  29.313  25.802  1.00  0.00     0.239 C 
ATOM      4  O   UNL A   1      34.405  29.054  26.156  1.00  0.00    -0.273 OA
ATOM      5  H   UNL A   1      33.005  30.626  27.293  1.00  0.00     0.163 HD
BRANCH   3   6
ATOM      6  C   UNL A   1      32.613  28.633  24.586  1.00  0.00     0.221 C 
BRANCH   6   7
ATOM      7  N   UNL A   1      31.570  27.615  24.829  1.00  0.00    -0.311 N 
BRANCH   7   8
ATOM      8  C   UNL A   1      31.585  26.771  25.939  1.00  0.00     0.321 C 
ATOM      9  O   UNL A   1      30.954  27.060  26.961  1.00  0.00    -0.248 OA
BRANCH   8  10
ATOM     10  N   UNL A   1      32.316  25.590  25.919  1.00  0.00    -0.313 N 
ATOM     11  C   UNL A   1      34.332  24.144  25.441  1.00  0.00     0.203 C 
ATOM     12  C   UNL A   1      33.774  25.492  25.986  1.00  0.00     0.186 C 
ATOM     13  N   UNL A   1      33.691  22.939  26.023  1.00  0.00    -0.332 N 
ATOM     14  C   UNL A   1      32.217  23.062  26.076  1.00  0.00     0.284 C 
ATOM     15  C   UNL A   1      34.219  22.655  27.360  1.00  0.00     0.333 C 
ATOM     16  H   UNL A   1      33.917  22.159  25.405  1.00  0.00     0.348 HD
ATOM     17  C   UNL A   1      31.647  24.423  26.513  1.00  0.00     0.183 C 
BRANCH  11  18
ATOM     18  C   UNL A   1      34.436  24.084  23.892  1.00  0.00     0.063 C 
ATOM     19  C   UNL A   1      35.423  23.111  23.266  1.00  0.00     0.010 C 
ENDBRANCH  11  18
ENDBRANCH   8  10
ENDBRANCH   7   8
BRANCH   7  20
ATOM     20  C   UNL A   1      30.549  27.342  23.737  1.00  0.00     0.037 C 
ATOM     21  C   UNL A   1      29.875  28.639  23.230  1.00  0.00     0.034 C 
ATOM     22  C   UNL A   1      31.233  26.619  22.551  1.00  0.00     0.034 C 
ATOM     23  C   UNL A   1      29.391  26.404  24.169  1.00  0.00     0.034 C 
ENDBRANCH   7  20
ENDBRANCH   6   7
ENDBRANCH   3   6
ENDBRANCH   1   2
BRANCH   1  24
ATOM     24  C   UNL A   1      31.268  32.400  26.481  1.00  0.00     0.042 C 
BRANCH  24  25
ATOM     25  C   UNL A   1      32.522  32.906  27.171  1.00  0.00     0.118 C 
BRANCH  25  26
ATOM     26  N   UNL A   1      32.391  34.289  27.608  1.00  0.00    -0.352 N 
ATOM     27  C   UNL A   1      33.018  34.938  28.638  1.00  0.00     0.251 C 
ATOM     28  H   UNL A   1      31.761  34.837  27.087  1.00  0.00     0.163 HD
ATOM     29  O   UNL A   1      32.631  36.054  28.984  1.00  0.00    -0.269 OA
BRANCH  27  30
ATOM     30  C   UNL A   1      34.150  34.302  29.341  1.00  0.00     0.039 A 
ATOM     31  C   UNL A   1      35.447  34.525  28.868  1.00  0.00     0.014 A 
ATOM     32  C   UNL A   1      33.940  33.462  30.439  1.00  0.00     0.014 A 
ATOM     33  C   UNL A   1      36.531  33.932  29.517  1.00  0.00     0.010 A 
ATOM     34  C   UNL A   1      35.025  32.940  31.134  1.00  0.00     0.010 A 
ATOM     35  C   UNL A   1      36.329  33.149  30.664  1.00  0.00    -0.014 A 
BRANCH  35  36
ATOM     36  C   UNL A   1      37.468  32.496  31.353  1.00  0.00     0.031 A 
ATOM     37  C   UNL A   1      38.202  31.368  30.682  1.00  0.00     0.074 A 
ATOM     38  C   UNL A   1      37.814  32.890  32.593  1.00  0.00     0.049 A 
ATOM     39  N   UNL A   1      39.199  30.647  31.128  1.00  0.00    -0.248 NA
ATOM     40  C   UNL A   1      37.732  30.976  29.343  1.00  0.00     0.031 C 
ATOM     41  C   UNL A   1      37.141  33.933  33.368  1.00  0.00     0.029 A 
ATOM     42  N   UNL A   1      38.816  32.452  33.420  1.00  0.00    -0.354 N 
ATOM     43  C   UNL A   1      39.461  29.711  30.137  1.00  0.00     0.074 A 
ATOM     44  C   UNL A   1      38.484  29.916  29.090  1.00  0.00     0.031 C 
ATOM     45  C   UNL A   1      37.768  34.075  34.548  1.00  0.00     0.029 A 
ATOM     46  C   UNL A   1      38.866  33.116  34.621  1.00  0.00     0.049 A 
ATOM     47  H   UNL A   1      39.440  31.731  33.177  1.00  0.00     0.167 HD
ATOM     48  C   UNL A   1      40.445  28.783  30.089  1.00  0.00     0.037 A 
ATOM     49  C   UNL A   1      39.708  32.967  35.661  1.00  0.00     0.037 A 
ATOM     50  C   UNL A   1      41.440  28.607  31.113  1.00  0.00     0.049 A 
ATOM     51  C   UNL A   1      40.810  31.947  35.571  1.00  0.00     0.074 A 
ATOM     52  C   UNL A   1      42.520  27.744  31.130  1.00  0.00     0.029 A 
ATOM     53  N   UNL A   1      41.474  29.318  32.304  1.00  0.00    -0.354 N 
ATOM     54  N   UNL A   1      41.093  31.116  34.598  1.00  0.00    -0.248 NA
ATOM     55  C   UNL A   1      41.716  31.851  36.725  1.00  0.00     0.031 C 
ATOM     56  C   UNL A   1      43.190  27.906  32.348  1.00  0.00     0.029 A 
ATOM     57  C   UNL A   1      42.550  28.899  33.071  1.00  0.00     0.049 A 
ATOM     58  H   UNL A   1      40.830  30.014  32.566  1.00  0.00     0.167 HD
ATOM     59  C   UNL A   1      42.218  30.415  35.008  1.00  0.00     0.074 A 
ATOM     60  C   UNL A   1      42.578  30.933  36.312  1.00  0.00     0.031 C 
ATOM     61  C   UNL A   1      42.891  29.430  34.367  1.00  0.00     0.037 A 
BRANCH  48  62
ATOM     62  C   UNL A   1      40.498  27.892  28.882  1.00  0.00     0.064 A 
ATOM     63  C   UNL A   1      41.272  28.224  27.758  1.00  0.00     0.173 A 
ATOM     64  C   UNL A   1      39.788  26.683  28.855  1.00  0.00     0.173 A 
ATOM     65  F   UNL A   1      41.959  29.376  27.729  1.00  0.00    -0.203 F 
ATOM     66  C   UNL A   1      41.309  27.393  26.643  1.00  0.00     0.198 A 
ATOM     67  C   UNL A   1      39.850  25.840  27.748  1.00  0.00     0.198 A 
ATOM     68  F   UNL A   1      39.035  26.316  29.904  1.00  0.00    -0.203 F 
ATOM     69  F   UNL A   1      42.014  27.755  25.563  1.00  0.00    -0.200 F 
ATOM     70  C   UNL A   1      40.604  26.198  26.641  1.00  0.00     0.200 A 
ATOM     71  F   UNL A   1      39.176  24.681  27.752  1.00  0.00    -0.200 F 
ATOM     72  F   UNL A   1      40.643  25.396  25.568  1.00  0.00    -0.200 F 
ENDBRANCH  48  62
BRANCH  49  73
ATOM     73  C   UNL A   1      39.566  33.833  36.859  1.00  0.00     0.064 A 
ATOM     74  C   UNL A   1      38.824  33.407  37.968  1.00  0.00     0.173 A 
ATOM     75  C   UNL A   1      40.165  35.099  36.919  1.00  0.00     0.173 A 
ATOM     76  F   UNL A   1      38.217  32.211  37.948  1.00  0.00    -0.203 F 
ATOM     77  C   UNL A   1      38.669  34.223  39.086  1.00  0.00     0.198 A 
ATOM     78  C   UNL A   1      40.030  35.905  38.048  1.00  0.00     0.198 A 
ATOM     79  F   UNL A   1      40.889  35.550  35.884  1.00  0.00    -0.203 F 
ATOM     80  F   UNL A   1      37.917  33.809  40.115  1.00  0.00    -0.200 F 
ATOM     81  C   UNL A   1      39.276  35.469  39.127  1.00  0.00     0.200 A 
ATOM     82  F   UNL A   1      40.627  37.103  38.089  1.00  0.00    -0.200 F 
ATOM     83  F   UNL A   1      39.127  36.253  40.204  1.00  0.00    -0.200 F 
ENDBRANCH  49  73
BRANCH  61  84
ATOM     84  C   UNL A   1      44.096  28.864  35.057  1.00  0.00     0.064 A 
ATOM     85  C   UNL A   1      43.997  27.756  35.911  1.00  0.00     0.173 A 
ATOM     86  C   UNL A   1      45.367  29.418  34.839  1.00  0.00     0.173 A 
ATOM     87  F   UNL A   1      42.801  27.202  36.162  1.00  0.00    -0.203 F 
ATOM     88  C   UNL A   1      45.124  27.239  36.544  1.00  0.00     0.198 A 
ATOM     89  C   UNL A   1      46.495  28.880  35.452  1.00  0.00     0.198 A 
ATOM     90  F   UNL A   1      45.514  30.474  34.026  1.00  0.00    -0.203 F 
ATOM     91  F   UNL A   1      45.000  26.209  37.394  1.00  0.00    -0.200 F 
ATOM     92  C   UNL A   1      46.372  27.797  36.309  1.00  0.00     0.200 A 
ATOM     93  F   UNL A   1      47.702  29.413  35.216  1.00  0.00    -0.200 F 
ATOM     94  F   UNL A   1      47.456  27.296  36.916  1.00  0.00    -0.200 F 
ENDBRANCH  61  84
ENDBRANCH  35  36
ENDBRANCH  27  30
ENDBRANCH  25  26
ENDBRANCH  24  25
ENDBRANCH   1  24
TORSDOF 15
ENDMDL
MODEL 2
REMARK VINA RESULT:     -11.3      2.179      8.021
REMARK SMILES CC[C@H]1CN(C(=O)N(CC(=O)NCCCNC(=O)c2ccc(-c3c4nc(c(-c5c(F)c(F)c(F)c(F)c5F)c5ccc([nH]5)c(-c5c(F)c(F)c(F)c(F)c5F)c5nc(c(-c6c(F)c(F)c(F)c(F)c6F)c6ccc3[nH]6)C=C5)C=C4)cc2)C(C)(C)C)CC[N@@H+]1C
REMARK SMILES IDX 13 1 12 2 10 3 11 4 9 6 8 7 6 8 7 9 5 10 3 11 4 12 88 13
REMARK SMILES IDX 87 14 89 15 86 17 2 18 1 19 82 20 83 21 84 22 85 23 14 24
REMARK SMILES IDX 15 25 16 26 17 27 18 29 19 30 20 31 81 32 21 33 80 34 22 35
REMARK SMILES IDX 23 36 24 37 74 38 25 39 79 40 73 41 75 42 26 43 78 44 72 45
REMARK SMILES IDX 71 46 27 48 59 49 39 50 58 51 40 52 43 53 57 54 76 55 41 56
REMARK SMILES IDX 42 57 56 59 77 60 44 61 28 62 29 63 37 64 30 65 31 66 35 67
REMARK SMILES IDX 38 68 32 69 33 70 36 71 34 72 60 73 61 74 69 75 62 76 63 77
REMARK SMILES IDX 67 78 70 79 64 80 65 81 68 82 66 83 45 84 46 85 54 86 47 87
REMARK SMILES IDX 48 88 52 89 55 90 49 91 50 92 53 93 51 94
REMARK H PARENT 12 5 88 16 16 28 75 47 43 58
REMARK Flexibility Score: inf
ROOT
ATOM      1  C   UNL A   1      32.616  28.133  22.874  1.00  0.00     0.117 C 
ENDROOT
BRANCH   1   2
ATOM      2  N   UNL A   1      33.208  27.183  21.960  1.00  0.00    -0.354 N 
ATOM      3  C   UNL A   1      32.766  25.930  21.654  1.00  0.00     0.239 C 
ATOM      4  O   UNL A   1      33.278  25.355  20.690  1.00  0.00    -0.273 OA
ATOM      5  H   UNL A   1      34.028  27.476  21.503  1.00  0.00     0.163 HD
BRANCH   3   6
ATOM      6  C   UNL A   1      31.589  25.319  22.423  1.00  0.00     0.221 C 
BRANCH   6   7
ATOM      7  N   UNL A   1      31.893  24.462  23.588  1.00  0.00    -0.311 N 
BRANCH   7   8
ATOM      8  C   UNL A   1      32.498  23.211  23.467  1.00  0.00     0.321 C 
ATOM      9  O   UNL A   1      32.003  22.337  22.751  1.00  0.00    -0.248 OA
BRANCH   8  10
ATOM     10  N   UNL A   1      33.668  22.924  24.158  1.00  0.00    -0.313 N 
ATOM     11  C   UNL A   1      35.055  21.877  25.992  1.00  0.00     0.203 C 
ATOM     12  C   UNL A   1      33.917  21.714  24.942  1.00  0.00     0.186 C 
ATOM     13  N   UNL A   1      36.321  22.422  25.441  1.00  0.00    -0.332 N 
ATOM     14  C   UNL A   1      36.086  23.578  24.547  1.00  0.00     0.284 C 
ATOM     15  C   UNL A   1      37.077  21.386  24.733  1.00  0.00     0.333 C 
ATOM     16  H   UNL A   1      36.870  22.749  26.235  1.00  0.00     0.348 HD
ATOM     17  C   UNL A   1      34.899  23.477  23.573  1.00  0.00     0.183 C 
BRANCH  11  18
ATOM     18  C   UNL A   1      34.611  22.588  27.300  1.00  0.00     0.063 C 
ATOM     19  C   UNL A   1      33.278  22.203  27.921  1.00  0.00     0.010 C 
ENDBRANCH  11  18
ENDBRANCH   8  10
ENDBRANCH   7   8
BRANCH   7  20
ATOM     20  C   UNL A   1      31.355  24.867  24.951  1.00  0.00     0.037 C 
ATOM     21  C   UNL A   1      30.716  23.676  25.704  1.00  0.00     0.034 C 
ATOM     22  C   UNL A   1      32.498  25.463  25.808  1.00  0.00     0.034 C 
ATOM     23  C   UNL A   1      30.267  25.970  24.902  1.00  0.00     0.034 C 
ENDBRANCH   7  20
ENDBRANCH   6   7
ENDBRANCH   3   6
ENDBRANCH   1   2
BRANCH   1  24
ATOM     24  C   UNL A   1      33.634  29.006  23.583  1.00  0.00     0.042 C 
BRANCH  24  25
ATOM     25  C   UNL A   1      33.491  28.993  25.094  1.00  0.00     0.118 C 
BRANCH  25  26
ATOM     26  N   UNL A   1      32.934  30.238  25.606  1.00  0.00    -0.352 N 
ATOM     27  C   UNL A   1      33.278  30.948  26.725  1.00  0.00     0.251 C 
ATOM     28  H   UNL A   1      32.205  30.624  25.071  1.00  0.00     0.163 HD
ATOM     29  O   UNL A   1      32.560  31.872  27.109  1.00  0.00    -0.269 OA
BRANCH  27  30
ATOM     30  C   UNL A   1      34.501  30.608  27.479  1.00  0.00     0.039 A 
ATOM     31  C   UNL A   1      35.494  31.581  27.626  1.00  0.00     0.014 A 
ATOM     32  C   UNL A   1      34.690  29.328  28.010  1.00  0.00     0.014 A 
ATOM     33  C   UNL A   1      36.659  31.279  28.332  1.00  0.00     0.010 A 
ATOM     34  C   UNL A   1      35.812  29.055  28.785  1.00  0.00     0.010 A 
ATOM     35  C   UNL A   1      36.819  30.019  28.930  1.00  0.00    -0.014 A 
BRANCH  35  36
ATOM     36  C   UNL A   1      38.059  29.676  29.668  1.00  0.00     0.031 A 
ATOM     37  C   UNL A   1      38.290  30.235  31.044  1.00  0.00     0.074 A 
ATOM     38  C   UNL A   1      38.991  28.900  29.085  1.00  0.00     0.049 A 
ATOM     39  N   UNL A   1      39.320  30.084  31.838  1.00  0.00    -0.248 NA
ATOM     40  C   UNL A   1      37.237  31.108  31.591  1.00  0.00     0.031 C 
ATOM     41  C   UNL A   1      38.905  28.346  27.732  1.00  0.00     0.029 A 
ATOM     42  N   UNL A   1      40.197  28.446  29.556  1.00  0.00    -0.354 N 
ATOM     43  C   UNL A   1      39.046  30.852  32.962  1.00  0.00     0.074 A 
ATOM     44  C   UNL A   1      37.782  31.514  32.727  1.00  0.00     0.031 C 
ATOM     45  C   UNL A   1      39.999  27.604  27.493  1.00  0.00     0.029 A 
ATOM     46  C   UNL A   1      40.871  27.652  28.663  1.00  0.00     0.049 A 
ATOM     47  H   UNL A   1      40.545  28.670  30.448  1.00  0.00     0.167 HD
ATOM     48  C   UNL A   1      39.769  30.972  34.100  1.00  0.00     0.037 A 
ATOM     49  C   UNL A   1      42.060  27.030  28.780  1.00  0.00     0.037 A 
ATOM     50  C   UNL A   1      41.006  30.281  34.348  1.00  0.00     0.049 A 
ATOM     51  C   UNL A   1      42.830  27.158  30.065  1.00  0.00     0.074 A 
ATOM     52  C   UNL A   1      41.781  30.278  35.494  1.00  0.00     0.029 A 
ATOM     53  N   UNL A   1      41.646  29.461  33.429  1.00  0.00    -0.354 N 
ATOM     54  N   UNL A   1      42.527  27.828  31.149  1.00  0.00    -0.248 NA
ATOM     55  C   UNL A   1      44.105  26.432  30.145  1.00  0.00     0.031 C 
ATOM     56  C   UNL A   1      42.909  29.486  35.257  1.00  0.00     0.029 A 
ATOM     57  C   UNL A   1      42.816  28.962  33.978  1.00  0.00     0.049 A 
ATOM     58  H   UNL A   1      41.318  29.265  32.522  1.00  0.00     0.167 HD
ATOM     59  C   UNL A   1      43.558  27.591  32.047  1.00  0.00     0.074 A 
ATOM     60  C   UNL A   1      44.487  26.697  31.386  1.00  0.00     0.031 C 
ATOM     61  C   UNL A   1      43.725  28.072  33.302  1.00  0.00     0.037 A 
BRANCH  48  62
ATOM     62  C   UNL A   1      39.232  31.878  35.169  1.00  0.00     0.064 A 
ATOM     63  C   UNL A   1      38.459  31.383  36.231  1.00  0.00     0.173 A 
ATOM     64  C   UNL A   1      39.510  33.253  35.146  1.00  0.00     0.173 A 
ATOM     65  F   UNL A   1      38.153  30.078  36.292  1.00  0.00    -0.203 F 
ATOM     66  C   UNL A   1      37.961  32.234  37.213  1.00  0.00     0.198 A 
ATOM     67  C   UNL A   1      39.034  34.097  36.145  1.00  0.00     0.198 A 
ATOM     68  F   UNL A   1      40.246  33.778  34.155  1.00  0.00    -0.203 F 
ATOM     69  F   UNL A   1      37.183  31.747  38.189  1.00  0.00    -0.200 F 
ATOM     70  C   UNL A   1      38.254  33.589  37.174  1.00  0.00     0.200 A 
ATOM     71  F   UNL A   1      39.326  35.405  36.112  1.00  0.00    -0.200 F 
ATOM     72  F   UNL A   1      37.778  34.408  38.122  1.00  0.00    -0.200 F 
ENDBRANCH  48  62
BRANCH  49  73
ATOM     73  C   UNL A   1      42.573  26.198  27.662  1.00  0.00     0.064 A 
ATOM     74  C   UNL A   1      42.150  24.871  27.503  1.00  0.00     0.173 A 
ATOM     75  C   UNL A   1      43.495  26.706  26.736  1.00  0.00     0.173 A 
ATOM     76  F   UNL A   1      41.285  24.336  28.376  1.00  0.00    -0.203 F 
ATOM     77  C   UNL A   1      42.645  24.078  26.470  1.00  0.00     0.198 A 
ATOM     78  C   UNL A   1      43.970  25.920  25.689  1.00  0.00     0.198 A 
ATOM     79  F   UNL A   1      43.927  27.972  26.844  1.00  0.00    -0.203 F 
ATOM     80  F   UNL A   1      42.256  22.800  26.367  1.00  0.00    -0.200 F 
ATOM     81  C   UNL A   1      43.550  24.604  25.561  1.00  0.00     0.200 A 
ATOM     82  F   UNL A   1      44.836  26.435  24.806  1.00  0.00    -0.200 F 
ATOM     83  F   UNL A   1      44.025  23.840  24.568  1.00  0.00    -0.200 F 
ENDBRANCH  49  73
BRANCH  61  84
ATOM     84  C   UNL A   1      44.946  27.622  34.050  1.00  0.00     0.064 A 
ATOM     85  C   UNL A   1      46.143  28.351  34.003  1.00  0.00     0.173 A 
ATOM     86  C   UNL A   1      44.908  26.466  34.844  1.00  0.00     0.173 A 
ATOM     87  F   UNL A   1      46.231  29.455  33.245  1.00  0.00    -0.203 F 
ATOM     88  C   UNL A   1      47.267  27.924  34.703  1.00  0.00     0.198 A 
ATOM     89  C   UNL A   1      46.027  26.058  35.565  1.00  0.00     0.198 A 
ATOM     90  F   UNL A   1      43.785  25.738  34.926  1.00  0.00    -0.203 F 
ATOM     91  F   UNL A   1      48.415  28.610  34.606  1.00  0.00    -0.200 F 
ATOM     92  C   UNL A   1      47.207  26.782  35.487  1.00  0.00     0.200 A 
ATOM     93  F   UNL A   1      45.964  24.961  36.332  1.00  0.00    -0.200 F 
ATOM     94  F   UNL A   1      48.289  26.375  36.164  1.00  0.00    -0.200 F 
ENDBRANCH  61  84
ENDBRANCH  35  36
ENDBRANCH  27  30
ENDBRANCH  25  26
ENDBRANCH  24  25
ENDBRANCH   1  24
TORSDOF 15
ENDMDL
MODEL 3
REMARK VINA RESULT:     -11.3      0.718      7.338
REMARK SMILES CC[C@H]1CN(C(=O)N(CC(=O)NCCCNC(=O)c2ccc(-c3c4nc(c(-c5c(F)c(F)c(F)c(F)c5F)c5ccc([nH]5)c(-c5c(F)c(F)c(F)c(F)c5F)c5nc(c(-c6c(F)c(F)c(F)c(F)c6F)c6ccc3[nH]6)C=C5)C=C4)cc2)C(C)(C)C)CC[N@@H+]1C
REMARK SMILES IDX 13 1 12 2 10 3 11 4 9 6 8 7 6 8 7 9 5 10 3 11 4 12 88 13
REMARK SMILES IDX 87 14 89 15 86 17 2 18 1 19 82 20 83 21 84 22 85 23 14 24
REMARK SMILES IDX 15 25 16 26 17 27 18 29 19 30 20 31 81 32 21 33 80 34 22 35
REMARK SMILES IDX 23 36 24 37 74 38 25 39 79 40 73 41 75 42 26 43 78 44 72 45
REMARK SMILES IDX 71 46 27 48 59 49 39 50 58 51 40 52 43 53 57 54 76 55 41 56
REMARK SMILES IDX 42 57 56 59 77 60 44 61 28 62 29 63 37 64 30 65 31 66 35 67
REMARK SMILES IDX 38 68 32 69 33 70 36 71 34 72 60 73 61 74 69 75 62 76 63 77
REMARK SMILES IDX 67 78 70 79 64 80 65 81 68 82 66 83 45 84 46 85 54 86 47 87
REMARK SMILES IDX 48 88 52 89 55 90 49 91 50 92 53 93 51 94
REMARK H PARENT 12 5 88 16 16 28 75 47 43 58
REMARK Flexibility Score: inf
ROOT
ATOM      1  C   UNL A   1      31.433  30.832  25.999  1.00  0.00     0.117 C 
ENDROOT
BRANCH   1   2
ATOM      2  N   UNL A   1      32.624  30.145  26.445  1.00  0.00    -0.354 N 
ATOM      3  C   UNL A   1      33.274  29.114  25.834  1.00  0.00     0.239 C 
ATOM      4  O   UNL A   1      34.392  28.806  26.252  1.00  0.00    -0.273 OA
ATOM      5  H   UNL A   1      33.012  30.460  27.293  1.00  0.00     0.163 HD
BRANCH   3   6
ATOM      6  C   UNL A   1      32.666  28.448  24.594  1.00  0.00     0.221 C 
BRANCH   6   7
ATOM      7  N   UNL A   1      31.622  27.422  24.799  1.00  0.00    -0.311 N 
BRANCH   7   8
ATOM      8  C   UNL A   1      31.557  26.632  25.946  1.00  0.00     0.321 C 
ATOM      9  O   UNL A   1      30.993  27.043  26.965  1.00  0.00    -0.248 OA
BRANCH   8  10
ATOM     10  N   UNL A   1      32.131  25.368  25.967  1.00  0.00    -0.313 N 
ATOM     11  C   UNL A   1      33.966  23.671  25.595  1.00  0.00     0.203 C 
ATOM     12  C   UNL A   1      33.559  25.084  26.107  1.00  0.00     0.186 C 
ATOM     13  N   UNL A   1      33.149  22.563  26.148  1.00  0.00    -0.332 N 
ATOM     14  C   UNL A   1      31.702  22.874  26.127  1.00  0.00     0.284 C 
ATOM     15  C   UNL A   1      33.570  22.227  27.511  1.00  0.00     0.333 C 
ATOM     16  H   UNL A   1      33.303  21.755  25.545  1.00  0.00     0.348 HD
ATOM     17  C   UNL A   1      31.289  24.301  26.530  1.00  0.00     0.183 C 
BRANCH  11  18
ATOM     18  C   UNL A   1      34.138  23.583  24.054  1.00  0.00     0.063 C 
ATOM     19  C   UNL A   1      35.527  23.333  23.489  1.00  0.00     0.010 C 
ENDBRANCH  11  18
ENDBRANCH   8  10
ENDBRANCH   7   8
BRANCH   7  20
ATOM     20  C   UNL A   1      30.701  27.077  23.640  1.00  0.00     0.037 C 
ATOM     21  C   UNL A   1      30.243  28.335  22.865  1.00  0.00     0.034 C 
ATOM     22  C   UNL A   1      31.422  26.109  22.670  1.00  0.00     0.034 C 
ATOM     23  C   UNL A   1      29.403  26.340  24.058  1.00  0.00     0.034 C 
ENDBRANCH   7  20
ENDBRANCH   6   7
ENDBRANCH   3   6
ENDBRANCH   1   2
BRANCH   1  24
ATOM     24  C   UNL A   1      31.334  32.260  26.500  1.00  0.00     0.042 C 
BRANCH  24  25
ATOM     25  C   UNL A   1      32.647  32.805  27.033  1.00  0.00     0.118 C 
BRANCH  25  26
ATOM     26  N   UNL A   1      32.496  34.128  27.623  1.00  0.00    -0.352 N 
ATOM     27  C   UNL A   1      33.126  34.670  28.712  1.00  0.00     0.251 C 
ATOM     28  H   UNL A   1      31.848  34.717  27.176  1.00  0.00     0.163 HD
ATOM     29  O   UNL A   1      32.723  35.732  29.186  1.00  0.00    -0.269 OA
BRANCH  27  30
ATOM     30  C   UNL A   1      34.281  33.984  29.324  1.00  0.00     0.039 A 
ATOM     31  C   UNL A   1      35.571  34.403  28.984  1.00  0.00     0.014 A 
ATOM     32  C   UNL A   1      34.102  32.911  30.202  1.00  0.00     0.014 A 
ATOM     33  C   UNL A   1      36.677  33.767  29.550  1.00  0.00     0.010 A 
ATOM     34  C   UNL A   1      35.201  32.334  30.830  1.00  0.00     0.010 A 
ATOM     35  C   UNL A   1      36.499  32.739  30.489  1.00  0.00    -0.014 A 
BRANCH  35  36
ATOM     36  C   UNL A   1      37.663  32.040  31.084  1.00  0.00     0.031 A 
ATOM     37  C   UNL A   1      38.108  32.381  32.479  1.00  0.00     0.074 A 
ATOM     38  C   UNL A   1      38.341  31.132  30.358  1.00  0.00     0.049 A 
ATOM     39  N   UNL A   1      39.119  31.910  33.165  1.00  0.00    -0.248 NA
ATOM     40  C   UNL A   1      37.333  33.413  33.188  1.00  0.00     0.031 C 
ATOM     41  C   UNL A   1      38.040  30.759  28.975  1.00  0.00     0.029 A 
ATOM     42  N   UNL A   1      39.429  30.362  30.682  1.00  0.00    -0.354 N 
ATOM     43  C   UNL A   1      39.109  32.598  34.371  1.00  0.00     0.074 A 
ATOM     44  C   UNL A   1      38.030  33.559  34.304  1.00  0.00     0.031 C 
ATOM     45  C   UNL A   1      38.905  29.811  28.579  1.00  0.00     0.029 A 
ATOM     46  C   UNL A   1      39.835  29.530  29.669  1.00  0.00     0.049 A 
ATOM     47  H   UNL A   1      39.876  30.403  31.558  1.00  0.00     0.167 HD
ATOM     48  C   UNL A   1      39.909  32.425  35.449  1.00  0.00     0.037 A 
ATOM     49  C   UNL A   1      40.843  28.639  29.628  1.00  0.00     0.037 A 
ATOM     50  C   UNL A   1      40.956  31.441  35.529  1.00  0.00     0.049 A 
ATOM     51  C   UNL A   1      41.700  28.446  30.849  1.00  0.00     0.074 A 
ATOM     52  C   UNL A   1      41.777  31.137  36.599  1.00  0.00     0.029 A 
ATOM     53  N   UNL A   1      41.320  30.596  34.491  1.00  0.00    -0.354 N 
ATOM     54  N   UNL A   1      41.637  29.051  32.010  1.00  0.00    -0.248 NA
ATOM     55  C   UNL A   1      42.765  27.438  30.755  1.00  0.00     0.031 C 
ATOM     56  C   UNL A   1      42.664  30.132  36.198  1.00  0.00     0.029 A 
ATOM     57  C   UNL A   1      42.367  29.782  34.891  1.00  0.00     0.049 A 
ATOM     58  H   UNL A   1      40.899  30.579  33.602  1.00  0.00     0.167 HD
ATOM     59  C   UNL A   1      42.634  28.486  32.791  1.00  0.00     0.074 A 
ATOM     60  C   UNL A   1      43.276  27.474  31.978  1.00  0.00     0.031 C 
ATOM     61  C   UNL A   1      42.990  28.780  34.065  1.00  0.00     0.037 A 
BRANCH  48  62
ATOM     62  C   UNL A   1      39.674  33.315  36.636  1.00  0.00     0.064 A 
ATOM     63  C   UNL A   1      38.767  32.964  37.648  1.00  0.00     0.173 A 
ATOM     64  C   UNL A   1      40.379  34.519  36.775  1.00  0.00     0.173 A 
ATOM     65  F   UNL A   1      38.059  31.828  37.555  1.00  0.00    -0.203 F 
ATOM     66  C   UNL A   1      38.554  33.800  38.740  1.00  0.00     0.198 A 
ATOM     67  C   UNL A   1      40.184  35.340  37.883  1.00  0.00     0.198 A 
ATOM     68  F   UNL A   1      41.260  34.900  35.837  1.00  0.00    -0.203 F 
ATOM     69  F   UNL A   1      37.646  33.468  39.668  1.00  0.00    -0.200 F 
ATOM     70  C   UNL A   1      39.267  34.983  38.860  1.00  0.00     0.200 A 
ATOM     71  F   UNL A   1      40.881  36.478  38.003  1.00  0.00    -0.200 F 
ATOM     72  F   UNL A   1      39.064  35.786  39.915  1.00  0.00    -0.200 F 
ENDBRANCH  48  62
BRANCH  49  73
ATOM     73  C   UNL A   1      41.070  27.831  28.402  1.00  0.00     0.064 A 
ATOM     74  C   UNL A   1      40.422  26.602  28.224  1.00  0.00     0.173 A 
ATOM     75  C   UNL A   1      41.936  28.268  27.390  1.00  0.00     0.173 A 
ATOM     76  F   UNL A   1      39.600  26.134  29.175  1.00  0.00    -0.203 F 
ATOM     77  C   UNL A   1      40.647  25.829  27.087  1.00  0.00     0.198 A 
ATOM     78  C   UNL A   1      42.141  27.506  26.242  1.00  0.00     0.198 A 
ATOM     79  F   UNL A   1      42.576  29.440  27.513  1.00  0.00    -0.203 F 
ATOM     80  F   UNL A   1      40.048  24.637  26.962  1.00  0.00    -0.200 F 
ATOM     81  C   UNL A   1      41.501  26.284  26.095  1.00  0.00     0.200 A 
ATOM     82  F   UNL A   1      42.959  27.954  25.280  1.00  0.00    -0.200 F 
ATOM     83  F   UNL A   1      41.717  25.540  25.001  1.00  0.00    -0.200 F 
ENDBRANCH  49  73
BRANCH  61  84
ATOM     84  C   UNL A   1      44.110  27.981  34.663  1.00  0.00     0.064 A 
ATOM     85  C   UNL A   1      43.873  26.761  35.314  1.00  0.00     0.173 A 
ATOM     86  C   UNL A   1      45.437  28.425  34.557  1.00  0.00     0.173 A 
ATOM     87  F   UNL A   1      42.619  26.304  35.453  1.00  0.00    -0.203 F 
ATOM     88  C   UNL A   1      44.921  26.028  35.863  1.00  0.00     0.198 A 
ATOM     89  C   UNL A   1      46.486  27.674  35.082  1.00  0.00     0.198 A 
ATOM     90  F   UNL A   1      45.716  29.581  33.938  1.00  0.00    -0.203 F 
ATOM     91  F   UNL A   1      44.667  24.890  36.523  1.00  0.00    -0.200 F 
ATOM     92  C   UNL A   1      46.226  26.482  35.741  1.00  0.00     0.200 A 
ATOM     93  F   UNL A   1      47.747  28.108  34.955  1.00  0.00    -0.200 F 
ATOM     94  F   UNL A   1      47.235  25.773  36.267  1.00  0.00    -0.200 F 
ENDBRANCH  61  84
ENDBRANCH  35  36
ENDBRANCH  27  30
ENDBRANCH  25  26
ENDBRANCH  24  25
ENDBRANCH   1  24
TORSDOF 15
ENDMDL
