MODEL 1
REMARK VINA RESULT:     -12.7      0.000      0.000
REMARK SMILES CC(C)c1ccc([C@]2(C(=O)NCCCNC(=O)c3ccc(-c4c5nc(c(-c6c(F)c(F)c(F)c(F)c6F)c6ccc([nH]6)c(-c6c(F)c(F)c(F)c(F)c6F)c6nc(c(-c7c(F)c(F)c(F)c(F)c7F)c7ccc4[nH]7)C=C6)C=C5)cc3)CCC[C@@H]2C)cc1
REMARK SMILES IDX 13 1 12 2 11 3 9 4 10 5 8 7 81 8 84 9 82 10 83 11 85 12 7 13
REMARK SMILES IDX 4 14 5 15 87 16 6 17 86 18 2 19 1 20 3 21 14 22 15 23 16 24
REMARK SMILES IDX 17 26 18 27 19 28 80 29 20 30 79 31 21 32 22 33 23 34 73 35
REMARK SMILES IDX 24 36 78 37 72 38 74 39 25 40 77 41 71 42 70 43 26 45 58 46
REMARK SMILES IDX 38 47 57 48 39 49 42 50 56 51 75 52 40 53 41 54 55 56 76 57
REMARK SMILES IDX 43 58 27 59 28 60 36 61 29 62 30 63 34 64 37 65 31 66 32 67
REMARK SMILES IDX 35 68 33 69 59 70 60 71 68 72 61 73 62 74 66 75 69 76 63 77
REMARK SMILES IDX 64 78 67 79 65 80 44 81 45 82 53 83 46 84 47 85 51 86 54 87
REMARK SMILES IDX 48 88 49 89 52 90 50 91
REMARK H PARENT 11 6 15 25 74 44 42 55
REMARK Flexibility Score: inf
ROOT
ATOM      1  C   UNL A   1      31.694  29.554  27.042  1.00  0.00     0.042 C 
ENDROOT
BRANCH   1   2
ATOM      2  C   UNL A   1      32.207  28.181  27.432  1.00  0.00     0.117 C 
BRANCH   2   3
ATOM      3  N   UNL A   1      31.267  27.131  27.167  1.00  0.00    -0.355 N 
ATOM      4  C   UNL A   1      31.121  26.260  26.144  1.00  0.00     0.230 C 
ATOM      5  O   UNL A   1      30.458  25.269  26.495  1.00  0.00    -0.274 OA
ATOM      6  H   UNL A   1      30.590  27.025  27.873  1.00  0.00     0.163 HD
BRANCH   4   7
ATOM      7  C   UNL A   1      31.623  26.436  24.637  1.00  0.00     0.077 C 
ATOM      8  C   UNL A   1      33.066  27.001  24.587  1.00  0.00     0.022 C 
ATOM      9  C   UNL A   1      31.758  25.122  23.767  1.00  0.00     0.006 C 
ATOM     10  C   UNL A   1      34.039  25.864  24.282  1.00  0.00     0.002 C 
ATOM     11  C   UNL A   1      33.226  24.658  23.858  1.00  0.00     0.005 C 
ATOM     12  C   UNL A   1      31.523  25.220  22.240  1.00  0.00     0.009 C 
BRANCH   7  13
ATOM     13  C   UNL A   1      30.617  27.471  24.047  1.00  0.00    -0.032 A 
ATOM     14  C   UNL A   1      28.789  29.371  22.947  1.00  0.00    -0.045 A 
ATOM     15  C   UNL A   1      30.155  29.652  23.043  1.00  0.00     0.004 A 
ATOM     16  C   UNL A   1      28.376  28.075  23.286  1.00  0.00     0.004 A 
ATOM     17  C   UNL A   1      31.054  28.699  23.531  1.00  0.00     0.005 A 
ATOM     18  C   UNL A   1      29.267  27.147  23.839  1.00  0.00     0.005 A 
BRANCH  14  19
ATOM     19  C   UNL A   1      27.768  30.387  22.452  1.00  0.00     0.013 C 
ATOM     20  C   UNL A   1      27.655  31.574  23.422  1.00  0.00     0.012 C 
ATOM     21  C   UNL A   1      28.039  30.945  21.046  1.00  0.00     0.012 C 
ENDBRANCH  14  19
ENDBRANCH   7  13
ENDBRANCH   4   7
ENDBRANCH   2   3
ENDBRANCH   1   2
BRANCH   1  22
ATOM     22  C   UNL A   1      32.773  30.405  26.394  1.00  0.00     0.118 C 
BRANCH  22  23
ATOM     23  N   UNL A   1      32.547  31.833  26.616  1.00  0.00    -0.352 N 
ATOM     24  C   UNL A   1      33.173  32.709  27.471  1.00  0.00     0.251 C 
ATOM     25  H   UNL A   1      31.834  32.230  26.066  1.00  0.00     0.163 HD
ATOM     26  O   UNL A   1      32.692  33.811  27.686  1.00  0.00    -0.269 OA
BRANCH  24  27
ATOM     27  C   UNL A   1      34.428  32.301  28.131  1.00  0.00     0.039 A 
ATOM     28  C   UNL A   1      35.539  33.147  28.084  1.00  0.00     0.014 A 
ATOM     29  C   UNL A   1      34.497  31.078  28.799  1.00  0.00     0.014 A 
ATOM     30  C   UNL A   1      36.702  32.793  28.770  1.00  0.00     0.010 A 
ATOM     31  C   UNL A   1      35.606  30.784  29.572  1.00  0.00     0.010 A 
ATOM     32  C   UNL A   1      36.728  31.625  29.549  1.00  0.00    -0.014 A 
BRANCH  32  33
ATOM     33  C   UNL A   1      37.925  31.202  30.312  1.00  0.00     0.031 A 
ATOM     34  C   UNL A   1      38.878  30.226  29.682  1.00  0.00     0.074 A 
ATOM     35  C   UNL A   1      38.083  31.585  31.592  1.00  0.00     0.049 A 
ATOM     36  N   UNL A   1      39.854  29.546  30.225  1.00  0.00    -0.248 NA
ATOM     37  C   UNL A   1      38.662  29.932  28.255  1.00  0.00     0.031 C 
ATOM     38  C   UNL A   1      37.199  32.495  32.322  1.00  0.00     0.029 A 
ATOM     39  N   UNL A   1      39.029  31.227  32.518  1.00  0.00    -0.354 N 
ATOM     40  C   UNL A   1      40.338  28.721  29.219  1.00  0.00     0.074 A 
ATOM     41  C   UNL A   1      39.505  28.934  28.056  1.00  0.00     0.031 C 
ATOM     42  C   UNL A   1      37.650  32.632  33.578  1.00  0.00     0.029 A 
ATOM     43  C   UNL A   1      38.821  31.779  33.757  1.00  0.00     0.049 A 
ATOM     44  H   UNL A   1      39.785  30.630  32.313  1.00  0.00     0.167 HD
ATOM     45  C   UNL A   1      41.397  27.879  29.255  1.00  0.00     0.037 A 
ATOM     46  C   UNL A   1      39.490  31.597  34.912  1.00  0.00     0.037 A 
ATOM     47  C   UNL A   1      42.239  27.709  30.408  1.00  0.00     0.049 A 
ATOM     48  C   UNL A   1      40.672  30.665  34.932  1.00  0.00     0.074 A 
ATOM     49  C   UNL A   1      43.374  26.932  30.542  1.00  0.00     0.029 A 
ATOM     50  N   UNL A   1      42.030  28.333  31.631  1.00  0.00    -0.354 N 
ATOM     51  N   UNL A   1      41.157  29.924  33.964  1.00  0.00    -0.248 NA
ATOM     52  C   UNL A   1      41.405  30.548  36.199  1.00  0.00     0.031 C 
ATOM     53  C   UNL A   1      43.827  27.048  31.861  1.00  0.00     0.029 A 
ATOM     54  C   UNL A   1      43.009  27.946  32.531  1.00  0.00     0.049 A 
ATOM     55  H   UNL A   1      41.295  28.956  31.830  1.00  0.00     0.167 HD
ATOM     56  C   UNL A   1      42.269  29.284  34.491  1.00  0.00     0.074 A 
ATOM     57  C   UNL A   1      42.388  29.722  35.867  1.00  0.00     0.031 C 
ATOM     58  C   UNL A   1      43.119  28.416  33.890  1.00  0.00     0.037 A 
BRANCH  45  59
ATOM     59  C   UNL A   1      41.693  27.087  28.013  1.00  0.00     0.064 A 
ATOM     60  C   UNL A   1      41.143  25.814  27.798  1.00  0.00     0.173 A 
ATOM     61  C   UNL A   1      42.547  27.604  27.027  1.00  0.00     0.173 A 
ATOM     62  F   UNL A   1      40.329  25.265  28.713  1.00  0.00    -0.203 F 
ATOM     63  C   UNL A   1      41.476  25.067  26.670  1.00  0.00     0.198 A 
ATOM     64  C   UNL A   1      42.848  26.871  25.881  1.00  0.00     0.198 A 
ATOM     65  F   UNL A   1      43.097  28.819  27.175  1.00  0.00    -0.203 F 
ATOM     66  F   UNL A   1      40.999  23.823  26.527  1.00  0.00    -0.200 F 
ATOM     67  C   UNL A   1      42.324  25.599  25.711  1.00  0.00     0.200 A 
ATOM     68  F   UNL A   1      43.654  27.392  24.947  1.00  0.00    -0.200 F 
ATOM     69  F   UNL A   1      42.647  24.879  24.628  1.00  0.00    -0.200 F 
ENDBRANCH  45  59
BRANCH  46  70
ATOM     70  C   UNL A   1      39.067  32.335  36.130  1.00  0.00     0.064 A 
ATOM     71  C   UNL A   1      38.232  31.731  37.080  1.00  0.00     0.173 A 
ATOM     72  C   UNL A   1      39.510  33.640  36.388  1.00  0.00     0.173 A 
ATOM     73  F   UNL A   1      37.770  30.489  36.871  1.00  0.00    -0.203 F 
ATOM     74  C   UNL A   1      37.846  32.409  38.235  1.00  0.00     0.198 A 
ATOM     75  C   UNL A   1      39.146  34.307  37.556  1.00  0.00     0.198 A 
ATOM     76  F   UNL A   1      40.319  34.259  35.516  1.00  0.00    -0.203 F 
ATOM     77  F   UNL A   1      37.019  31.819  39.110  1.00  0.00    -0.200 F 
ATOM     78  C   UNL A   1      38.309  33.693  38.475  1.00  0.00     0.200 A 
ATOM     79  F   UNL A   1      39.611  35.541  37.794  1.00  0.00    -0.200 F 
ATOM     80  F   UNL A   1      37.948  34.340  39.593  1.00  0.00    -0.200 F 
ENDBRANCH  46  70
BRANCH  58  81
ATOM     81  C   UNL A   1      44.292  27.926  34.687  1.00  0.00     0.064 A 
ATOM     82  C   UNL A   1      44.246  26.731  35.417  1.00  0.00     0.173 A 
ATOM     83  C   UNL A   1      45.508  28.628  34.648  1.00  0.00     0.173 A 
ATOM     84  F   UNL A   1      43.104  26.033  35.497  1.00  0.00    -0.203 F 
ATOM     85  C   UNL A   1      45.371  26.263  36.092  1.00  0.00     0.198 A 
ATOM     86  C   UNL A   1      46.638  28.141  35.296  1.00  0.00     0.198 A 
ATOM     87  F   UNL A   1      45.605  29.773  33.955  1.00  0.00    -0.203 F 
ATOM     88  F   UNL A   1      45.296  25.136  36.813  1.00  0.00    -0.200 F 
ATOM     89  C   UNL A   1      46.567  26.961  36.021  1.00  0.00     0.200 A 
ATOM     90  F   UNL A   1      47.797  28.809  35.212  1.00  0.00    -0.200 F 
ATOM     91  F   UNL A   1      47.655  26.497  36.653  1.00  0.00    -0.200 F 
ENDBRANCH  58  81
ENDBRANCH  32  33
ENDBRANCH  24  27
ENDBRANCH  22  23
ENDBRANCH   1  22
TORSDOF 12
ENDMDL
MODEL 2
REMARK VINA RESULT:     -12.6      1.919      3.684
REMARK SMILES CC(C)c1ccc([C@]2(C(=O)NCCCNC(=O)c3ccc(-c4c5nc(c(-c6c(F)c(F)c(F)c(F)c6F)c6ccc([nH]6)c(-c6c(F)c(F)c(F)c(F)c6F)c6nc(c(-c7c(F)c(F)c(F)c(F)c7F)c7ccc4[nH]7)C=C6)C=C5)cc3)CCC[C@@H]2C)cc1
REMARK SMILES IDX 13 1 12 2 11 3 9 4 10 5 8 7 81 8 84 9 82 10 83 11 85 12 7 13
REMARK SMILES IDX 4 14 5 15 87 16 6 17 86 18 2 19 1 20 3 21 14 22 15 23 16 24
REMARK SMILES IDX 17 26 18 27 19 28 80 29 20 30 79 31 21 32 22 33 23 34 73 35
REMARK SMILES IDX 24 36 78 37 72 38 74 39 25 40 77 41 71 42 70 43 26 45 58 46
REMARK SMILES IDX 38 47 57 48 39 49 42 50 56 51 75 52 40 53 41 54 55 56 76 57
REMARK SMILES IDX 43 58 27 59 28 60 36 61 29 62 30 63 34 64 37 65 31 66 32 67
REMARK SMILES IDX 35 68 33 69 59 70 60 71 68 72 61 73 62 74 66 75 69 76 63 77
REMARK SMILES IDX 64 78 67 79 65 80 44 81 45 82 53 83 46 84 47 85 51 86 54 87
REMARK SMILES IDX 48 88 49 89 52 90 50 91
REMARK H PARENT 11 6 15 25 74 44 42 55
REMARK Flexibility Score: inf
ROOT
ATOM      1  C   UNL A   1      34.057  28.589  24.105  1.00  0.00     0.042 C 
ENDROOT
BRANCH   1   2
ATOM      2  C   UNL A   1      32.966  28.120  23.162  1.00  0.00     0.117 C 
BRANCH   2   3
ATOM      3  N   UNL A   1      33.411  27.121  22.236  1.00  0.00    -0.355 N 
ATOM      4  C   UNL A   1      33.213  25.787  22.150  1.00  0.00     0.230 C 
ATOM      5  O   UNL A   1      33.418  25.379  20.995  1.00  0.00    -0.274 OA
ATOM      6  H   UNL A   1      33.977  27.481  21.515  1.00  0.00     0.163 HD
BRANCH   4   7
ATOM      7  C   UNL A   1      32.848  24.781  23.337  1.00  0.00     0.077 C 
ATOM      8  C   UNL A   1      31.998  25.482  24.428  1.00  0.00     0.022 C 
ATOM      9  C   UNL A   1      31.943  23.536  22.970  1.00  0.00     0.006 C 
ATOM     10  C   UNL A   1      30.536  25.075  24.264  1.00  0.00     0.002 C 
ATOM     11  C   UNL A   1      30.482  23.921  23.284  1.00  0.00     0.005 C 
ATOM     12  C   UNL A   1      32.131  22.225  23.771  1.00  0.00     0.009 C 
BRANCH   7  13
ATOM     13  C   UNL A   1      34.243  24.386  23.909  1.00  0.00    -0.032 A 
ATOM     14  C   UNL A   1      36.790  23.653  24.978  1.00  0.00    -0.045 A 
ATOM     15  C   UNL A   1      35.811  24.244  25.781  1.00  0.00     0.004 A 
ATOM     16  C   UNL A   1      36.424  23.313  23.667  1.00  0.00     0.004 A 
ATOM     17  C   UNL A   1      34.547  24.552  25.268  1.00  0.00     0.005 A 
ATOM     18  C   UNL A   1      35.183  23.685  23.137  1.00  0.00     0.005 A 
BRANCH  14  19
ATOM     19  C   UNL A   1      38.190  23.329  25.482  1.00  0.00     0.013 C 
ATOM     20  C   UNL A   1      38.569  24.225  26.672  1.00  0.00     0.012 C 
ATOM     21  C   UNL A   1      38.405  21.866  25.899  1.00  0.00     0.012 C 
ENDBRANCH  14  19
ENDBRANCH   7  13
ENDBRANCH   4   7
ENDBRANCH   2   3
ENDBRANCH   1   2
BRANCH   1  22
ATOM     22  C   UNL A   1      33.589  28.625  25.550  1.00  0.00     0.118 C 
BRANCH  22  23
ATOM     23  N   UNL A   1      33.005  29.918  25.902  1.00  0.00    -0.352 N 
ATOM     24  C   UNL A   1      33.366  30.822  26.873  1.00  0.00     0.251 C 
ATOM     25  H   UNL A   1      32.229  30.185  25.357  1.00  0.00     0.163 HD
ATOM     26  O   UNL A   1      32.617  31.740  27.172  1.00  0.00    -0.269 OA
BRANCH  24  27
ATOM     27  C   UNL A   1      34.665  30.668  27.555  1.00  0.00     0.039 A 
ATOM     28  C   UNL A   1      35.528  31.763  27.651  1.00  0.00     0.014 A 
ATOM     29  C   UNL A   1      35.023  29.435  28.100  1.00  0.00     0.014 A 
ATOM     30  C   UNL A   1      36.724  31.634  28.359  1.00  0.00     0.010 A 
ATOM     31  C   UNL A   1      36.149  29.341  28.898  1.00  0.00     0.010 A 
ATOM     32  C   UNL A   1      37.023  30.432  29.018  1.00  0.00    -0.014 A 
BRANCH  32  33
ATOM     33  C   UNL A   1      38.267  30.237  29.798  1.00  0.00     0.031 A 
ATOM     34  C   UNL A   1      39.323  29.315  29.258  1.00  0.00     0.074 A 
ATOM     35  C   UNL A   1      38.389  30.775  31.026  1.00  0.00     0.049 A 
ATOM     36  N   UNL A   1      40.378  28.817  29.851  1.00  0.00    -0.248 NA
ATOM     37  C   UNL A   1      39.133  28.843  27.876  1.00  0.00     0.031 C 
ATOM     38  C   UNL A   1      37.410  31.651  31.670  1.00  0.00     0.029 A 
ATOM     39  N   UNL A   1      39.378  30.632  31.965  1.00  0.00    -0.354 N 
ATOM     40  C   UNL A   1      40.947  27.948  28.931  1.00  0.00     0.074 A 
ATOM     41  C   UNL A   1      40.086  27.933  27.769  1.00  0.00     0.031 C 
ATOM     42  C   UNL A   1      37.852  31.976  32.895  1.00  0.00     0.029 A 
ATOM     43  C   UNL A   1      39.116  31.290  33.141  1.00  0.00     0.049 A 
ATOM     44  H   UNL A   1      40.198  30.109  31.810  1.00  0.00     0.167 HD
ATOM     45  C   UNL A   1      42.099  27.244  29.036  1.00  0.00     0.037 A 
ATOM     46  C   UNL A   1      39.811  31.315  34.295  1.00  0.00     0.037 A 
ATOM     47  C   UNL A   1      42.963  27.301  30.183  1.00  0.00     0.049 A 
ATOM     48  C   UNL A   1      41.094  30.534  34.391  1.00  0.00     0.074 A 
ATOM     49  C   UNL A   1      44.183  26.681  30.377  1.00  0.00     0.029 A 
ATOM     50  N   UNL A   1      42.692  28.027  31.336  1.00  0.00    -0.354 N 
ATOM     51  N   UNL A   1      41.655  29.753  33.499  1.00  0.00    -0.248 NA
ATOM     52  C   UNL A   1      41.846  30.643  35.648  1.00  0.00     0.031 C 
ATOM     53  C   UNL A   1      44.629  26.993  31.666  1.00  0.00     0.029 A 
ATOM     54  C   UNL A   1      43.717  27.858  32.251  1.00  0.00     0.049 A 
ATOM     55  H   UNL A   1      41.891  28.579  31.480  1.00  0.00     0.167 HD
ATOM     56  C   UNL A   1      42.839  29.308  34.070  1.00  0.00     0.074 A 
ATOM     57  C   UNL A   1      42.916  29.906  35.388  1.00  0.00     0.031 C 
ATOM     58  C   UNL A   1      43.781  28.484  33.549  1.00  0.00     0.037 A 
BRANCH  45  59
ATOM     59  C   UNL A   1      42.476  26.360  27.881  1.00  0.00     0.064 A 
ATOM     60  C   UNL A   1      41.968  25.058  27.749  1.00  0.00     0.173 A 
ATOM     61  C   UNL A   1      43.366  26.816  26.897  1.00  0.00     0.173 A 
ATOM     62  F   UNL A   1      41.123  24.565  28.667  1.00  0.00    -0.203 F 
ATOM     63  C   UNL A   1      42.377  24.229  26.706  1.00  0.00     0.198 A 
ATOM     64  C   UNL A   1      43.741  25.999  25.833  1.00  0.00     0.198 A 
ATOM     65  F   UNL A   1      43.878  28.055  26.968  1.00  0.00    -0.203 F 
ATOM     66  F   UNL A   1      41.938  22.965  26.646  1.00  0.00    -0.200 F 
ATOM     67  C   UNL A   1      43.258  24.703  25.747  1.00  0.00     0.200 A 
ATOM     68  F   UNL A   1      44.581  26.463  24.898  1.00  0.00    -0.200 F 
ATOM     69  F   UNL A   1      43.653  23.905  24.746  1.00  0.00    -0.200 F 
ENDBRANCH  45  59
BRANCH  46  70
ATOM     70  C   UNL A   1      39.313  32.128  35.434  1.00  0.00     0.064 A 
ATOM     71  C   UNL A   1      38.493  31.558  36.418  1.00  0.00     0.173 A 
ATOM     72  C   UNL A   1      39.670  33.477  35.585  1.00  0.00     0.173 A 
ATOM     73  F   UNL A   1      38.112  30.277  36.310  1.00  0.00    -0.203 F 
ATOM     74  C   UNL A   1      38.037  32.309  37.500  1.00  0.00     0.198 A 
ATOM     75  C   UNL A   1      39.237  34.218  36.681  1.00  0.00     0.198 A 
ATOM     76  F   UNL A   1      40.462  34.066  34.677  1.00  0.00    -0.203 F 
ATOM     77  F   UNL A   1      37.227  31.748  38.407  1.00  0.00    -0.200 F 
ATOM     78  C   UNL A   1      38.416  33.636  37.635  1.00  0.00     0.200 A 
ATOM     79  F   UNL A   1      39.620  35.495  36.818  1.00  0.00    -0.200 F 
ATOM     80  F   UNL A   1      37.988  34.354  38.683  1.00  0.00    -0.200 F 
ENDBRANCH  46  70
BRANCH  58  81
ATOM     81  C   UNL A   1      45.010  28.225  34.370  1.00  0.00     0.064 A 
ATOM     82  C   UNL A   1      45.086  27.158  35.275  1.00  0.00     0.173 A 
ATOM     83  C   UNL A   1      46.157  29.012  34.182  1.00  0.00     0.173 A 
ATOM     84  F   UNL A   1      44.012  26.386  35.500  1.00  0.00    -0.203 F 
ATOM     85  C   UNL A   1      46.262  26.896  35.973  1.00  0.00     0.198 A 
ATOM     86  C   UNL A   1      47.340  28.729  34.857  1.00  0.00     0.198 A 
ATOM     87  F   UNL A   1      46.137  30.040  33.320  1.00  0.00    -0.203 F 
ATOM     88  F   UNL A   1      46.303  25.892  36.860  1.00  0.00    -0.200 F 
ATOM     89  C   UNL A   1      47.390  27.674  35.756  1.00  0.00     0.200 A 
ATOM     90  F   UNL A   1      48.432  29.471  34.632  1.00  0.00    -0.200 F 
ATOM     91  F   UNL A   1      48.527  27.407  36.413  1.00  0.00    -0.200 F 
ENDBRANCH  58  81
ENDBRANCH  32  33
ENDBRANCH  24  27
ENDBRANCH  22  23
ENDBRANCH   1  22
TORSDOF 12
ENDMDL
MODEL 3
REMARK VINA RESULT:     -12.5      4.490      9.611
REMARK SMILES CC(C)c1ccc([C@]2(C(=O)NCCCNC(=O)c3ccc(-c4c5nc(c(-c6c(F)c(F)c(F)c(F)c6F)c6ccc([nH]6)c(-c6c(F)c(F)c(F)c(F)c6F)c6nc(c(-c7c(F)c(F)c(F)c(F)c7F)c7ccc4[nH]7)C=C6)C=C5)cc3)CCC[C@@H]2C)cc1
REMARK SMILES IDX 13 1 12 2 11 3 9 4 10 5 8 7 81 8 84 9 82 10 83 11 85 12 7 13
REMARK SMILES IDX 4 14 5 15 87 16 6 17 86 18 2 19 1 20 3 21 14 22 15 23 16 24
REMARK SMILES IDX 17 26 18 27 19 28 80 29 20 30 79 31 21 32 22 33 23 34 73 35
REMARK SMILES IDX 24 36 78 37 72 38 74 39 25 40 77 41 71 42 70 43 26 45 58 46
REMARK SMILES IDX 38 47 57 48 39 49 42 50 56 51 75 52 40 53 41 54 55 56 76 57
REMARK SMILES IDX 43 58 27 59 28 60 36 61 29 62 30 63 34 64 37 65 31 66 32 67
REMARK SMILES IDX 35 68 33 69 59 70 60 71 68 72 61 73 62 74 66 75 69 76 63 77
REMARK SMILES IDX 64 78 67 79 65 80 44 81 45 82 53 83 46 84 47 85 51 86 54 87
REMARK SMILES IDX 48 88 49 89 52 90 50 91
REMARK H PARENT 11 6 15 25 74 44 42 55
REMARK Flexibility Score: inf
ROOT
ATOM      1  C   UNL A   1      34.848  22.715  27.250  1.00  0.00     0.042 C 
ENDROOT
BRANCH   1   2
ATOM      2  C   UNL A   1      33.555  22.103  26.744  1.00  0.00     0.117 C 
BRANCH   2   3
ATOM      3  N   UNL A   1      32.387  22.804  27.191  1.00  0.00    -0.355 N 
ATOM      4  C   UNL A   1      31.516  23.634  26.576  1.00  0.00     0.230 C 
ATOM      5  O   UNL A   1      30.437  23.683  27.191  1.00  0.00    -0.274 OA
ATOM      6  H   UNL A   1      32.177  22.649  28.141  1.00  0.00     0.163 HD
BRANCH   4   7
ATOM      7  C   UNL A   1      31.780  24.534  25.282  1.00  0.00     0.077 C 
ATOM      8  C   UNL A   1      32.819  23.873  24.340  1.00  0.00     0.022 C 
ATOM      9  C   UNL A   1      30.556  24.763  24.306  1.00  0.00     0.006 C 
ATOM     10  C   UNL A   1      32.090  23.227  23.164  1.00  0.00     0.002 C 
ATOM     11  C   UNL A   1      30.653  23.703  23.189  1.00  0.00     0.005 C 
ATOM     12  C   UNL A   1      30.482  26.091  23.513  1.00  0.00     0.009 C 
BRANCH   7  13
ATOM     13  C   UNL A   1      32.354  25.854  25.879  1.00  0.00    -0.032 A 
ATOM     14  C   UNL A   1      33.415  28.281  26.950  1.00  0.00    -0.045 A 
ATOM     15  C   UNL A   1      34.182  27.460  26.119  1.00  0.00     0.004 A 
ATOM     16  C   UNL A   1      32.068  27.935  27.126  1.00  0.00     0.004 A 
ATOM     17  C   UNL A   1      33.642  26.302  25.552  1.00  0.00     0.005 A 
ATOM     18  C   UNL A   1      31.549  26.739  26.615  1.00  0.00     0.005 A 
BRANCH  14  19
ATOM     19  C   UNL A   1      33.969  29.534  27.615  1.00  0.00     0.013 C 
ATOM     20  C   UNL A   1      35.461  29.717  27.293  1.00  0.00     0.012 C 
ATOM     21  C   UNL A   1      33.240  30.836  27.251  1.00  0.00     0.012 C 
ENDBRANCH  14  19
ENDBRANCH   7  13
ENDBRANCH   4   7
ENDBRANCH   2   3
ENDBRANCH   1   2
BRANCH   1  22
ATOM     22  C   UNL A   1      35.845  22.955  26.128  1.00  0.00     0.118 C 
BRANCH  22  23
ATOM     23  N   UNL A   1      36.714  21.799  25.915  1.00  0.00    -0.352 N 
ATOM     24  C   UNL A   1      38.085  21.705  25.920  1.00  0.00     0.251 C 
ATOM     25  H   UNL A   1      36.242  20.952  25.740  1.00  0.00     0.163 HD
ATOM     26  O   UNL A   1      38.638  20.704  25.491  1.00  0.00    -0.269 OA
BRANCH  24  27
ATOM     27  C   UNL A   1      38.884  22.830  26.443  1.00  0.00     0.039 A 
ATOM     28  C   UNL A   1      39.993  22.572  27.251  1.00  0.00     0.014 A 
ATOM     29  C   UNL A   1      38.529  24.142  26.125  1.00  0.00     0.014 A 
ATOM     30  C   UNL A   1      40.789  23.634  27.685  1.00  0.00     0.010 A 
ATOM     31  C   UNL A   1      39.381  25.180  26.457  1.00  0.00     0.010 A 
ATOM     32  C   UNL A   1      40.507  24.941  27.259  1.00  0.00    -0.014 A 
BRANCH  32  33
ATOM     33  C   UNL A   1      41.321  26.108  27.671  1.00  0.00     0.031 A 
ATOM     34  C   UNL A   1      40.658  27.222  28.429  1.00  0.00     0.074 A 
ATOM     35  C   UNL A   1      42.597  26.224  27.259  1.00  0.00     0.049 A 
ATOM     36  N   UNL A   1      41.097  28.425  28.697  1.00  0.00    -0.248 NA
ATOM     37  C   UNL A   1      39.286  26.965  28.901  1.00  0.00     0.031 C 
ATOM     38  C   UNL A   1      43.333  25.225  26.483  1.00  0.00     0.029 A 
ATOM     39  N   UNL A   1      43.491  27.253  27.411  1.00  0.00    -0.354 N 
ATOM     40  C   UNL A   1      40.044  29.073  29.329  1.00  0.00     0.074 A 
ATOM     41  C   UNL A   1      38.926  28.158  29.342  1.00  0.00     0.031 C 
ATOM     42  C   UNL A   1      44.568  25.686  26.234  1.00  0.00     0.029 A 
ATOM     43  C   UNL A   1      44.693  27.031  26.787  1.00  0.00     0.049 A 
ATOM     44  H   UNL A   1      43.289  28.072  27.919  1.00  0.00     0.167 HD
ATOM     45  C   UNL A   1      40.021  30.313  29.872  1.00  0.00     0.037 A 
ATOM     46  C   UNL A   1      45.766  27.836  26.658  1.00  0.00     0.037 A 
ATOM     47  C   UNL A   1      41.155  31.197  29.884  1.00  0.00     0.049 A 
ATOM     48  C   UNL A   1      45.727  29.208  27.276  1.00  0.00     0.074 A 
ATOM     49  C   UNL A   1      41.269  32.450  30.457  1.00  0.00     0.029 A 
ATOM     50  N   UNL A   1      42.379  30.912  29.291  1.00  0.00    -0.354 N 
ATOM     51  N   UNL A   1      44.747  29.798  27.916  1.00  0.00    -0.248 NA
ATOM     52  C   UNL A   1      46.943  30.023  27.161  1.00  0.00     0.031 C 
ATOM     53  C   UNL A   1      42.545  32.945  30.170  1.00  0.00     0.029 A 
ATOM     54  C   UNL A   1      43.249  31.975  29.473  1.00  0.00     0.049 A 
ATOM     55  H   UNL A   1      42.595  30.081  28.812  1.00  0.00     0.167 HD
ATOM     56  C   UNL A   1      45.237  31.035  28.312  1.00  0.00     0.074 A 
ATOM     57  C   UNL A   1      46.604  31.111  27.839  1.00  0.00     0.031 C 
ATOM     58  C   UNL A   1      44.614  32.016  29.010  1.00  0.00     0.037 A 
BRANCH  45  59
ATOM     59  C   UNL A   1      38.731  30.774  30.488  1.00  0.00     0.064 A 
ATOM     60  C   UNL A   1      38.473  30.631  31.861  1.00  0.00     0.173 A 
ATOM     61  C   UNL A   1      37.733  31.359  29.694  1.00  0.00     0.173 A 
ATOM     62  F   UNL A   1      39.388  30.068  32.666  1.00  0.00    -0.203 F 
ATOM     63  C   UNL A   1      37.247  31.007  32.405  1.00  0.00     0.198 A 
ATOM     64  C   UNL A   1      36.523  31.770  30.249  1.00  0.00     0.198 A 
ATOM     65  F   UNL A   1      37.926  31.527  28.377  1.00  0.00    -0.203 F 
ATOM     66  F   UNL A   1      36.998  30.787  33.703  1.00  0.00    -0.200 F 
ATOM     67  C   UNL A   1      36.276  31.580  31.600  1.00  0.00     0.200 A 
ATOM     68  F   UNL A   1      35.591  32.339  29.473  1.00  0.00    -0.200 F 
ATOM     69  F   UNL A   1      35.096  31.939  32.124  1.00  0.00    -0.200 F 
ENDBRANCH  45  59
BRANCH  46  70
ATOM     70  C   UNL A   1      46.968  27.347  25.936  1.00  0.00     0.064 A 
ATOM     71  C   UNL A   1      47.122  27.576  24.561  1.00  0.00     0.173 A 
ATOM     72  C   UNL A   1      48.002  26.673  26.603  1.00  0.00     0.173 A 
ATOM     73  F   UNL A   1      46.155  28.204  23.876  1.00  0.00    -0.203 F 
ATOM     74  C   UNL A   1      48.255  27.138  23.880  1.00  0.00     0.198 A 
ATOM     75  C   UNL A   1      49.147  26.259  25.926  1.00  0.00     0.198 A 
ATOM     76  F   UNL A   1      47.909  26.438  27.920  1.00  0.00    -0.203 F 
ATOM     77  F   UNL A   1      48.360  27.341  22.559  1.00  0.00    -0.200 F 
ATOM     78  C   UNL A   1      49.270  26.486  24.564  1.00  0.00     0.200 A 
ATOM     79  F   UNL A   1      50.134  25.646  26.595  1.00  0.00    -0.200 F 
ATOM     80  F   UNL A   1      50.366  26.077  23.910  1.00  0.00    -0.200 F 
ENDBRANCH  46  70
BRANCH  58  81
ATOM     81  C   UNL A   1      45.416  33.234  29.365  1.00  0.00     0.064 A 
ATOM     82  C   UNL A   1      46.204  33.292  30.522  1.00  0.00     0.173 A 
ATOM     83  C   UNL A   1      45.458  34.327  28.484  1.00  0.00     0.173 A 
ATOM     84  F   UNL A   1      46.187  32.279  31.401  1.00  0.00    -0.203 F 
ATOM     85  C   UNL A   1      46.994  34.405  30.793  1.00  0.00     0.198 A 
ATOM     86  C   UNL A   1      46.273  35.424  28.741  1.00  0.00     0.198 A 
ATOM     87  F   UNL A   1      44.728  34.315  27.358  1.00  0.00    -0.203 F 
ATOM     88  F   UNL A   1      47.714  34.456  31.923  1.00  0.00    -0.200 F 
ATOM     89  C   UNL A   1      47.037  35.465  29.898  1.00  0.00     0.200 A 
ATOM     90  F   UNL A   1      46.325  36.438  27.866  1.00  0.00    -0.200 F 
ATOM     91  F   UNL A   1      47.815  36.527  30.149  1.00  0.00    -0.200 F 
ENDBRANCH  58  81
ENDBRANCH  32  33
ENDBRANCH  24  27
ENDBRANCH  22  23
ENDBRANCH   1  22
TORSDOF 12
ENDMDL
