MODEL 1
REMARK VINA RESULT:     -11.9      0.000      0.000
REMARK SMILES Cc1nc(C)c(C(=O)N[C@@H](CCS(C)(=O)=O)C(=O)NCCCNC(=O)c2ccc(-c3c4nc(c(-c5c(F)c(F)c(F)c(F)c5F)c5ccc([nH]5)c(-c5c(F)c(F)c(F)c(F)c5F)c5nc(c(-c6c(F)c(F)c(F)c(F)c6F)c6ccc3[nH]6)C=C5)C=C4)cc2)s1
REMARK SMILES IDX 20 1 19 2 17 3 18 4 10 6 9 7 7 8 8 9 6 11 1 12 2 13 3 14
REMARK SMILES IDX 89 15 4 16 5 17 11 18 12 19 13 20 14 21 15 22 16 23 21 24
REMARK SMILES IDX 22 25 23 26 24 27 25 29 26 30 27 31 88 32 28 33 87 34 29 35
REMARK SMILES IDX 30 36 31 37 81 38 32 39 86 40 80 41 82 42 33 43 85 44 79 45
REMARK SMILES IDX 78 46 34 48 66 49 46 50 65 51 47 52 50 53 64 54 83 55 48 56
REMARK SMILES IDX 49 57 63 59 84 60 51 61 35 62 36 63 44 64 37 65 38 66 42 67
REMARK SMILES IDX 45 68 39 69 40 70 43 71 41 72 67 73 68 74 76 75 69 76 70 77
REMARK SMILES IDX 74 78 77 79 71 80 72 81 75 82 73 83 52 84 53 85 61 86 54 87
REMARK SMILES IDX 55 88 59 89 62 90 56 91 57 92 60 93 58 94
REMARK H PARENT 19 5 9 10 23 28 82 47 50 58
REMARK Flexibility Score: inf
ROOT
ATOM      1  C   UNL A   1      32.492  29.932  26.591  1.00  0.00     0.117 C 
ENDROOT
BRANCH   1   2
ATOM      2  N   UNL A   1      33.275  29.791  25.375  1.00  0.00    -0.354 N 
ATOM      3  C   UNL A   1      33.205  28.871  24.381  1.00  0.00     0.242 C 
ATOM      4  O   UNL A   1      33.625  29.208  23.268  1.00  0.00    -0.273 OA
ATOM      5  H   UNL A   1      33.970  30.477  25.252  1.00  0.00     0.163 HD
BRANCH   3   6
ATOM      6  C   UNL A   1      32.518  27.509  24.540  1.00  0.00     0.172 C 
BRANCH   6   7
ATOM      7  N   UNL A   1      32.115  26.851  23.298  1.00  0.00    -0.339 N 
ATOM      8  C   UNL A   1      31.172  27.169  22.338  1.00  0.00     0.263 C 
ATOM      9  O   UNL A   1      31.366  26.596  21.260  1.00  0.00    -0.268 OA
ATOM     10  H   UNL A   1      32.611  26.022  23.108  1.00  0.00     0.164 HD
BRANCH   8  11
ATOM     11  C   UNL A   1      30.031  28.059  22.537  1.00  0.00     0.115 A 
ATOM     12  C   UNL A   1      27.752  31.230  22.701  1.00  0.00     0.079 C 
ATOM     13  C   UNL A   1      28.447  29.915  22.757  1.00  0.00     0.091 A 
ATOM     14  N   UNL A   1      27.941  28.838  23.305  1.00  0.00    -0.246 NA
ATOM     15  S   UNL A   1      30.028  29.734  22.145  1.00  0.00    -0.113 S 
ATOM     16  C   UNL A   1      28.846  27.784  23.225  1.00  0.00     0.061 A 
ATOM     17  C   UNL A   1      28.441  26.531  23.924  1.00  0.00     0.068 C 
ENDBRANCH   8  11
ENDBRANCH   6   7
BRANCH   6  18
ATOM     18  C   UNL A   1      33.199  26.538  25.523  1.00  0.00     0.051 C 
BRANCH  18  19
ATOM     19  C   UNL A   1      32.375  25.803  26.573  1.00  0.00     0.139 C 
BRANCH  19  20
ATOM     20  S   UNL A   1      31.670  24.212  26.127  1.00  0.00     0.147 S 
ATOM     21  C   UNL A   1      33.025  23.062  26.066  1.00  0.00     0.158 C 
ATOM     22  O   UNL A   1      30.830  23.813  27.242  1.00  0.00    -0.229 OA
ATOM     23  O   UNL A   1      31.092  24.304  24.802  1.00  0.00    -0.229 OA
ENDBRANCH  19  20
ENDBRANCH  18  19
ENDBRANCH   6  18
ENDBRANCH   3   6
ENDBRANCH   1   2
BRANCH   1  24
ATOM     24  C   UNL A   1      31.994  31.345  26.841  1.00  0.00     0.042 C 
BRANCH  24  25
ATOM     25  C   UNL A   1      33.033  32.333  27.356  1.00  0.00     0.118 C 
BRANCH  25  26
ATOM     26  N   UNL A   1      32.546  33.686  27.583  1.00  0.00    -0.352 N 
ATOM     27  C   UNL A   1      33.015  34.668  28.430  1.00  0.00     0.251 C 
ATOM     28  H   UNL A   1      31.759  33.940  27.048  1.00  0.00     0.163 HD
ATOM     29  O   UNL A   1      32.441  35.749  28.529  1.00  0.00    -0.269 OA
BRANCH  27  30
ATOM     30  C   UNL A   1      34.196  34.400  29.283  1.00  0.00     0.039 A 
ATOM     31  C   UNL A   1      34.006  33.877  30.564  1.00  0.00     0.014 A 
ATOM     32  C   UNL A   1      35.488  34.595  28.798  1.00  0.00     0.014 A 
ATOM     33  C   UNL A   1      35.108  33.420  31.296  1.00  0.00     0.010 A 
ATOM     34  C   UNL A   1      36.565  34.024  29.467  1.00  0.00     0.010 A 
ATOM     35  C   UNL A   1      36.389  33.417  30.720  1.00  0.00    -0.014 A 
BRANCH  35  36
ATOM     36  C   UNL A   1      37.554  32.772  31.385  1.00  0.00     0.031 A 
ATOM     37  C   UNL A   1      38.260  31.620  30.719  1.00  0.00     0.074 A 
ATOM     38  C   UNL A   1      37.915  33.150  32.630  1.00  0.00     0.049 A 
ATOM     39  N   UNL A   1      39.186  30.826  31.196  1.00  0.00    -0.248 NA
ATOM     40  C   UNL A   1      37.835  31.287  29.350  1.00  0.00     0.031 C 
ATOM     41  C   UNL A   1      37.276  34.205  33.418  1.00  0.00     0.029 A 
ATOM     42  N   UNL A   1      38.902  32.674  33.459  1.00  0.00    -0.354 N 
ATOM     43  C   UNL A   1      39.422  29.884  30.204  1.00  0.00     0.074 A 
ATOM     44  C   UNL A   1      38.505  30.167  29.122  1.00  0.00     0.031 C 
ATOM     45  C   UNL A   1      37.906  34.319  34.599  1.00  0.00     0.029 A 
ATOM     46  C   UNL A   1      38.963  33.318  34.673  1.00  0.00     0.049 A 
ATOM     47  H   UNL A   1      39.509  31.941  33.209  1.00  0.00     0.167 HD
ATOM     48  C   UNL A   1      40.343  28.891  30.179  1.00  0.00     0.037 A 
ATOM     49  C   UNL A   1      39.775  33.117  35.729  1.00  0.00     0.037 A 
ATOM     50  C   UNL A   1      41.296  28.646  31.227  1.00  0.00     0.049 A 
ATOM     51  C   UNL A   1      40.815  32.030  35.660  1.00  0.00     0.074 A 
ATOM     52  C   UNL A   1      42.311  27.706  31.268  1.00  0.00     0.029 A 
ATOM     53  N   UNL A   1      41.361  29.359  32.415  1.00  0.00    -0.354 N 
ATOM     54  N   UNL A   1      41.063  31.183  34.692  1.00  0.00    -0.248 NA
ATOM     55  C   UNL A   1      41.690  31.876  36.831  1.00  0.00     0.031 C 
ATOM     56  C   UNL A   1      42.976  27.834  32.492  1.00  0.00     0.029 A 
ATOM     57  C   UNL A   1      42.398  28.878  33.196  1.00  0.00     0.049 A 
ATOM     58  H   UNL A   1      40.759  30.096  32.665  1.00  0.00     0.167 HD
ATOM     59  C   UNL A   1      42.138  30.419  35.121  1.00  0.00     0.074 A 
ATOM     60  C   UNL A   1      42.506  30.910  36.433  1.00  0.00     0.031 C 
ATOM     61  C   UNL A   1      42.764  29.397  34.488  1.00  0.00     0.037 A 
BRANCH  48  62
ATOM     62  C   UNL A   1      40.380  28.009  28.965  1.00  0.00     0.064 A 
ATOM     63  C   UNL A   1      41.153  28.343  27.842  1.00  0.00     0.173 A 
ATOM     64  C   UNL A   1      39.669  26.801  28.935  1.00  0.00     0.173 A 
ATOM     65  F   UNL A   1      41.842  29.494  27.815  1.00  0.00    -0.203 F 
ATOM     66  C   UNL A   1      41.190  27.515  26.724  1.00  0.00     0.198 A 
ATOM     67  C   UNL A   1      39.732  25.959  27.828  1.00  0.00     0.198 A 
ATOM     68  F   UNL A   1      38.920  26.431  29.985  1.00  0.00    -0.203 F 
ATOM     69  F   UNL A   1      41.896  27.879  25.646  1.00  0.00    -0.200 F 
ATOM     70  C   UNL A   1      40.486  26.321  26.721  1.00  0.00     0.200 A 
ATOM     71  F   UNL A   1      39.061  24.799  27.830  1.00  0.00    -0.200 F 
ATOM     72  F   UNL A   1      40.528  25.519  25.648  1.00  0.00    -0.200 F 
ENDBRANCH  48  62
BRANCH  49  73
ATOM     73  C   UNL A   1      39.665  33.980  36.934  1.00  0.00     0.064 A 
ATOM     74  C   UNL A   1      40.356  35.198  37.007  1.00  0.00     0.173 A 
ATOM     75  C   UNL A   1      38.895  33.601  38.043  1.00  0.00     0.173 A 
ATOM     76  F   UNL A   1      41.125  35.593  35.981  1.00  0.00    -0.203 F 
ATOM     77  C   UNL A   1      40.304  35.991  38.151  1.00  0.00     0.198 A 
ATOM     78  C   UNL A   1      38.821  34.408  39.177  1.00  0.00     0.198 A 
ATOM     79  F   UNL A   1      38.212  32.448  38.023  1.00  0.00    -0.203 F 
ATOM     80  F   UNL A   1      41.017  37.124  38.213  1.00  0.00    -0.200 F 
ATOM     81  C   UNL A   1      39.533  35.597  39.235  1.00  0.00     0.200 A 
ATOM     82  F   UNL A   1      38.066  34.030  40.218  1.00  0.00    -0.200 F 
ATOM     83  F   UNL A   1      39.485  36.357  40.337  1.00  0.00    -0.200 F 
ENDBRANCH  49  73
BRANCH  61  84
ATOM     84  C   UNL A   1      43.939  28.775  35.180  1.00  0.00     0.064 A 
ATOM     85  C   UNL A   1      45.244  29.246  34.978  1.00  0.00     0.173 A 
ATOM     86  C   UNL A   1      43.750  27.723  36.089  1.00  0.00     0.173 A 
ATOM     87  F   UNL A   1      45.476  30.240  34.107  1.00  0.00    -0.203 F 
ATOM     88  C   UNL A   1      46.321  28.673  35.648  1.00  0.00     0.198 A 
ATOM     89  C   UNL A   1      44.825  27.171  36.777  1.00  0.00     0.198 A 
ATOM     90  F   UNL A   1      42.519  27.242  36.319  1.00  0.00    -0.203 F 
ATOM     91  F   UNL A   1      47.565  29.111  35.411  1.00  0.00    -0.200 F 
ATOM     92  C   UNL A   1      46.111  27.641  36.552  1.00  0.00     0.200 A 
ATOM     93  F   UNL A   1      44.619  26.183  37.659  1.00  0.00    -0.200 F 
ATOM     94  F   UNL A   1      47.148  27.096  37.201  1.00  0.00    -0.200 F 
ENDBRANCH  61  84
ENDBRANCH  35  36
ENDBRANCH  27  30
ENDBRANCH  25  26
ENDBRANCH  24  25
ENDBRANCH   1  24
TORSDOF 15
ENDMDL
MODEL 2
REMARK VINA RESULT:     -11.9      0.602      7.415
REMARK SMILES Cc1nc(C)c(C(=O)N[C@@H](CCS(C)(=O)=O)C(=O)NCCCNC(=O)c2ccc(-c3c4nc(c(-c5c(F)c(F)c(F)c(F)c5F)c5ccc([nH]5)c(-c5c(F)c(F)c(F)c(F)c5F)c5nc(c(-c6c(F)c(F)c(F)c(F)c6F)c6ccc3[nH]6)C=C5)C=C4)cc2)s1
REMARK SMILES IDX 20 1 19 2 17 3 18 4 10 6 9 7 7 8 8 9 6 11 1 12 2 13 3 14
REMARK SMILES IDX 89 15 4 16 5 17 11 18 12 19 13 20 14 21 15 22 16 23 21 24
REMARK SMILES IDX 22 25 23 26 24 27 25 29 26 30 27 31 88 32 28 33 87 34 29 35
REMARK SMILES IDX 30 36 31 37 81 38 32 39 86 40 80 41 82 42 33 43 85 44 79 45
REMARK SMILES IDX 78 46 34 48 66 49 46 50 65 51 47 52 50 53 64 54 83 55 48 56
REMARK SMILES IDX 49 57 63 59 84 60 51 61 35 62 36 63 44 64 37 65 38 66 42 67
REMARK SMILES IDX 45 68 39 69 40 70 43 71 41 72 67 73 68 74 76 75 69 76 70 77
REMARK SMILES IDX 74 78 77 79 71 80 72 81 75 82 73 83 52 84 53 85 61 86 54 87
REMARK SMILES IDX 55 88 59 89 62 90 56 91 57 92 60 93 58 94
REMARK H PARENT 19 5 9 10 23 28 82 47 50 58
REMARK Flexibility Score: inf
ROOT
ATOM      1  C   UNL A   1      32.115  30.239  26.650  1.00  0.00     0.117 C 
ENDROOT
BRANCH   1   2
ATOM      2  N   UNL A   1      33.010  30.017  25.527  1.00  0.00    -0.354 N 
ATOM      3  C   UNL A   1      33.013  29.050  24.577  1.00  0.00     0.242 C 
ATOM      4  O   UNL A   1      33.551  29.319  23.497  1.00  0.00    -0.273 OA
ATOM      5  H   UNL A   1      33.734  30.679  25.443  1.00  0.00     0.163 HD
BRANCH   3   6
ATOM      6  C   UNL A   1      32.273  27.715  24.731  1.00  0.00     0.172 C 
BRANCH   6   7
ATOM      7  N   UNL A   1      31.962  27.013  23.487  1.00  0.00    -0.339 N 
ATOM      8  C   UNL A   1      31.082  27.287  22.457  1.00  0.00     0.263 C 
ATOM      9  O   UNL A   1      31.354  26.684  21.413  1.00  0.00    -0.268 OA
ATOM     10  H   UNL A   1      32.480  26.185  23.357  1.00  0.00     0.164 HD
BRANCH   8  11
ATOM     11  C   UNL A   1      29.920  28.168  22.550  1.00  0.00     0.115 A 
ATOM     12  C   UNL A   1      27.594  31.307  22.442  1.00  0.00     0.079 C 
ATOM     13  C   UNL A   1      28.302  30.007  22.596  1.00  0.00     0.091 A 
ATOM     14  N   UNL A   1      27.779  28.947  23.162  1.00  0.00    -0.246 NA
ATOM     15  S   UNL A   1      29.918  29.823  22.084  1.00  0.00    -0.113 S 
ATOM     16  C   UNL A   1      28.701  27.905  23.181  1.00  0.00     0.061 A 
ATOM     17  C   UNL A   1      28.273  26.678  23.912  1.00  0.00     0.068 C 
ENDBRANCH   8  11
ENDBRANCH   6   7
BRANCH   6  18
ATOM     18  C   UNL A   1      32.835  26.771  25.811  1.00  0.00     0.051 C 
BRANCH  18  19
ATOM     19  C   UNL A   1      31.890  25.972  26.700  1.00  0.00     0.139 C 
BRANCH  19  20
ATOM     20  S   UNL A   1      31.481  24.295  26.200  1.00  0.00     0.147 S 
ATOM     21  C   UNL A   1      32.974  23.343  26.369  1.00  0.00     0.158 C 
ATOM     22  O   UNL A   1      30.547  23.792  27.191  1.00  0.00    -0.229 OA
ATOM     23  O   UNL A   1      31.099  24.297  24.803  1.00  0.00    -0.229 OA
ENDBRANCH  19  20
ENDBRANCH  18  19
ENDBRANCH   6  18
ENDBRANCH   3   6
ENDBRANCH   1   2
BRANCH   1  24
ATOM     24  C   UNL A   1      31.742  31.697  26.860  1.00  0.00     0.042 C 
BRANCH  24  25
ATOM     25  C   UNL A   1      32.889  32.626  27.239  1.00  0.00     0.118 C 
BRANCH  25  26
ATOM     26  N   UNL A   1      32.496  33.979  27.607  1.00  0.00    -0.352 N 
ATOM     27  C   UNL A   1      33.024  34.829  28.557  1.00  0.00     0.251 C 
ATOM     28  H   UNL A   1      31.734  34.344  27.100  1.00  0.00     0.163 HD
ATOM     29  O   UNL A   1      32.527  35.931  28.768  1.00  0.00    -0.269 OA
BRANCH  27  30
ATOM     30  C   UNL A   1      34.174  34.388  29.379  1.00  0.00     0.039 A 
ATOM     31  C   UNL A   1      33.935  33.682  30.561  1.00  0.00     0.014 A 
ATOM     32  C   UNL A   1      35.483  34.605  28.954  1.00  0.00     0.014 A 
ATOM     33  C   UNL A   1      35.002  33.077  31.233  1.00  0.00     0.010 A 
ATOM     34  C   UNL A   1      36.523  33.897  29.546  1.00  0.00     0.010 A 
ATOM     35  C   UNL A   1      36.295  33.112  30.687  1.00  0.00    -0.014 A 
BRANCH  35  36
ATOM     36  C   UNL A   1      37.421  32.328  31.266  1.00  0.00     0.031 A 
ATOM     37  C   UNL A   1      37.943  32.662  32.639  1.00  0.00     0.074 A 
ATOM     38  C   UNL A   1      38.044  31.390  30.523  1.00  0.00     0.049 A 
ATOM     39  N   UNL A   1      39.007  32.211  33.255  1.00  0.00    -0.248 NA
ATOM     40  C   UNL A   1      37.194  33.672  33.404  1.00  0.00     0.031 C 
ATOM     41  C   UNL A   1      37.686  31.012  29.154  1.00  0.00     0.029 A 
ATOM     42  N   UNL A   1      39.123  30.590  30.811  1.00  0.00    -0.354 N 
ATOM     43  C   UNL A   1      39.072  32.907  34.455  1.00  0.00     0.074 A 
ATOM     44  C   UNL A   1      37.977  33.852  34.458  1.00  0.00     0.031 C 
ATOM     45  C   UNL A   1      38.506  30.034  28.735  1.00  0.00     0.029 A 
ATOM     46  C   UNL A   1      39.476  29.746  29.784  1.00  0.00     0.049 A 
ATOM     47  H   UNL A   1      39.600  30.618  31.672  1.00  0.00     0.167 HD
ATOM     48  C   UNL A   1      39.946  32.754  35.478  1.00  0.00     0.037 A 
ATOM     49  C   UNL A   1      40.476  28.846  29.697  1.00  0.00     0.037 A 
ATOM     50  C   UNL A   1      40.998  31.775  35.504  1.00  0.00     0.049 A 
ATOM     51  C   UNL A   1      41.409  28.669  30.864  1.00  0.00     0.074 A 
ATOM     52  C   UNL A   1      41.894  31.496  36.522  1.00  0.00     0.029 A 
ATOM     53  N   UNL A   1      41.284  30.900  34.466  1.00  0.00    -0.354 N 
ATOM     54  N   UNL A   1      41.424  29.297  32.014  1.00  0.00    -0.248 NA
ATOM     55  C   UNL A   1      42.463  27.654  30.722  1.00  0.00     0.031 C 
ATOM     56  C   UNL A   1      42.739  30.469  36.090  1.00  0.00     0.029 A 
ATOM     57  C   UNL A   1      42.345  30.083  34.819  1.00  0.00     0.049 A 
ATOM     58  H   UNL A   1      40.805  30.866  33.607  1.00  0.00     0.167 HD
ATOM     59  C   UNL A   1      42.463  28.735  32.742  1.00  0.00     0.074 A 
ATOM     60  C   UNL A   1      43.048  27.704  31.910  1.00  0.00     0.031 C 
ATOM     61  C   UNL A   1      42.897  29.047  33.987  1.00  0.00     0.037 A 
BRANCH  48  62
ATOM     62  C   UNL A   1      39.782  33.652  36.671  1.00  0.00     0.064 A 
ATOM     63  C   UNL A   1      40.492  34.857  36.781  1.00  0.00     0.173 A 
ATOM     64  C   UNL A   1      38.881  33.325  37.694  1.00  0.00     0.173 A 
ATOM     65  F   UNL A   1      41.377  35.209  35.835  1.00  0.00    -0.203 F 
ATOM     66  C   UNL A   1      40.328  35.688  37.885  1.00  0.00     0.198 A 
ATOM     67  C   UNL A   1      38.695  34.174  38.783  1.00  0.00     0.198 A 
ATOM     68  F   UNL A   1      38.172  32.188  37.634  1.00  0.00    -0.203 F 
ATOM     69  F   UNL A   1      41.052  36.810  37.992  1.00  0.00    -0.200 F 
ATOM     70  C   UNL A   1      39.424  35.350  38.881  1.00  0.00     0.200 A 
ATOM     71  F   UNL A   1      37.813  33.852  39.738  1.00  0.00    -0.200 F 
ATOM     72  F   UNL A   1      39.259  36.154  39.939  1.00  0.00    -0.200 F 
ENDBRANCH  48  62
BRANCH  49  73
ATOM     73  C   UNL A   1      40.633  28.016  28.473  1.00  0.00     0.064 A 
ATOM     74  C   UNL A   1      40.032  26.752  28.384  1.00  0.00     0.173 A 
ATOM     75  C   UNL A   1      41.400  28.451  27.382  1.00  0.00     0.173 A 
ATOM     76  F   UNL A   1      39.307  26.283  29.411  1.00  0.00    -0.203 F 
ATOM     77  C   UNL A   1      40.215  25.943  27.265  1.00  0.00     0.198 A 
ATOM     78  C   UNL A   1      41.559  27.652  26.251  1.00  0.00     0.198 A 
ATOM     79  F   UNL A   1      41.992  29.653  27.415  1.00  0.00    -0.203 F 
ATOM     80  F   UNL A   1      39.674  24.718  27.230  1.00  0.00    -0.200 F 
ATOM     81  C   UNL A   1      40.976  26.396  26.197  1.00  0.00     0.200 A 
ATOM     82  F   UNL A   1      42.286  28.098  25.217  1.00  0.00    -0.200 F 
ATOM     83  F   UNL A   1      41.155  25.617  25.122  1.00  0.00    -0.200 F 
ENDBRANCH  49  73
BRANCH  61  84
ATOM     84  C   UNL A   1      44.026  28.234  34.545  1.00  0.00     0.064 A 
ATOM     85  C   UNL A   1      43.799  27.026  35.219  1.00  0.00     0.173 A 
ATOM     86  C   UNL A   1      45.354  28.649  34.364  1.00  0.00     0.173 A 
ATOM     87  F   UNL A   1      42.546  26.596  35.430  1.00  0.00    -0.203 F 
ATOM     88  C   UNL A   1      44.861  26.272  35.709  1.00  0.00     0.198 A 
ATOM     89  C   UNL A   1      46.414  27.879  34.832  1.00  0.00     0.198 A 
ATOM     90  F   UNL A   1      45.622  29.796  33.721  1.00  0.00    -0.203 F 
ATOM     91  F   UNL A   1      44.620  25.140  36.386  1.00  0.00    -0.200 F 
ATOM     92  C   UNL A   1      46.167  26.695  35.509  1.00  0.00     0.200 A 
ATOM     93  F   UNL A   1      47.676  28.283  34.627  1.00  0.00    -0.200 F 
ATOM     94  F   UNL A   1      47.189  25.963  35.976  1.00  0.00    -0.200 F 
ENDBRANCH  61  84
ENDBRANCH  35  36
ENDBRANCH  27  30
ENDBRANCH  25  26
ENDBRANCH  24  25
ENDBRANCH   1  24
TORSDOF 15
ENDMDL
MODEL 3
REMARK VINA RESULT:     -11.9      5.912     10.350
REMARK SMILES Cc1nc(C)c(C(=O)N[C@@H](CCS(C)(=O)=O)C(=O)NCCCNC(=O)c2ccc(-c3c4nc(c(-c5c(F)c(F)c(F)c(F)c5F)c5ccc([nH]5)c(-c5c(F)c(F)c(F)c(F)c5F)c5nc(c(-c6c(F)c(F)c(F)c(F)c6F)c6ccc3[nH]6)C=C5)C=C4)cc2)s1
REMARK SMILES IDX 20 1 19 2 17 3 18 4 10 6 9 7 7 8 8 9 6 11 1 12 2 13 3 14
REMARK SMILES IDX 89 15 4 16 5 17 11 18 12 19 13 20 14 21 15 22 16 23 21 24
REMARK SMILES IDX 22 25 23 26 24 27 25 29 26 30 27 31 88 32 28 33 87 34 29 35
REMARK SMILES IDX 30 36 31 37 81 38 32 39 86 40 80 41 82 42 33 43 85 44 79 45
REMARK SMILES IDX 78 46 34 48 66 49 46 50 65 51 47 52 50 53 64 54 83 55 48 56
REMARK SMILES IDX 49 57 63 59 84 60 51 61 35 62 36 63 44 64 37 65 38 66 42 67
REMARK SMILES IDX 45 68 39 69 40 70 43 71 41 72 67 73 68 74 76 75 69 76 70 77
REMARK SMILES IDX 74 78 77 79 71 80 72 81 75 82 73 83 52 84 53 85 61 86 54 87
REMARK SMILES IDX 55 88 59 89 62 90 56 91 57 92 60 93 58 94
REMARK H PARENT 19 5 9 10 23 28 82 47 50 58
REMARK Flexibility Score: inf
ROOT
ATOM      1  C   UNL A   1      37.118  21.256  24.891  1.00  0.00     0.117 C 
ENDROOT
BRANCH   1   2
ATOM      2  N   UNL A   1      36.402  21.566  26.116  1.00  0.00    -0.354 N 
ATOM      3  C   UNL A   1      35.132  22.002  26.311  1.00  0.00     0.242 C 
ATOM      4  O   UNL A   1      34.610  21.752  27.403  1.00  0.00    -0.273 OA
ATOM      5  H   UNL A   1      36.924  21.440  26.941  1.00  0.00     0.163 HD
BRANCH   3   6
ATOM      6  C   UNL A   1      34.287  22.657  25.211  1.00  0.00     0.172 C 
BRANCH   6   7
ATOM      7  N   UNL A   1      32.839  22.541  25.368  1.00  0.00    -0.339 N 
ATOM      8  C   UNL A   1      31.973  21.468  25.267  1.00  0.00     0.263 C 
ATOM      9  O   UNL A   1      30.887  21.666  25.822  1.00  0.00    -0.268 OA
ATOM     10  H   UNL A   1      32.393  23.391  25.588  1.00  0.00     0.164 HD
BRANCH   8  11
ATOM     11  C   UNL A   1      32.255  20.218  24.563  1.00  0.00     0.115 A 
ATOM     12  C   UNL A   1      33.430  16.586  23.726  1.00  0.00     0.079 C 
ATOM     13  C   UNL A   1      32.954  17.993  23.813  1.00  0.00     0.091 A 
ATOM     14  N   UNL A   1      32.592  18.713  22.779  1.00  0.00    -0.246 NA
ATOM     15  S   UNL A   1      32.907  18.812  25.308  1.00  0.00    -0.113 S 
ATOM     16  C   UNL A   1      32.230  19.994  23.184  1.00  0.00     0.061 A 
ATOM     17  C   UNL A   1      31.916  20.954  22.087  1.00  0.00     0.068 C 
ENDBRANCH   8  11
ENDBRANCH   6   7
BRANCH   6  18
ATOM     18  C   UNL A   1      34.721  24.079  24.805  1.00  0.00     0.051 C 
BRANCH  18  19
ATOM     19  C   UNL A   1      34.651  24.517  23.348  1.00  0.00     0.139 C 
BRANCH  19  20
ATOM     20  S   UNL A   1      33.409  25.734  22.893  1.00  0.00     0.147 S 
ATOM     21  C   UNL A   1      31.877  24.846  22.722  1.00  0.00     0.158 C 
ATOM     22  O   UNL A   1      33.260  26.611  24.040  1.00  0.00    -0.229 OA
ATOM     23  O   UNL A   1      33.751  26.302  21.606  1.00  0.00    -0.229 OA
ENDBRANCH  19  20
ENDBRANCH  18  19
ENDBRANCH   6  18
ENDBRANCH   3   6
ENDBRANCH   1   2
BRANCH   1  24
ATOM     24  C   UNL A   1      38.059  20.069  25.013  1.00  0.00     0.042 C 
BRANCH  24  25
ATOM     25  C   UNL A   1      39.320  20.307  25.836  1.00  0.00     0.118 C 
BRANCH  25  26
ATOM     26  N   UNL A   1      40.265  19.198  25.859  1.00  0.00    -0.352 N 
ATOM     27  C   UNL A   1      41.625  19.197  26.090  1.00  0.00     0.251 C 
ATOM     28  H   UNL A   1      39.872  18.313  25.681  1.00  0.00     0.163 HD
ATOM     29  O   UNL A   1      42.278  18.160  26.019  1.00  0.00    -0.269 OA
BRANCH  27  30
ATOM     30  C   UNL A   1      42.324  20.472  26.371  1.00  0.00     0.039 A 
ATOM     31  C   UNL A   1      42.855  21.206  25.307  1.00  0.00     0.014 A 
ATOM     32  C   UNL A   1      42.395  20.978  27.666  1.00  0.00     0.014 A 
ATOM     33  C   UNL A   1      43.325  22.504  25.528  1.00  0.00     0.010 A 
ATOM     34  C   UNL A   1      42.740  22.311  27.864  1.00  0.00     0.010 A 
ATOM     35  C   UNL A   1      43.197  23.098  26.795  1.00  0.00    -0.014 A 
BRANCH  35  36
ATOM     36  C   UNL A   1      43.511  24.534  27.032  1.00  0.00     0.031 A 
ATOM     37  C   UNL A   1      44.902  25.052  26.781  1.00  0.00     0.074 A 
ATOM     38  C   UNL A   1      42.579  25.348  27.570  1.00  0.00     0.049 A 
ATOM     39  N   UNL A   1      45.419  26.221  27.072  1.00  0.00    -0.248 NA
ATOM     40  C   UNL A   1      45.855  24.117  26.162  1.00  0.00     0.031 C 
ATOM     41  C   UNL A   1      41.212  24.961  27.926  1.00  0.00     0.029 A 
ATOM     42  N   UNL A   1      42.647  26.673  27.928  1.00  0.00    -0.354 N 
ATOM     43  C   UNL A   1      46.756  26.143  26.707  1.00  0.00     0.074 A 
ATOM     44  C   UNL A   1      46.989  24.799  26.228  1.00  0.00     0.031 C 
ATOM     45  C   UNL A   1      40.563  26.029  28.417  1.00  0.00     0.029 A 
ATOM     46  C   UNL A   1      41.477  27.164  28.457  1.00  0.00     0.049 A 
ATOM     47  H   UNL A   1      43.458  27.220  27.817  1.00  0.00     0.167 HD
ATOM     48  C   UNL A   1      47.700  27.114  26.737  1.00  0.00     0.037 A 
ATOM     49  C   UNL A   1      41.177  28.391  28.927  1.00  0.00     0.037 A 
ATOM     50  C   UNL A   1      47.456  28.467  27.155  1.00  0.00     0.049 A 
ATOM     51  C   UNL A   1      42.235  29.462  28.913  1.00  0.00     0.074 A 
ATOM     52  C   UNL A   1      48.330  29.541  27.160  1.00  0.00     0.029 A 
ATOM     53  N   UNL A   1      46.240  28.938  27.629  1.00  0.00    -0.354 N 
ATOM     54  N   UNL A   1      43.480  29.389  28.514  1.00  0.00    -0.248 NA
ATOM     55  C   UNL A   1      41.842  30.787  29.413  1.00  0.00     0.031 C 
ATOM     56  C   UNL A   1      47.650  30.656  27.660  1.00  0.00     0.029 A 
ATOM     57  C   UNL A   1      46.342  30.286  27.931  1.00  0.00     0.049 A 
ATOM     58  H   UNL A   1      45.426  28.395  27.734  1.00  0.00     0.167 HD
ATOM     59  C   UNL A   1      44.010  30.660  28.683  1.00  0.00     0.074 A 
ATOM     60  C   UNL A   1      42.947  31.491  29.210  1.00  0.00     0.031 C 
ATOM     61  C   UNL A   1      45.266  31.100  28.430  1.00  0.00     0.037 A 
BRANCH  48  62
ATOM     62  C   UNL A   1      49.083  26.751  26.278  1.00  0.00     0.064 A 
ATOM     63  C   UNL A   1      49.491  26.956  24.951  1.00  0.00     0.173 A 
ATOM     64  C   UNL A   1      50.022  26.229  27.180  1.00  0.00     0.173 A 
ATOM     65  F   UNL A   1      48.626  27.441  24.046  1.00  0.00    -0.203 F 
ATOM     66  C   UNL A   1      50.777  26.626  24.537  1.00  0.00     0.198 A 
ATOM     67  C   UNL A   1      51.318  25.929  26.769  1.00  0.00     0.198 A 
ATOM     68  F   UNL A   1      49.686  26.020  28.462  1.00  0.00    -0.203 F 
ATOM     69  F   UNL A   1      51.128  26.786  23.254  1.00  0.00    -0.200 F 
ATOM     70  C   UNL A   1      51.692  26.120  25.448  1.00  0.00     0.200 A 
ATOM     71  F   UNL A   1      52.206  25.452  27.653  1.00  0.00    -0.200 F 
ATOM     72  F   UNL A   1      52.934  25.811  25.050  1.00  0.00    -0.200 F 
ENDBRANCH  48  62
BRANCH  49  73
ATOM     73  C   UNL A   1      39.808  28.690  29.423  1.00  0.00     0.064 A 
ATOM     74  C   UNL A   1      39.459  28.436  30.757  1.00  0.00     0.173 A 
ATOM     75  C   UNL A   1      38.816  29.209  28.577  1.00  0.00     0.173 A 
ATOM     76  F   UNL A   1      40.366  27.918  31.598  1.00  0.00    -0.203 F 
ATOM     77  C   UNL A   1      38.164  28.662  31.220  1.00  0.00     0.198 A 
ATOM     78  C   UNL A   1      37.529  29.461  29.049  1.00  0.00     0.198 A 
ATOM     79  F   UNL A   1      39.099  29.474  27.294  1.00  0.00    -0.203 F 
ATOM     80  F   UNL A   1      37.845  28.359  32.486  1.00  0.00    -0.200 F 
ATOM     81  C   UNL A   1      37.201  29.178  30.366  1.00  0.00     0.200 A 
ATOM     82  F   UNL A   1      36.604  29.970  28.224  1.00  0.00    -0.200 F 
ATOM     83  F   UNL A   1      35.955  29.393  30.810  1.00  0.00    -0.200 F 
ENDBRANCH  49  73
BRANCH  61  84
ATOM     84  C   UNL A   1      45.548  32.553  28.670  1.00  0.00     0.064 A 
ATOM     85  C   UNL A   1      46.067  33.009  29.890  1.00  0.00     0.173 A 
ATOM     86  C   UNL A   1      45.336  33.493  27.651  1.00  0.00     0.173 A 
ATOM     87  F   UNL A   1      46.272  32.150  30.900  1.00  0.00    -0.203 F 
ATOM     88  C   UNL A   1      46.346  34.358  30.087  1.00  0.00     0.198 A 
ATOM     89  C   UNL A   1      45.642  34.836  27.842  1.00  0.00     0.198 A 
ATOM     90  F   UNL A   1      44.846  33.104  26.464  1.00  0.00    -0.203 F 
ATOM     91  F   UNL A   1      46.803  34.779  31.275  1.00  0.00    -0.200 F 
ATOM     92  C   UNL A   1      46.140  35.270  29.062  1.00  0.00     0.200 A 
ATOM     93  F   UNL A   1      45.453  35.714  26.846  1.00  0.00    -0.200 F 
ATOM     94  F   UNL A   1      46.416  36.567  29.251  1.00  0.00    -0.200 F 
ENDBRANCH  61  84
ENDBRANCH  35  36
ENDBRANCH  27  30
ENDBRANCH  25  26
ENDBRANCH  24  25
ENDBRANCH   1  24
TORSDOF 15
ENDMDL
