MODEL 1
REMARK VINA RESULT:     -11.3      0.000      0.000
REMARK SMILES CSc1ccc(C[C@H]([NH3+])C(=O)NCCCNC(=O)c2ccc(-c3c4nc(c(-c5c(F)c(F)c(F)c(F)c5F)c5ccc([nH]5)c(-c5c(F)c(F)c(F)c(F)c5F)c5nc(c(-c6c(F)c(F)c(F)c(F)c6F)c6ccc3[nH]6)C=C5)C=C4)cc2)cc1
REMARK SMILES IDX 13 1 12 2 10 3 11 4 8 6 7 7 6 8 3 9 4 10 83 11 5 12 82 13
REMARK SMILES IDX 2 14 1 15 9 16 14 20 15 21 16 22 17 23 18 25 19 26 20 27
REMARK SMILES IDX 81 28 21 29 80 30 22 31 23 32 24 33 74 34 25 35 79 36 73 37
REMARK SMILES IDX 75 38 26 39 78 40 72 41 71 42 27 44 59 45 39 46 58 47 40 48
REMARK SMILES IDX 43 49 57 50 76 51 41 52 42 53 56 55 77 56 44 57 28 58 29 59
REMARK SMILES IDX 37 60 30 61 31 62 35 63 38 64 32 65 33 66 36 67 34 68 60 69
REMARK SMILES IDX 61 70 69 71 62 72 63 73 67 74 70 75 64 76 65 77 68 78 66 79
REMARK SMILES IDX 45 80 46 81 54 82 47 83 48 84 52 85 55 86 49 87 50 88 53 89
REMARK SMILES IDX 51 90
REMARK H PARENT 12 5 9 17 9 18 9 19 16 24 75 43 43 54
REMARK Flexibility Score: inf
ROOT
ATOM      1  C   UNL A   1      31.799  28.119  25.550  1.00  0.00     0.118 C 
ENDROOT
BRANCH   1   2
ATOM      2  N   UNL A   1      31.127  27.018  26.220  1.00  0.00    -0.351 N 
ATOM      3  C   UNL A   1      30.301  26.062  25.702  1.00  0.00     0.278 C 
ATOM      4  O   UNL A   1      29.803  25.245  26.482  1.00  0.00    -0.268 OA
ATOM      5  H   UNL A   1      31.293  26.951  27.187  1.00  0.00     0.163 HD
BRANCH   3   6
ATOM      6  C   UNL A   1      29.994  26.004  24.193  1.00  0.00     0.275 C 
BRANCH   6   7
ATOM      7  C   UNL A   1      28.577  26.541  23.906  1.00  0.00     0.111 C 
BRANCH   7   8
ATOM      8  C   UNL A   1      28.524  27.890  23.235  1.00  0.00    -0.041 A 
ATOM      9  C   UNL A   1      28.442  30.485  22.152  1.00  0.00     0.007 A 
ATOM     10  C   UNL A   1      29.626  29.742  22.122  1.00  0.00     0.015 A 
ATOM     11  C   UNL A   1      27.305  29.929  22.742  1.00  0.00     0.015 A 
ATOM     12  C   UNL A   1      29.670  28.453  22.659  1.00  0.00     0.005 A 
ATOM     13  C   UNL A   1      27.344  28.640  23.274  1.00  0.00     0.005 A 
BRANCH   9  14
ATOM     14  S   UNL A   1      28.445  32.143  21.493  1.00  0.00    -0.130 SA
ATOM     15  C   UNL A   1      28.875  33.079  22.984  1.00  0.00     0.091 C 
ENDBRANCH   9  14
ENDBRANCH   7   8
ENDBRANCH   6   7
BRANCH   6  16
ATOM     16  N   UNL A   1      30.190  24.618  23.701  1.00  0.00    -0.347 N 
ATOM     17  H   UNL A   1      30.464  24.017  24.478  1.00  0.00     0.345 HD
ATOM     18  H   UNL A   1      30.924  24.611  22.991  1.00  0.00     0.345 HD
ATOM     19  H   UNL A   1      29.321  24.276  23.294  1.00  0.00     0.345 HD
ENDBRANCH   6  16
ENDBRANCH   3   6
ENDBRANCH   1   2
BRANCH   1  20
ATOM     20  C   UNL A   1      33.290  28.158  25.848  1.00  0.00     0.042 C 
BRANCH  20  21
ATOM     21  C   UNL A   1      33.620  28.465  27.302  1.00  0.00     0.118 C 
BRANCH  21  22
ATOM     22  N   UNL A   1      33.621  29.893  27.593  1.00  0.00    -0.352 N 
ATOM     23  C   UNL A   1      34.579  30.677  28.182  1.00  0.00     0.251 C 
ATOM     24  H   UNL A   1      32.804  30.371  27.324  1.00  0.00     0.163 HD
ATOM     25  O   UNL A   1      34.307  31.836  28.498  1.00  0.00    -0.269 OA
BRANCH  23  26
ATOM     26  C   UNL A   1      35.927  30.140  28.464  1.00  0.00     0.039 A 
ATOM     27  C   UNL A   1      36.893  30.182  27.456  1.00  0.00     0.014 A 
ATOM     28  C   UNL A   1      36.237  29.583  29.706  1.00  0.00     0.014 A 
ATOM     29  C   UNL A   1      38.191  29.735  27.719  1.00  0.00     0.010 A 
ATOM     30  C   UNL A   1      37.549  29.217  29.995  1.00  0.00     0.010 A 
ATOM     31  C   UNL A   1      38.540  29.289  29.004  1.00  0.00    -0.014 A 
BRANCH  31  32
ATOM     32  C   UNL A   1      39.936  28.904  29.335  1.00  0.00     0.031 A 
ATOM     33  C   UNL A   1      40.817  29.846  30.110  1.00  0.00     0.074 A 
ATOM     34  C   UNL A   1      40.432  27.739  28.872  1.00  0.00     0.049 A 
ATOM     35  N   UNL A   1      42.085  29.728  30.416  1.00  0.00    -0.248 NA
ATOM     36  C   UNL A   1      40.202  31.097  30.579  1.00  0.00     0.031 C 
ATOM     37  C   UNL A   1      39.693  26.767  28.064  1.00  0.00     0.029 A 
ATOM     38  N   UNL A   1      41.680  27.183  28.998  1.00  0.00    -0.354 N 
ATOM     39  C   UNL A   1      42.421  30.894  31.091  1.00  0.00     0.074 A 
ATOM     40  C   UNL A   1      41.239  31.727  31.113  1.00  0.00     0.031 C 
ATOM     41  C   UNL A   1      40.497  25.730  27.778  1.00  0.00     0.029 A 
ATOM     42  C   UNL A   1      41.817  25.981  28.347  1.00  0.00     0.049 A 
ATOM     43  H   UNL A   1      42.410  27.605  29.509  1.00  0.00     0.167 HD
ATOM     44  C   UNL A   1      43.604  31.229  31.656  1.00  0.00     0.037 A 
ATOM     45  C   UNL A   1      42.890  25.179  28.209  1.00  0.00     0.037 A 
ATOM     46  C   UNL A   1      44.766  30.380  31.667  1.00  0.00     0.049 A 
ATOM     47  C   UNL A   1      44.189  25.576  28.861  1.00  0.00     0.074 A 
ATOM     48  C   UNL A   1      45.985  30.597  32.288  1.00  0.00     0.029 A 
ATOM     49  N   UNL A   1      44.855  29.154  31.027  1.00  0.00    -0.354 N 
ATOM     50  N   UNL A   1      44.469  26.642  29.568  1.00  0.00    -0.248 NA
ATOM     51  C   UNL A   1      45.321  24.650  28.699  1.00  0.00     0.031 C 
ATOM     52  C   UNL A   1      46.828  29.525  31.982  1.00  0.00     0.029 A 
ATOM     53  C   UNL A   1      46.118  28.615  31.217  1.00  0.00     0.049 A 
ATOM     54  H   UNL A   1      44.130  28.729  30.515  1.00  0.00     0.167 HD
ATOM     55  C   UNL A   1      45.793  26.504  29.960  1.00  0.00     0.074 A 
ATOM     56  C   UNL A   1      46.258  25.241  29.429  1.00  0.00     0.031 C 
ATOM     57  C   UNL A   1      46.558  27.348  30.693  1.00  0.00     0.037 A 
BRANCH  44  58
ATOM     58  C   UNL A   1      43.712  32.569  32.325  1.00  0.00     0.064 A 
ATOM     59  C   UNL A   1      44.118  33.711  31.622  1.00  0.00     0.173 A 
ATOM     60  C   UNL A   1      43.325  32.724  33.666  1.00  0.00     0.173 A 
ATOM     61  F   UNL A   1      44.507  33.615  30.343  1.00  0.00    -0.203 F 
ATOM     62  C   UNL A   1      44.146  34.960  32.240  1.00  0.00     0.198 A 
ATOM     63  C   UNL A   1      43.328  33.978  34.272  1.00  0.00     0.198 A 
ATOM     64  F   UNL A   1      42.923  31.663  34.381  1.00  0.00    -0.203 F 
ATOM     65  F   UNL A   1      44.568  36.033  31.557  1.00  0.00    -0.200 F 
ATOM     66  C   UNL A   1      43.741  35.093  33.560  1.00  0.00     0.200 A 
ATOM     67  F   UNL A   1      42.923  34.107  35.542  1.00  0.00    -0.200 F 
ATOM     68  F   UNL A   1      43.751  36.298  34.147  1.00  0.00    -0.200 F 
ENDBRANCH  44  58
BRANCH  45  69
ATOM     69  C   UNL A   1      42.791  23.919  27.426  1.00  0.00     0.064 A 
ATOM     70  C   UNL A   1      42.405  22.717  28.036  1.00  0.00     0.173 A 
ATOM     71  C   UNL A   1      43.115  23.881  26.062  1.00  0.00     0.173 A 
ATOM     72  F   UNL A   1      42.106  22.697  29.344  1.00  0.00    -0.203 F 
ATOM     73  C   UNL A   1      42.380  21.521  27.322  1.00  0.00     0.198 A 
ATOM     74  C   UNL A   1      43.057  22.690  25.341  1.00  0.00     0.198 A 
ATOM     75  F   UNL A   1      43.485  25.003  25.427  1.00  0.00    -0.203 F 
ATOM     76  F   UNL A   1      42.069  20.378  27.946  1.00  0.00    -0.200 F 
ATOM     77  C   UNL A   1      42.703  21.509  25.974  1.00  0.00     0.200 A 
ATOM     78  F   UNL A   1      43.356  22.686  24.034  1.00  0.00    -0.200 F 
ATOM     79  F   UNL A   1      42.684  20.358  25.288  1.00  0.00    -0.200 F 
ENDBRANCH  45  69
BRANCH  57  80
ATOM     80  C   UNL A   1      47.963  26.917  30.998  1.00  0.00     0.064 A 
ATOM     81  C   UNL A   1      49.049  27.331  30.212  1.00  0.00     0.173 A 
ATOM     82  C   UNL A   1      48.231  26.113  32.117  1.00  0.00     0.173 A 
ATOM     83  F   UNL A   1      48.844  28.089  29.124  1.00  0.00    -0.203 F 
ATOM     84  C   UNL A   1      50.347  26.934  30.520  1.00  0.00     0.198 A 
ATOM     85  C   UNL A   1      49.533  25.743  32.439  1.00  0.00     0.198 A 
ATOM     86  F   UNL A   1      47.228  25.696  32.905  1.00  0.00    -0.203 F 
ATOM     87  F   UNL A   1      51.363  27.299  29.726  1.00  0.00    -0.200 F 
ATOM     88  C   UNL A   1      50.589  26.147  31.637  1.00  0.00     0.200 A 
ATOM     89  F   UNL A   1      49.766  24.996  33.527  1.00  0.00    -0.200 F 
ATOM     90  F   UNL A   1      51.840  25.773  31.935  1.00  0.00    -0.200 F 
ENDBRANCH  57  80
ENDBRANCH  31  32
ENDBRANCH  23  26
ENDBRANCH  21  22
ENDBRANCH  20  21
ENDBRANCH   1  20
TORSDOF 14
ENDMDL
MODEL 2
REMARK VINA RESULT:     -11.3      3.477      5.818
REMARK SMILES CSc1ccc(C[C@H]([NH3+])C(=O)NCCCNC(=O)c2ccc(-c3c4nc(c(-c5c(F)c(F)c(F)c(F)c5F)c5ccc([nH]5)c(-c5c(F)c(F)c(F)c(F)c5F)c5nc(c(-c6c(F)c(F)c(F)c(F)c6F)c6ccc3[nH]6)C=C5)C=C4)cc2)cc1
REMARK SMILES IDX 13 1 12 2 10 3 11 4 8 6 7 7 6 8 3 9 4 10 83 11 5 12 82 13
REMARK SMILES IDX 2 14 1 15 9 16 14 20 15 21 16 22 17 23 18 25 19 26 20 27
REMARK SMILES IDX 81 28 21 29 80 30 22 31 23 32 24 33 74 34 25 35 79 36 73 37
REMARK SMILES IDX 75 38 26 39 78 40 72 41 71 42 27 44 59 45 39 46 58 47 40 48
REMARK SMILES IDX 43 49 57 50 76 51 41 52 42 53 56 55 77 56 44 57 28 58 29 59
REMARK SMILES IDX 37 60 30 61 31 62 35 63 38 64 32 65 33 66 36 67 34 68 60 69
REMARK SMILES IDX 61 70 69 71 62 72 63 73 67 74 70 75 64 76 65 77 68 78 66 79
REMARK SMILES IDX 45 80 46 81 54 82 47 83 48 84 52 85 55 86 49 87 50 88 53 89
REMARK SMILES IDX 51 90
REMARK H PARENT 12 5 9 17 9 18 9 19 16 24 75 43 43 54
REMARK Flexibility Score: inf
ROOT
ATOM      1  C   UNL A   1      33.983  34.998  28.825  1.00  0.00     0.118 C 
ENDROOT
BRANCH   1   2
ATOM      2  N   UNL A   1      32.903  35.617  29.575  1.00  0.00    -0.351 N 
ATOM      3  C   UNL A   1      32.856  35.981  30.890  1.00  0.00     0.278 C 
ATOM      4  O   UNL A   1      31.801  36.453  31.322  1.00  0.00    -0.268 OA
ATOM      5  H   UNL A   1      32.086  35.802  29.059  1.00  0.00     0.163 HD
BRANCH   3   6
ATOM      6  C   UNL A   1      34.081  35.806  31.810  1.00  0.00     0.275 C 
BRANCH   6   7
ATOM      7  C   UNL A   1      33.840  34.669  32.824  1.00  0.00     0.111 C 
BRANCH   7   8
ATOM      8  C   UNL A   1      34.955  33.661  32.937  1.00  0.00    -0.041 A 
ATOM      9  C   UNL A   1      36.932  31.689  33.274  1.00  0.00     0.007 A 
ATOM     10  C   UNL A   1      36.059  31.638  32.183  1.00  0.00     0.015 A 
ATOM     11  C   UNL A   1      36.800  32.723  34.203  1.00  0.00     0.015 A 
ATOM     12  C   UNL A   1      35.076  32.615  32.014  1.00  0.00     0.005 A 
ATOM     13  C   UNL A   1      35.823  33.704  34.034  1.00  0.00     0.005 A 
BRANCH   9  14
ATOM     14  S   UNL A   1      38.144  30.395  33.473  1.00  0.00    -0.130 SA
ATOM     15  C   UNL A   1      39.433  31.298  34.372  1.00  0.00     0.091 C 
ENDBRANCH   9  14
ENDBRANCH   7   8
ENDBRANCH   6   7
BRANCH   6  16
ATOM     16  N   UNL A   1      34.395  37.099  32.466  1.00  0.00    -0.347 N 
ATOM     17  H   UNL A   1      33.685  37.788  32.219  1.00  0.00     0.345 HD
ATOM     18  H   UNL A   1      35.309  37.426  32.151  1.00  0.00     0.345 HD
ATOM     19  H   UNL A   1      34.410  36.973  33.477  1.00  0.00     0.345 HD
ENDBRANCH   6  16
ENDBRANCH   3   6
ENDBRANCH   1   2
BRANCH   1  20
ATOM     20  C   UNL A   1      33.550  33.715  28.132  1.00  0.00     0.042 C 
BRANCH  20  21
ATOM     21  C   UNL A   1      34.467  32.530  28.400  1.00  0.00     0.118 C 
BRANCH  21  22
ATOM     22  N   UNL A   1      33.894  31.262  27.969  1.00  0.00    -0.352 N 
ATOM     23  C   UNL A   1      34.489  30.045  27.762  1.00  0.00     0.251 C 
ATOM     24  H   UNL A   1      32.925  31.282  27.800  1.00  0.00     0.163 HD
ATOM     25  O   UNL A   1      33.852  29.139  27.223  1.00  0.00    -0.269 OA
BRANCH  23  26
ATOM     26  C   UNL A   1      35.894  29.814  28.157  1.00  0.00     0.039 A 
ATOM     27  C   UNL A   1      36.164  29.341  29.444  1.00  0.00     0.014 A 
ATOM     28  C   UNL A   1      36.945  30.074  27.275  1.00  0.00     0.014 A 
ATOM     29  C   UNL A   1      37.480  29.059  29.819  1.00  0.00     0.010 A 
ATOM     30  C   UNL A   1      38.245  29.714  27.618  1.00  0.00     0.010 A 
ATOM     31  C   UNL A   1      38.526  29.202  28.893  1.00  0.00    -0.014 A 
BRANCH  31  32
ATOM     32  C   UNL A   1      39.919  28.814  29.236  1.00  0.00     0.031 A 
ATOM     33  C   UNL A   1      40.805  29.764  29.995  1.00  0.00     0.074 A 
ATOM     34  C   UNL A   1      40.408  27.637  28.797  1.00  0.00     0.049 A 
ATOM     35  N   UNL A   1      42.071  29.644  30.307  1.00  0.00    -0.248 NA
ATOM     36  C   UNL A   1      40.197  31.029  30.438  1.00  0.00     0.031 C 
ATOM     37  C   UNL A   1      39.665  26.655  28.006  1.00  0.00     0.029 A 
ATOM     38  N   UNL A   1      41.652  27.075  28.938  1.00  0.00    -0.354 N 
ATOM     39  C   UNL A   1      42.413  30.821  30.960  1.00  0.00     0.074 A 
ATOM     40  C   UNL A   1      41.236  31.662  30.963  1.00  0.00     0.031 C 
ATOM     41  C   UNL A   1      40.462  25.607  27.743  1.00  0.00     0.029 A 
ATOM     42  C   UNL A   1      41.782  25.859  28.310  1.00  0.00     0.049 A 
ATOM     43  H   UNL A   1      42.383  27.501  29.442  1.00  0.00     0.167 HD
ATOM     44  C   UNL A   1      43.597  31.159  31.522  1.00  0.00     0.037 A 
ATOM     45  C   UNL A   1      42.851  25.047  28.191  1.00  0.00     0.037 A 
ATOM     46  C   UNL A   1      44.753  30.302  31.553  1.00  0.00     0.049 A 
ATOM     47  C   UNL A   1      44.151  25.448  28.839  1.00  0.00     0.074 A 
ATOM     48  C   UNL A   1      45.972  30.522  32.173  1.00  0.00     0.029 A 
ATOM     49  N   UNL A   1      44.835  29.063  30.937  1.00  0.00    -0.354 N 
ATOM     50  N   UNL A   1      44.436  26.526  29.526  1.00  0.00    -0.248 NA
ATOM     51  C   UNL A   1      45.276  24.512  28.699  1.00  0.00     0.031 C 
ATOM     52  C   UNL A   1      46.808  29.439  31.891  1.00  0.00     0.029 A 
ATOM     53  C   UNL A   1      46.093  28.519  31.141  1.00  0.00     0.049 A 
ATOM     54  H   UNL A   1      44.108  28.633  30.432  1.00  0.00     0.167 HD
ATOM     55  C   UNL A   1      45.758  26.386  29.925  1.00  0.00     0.074 A 
ATOM     56  C   UNL A   1      46.215  25.110  29.419  1.00  0.00     0.031 C 
ATOM     57  C   UNL A   1      46.527  27.240  30.643  1.00  0.00     0.037 A 
BRANCH  44  58
ATOM     58  C   UNL A   1      43.712  32.510  32.165  1.00  0.00     0.064 A 
ATOM     59  C   UNL A   1      44.123  33.637  31.441  1.00  0.00     0.173 A 
ATOM     60  C   UNL A   1      43.327  32.693  33.503  1.00  0.00     0.173 A 
ATOM     61  F   UNL A   1      44.510  33.514  30.163  1.00  0.00    -0.203 F 
ATOM     62  C   UNL A   1      44.159  34.897  32.034  1.00  0.00     0.198 A 
ATOM     63  C   UNL A   1      43.337  33.958  34.085  1.00  0.00     0.198 A 
ATOM     64  F   UNL A   1      42.920  31.648  34.239  1.00  0.00    -0.203 F 
ATOM     65  F   UNL A   1      44.585  35.955  31.331  1.00  0.00    -0.200 F 
ATOM     66  C   UNL A   1      43.755  35.058  33.352  1.00  0.00     0.200 A 
ATOM     67  F   UNL A   1      42.934  34.114  35.353  1.00  0.00    -0.200 F 
ATOM     68  F   UNL A   1      43.772  36.273  33.915  1.00  0.00    -0.200 F 
ENDBRANCH  44  58
BRANCH  45  69
ATOM     69  C   UNL A   1      42.745  23.773  27.433  1.00  0.00     0.064 A 
ATOM     70  C   UNL A   1      42.296  22.598  28.052  1.00  0.00     0.173 A 
ATOM     71  C   UNL A   1      43.124  23.694  26.084  1.00  0.00     0.173 A 
ATOM     72  F   UNL A   1      41.943  22.618  29.346  1.00  0.00    -0.203 F 
ATOM     73  C   UNL A   1      42.264  21.387  27.364  1.00  0.00     0.198 A 
ATOM     74  C   UNL A   1      43.059  22.489  25.387  1.00  0.00     0.198 A 
ATOM     75  F   UNL A   1      43.555  24.790  25.442  1.00  0.00    -0.203 F 
ATOM     76  F   UNL A   1      41.891  20.269  27.999  1.00  0.00    -0.200 F 
ATOM     77  C   UNL A   1      42.643  21.334  26.031  1.00  0.00     0.200 A 
ATOM     78  F   UNL A   1      43.412  22.445  24.095  1.00  0.00    -0.200 F 
ATOM     79  F   UNL A   1      42.616  20.169  25.370  1.00  0.00    -0.200 F 
ENDBRANCH  45  69
BRANCH  57  80
ATOM     80  C   UNL A   1      47.927  26.805  30.961  1.00  0.00     0.064 A 
ATOM     81  C   UNL A   1      48.211  25.975  32.056  1.00  0.00     0.173 A 
ATOM     82  C   UNL A   1      48.994  27.189  30.134  1.00  0.00     0.173 A 
ATOM     83  F   UNL A   1      47.229  25.591  32.885  1.00  0.00    -0.203 F 
ATOM     84  C   UNL A   1      49.515  25.569  32.326  1.00  0.00     0.198 A 
ATOM     85  C   UNL A   1      50.292  26.756  30.389  1.00  0.00     0.198 A 
ATOM     86  F   UNL A   1      48.775  27.976  29.070  1.00  0.00    -0.203 F 
ATOM     87  F   UNL A   1      49.770  24.818  33.406  1.00  0.00    -0.200 F 
ATOM     88  C   UNL A   1      50.552  25.953  31.489  1.00  0.00     0.200 A 
ATOM     89  F   UNL A   1      51.289  27.115  29.571  1.00  0.00    -0.200 F 
ATOM     90  F   UNL A   1      51.805  25.554  31.747  1.00  0.00    -0.200 F 
ENDBRANCH  57  80
ENDBRANCH  31  32
ENDBRANCH  23  26
ENDBRANCH  21  22
ENDBRANCH  20  21
ENDBRANCH   1  20
TORSDOF 14
ENDMDL
MODEL 3
REMARK VINA RESULT:     -11.3      2.819      7.976
REMARK SMILES CSc1ccc(C[C@H]([NH3+])C(=O)NCCCNC(=O)c2ccc(-c3c4nc(c(-c5c(F)c(F)c(F)c(F)c5F)c5ccc([nH]5)c(-c5c(F)c(F)c(F)c(F)c5F)c5nc(c(-c6c(F)c(F)c(F)c(F)c6F)c6ccc3[nH]6)C=C5)C=C4)cc2)cc1
REMARK SMILES IDX 13 1 12 2 10 3 11 4 8 6 7 7 6 8 3 9 4 10 83 11 5 12 82 13
REMARK SMILES IDX 2 14 1 15 9 16 14 20 15 21 16 22 17 23 18 25 19 26 20 27
REMARK SMILES IDX 81 28 21 29 80 30 22 31 23 32 24 33 74 34 25 35 79 36 73 37
REMARK SMILES IDX 75 38 26 39 78 40 72 41 71 42 27 44 59 45 39 46 58 47 40 48
REMARK SMILES IDX 43 49 57 50 76 51 41 52 42 53 56 55 77 56 44 57 28 58 29 59
REMARK SMILES IDX 37 60 30 61 31 62 35 63 38 64 32 65 33 66 36 67 34 68 60 69
REMARK SMILES IDX 61 70 69 71 62 72 63 73 67 74 70 75 64 76 65 77 68 78 66 79
REMARK SMILES IDX 45 80 46 81 54 82 47 83 48 84 52 85 55 86 49 87 50 88 53 89
REMARK SMILES IDX 51 90
REMARK H PARENT 12 5 9 17 9 18 9 19 16 24 75 43 43 54
REMARK Flexibility Score: inf
ROOT
ATOM      1  C   UNL A   1      31.398  28.009  26.155  1.00  0.00     0.118 C 
ENDROOT
BRANCH   1   2
ATOM      2  N   UNL A   1      30.908  26.719  26.610  1.00  0.00    -0.351 N 
ATOM      3  C   UNL A   1      30.301  25.722  25.901  1.00  0.00     0.278 C 
ATOM      4  O   UNL A   1      29.924  24.722  26.519  1.00  0.00    -0.268 OA
ATOM      5  H   UNL A   1      31.033  26.537  27.568  1.00  0.00     0.163 HD
BRANCH   3   6
ATOM      6  C   UNL A   1      30.089  25.840  24.379  1.00  0.00     0.275 C 
BRANCH   6   7
ATOM      7  C   UNL A   1      28.684  26.394  24.068  1.00  0.00     0.111 C 
BRANCH   7   8
ATOM      8  C   UNL A   1      28.661  27.712  23.338  1.00  0.00    -0.041 A 
ATOM      9  C   UNL A   1      28.632  30.258  22.141  1.00  0.00     0.007 A 
ATOM     10  C   UNL A   1      29.805  29.497  22.160  1.00  0.00     0.015 A 
ATOM     11  C   UNL A   1      27.479  29.745  22.738  1.00  0.00     0.015 A 
ATOM     12  C   UNL A   1      29.822  28.233  22.754  1.00  0.00     0.005 A 
ATOM     13  C   UNL A   1      27.491  28.480  23.327  1.00  0.00     0.005 A 
BRANCH   9  14
ATOM     14  S   UNL A   1      28.668  31.885  21.410  1.00  0.00    -0.130 SA
ATOM     15  C   UNL A   1      28.622  32.909  22.905  1.00  0.00     0.091 C 
ENDBRANCH   9  14
ENDBRANCH   7   8
ENDBRANCH   6   7
BRANCH   6  16
ATOM     16  N   UNL A   1      30.338  24.523  23.742  1.00  0.00    -0.347 N 
ATOM     17  H   UNL A   1      31.262  24.522  23.310  1.00  0.00     0.345 HD
ATOM     18  H   UNL A   1      29.629  24.353  23.026  1.00  0.00     0.345 HD
ATOM     19  H   UNL A   1      30.290  23.789  24.448  1.00  0.00     0.345 HD
ENDBRANCH   6  16
ENDBRANCH   3   6
ENDBRANCH   1   2
BRANCH   1  20
ATOM     20  C   UNL A   1      32.866  27.968  25.760  1.00  0.00     0.042 C 
BRANCH  20  21
ATOM     21  C   UNL A   1      33.373  29.263  25.140  1.00  0.00     0.118 C 
BRANCH  21  22
ATOM     22  N   UNL A   1      32.824  30.451  25.781  1.00  0.00    -0.352 N 
ATOM     23  C   UNL A   1      33.245  31.134  26.892  1.00  0.00     0.251 C 
ATOM     24  H   UNL A   1      32.022  30.822  25.346  1.00  0.00     0.163 HD
ATOM     25  O   UNL A   1      32.530  32.014  27.373  1.00  0.00    -0.269 OA
BRANCH  23  26
ATOM     26  C   UNL A   1      34.536  30.810  27.534  1.00  0.00     0.039 A 
ATOM     27  C   UNL A   1      35.510  31.807  27.631  1.00  0.00     0.014 A 
ATOM     28  C   UNL A   1      34.798  29.529  28.024  1.00  0.00     0.014 A 
ATOM     29  C   UNL A   1      36.714  31.541  28.287  1.00  0.00     0.010 A 
ATOM     30  C   UNL A   1      35.961  29.288  28.751  1.00  0.00     0.010 A 
ATOM     31  C   UNL A   1      36.931  30.292  28.890  1.00  0.00    -0.014 A 
BRANCH  31  32
ATOM     32  C   UNL A   1      38.161  30.018  29.678  1.00  0.00     0.031 A 
ATOM     33  C   UNL A   1      39.201  29.066  29.151  1.00  0.00     0.074 A 
ATOM     34  C   UNL A   1      38.303  30.567  30.900  1.00  0.00     0.049 A 
ATOM     35  N   UNL A   1      40.291  28.631  29.730  1.00  0.00    -0.248 NA
ATOM     36  C   UNL A   1      38.972  28.508  27.810  1.00  0.00     0.031 C 
ATOM     37  C   UNL A   1      37.338  31.461  31.543  1.00  0.00     0.029 A 
ATOM     38  N   UNL A   1      39.304  30.439  31.830  1.00  0.00    -0.354 N 
ATOM     39  C   UNL A   1      40.864  27.736  28.835  1.00  0.00     0.074 A 
ATOM     40  C   UNL A   1      39.980  27.655  27.693  1.00  0.00     0.031 C 
ATOM     41  C   UNL A   1      37.801  31.811  32.754  1.00  0.00     0.029 A 
ATOM     42  C   UNL A   1      39.072  31.136  32.991  1.00  0.00     0.049 A 
ATOM     43  H   UNL A   1      40.115  29.899  31.679  1.00  0.00     0.167 HD
ATOM     44  C   UNL A   1      42.030  27.060  28.950  1.00  0.00     0.037 A 
ATOM     45  C   UNL A   1      39.795  31.210  34.126  1.00  0.00     0.037 A 
ATOM     46  C   UNL A   1      42.927  27.175  30.070  1.00  0.00     0.049 A 
ATOM     47  C   UNL A   1      41.094  30.453  34.216  1.00  0.00     0.074 A 
ATOM     48  C   UNL A   1      44.172  26.594  30.239  1.00  0.00     0.029 A 
ATOM     49  N   UNL A   1      42.674  27.919  31.212  1.00  0.00    -0.354 N 
ATOM     50  N   UNL A   1      41.665  29.677  33.328  1.00  0.00    -0.248 NA
ATOM     51  C   UNL A   1      41.854  30.590  35.468  1.00  0.00     0.031 C 
ATOM     52  C   UNL A   1      44.651  26.947  31.504  1.00  0.00     0.029 A 
ATOM     53  C   UNL A   1      43.729  27.791  32.100  1.00  0.00     0.049 A 
ATOM     54  H   UNL A   1      41.866  28.459  31.368  1.00  0.00     0.167 HD
ATOM     55  C   UNL A   1      42.859  29.259  33.897  1.00  0.00     0.074 A 
ATOM     56  C   UNL A   1      42.943  29.881  35.201  1.00  0.00     0.031 C 
ATOM     57  C   UNL A   1      43.803  28.430  33.388  1.00  0.00     0.037 A 
BRANCH  44  58
ATOM     58  C   UNL A   1      42.422  26.137  27.834  1.00  0.00     0.064 A 
ATOM     59  C   UNL A   1      41.871  24.854  27.712  1.00  0.00     0.173 A 
ATOM     60  C   UNL A   1      43.300  26.573  26.828  1.00  0.00     0.173 A 
ATOM     61  F   UNL A   1      41.035  24.386  28.651  1.00  0.00    -0.203 F 
ATOM     62  C   UNL A   1      42.193  24.035  26.632  1.00  0.00     0.198 A 
ATOM     63  C   UNL A   1      43.598  25.763  25.736  1.00  0.00     0.198 A 
ATOM     64  F   UNL A   1      43.851  27.794  26.895  1.00  0.00    -0.203 F 
ATOM     65  F   UNL A   1      41.678  22.800  26.553  1.00  0.00    -0.200 F 
ATOM     66  C   UNL A   1      43.047  24.494  25.640  1.00  0.00     0.200 A 
ATOM     67  F   UNL A   1      44.412  26.213  24.772  1.00  0.00    -0.200 F 
ATOM     68  F   UNL A   1      43.341  23.712  24.592  1.00  0.00    -0.200 F 
ENDBRANCH  44  58
BRANCH  45  69
ATOM     69  C   UNL A   1      39.315  32.028  35.270  1.00  0.00     0.064 A 
ATOM     70  C   UNL A   1      38.545  31.458  36.294  1.00  0.00     0.173 A 
ATOM     71  C   UNL A   1      39.585  33.403  35.347  1.00  0.00     0.173 A 
ATOM     72  F   UNL A   1      38.242  30.152  36.254  1.00  0.00    -0.203 F 
ATOM     73  C   UNL A   1      38.034  32.236  37.330  1.00  0.00     0.198 A 
ATOM     74  C   UNL A   1      39.101  34.173  36.402  1.00  0.00     0.198 A 
ATOM     75  F   UNL A   1      40.323  33.997  34.398  1.00  0.00    -0.203 F 
ATOM     76  F   UNL A   1      37.248  31.677  38.259  1.00  0.00    -0.200 F 
ATOM     77  C   UNL A   1      38.315  33.593  37.385  1.00  0.00     0.200 A 
ATOM     78  F   UNL A   1      39.388  35.482  36.460  1.00  0.00    -0.200 F 
ATOM     79  F   UNL A   1      37.820  34.342  38.379  1.00  0.00    -0.200 F 
ENDBRANCH  45  69
BRANCH  57  80
ATOM     80  C   UNL A   1      45.025  28.181  34.223  1.00  0.00     0.064 A 
ATOM     81  C   UNL A   1      45.098  27.104  35.120  1.00  0.00     0.173 A 
ATOM     82  C   UNL A   1      46.153  29.005  34.093  1.00  0.00     0.173 A 
ATOM     83  F   UNL A   1      44.041  26.296  35.291  1.00  0.00    -0.203 F 
ATOM     84  C   UNL A   1      46.245  26.880  35.875  1.00  0.00     0.198 A 
ATOM     85  C   UNL A   1      47.309  28.759  34.826  1.00  0.00     0.198 A 
ATOM     86  F   UNL A   1      46.137  30.044  33.244  1.00  0.00    -0.203 F 
ATOM     87  F   UNL A   1      46.275  25.876  36.762  1.00  0.00    -0.200 F 
ATOM     88  C   UNL A   1      47.353  27.702  35.722  1.00  0.00     0.200 A 
ATOM     89  F   UNL A   1      48.382  29.545  34.665  1.00  0.00    -0.200 F 
ATOM     90  F   UNL A   1      48.458  27.478  36.444  1.00  0.00    -0.200 F 
ENDBRANCH  57  80
ENDBRANCH  31  32
ENDBRANCH  23  26
ENDBRANCH  21  22
ENDBRANCH  20  21
ENDBRANCH   1  20
TORSDOF 14
ENDMDL
