MODEL 1
REMARK VINA RESULT:     -11.9      0.000      0.000
REMARK SMILES CN(C)C(=O)Nc1cccc(/C=C/C(=O)NCCCNC(=O)c2ccc(-c3c4nc(c(-c5c(F)c(F)c(F)c(F)c5F)c5ccc([nH]5)c(-c5c(F)c(F)c(F)c(F)c5F)c5nc(c(-c6c(F)c(F)c(F)c(F)c6F)c6ccc3[nH]6)C=C5)C=C4)cc2)n1
REMARK SMILES IDX 18 1 17 2 16 3 14 4 15 5 13 7 12 8 11 9 7 10 8 11 86 12 9 13
REMARK SMILES IDX 10 14 6 15 1 16 2 17 3 18 4 19 5 20 19 22 20 23 21 24 22 26
REMARK SMILES IDX 23 27 24 28 85 29 25 30 84 31 26 32 27 33 28 34 78 35 29 36
REMARK SMILES IDX 83 37 77 38 79 39 30 40 82 41 76 42 75 43 31 45 63 46 43 47
REMARK SMILES IDX 62 48 44 49 47 50 61 51 80 52 45 53 46 54 60 56 81 57 48 58
REMARK SMILES IDX 32 59 33 60 41 61 34 62 35 63 39 64 42 65 36 66 37 67 40 68
REMARK SMILES IDX 38 69 64 70 65 71 73 72 66 73 67 74 71 75 74 76 68 77 69 78
REMARK SMILES IDX 72 79 70 80 49 81 50 82 58 83 51 84 52 85 56 86 59 87 53 88
REMARK SMILES IDX 54 89 57 90 55 91
REMARK H PARENT 16 6 6 21 20 25 79 44 47 55
REMARK Flexibility Score: inf
ROOT
ATOM      1  C   UNL A   1      38.331  19.565  24.956  1.00  0.00     0.042 C 
ENDROOT
BRANCH   1   2
ATOM      2  C   UNL A   1      37.403  20.743  24.660  1.00  0.00     0.118 C 
BRANCH   2   3
ATOM      3  N   UNL A   1      37.926  21.986  25.200  1.00  0.00    -0.352 N 
ATOM      4  C   UNL A   1      37.290  23.081  25.692  1.00  0.00     0.244 C 
ATOM      5  O   UNL A   1      37.953  23.971  26.220  1.00  0.00    -0.270 OA
ATOM      6  H   UNL A   1      38.909  22.044  25.212  1.00  0.00     0.163 HD
BRANCH   4   7
ATOM      7  C   UNL A   1      35.816  23.184  25.680  1.00  0.00     0.073 C 
ATOM      8  C   UNL A   1      35.117  24.209  25.168  1.00  0.00     0.034 C 
BRANCH   8   9
ATOM      9  C   UNL A   1      33.652  24.267  25.175  1.00  0.00     0.066 A 
ATOM     10  C   UNL A   1      31.741  25.251  26.021  1.00  0.00     0.134 A 
ATOM     11  C   UNL A   1      30.925  24.369  25.327  1.00  0.00     0.047 A 
ATOM     12  N   UNL A   1      33.082  25.240  25.915  1.00  0.00    -0.231 NA
ATOM     13  C   UNL A   1      31.521  23.386  24.544  1.00  0.00     0.006 A 
ATOM     14  C   UNL A   1      32.909  23.323  24.476  1.00  0.00     0.028 A 
BRANCH  10  15
ATOM     15  N   UNL A   1      31.243  26.225  26.876  1.00  0.00    -0.292 N 
ATOM     16  C   UNL A   1      31.778  29.709  25.835  1.00  0.00     0.148 C 
ATOM     17  N   UNL A   1      31.535  28.281  25.731  1.00  0.00    -0.331 N 
ATOM     18  C   UNL A   1      31.113  27.818  24.413  1.00  0.00     0.148 C 
ATOM     19  C   UNL A   1      31.406  27.569  26.908  1.00  0.00     0.322 C 
ATOM     20  O   UNL A   1      31.338  28.135  28.001  1.00  0.00    -0.248 OA
ATOM     21  H   UNL A   1      30.664  25.875  27.591  1.00  0.00     0.173 HD
ENDBRANCH  10  15
ENDBRANCH   8   9
ENDBRANCH   4   7
ENDBRANCH   2   3
ENDBRANCH   1   2
BRANCH   1  22
ATOM     22  C   UNL A   1      39.281  19.805  26.126  1.00  0.00     0.118 C 
BRANCH  22  23
ATOM     23  N   UNL A   1      40.446  18.935  26.076  1.00  0.00    -0.352 N 
ATOM     24  C   UNL A   1      41.782  19.241  26.070  1.00  0.00     0.251 C 
ATOM     25  H   UNL A   1      40.241  17.974  26.039  1.00  0.00     0.163 HD
ATOM     26  O   UNL A   1      42.597  18.357  25.800  1.00  0.00    -0.269 OA
BRANCH  24  27
ATOM     27  C   UNL A   1      42.264  20.607  26.370  1.00  0.00     0.039 A 
ATOM     28  C   UNL A   1      42.532  21.470  25.302  1.00  0.00     0.014 A 
ATOM     29  C   UNL A   1      42.517  21.025  27.680  1.00  0.00     0.014 A 
ATOM     30  C   UNL A   1      43.005  22.761  25.547  1.00  0.00     0.010 A 
ATOM     31  C   UNL A   1      42.926  22.336  27.928  1.00  0.00     0.010 A 
ATOM     32  C   UNL A   1      43.181  23.215  26.864  1.00  0.00    -0.014 A 
BRANCH  32  33
ATOM     33  C   UNL A   1      43.627  24.603  27.143  1.00  0.00     0.031 A 
ATOM     34  C   UNL A   1      42.653  25.628  27.654  1.00  0.00     0.074 A 
ATOM     35  C   UNL A   1      44.899  24.957  26.876  1.00  0.00     0.049 A 
ATOM     36  N   UNL A   1      42.840  26.903  27.892  1.00  0.00    -0.248 NA
ATOM     37  C   UNL A   1      41.280  25.167  27.909  1.00  0.00     0.031 C 
ATOM     38  C   UNL A   1      45.926  24.067  26.333  1.00  0.00     0.029 A 
ATOM     39  N   UNL A   1      45.542  26.163  27.013  1.00  0.00    -0.354 N 
ATOM     40  C   UNL A   1      41.608  27.396  28.303  1.00  0.00     0.074 A 
ATOM     41  C   UNL A   1      40.671  26.295  28.243  1.00  0.00     0.031 C 
ATOM     42  C   UNL A   1      47.073  24.751  26.196  1.00  0.00     0.029 A 
ATOM     43  C   UNL A   1      46.854  26.135  26.608  1.00  0.00     0.049 A 
ATOM     44  H   UNL A   1      45.104  26.971  27.366  1.00  0.00     0.167 HD
ATOM     45  C   UNL A   1      41.294  28.650  28.709  1.00  0.00     0.037 A 
ATOM     46  C   UNL A   1      47.775  27.116  26.567  1.00  0.00     0.037 A 
ATOM     47  C   UNL A   1      42.236  29.735  28.800  1.00  0.00     0.049 A 
ATOM     48  C   UNL A   1      47.403  28.495  27.038  1.00  0.00     0.074 A 
ATOM     49  C   UNL A   1      42.031  31.020  29.271  1.00  0.00     0.029 A 
ATOM     50  N   UNL A   1      43.564  29.661  28.407  1.00  0.00    -0.354 N 
ATOM     51  N   UNL A   1      46.254  28.930  27.492  1.00  0.00    -0.248 NA
ATOM     52  C   UNL A   1      48.459  29.516  26.998  1.00  0.00     0.031 C 
ATOM     53  C   UNL A   1      43.224  31.736  29.125  1.00  0.00     0.029 A 
ATOM     54  C   UNL A   1      44.184  30.884  28.605  1.00  0.00     0.049 A 
ATOM     55  H   UNL A   1      44.002  28.858  28.042  1.00  0.00     0.167 HD
ATOM     56  C   UNL A   1      46.452  30.265  27.814  1.00  0.00     0.074 A 
ATOM     57  C   UNL A   1      47.838  30.565  27.518  1.00  0.00     0.031 C 
ATOM     58  C   UNL A   1      45.566  31.164  28.308  1.00  0.00     0.037 A 
BRANCH  45  59
ATOM     59  C   UNL A   1      39.867  28.920  29.094  1.00  0.00     0.064 A 
ATOM     60  C   UNL A   1      38.916  29.334  28.150  1.00  0.00     0.173 A 
ATOM     61  C   UNL A   1      39.437  28.719  30.414  1.00  0.00     0.173 A 
ATOM     62  F   UNL A   1      39.278  29.550  26.876  1.00  0.00    -0.203 F 
ATOM     63  C   UNL A   1      37.593  29.562  28.518  1.00  0.00     0.198 A 
ATOM     64  C   UNL A   1      38.106  28.921  30.773  1.00  0.00     0.198 A 
ATOM     65  F   UNL A   1      40.304  28.316  31.355  1.00  0.00    -0.203 F 
ATOM     66  F   UNL A   1      36.711  30.000  27.608  1.00  0.00    -0.200 F 
ATOM     67  C   UNL A   1      37.187  29.349  29.827  1.00  0.00     0.200 A 
ATOM     68  F   UNL A   1      37.713  28.702  32.036  1.00  0.00    -0.200 F 
ATOM     69  F   UNL A   1      35.911  29.561  30.179  1.00  0.00    -0.200 F 
ENDBRANCH  45  59
BRANCH  46  70
ATOM     70  C   UNL A   1      49.147  26.822  26.080  1.00  0.00     0.064 A 
ATOM     71  C   UNL A   1      49.490  27.016  24.735  1.00  0.00     0.173 A 
ATOM     72  C   UNL A   1      50.142  26.346  26.946  1.00  0.00     0.173 A 
ATOM     73  F   UNL A   1      48.567  27.451  23.866  1.00  0.00    -0.203 F 
ATOM     74  C   UNL A   1      50.772  26.728  24.271  1.00  0.00     0.198 A 
ATOM     75  C   UNL A   1      51.431  26.084  26.486  1.00  0.00     0.198 A 
ATOM     76  F   UNL A   1      49.866  26.150  28.245  1.00  0.00    -0.203 F 
ATOM     77  F   UNL A   1      51.062  26.884  22.972  1.00  0.00    -0.200 F 
ATOM     78  C   UNL A   1      51.743  26.268  25.148  1.00  0.00     0.200 A 
ATOM     79  F   UNL A   1      52.370  25.655  27.340  1.00  0.00    -0.200 F 
ATOM     80  F   UNL A   1      52.977  25.996  24.702  1.00  0.00    -0.200 F 
ENDBRANCH  46  70
BRANCH  58  81
ATOM     81  C   UNL A   1      46.075  32.548  28.585  1.00  0.00     0.064 A 
ATOM     82  C   UNL A   1      46.651  32.885  29.818  1.00  0.00     0.173 A 
ATOM     83  C   UNL A   1      46.018  33.538  27.592  1.00  0.00     0.173 A 
ATOM     84  F   UNL A   1      46.713  31.978  30.804  1.00  0.00    -0.203 F 
ATOM     85  C   UNL A   1      47.129  34.171  30.055  1.00  0.00     0.198 A 
ATOM     86  C   UNL A   1      46.521  34.814  27.823  1.00  0.00     0.198 A 
ATOM     87  F   UNL A   1      45.480  33.263  26.393  1.00  0.00    -0.203 F 
ATOM     88  F   UNL A   1      47.633  34.485  31.257  1.00  0.00    -0.200 F 
ATOM     89  C   UNL A   1      47.070  35.132  29.057  1.00  0.00     0.200 A 
ATOM     90  F   UNL A   1      46.474  35.738  26.854  1.00  0.00    -0.200 F 
ATOM     91  F   UNL A   1      47.534  36.368  29.286  1.00  0.00    -0.200 F 
ENDBRANCH  58  81
ENDBRANCH  32  33
ENDBRANCH  24  27
ENDBRANCH  22  23
ENDBRANCH   1  22
TORSDOF 12
ENDMDL
MODEL 2
REMARK VINA RESULT:     -11.8      1.710      1.943
REMARK SMILES CN(C)C(=O)Nc1cccc(/C=C/C(=O)NCCCNC(=O)c2ccc(-c3c4nc(c(-c5c(F)c(F)c(F)c(F)c5F)c5ccc([nH]5)c(-c5c(F)c(F)c(F)c(F)c5F)c5nc(c(-c6c(F)c(F)c(F)c(F)c6F)c6ccc3[nH]6)C=C5)C=C4)cc2)n1
REMARK SMILES IDX 18 1 17 2 16 3 14 4 15 5 13 7 12 8 11 9 7 10 8 11 86 12 9 13
REMARK SMILES IDX 10 14 6 15 1 16 2 17 3 18 4 19 5 20 19 22 20 23 21 24 22 26
REMARK SMILES IDX 23 27 24 28 85 29 25 30 84 31 26 32 27 33 28 34 78 35 29 36
REMARK SMILES IDX 83 37 77 38 79 39 30 40 82 41 76 42 75 43 31 45 63 46 43 47
REMARK SMILES IDX 62 48 44 49 47 50 61 51 80 52 45 53 46 54 60 56 81 57 48 58
REMARK SMILES IDX 32 59 33 60 41 61 34 62 35 63 39 64 42 65 36 66 37 67 40 68
REMARK SMILES IDX 38 69 64 70 65 71 73 72 66 73 67 74 71 75 74 76 68 77 69 78
REMARK SMILES IDX 72 79 70 80 49 81 50 82 58 83 51 84 52 85 56 86 59 87 53 88
REMARK SMILES IDX 54 89 57 90 55 91
REMARK H PARENT 16 6 6 21 20 25 79 44 47 55
REMARK Flexibility Score: inf
ROOT
ATOM      1  C   UNL A   1      37.878  19.566  24.791  1.00  0.00     0.042 C 
ENDROOT
BRANCH   1   2
ATOM      2  C   UNL A   1      36.497  20.173  25.032  1.00  0.00     0.118 C 
BRANCH   2   3
ATOM      3  N   UNL A   1      35.444  19.182  24.894  1.00  0.00    -0.352 N 
ATOM      4  C   UNL A   1      34.103  19.324  24.723  1.00  0.00     0.244 C 
ATOM      5  O   UNL A   1      33.420  18.328  24.496  1.00  0.00    -0.270 OA
ATOM      6  H   UNL A   1      35.755  18.248  24.928  1.00  0.00     0.163 HD
BRANCH   4   7
ATOM      7  C   UNL A   1      33.466  20.658  24.721  1.00  0.00     0.073 C 
ATOM      8  C   UNL A   1      32.209  20.913  25.113  1.00  0.00     0.034 C 
BRANCH   8   9
ATOM      9  C   UNL A   1      31.618  22.256  25.096  1.00  0.00     0.066 A 
ATOM     10  C   UNL A   1      31.108  24.150  23.877  1.00  0.00     0.134 A 
ATOM     11  C   UNL A   1      30.633  24.803  25.005  1.00  0.00     0.047 A 
ATOM     12  N   UNL A   1      31.551  22.879  23.902  1.00  0.00    -0.231 NA
ATOM     13  C   UNL A   1      30.681  24.142  26.228  1.00  0.00     0.006 A 
ATOM     14  C   UNL A   1      31.195  22.851  26.279  1.00  0.00     0.028 A 
BRANCH  10  15
ATOM     15  N   UNL A   1      31.161  24.748  22.625  1.00  0.00    -0.292 N 
ATOM     16  C   UNL A   1      33.533  27.533  22.267  1.00  0.00     0.148 C 
ATOM     17  N   UNL A   1      32.972  26.274  22.728  1.00  0.00    -0.331 N 
ATOM     18  C   UNL A   1      33.901  25.408  23.446  1.00  0.00     0.148 C 
ATOM     19  C   UNL A   1      31.764  25.878  22.187  1.00  0.00     0.322 C 
ATOM     20  O   UNL A   1      31.254  26.477  21.237  1.00  0.00    -0.248 OA
ATOM     21  H   UNL A   1      30.669  24.259  21.925  1.00  0.00     0.173 HD
ENDBRANCH  10  15
ENDBRANCH   8   9
ENDBRANCH   4   7
ENDBRANCH   2   3
ENDBRANCH   1   2
BRANCH   1  22
ATOM     22  C   UNL A   1      38.961  20.104  25.723  1.00  0.00     0.118 C 
BRANCH  22  23
ATOM     23  N   UNL A   1      40.051  19.157  25.902  1.00  0.00    -0.352 N 
ATOM     24  C   UNL A   1      41.386  19.374  26.127  1.00  0.00     0.251 C 
ATOM     25  H   UNL A   1      39.789  18.211  25.853  1.00  0.00     0.163 HD
ATOM     26  O   UNL A   1      42.171  18.430  26.028  1.00  0.00    -0.269 OA
BRANCH  24  27
ATOM     27  C   UNL A   1      41.904  20.716  26.475  1.00  0.00     0.039 A 
ATOM     28  C   UNL A   1      42.101  21.642  25.446  1.00  0.00     0.014 A 
ATOM     29  C   UNL A   1      42.259  21.049  27.785  1.00  0.00     0.014 A 
ATOM     30  C   UNL A   1      42.605  22.913  25.735  1.00  0.00     0.010 A 
ATOM     31  C   UNL A   1      42.699  22.339  28.083  1.00  0.00     0.010 A 
ATOM     32  C   UNL A   1      42.883  23.282  27.060  1.00  0.00    -0.014 A 
BRANCH  32  33
ATOM     33  C   UNL A   1      43.364  24.647  27.391  1.00  0.00     0.031 A 
ATOM     34  C   UNL A   1      42.419  25.672  27.955  1.00  0.00     0.074 A 
ATOM     35  C   UNL A   1      44.641  24.983  27.124  1.00  0.00     0.049 A 
ATOM     36  N   UNL A   1      42.637  26.931  28.243  1.00  0.00    -0.248 NA
ATOM     37  C   UNL A   1      41.039  25.231  28.206  1.00  0.00     0.031 C 
ATOM     38  C   UNL A   1      45.642  24.094  26.533  1.00  0.00     0.029 A 
ATOM     39  N   UNL A   1      45.312  26.167  27.303  1.00  0.00    -0.354 N 
ATOM     40  C   UNL A   1      41.422  27.434  28.688  1.00  0.00     0.074 A 
ATOM     41  C   UNL A   1      40.460  26.358  28.594  1.00  0.00     0.031 C 
ATOM     42  C   UNL A   1      46.802  24.757  26.411  1.00  0.00     0.029 A 
ATOM     43  C   UNL A   1      46.619  26.127  26.882  1.00  0.00     0.049 A 
ATOM     44  H   UNL A   1      44.897  26.970  27.694  1.00  0.00     0.167 HD
ATOM     45  C   UNL A   1      41.141  28.677  29.150  1.00  0.00     0.037 A 
ATOM     46  C   UNL A   1      47.562  27.088  26.870  1.00  0.00     0.037 A 
ATOM     47  C   UNL A   1      42.108  29.736  29.273  1.00  0.00     0.049 A 
ATOM     48  C   UNL A   1      47.226  28.454  27.403  1.00  0.00     0.074 A 
ATOM     49  C   UNL A   1      41.937  31.005  29.800  1.00  0.00     0.029 A 
ATOM     50  N   UNL A   1      43.430  29.648  28.863  1.00  0.00    -0.354 N 
ATOM     51  N   UNL A   1      46.093  28.896  27.888  1.00  0.00    -0.248 NA
ATOM     52  C   UNL A   1      48.305  29.452  27.392  1.00  0.00     0.031 C 
ATOM     53  C   UNL A   1      43.145  31.699  29.670  1.00  0.00     0.029 A 
ATOM     54  C   UNL A   1      44.080  30.848  29.104  1.00  0.00     0.049 A 
ATOM     55  H   UNL A   1      43.845  28.851  28.460  1.00  0.00     0.167 HD
ATOM     56  C   UNL A   1      46.325  30.212  28.262  1.00  0.00     0.074 A 
ATOM     57  C   UNL A   1      47.714  30.492  27.962  1.00  0.00     0.031 C 
ATOM     58  C   UNL A   1      45.464  31.109  28.803  1.00  0.00     0.037 A 
BRANCH  45  59
ATOM     59  C   UNL A   1      39.725  28.962  29.562  1.00  0.00     0.064 A 
ATOM     60  C   UNL A   1      38.769  29.420  28.643  1.00  0.00     0.173 A 
ATOM     61  C   UNL A   1      39.309  28.733  30.881  1.00  0.00     0.173 A 
ATOM     62  F   UNL A   1      39.117  29.663  27.370  1.00  0.00    -0.203 F 
ATOM     63  C   UNL A   1      37.455  29.662  29.036  1.00  0.00     0.198 A 
ATOM     64  C   UNL A   1      37.987  28.950  31.265  1.00  0.00     0.198 A 
ATOM     65  F   UNL A   1      40.181  28.290  31.799  1.00  0.00    -0.203 F 
ATOM     66  F   UNL A   1      36.570  30.140  28.150  1.00  0.00    -0.200 F 
ATOM     67  C   UNL A   1      37.064  29.421  30.344  1.00  0.00     0.200 A 
ATOM     68  F   UNL A   1      37.608  28.704  32.527  1.00  0.00    -0.200 F 
ATOM     69  F   UNL A   1      35.797  29.647  30.719  1.00  0.00    -0.200 F 
ENDBRANCH  45  59
BRANCH  46  70
ATOM     70  C   UNL A   1      48.922  26.784  26.357  1.00  0.00     0.064 A 
ATOM     71  C   UNL A   1      49.244  26.991  25.008  1.00  0.00     0.173 A 
ATOM     72  C   UNL A   1      49.926  26.285  27.199  1.00  0.00     0.173 A 
ATOM     73  F   UNL A   1      48.311  27.448  24.161  1.00  0.00    -0.203 F 
ATOM     74  C   UNL A   1      50.514  26.693  24.518  1.00  0.00     0.198 A 
ATOM     75  C   UNL A   1      51.203  26.013  26.714  1.00  0.00     0.198 A 
ATOM     76  F   UNL A   1      49.670  26.076  28.500  1.00  0.00    -0.203 F 
ATOM     77  F   UNL A   1      50.783  26.862  23.217  1.00  0.00    -0.200 F 
ATOM     78  C   UNL A   1      51.494  26.210  25.372  1.00  0.00     0.200 A 
ATOM     79  F   UNL A   1      52.152  25.562  27.546  1.00  0.00    -0.200 F 
ATOM     80  F   UNL A   1      52.717  25.930  24.902  1.00  0.00    -0.200 F 
ENDBRANCH  46  70
BRANCH  58  81
ATOM     81  C   UNL A   1      46.008  32.469  29.130  1.00  0.00     0.064 A 
ATOM     82  C   UNL A   1      46.615  32.738  30.365  1.00  0.00     0.173 A 
ATOM     83  C   UNL A   1      45.952  33.504  28.184  1.00  0.00     0.173 A 
ATOM     84  F   UNL A   1      46.678  31.787  31.308  1.00  0.00    -0.203 F 
ATOM     85  C   UNL A   1      47.125  34.002  30.649  1.00  0.00     0.198 A 
ATOM     86  C   UNL A   1      46.486  34.757  28.461  1.00  0.00     0.198 A 
ATOM     87  F   UNL A   1      45.385  33.293  26.986  1.00  0.00    -0.203 F 
ATOM     88  F   UNL A   1      47.659  34.252  31.853  1.00  0.00    -0.200 F 
ATOM     89  C   UNL A   1      47.066  35.009  29.696  1.00  0.00     0.200 A 
ATOM     90  F   UNL A   1      46.439  35.725  27.535  1.00  0.00    -0.200 F 
ATOM     91  F   UNL A   1      47.561  36.223  29.970  1.00  0.00    -0.200 F 
ENDBRANCH  58  81
ENDBRANCH  32  33
ENDBRANCH  24  27
ENDBRANCH  22  23
ENDBRANCH   1  22
TORSDOF 12
ENDMDL
MODEL 3
REMARK VINA RESULT:     -11.7      4.767     10.271
REMARK SMILES CN(C)C(=O)Nc1cccc(/C=C/C(=O)NCCCNC(=O)c2ccc(-c3c4nc(c(-c5c(F)c(F)c(F)c(F)c5F)c5ccc([nH]5)c(-c5c(F)c(F)c(F)c(F)c5F)c5nc(c(-c6c(F)c(F)c(F)c(F)c6F)c6ccc3[nH]6)C=C5)C=C4)cc2)n1
REMARK SMILES IDX 18 1 17 2 16 3 14 4 15 5 13 7 12 8 11 9 7 10 8 11 86 12 9 13
REMARK SMILES IDX 10 14 6 15 1 16 2 17 3 18 4 19 5 20 19 22 20 23 21 24 22 26
REMARK SMILES IDX 23 27 24 28 85 29 25 30 84 31 26 32 27 33 28 34 78 35 29 36
REMARK SMILES IDX 83 37 77 38 79 39 30 40 82 41 76 42 75 43 31 45 63 46 43 47
REMARK SMILES IDX 62 48 44 49 47 50 61 51 80 52 45 53 46 54 60 56 81 57 48 58
REMARK SMILES IDX 32 59 33 60 41 61 34 62 35 63 39 64 42 65 36 66 37 67 40 68
REMARK SMILES IDX 38 69 64 70 65 71 73 72 66 73 67 74 71 75 74 76 68 77 69 78
REMARK SMILES IDX 72 79 70 80 49 81 50 82 58 83 51 84 52 85 56 86 59 87 53 88
REMARK SMILES IDX 54 89 57 90 55 91
REMARK H PARENT 16 6 6 21 20 25 79 44 47 55
REMARK Flexibility Score: inf
ROOT
ATOM      1  C   UNL A   1      33.263  28.932  23.486  1.00  0.00     0.042 C 
ENDROOT
BRANCH   1   2
ATOM      2  C   UNL A   1      32.222  27.858  23.176  1.00  0.00     0.118 C 
BRANCH   2   3
ATOM      3  N   UNL A   1      32.607  27.053  22.030  1.00  0.00    -0.352 N 
ATOM      4  C   UNL A   1      33.125  25.798  21.956  1.00  0.00     0.244 C 
ATOM      5  O   UNL A   1      33.251  25.268  20.854  1.00  0.00    -0.270 OA
ATOM      6  H   UNL A   1      32.467  27.490  21.158  1.00  0.00     0.163 HD
BRANCH   4   7
ATOM      7  C   UNL A   1      33.461  25.032  23.174  1.00  0.00     0.073 C 
ATOM      8  C   UNL A   1      33.982  23.796  23.189  1.00  0.00     0.034 C 
BRANCH   8   9
ATOM      9  C   UNL A   1      34.302  23.074  24.425  1.00  0.00     0.066 A 
ATOM     10  C   UNL A   1      33.894  21.250  25.783  1.00  0.00     0.134 A 
ATOM     11  C   UNL A   1      34.764  21.722  26.755  1.00  0.00     0.047 A 
ATOM     12  N   UNL A   1      33.696  21.883  24.612  1.00  0.00    -0.231 NA
ATOM     13  C   UNL A   1      35.405  22.938  26.542  1.00  0.00     0.006 A 
ATOM     14  C   UNL A   1      35.161  23.635  25.363  1.00  0.00     0.028 A 
BRANCH  10  15
ATOM     15  N   UNL A   1      33.160  20.081  25.930  1.00  0.00    -0.292 N 
ATOM     16  C   UNL A   1      33.954  17.372  23.576  1.00  0.00     0.148 C 
ATOM     17  N   UNL A   1      34.149  18.521  24.443  1.00  0.00    -0.331 N 
ATOM     18  C   UNL A   1      35.541  18.854  24.727  1.00  0.00     0.148 C 
ATOM     19  C   UNL A   1      33.056  18.975  25.156  1.00  0.00     0.322 C 
ATOM     20  O   UNL A   1      31.998  18.343  25.187  1.00  0.00    -0.248 OA
ATOM     21  H   UNL A   1      32.615  20.049  26.750  1.00  0.00     0.173 HD
ENDBRANCH  10  15
ENDBRANCH   8   9
ENDBRANCH   4   7
ENDBRANCH   2   3
ENDBRANCH   1   2
BRANCH   1  22
ATOM     22  C   UNL A   1      33.581  29.073  24.972  1.00  0.00     0.118 C 
BRANCH  22  23
ATOM     23  N   UNL A   1      32.972  30.260  25.554  1.00  0.00    -0.352 N 
ATOM     24  C   UNL A   1      33.269  30.934  26.710  1.00  0.00     0.251 C 
ATOM     25  H   UNL A   1      32.226  30.638  25.035  1.00  0.00     0.163 HD
ATOM     26  O   UNL A   1      32.483  31.786  27.126  1.00  0.00    -0.269 OA
BRANCH  24  27
ATOM     27  C   UNL A   1      34.506  30.654  27.472  1.00  0.00     0.039 A 
ATOM     28  C   UNL A   1      35.443  31.681  27.626  1.00  0.00     0.014 A 
ATOM     29  C   UNL A   1      34.784  29.380  27.978  1.00  0.00     0.014 A 
ATOM     30  C   UNL A   1      36.630  31.447  28.325  1.00  0.00     0.010 A 
ATOM     31  C   UNL A   1      35.937  29.164  28.732  1.00  0.00     0.010 A 
ATOM     32  C   UNL A   1      36.875  30.193  28.907  1.00  0.00    -0.014 A 
BRANCH  32  33
ATOM     33  C   UNL A   1      38.105  29.945  29.702  1.00  0.00     0.031 A 
ATOM     34  C   UNL A   1      39.182  29.039  29.176  1.00  0.00     0.074 A 
ATOM     35  C   UNL A   1      38.223  30.490  30.928  1.00  0.00     0.049 A 
ATOM     36  N   UNL A   1      40.293  28.649  29.751  1.00  0.00    -0.248 NA
ATOM     37  C   UNL A   1      38.973  28.473  27.834  1.00  0.00     0.031 C 
ATOM     38  C   UNL A   1      37.226  31.348  31.570  1.00  0.00     0.029 A 
ATOM     39  N   UNL A   1      39.226  30.392  31.860  1.00  0.00    -0.354 N 
ATOM     40  C   UNL A   1      40.902  27.783  28.853  1.00  0.00     0.074 A 
ATOM     41  C   UNL A   1      40.019  27.668  27.712  1.00  0.00     0.031 C 
ATOM     42  C   UNL A   1      37.672  31.710  32.783  1.00  0.00     0.029 A 
ATOM     43  C   UNL A   1      38.970  31.084  33.019  1.00  0.00     0.049 A 
ATOM     44  H   UNL A   1      40.051  29.875  31.712  1.00  0.00     0.167 HD
ATOM     45  C   UNL A   1      42.097  27.153  28.965  1.00  0.00     0.037 A 
ATOM     46  C   UNL A   1      39.695  31.193  34.148  1.00  0.00     0.037 A 
ATOM     47  C   UNL A   1      42.988  27.295  30.087  1.00  0.00     0.049 A 
ATOM     48  C   UNL A   1      41.025  30.496  34.238  1.00  0.00     0.074 A 
ATOM     49  C   UNL A   1      44.252  26.759  30.258  1.00  0.00     0.029 A 
ATOM     50  N   UNL A   1      42.705  28.027  31.231  1.00  0.00    -0.354 N 
ATOM     51  N   UNL A   1      41.622  29.737  33.353  1.00  0.00    -0.248 NA
ATOM     52  C   UNL A   1      41.784  30.679  35.484  1.00  0.00     0.031 C 
ATOM     53  C   UNL A   1      44.718  27.132  31.524  1.00  0.00     0.029 A 
ATOM     54  C   UNL A   1      43.763  27.938  32.122  1.00  0.00     0.049 A 
ATOM     55  H   UNL A   1      41.876  28.535  31.386  1.00  0.00     0.167 HD
ATOM     56  C   UNL A   1      42.834  29.371  33.920  1.00  0.00     0.074 A 
ATOM     57  C   UNL A   1      42.895  30.005  35.221  1.00  0.00     0.031 C 
ATOM     58  C   UNL A   1      43.809  28.578  33.411  1.00  0.00     0.037 A 
BRANCH  45  59
ATOM     59  C   UNL A   1      42.516  26.252  27.839  1.00  0.00     0.064 A 
ATOM     60  C   UNL A   1      42.034  24.940  27.728  1.00  0.00     0.173 A 
ATOM     61  C   UNL A   1      43.377  26.721  26.836  1.00  0.00     0.173 A 
ATOM     62  F   UNL A   1      41.215  24.439  28.666  1.00  0.00    -0.203 F 
ATOM     63  C   UNL A   1      42.418  24.122  26.668  1.00  0.00     0.198 A 
ATOM     64  C   UNL A   1      43.737  25.910  25.762  1.00  0.00     0.198 A 
ATOM     65  F   UNL A   1      43.863  27.971  26.891  1.00  0.00    -0.203 F 
ATOM     66  F   UNL A   1      41.978  22.857  26.606  1.00  0.00    -0.200 F 
ATOM     67  C   UNL A   1      43.263  24.610  25.683  1.00  0.00     0.200 A 
ATOM     68  F   UNL A   1      44.545  26.388  24.804  1.00  0.00    -0.200 F 
ATOM     69  F   UNL A   1      43.626  23.824  24.659  1.00  0.00    -0.200 F 
ENDBRANCH  45  59
BRANCH  46  70
ATOM     70  C   UNL A   1      39.188  32.016  35.276  1.00  0.00     0.064 A 
ATOM     71  C   UNL A   1      39.455  33.390  35.341  1.00  0.00     0.173 A 
ATOM     72  C   UNL A   1      38.425  31.449  36.307  1.00  0.00     0.173 A 
ATOM     73  F   UNL A   1      40.197  33.972  34.388  1.00  0.00    -0.203 F 
ATOM     74  C   UNL A   1      38.994  34.163  36.405  1.00  0.00     0.198 A 
ATOM     75  C   UNL A   1      37.941  32.228  37.356  1.00  0.00     0.198 A 
ATOM     76  F   UNL A   1      38.135  30.139  36.287  1.00  0.00    -0.203 F 
ATOM     77  F   UNL A   1      39.298  35.466  36.463  1.00  0.00    -0.200 F 
ATOM     78  C   UNL A   1      38.232  33.583  37.408  1.00  0.00     0.200 A 
ATOM     79  F   UNL A   1      37.193  31.666  38.315  1.00  0.00    -0.200 F 
ATOM     80  F   UNL A   1      37.784  34.327  38.428  1.00  0.00    -0.200 F 
ENDBRANCH  46  70
BRANCH  58  81
ATOM     81  C   UNL A   1      45.035  28.374  34.251  1.00  0.00     0.064 A 
ATOM     82  C   UNL A   1      45.144  27.296  35.141  1.00  0.00     0.173 A 
ATOM     83  C   UNL A   1      46.128  29.248  34.138  1.00  0.00     0.173 A 
ATOM     84  F   UNL A   1      44.121  26.444  35.297  1.00  0.00    -0.203 F 
ATOM     85  C   UNL A   1      46.294  27.115  35.906  1.00  0.00     0.198 A 
ATOM     86  C   UNL A   1      47.285  29.049  34.883  1.00  0.00     0.198 A 
ATOM     87  F   UNL A   1      46.073  30.292  33.296  1.00  0.00    -0.203 F 
ATOM     88  F   UNL A   1      46.359  26.105  36.785  1.00  0.00    -0.200 F 
ATOM     89  C   UNL A   1      47.365  27.986  35.772  1.00  0.00     0.200 A 
ATOM     90  F   UNL A   1      48.323  29.885  34.744  1.00  0.00    -0.200 F 
ATOM     91  F   UNL A   1      48.472  27.808  36.505  1.00  0.00    -0.200 F 
ENDBRANCH  58  81
ENDBRANCH  32  33
ENDBRANCH  24  27
ENDBRANCH  22  23
ENDBRANCH   1  22
TORSDOF 12
ENDMDL
