MODEL 1
REMARK VINA RESULT:     -11.4      0.000      0.000
REMARK SMILES CC[C@H](NS(=O)(=O)Cc1ccccc1)C(=O)NCCCNC(=O)c1ccc(-c2c3nc(c(-c4c(F)c(F)c(F)c(F)c4F)c4ccc([nH]4)c(-c4c(F)c(F)c(F)c(F)c4F)c4nc(c(-c5c(F)c(F)c(F)c(F)c5F)c5ccc2[nH]5)C=C4)C=C3)cc1
REMARK SMILES IDX 18 1 17 2 15 3 16 4 3 6 2 7 1 8 4 9 5 11 6 12 7 13 8 14 9 15
REMARK SMILES IDX 10 16 14 17 11 18 13 19 12 20 19 21 20 22 21 23 22 24 23 26
REMARK SMILES IDX 24 27 25 28 86 29 26 30 85 31 27 32 28 33 29 34 79 35 30 36
REMARK SMILES IDX 84 37 78 38 80 39 31 40 83 41 77 42 76 43 32 45 64 46 44 47
REMARK SMILES IDX 63 48 45 49 48 50 62 51 81 52 46 53 47 54 61 56 82 57 49 58
REMARK SMILES IDX 33 59 34 60 42 61 35 62 36 63 40 64 43 65 37 66 38 67 41 68
REMARK SMILES IDX 39 69 65 70 66 71 74 72 67 73 68 74 72 75 75 76 69 77 70 78
REMARK SMILES IDX 73 79 71 80 50 81 51 82 59 83 52 84 53 85 57 86 60 87 54 88
REMARK SMILES IDX 55 89 58 90 56 91
REMARK H PARENT 17 5 4 10 21 25 80 44 48 55
REMARK Flexibility Score: inf
ROOT
ATOM      1  C   UNL A   1      36.772  21.232  25.416  1.00  0.00     0.117 C 
ENDROOT
BRANCH   1   2
ATOM      2  N   UNL A   1      35.488  20.556  25.332  1.00  0.00    -0.355 N 
ATOM      3  C   UNL A   1      34.238  21.106  25.317  1.00  0.00     0.238 C 
ATOM      4  O   UNL A   1      33.274  20.337  25.271  1.00  0.00    -0.273 OA
ATOM      5  H   UNL A   1      35.525  19.573  25.280  1.00  0.00     0.163 HD
BRANCH   3   6
ATOM      6  C   UNL A   1      34.046  22.637  25.460  1.00  0.00     0.158 C 
BRANCH   6   7
ATOM      7  C   UNL A   1      33.438  22.957  26.827  1.00  0.00     0.027 C 
ATOM      8  C   UNL A   1      31.971  23.337  26.856  1.00  0.00     0.006 C 
ENDBRANCH   6   7
BRANCH   6   9
ATOM      9  N   UNL A   1      33.300  23.000  24.236  1.00  0.00    -0.202 NA
ATOM     10  H   UNL A   1      32.589  23.656  24.562  1.00  0.00     0.141 HD
BRANCH   9  11
ATOM     11  S   UNL A   1      33.843  23.659  22.829  1.00  0.00     0.216 S 
ATOM     12  O   UNL A   1      35.277  23.418  22.895  1.00  0.00    -0.212 OA
ATOM     13  O   UNL A   1      33.096  23.100  21.730  1.00  0.00    -0.212 OA
BRANCH  11  14
ATOM     14  C   UNL A   1      33.655  25.460  22.892  1.00  0.00     0.189 C 
BRANCH  14  15
ATOM     15  C   UNL A   1      32.899  25.962  24.090  1.00  0.00    -0.032 A 
ATOM     16  C   UNL A   1      31.497  25.952  24.101  1.00  0.00     0.005 A 
ATOM     17  C   UNL A   1      33.574  26.429  25.228  1.00  0.00     0.005 A 
ATOM     18  C   UNL A   1      30.789  26.521  25.162  1.00  0.00     0.000 A 
ATOM     19  C   UNL A   1      32.863  26.963  26.306  1.00  0.00     0.000 A 
ATOM     20  C   UNL A   1      31.473  27.038  26.258  1.00  0.00     0.000 A 
ENDBRANCH  14  15
ENDBRANCH  11  14
ENDBRANCH   9  11
ENDBRANCH   6   9
ENDBRANCH   3   6
ENDBRANCH   1   2
BRANCH   1  21
ATOM     21  C   UNL A   1      37.935  20.357  24.998  1.00  0.00     0.042 C 
BRANCH  21  22
ATOM     22  C   UNL A   1      39.193  20.592  25.814  1.00  0.00     0.118 C 
BRANCH  22  23
ATOM     23  N   UNL A   1      40.035  19.407  25.921  1.00  0.00    -0.352 N 
ATOM     24  C   UNL A   1      41.398  19.305  26.107  1.00  0.00     0.251 C 
ATOM     25  H   UNL A   1      39.559  18.549  25.849  1.00  0.00     0.163 HD
ATOM     26  O   UNL A   1      41.966  18.237  25.988  1.00  0.00    -0.269 OA
BRANCH  24  27
ATOM     27  C   UNL A   1      42.161  20.532  26.419  1.00  0.00     0.039 A 
ATOM     28  C   UNL A   1      42.699  21.287  25.376  1.00  0.00     0.014 A 
ATOM     29  C   UNL A   1      42.278  20.963  27.740  1.00  0.00     0.014 A 
ATOM     30  C   UNL A   1      43.255  22.537  25.653  1.00  0.00     0.010 A 
ATOM     31  C   UNL A   1      42.720  22.251  27.998  1.00  0.00     0.010 A 
ATOM     32  C   UNL A   1      43.212  23.054  26.958  1.00  0.00    -0.014 A 
BRANCH  32  33
ATOM     33  C   UNL A   1      43.661  24.433  27.274  1.00  0.00     0.031 A 
ATOM     34  C   UNL A   1      42.664  25.440  27.777  1.00  0.00     0.074 A 
ATOM     35  C   UNL A   1      44.927  24.805  26.998  1.00  0.00     0.049 A 
ATOM     36  N   UNL A   1      42.810  26.726  27.968  1.00  0.00    -0.248 NA
ATOM     37  C   UNL A   1      41.306  24.944  28.064  1.00  0.00     0.031 C 
ATOM     38  C   UNL A   1      45.968  23.933  26.448  1.00  0.00     0.029 A 
ATOM     39  N   UNL A   1      45.549  26.023  27.120  1.00  0.00    -0.354 N 
ATOM     40  C   UNL A   1      41.562  27.192  28.359  1.00  0.00     0.074 A 
ATOM     41  C   UNL A   1      40.657  26.066  28.335  1.00  0.00     0.031 C 
ATOM     42  C   UNL A   1      47.101  24.639  26.296  1.00  0.00     0.029 A 
ATOM     43  C   UNL A   1      46.855  26.022  26.689  1.00  0.00     0.049 A 
ATOM     44  H   UNL A   1      45.103  26.822  27.482  1.00  0.00     0.167 HD
ATOM     45  C   UNL A   1      41.211  28.445  28.728  1.00  0.00     0.037 A 
ATOM     46  C   UNL A   1      47.745  27.030  26.600  1.00  0.00     0.037 A 
ATOM     47  C   UNL A   1      42.132  29.547  28.807  1.00  0.00     0.049 A 
ATOM     48  C   UNL A   1      47.325  28.412  27.027  1.00  0.00     0.074 A 
ATOM     49  C   UNL A   1      41.905  30.824  29.284  1.00  0.00     0.029 A 
ATOM     50  N   UNL A   1      43.455  29.498  28.395  1.00  0.00    -0.354 N 
ATOM     51  N   UNL A   1      46.171  28.818  27.497  1.00  0.00    -0.248 NA
ATOM     52  C   UNL A   1      48.331  29.477  26.908  1.00  0.00     0.031 C 
ATOM     53  C   UNL A   1      43.074  31.567  29.107  1.00  0.00     0.029 A 
ATOM     54  C   UNL A   1      44.045  30.739  28.568  1.00  0.00     0.049 A 
ATOM     55  H   UNL A   1      43.907  28.702  28.033  1.00  0.00     0.167 HD
ATOM     56  C   UNL A   1      46.318  30.175  27.751  1.00  0.00     0.074 A 
ATOM     57  C   UNL A   1      47.680  30.521  27.402  1.00  0.00     0.031 C 
ATOM     58  C   UNL A   1      45.406  31.057  28.225  1.00  0.00     0.037 A 
BRANCH  45  59
ATOM     59  C   UNL A   1      39.776  28.702  29.084  1.00  0.00     0.064 A 
ATOM     60  C   UNL A   1      39.301  28.546  30.393  1.00  0.00     0.173 A 
ATOM     61  C   UNL A   1      38.882  29.177  28.112  1.00  0.00     0.173 A 
ATOM     62  F   UNL A   1      40.111  28.083  31.356  1.00  0.00    -0.203 F 
ATOM     63  C   UNL A   1      37.978  28.840  30.714  1.00  0.00     0.198 A 
ATOM     64  C   UNL A   1      37.570  29.498  28.442  1.00  0.00     0.198 A 
ATOM     65  F   UNL A   1      39.288  29.346  26.844  1.00  0.00    -0.203 F 
ATOM     66  F   UNL A   1      37.535  28.648  31.965  1.00  0.00    -0.200 F 
ATOM     67  C   UNL A   1      37.117  29.325  29.742  1.00  0.00     0.200 A 
ATOM     68  F   UNL A   1      36.743  29.980  27.504  1.00  0.00    -0.200 F 
ATOM     69  F   UNL A   1      35.849  29.625  30.056  1.00  0.00    -0.200 F 
ENDBRANCH  45  59
BRANCH  46  70
ATOM     70  C   UNL A   1      49.117  26.780  26.083  1.00  0.00     0.064 A 
ATOM     71  C   UNL A   1      49.428  26.997  24.732  1.00  0.00     0.173 A 
ATOM     72  C   UNL A   1      50.135  26.289  26.913  1.00  0.00     0.173 A 
ATOM     73  F   UNL A   1      48.484  27.445  23.892  1.00  0.00    -0.203 F 
ATOM     74  C   UNL A   1      50.693  26.701  24.227  1.00  0.00     0.198 A 
ATOM     75  C   UNL A   1      51.409  26.024  26.413  1.00  0.00     0.198 A 
ATOM     76  F   UNL A   1      49.894  26.066  28.213  1.00  0.00    -0.203 F 
ATOM     77  F   UNL A   1      50.943  26.859  22.919  1.00  0.00    -0.200 F 
ATOM     78  C   UNL A   1      51.684  26.219  25.068  1.00  0.00     0.200 A 
ATOM     79  F   UNL A   1      52.367  25.570  27.233  1.00  0.00    -0.200 F 
ATOM     80  F   UNL A   1      52.898  25.928  24.580  1.00  0.00    -0.200 F 
ENDBRANCH  46  70
BRANCH  58  81
ATOM     81  C   UNL A   1      45.853  32.477  28.418  1.00  0.00     0.064 A 
ATOM     82  C   UNL A   1      46.472  32.895  29.603  1.00  0.00     0.173 A 
ATOM     83  C   UNL A   1      45.719  33.410  27.378  1.00  0.00     0.173 A 
ATOM     84  F   UNL A   1      46.609  32.043  30.631  1.00  0.00    -0.203 F 
ATOM     85  C   UNL A   1      46.931  34.201  29.747  1.00  0.00     0.198 A 
ATOM     86  C   UNL A   1      46.207  34.706  27.513  1.00  0.00     0.198 A 
ATOM     87  F   UNL A   1      45.140  33.055  26.221  1.00  0.00    -0.203 F 
ATOM     88  F   UNL A   1      47.487  34.590  30.901  1.00  0.00    -0.200 F 
ATOM     89  C   UNL A   1      46.807  35.102  28.699  1.00  0.00     0.200 A 
ATOM     90  F   UNL A   1      46.102  35.568  26.494  1.00  0.00    -0.200 F 
ATOM     91  F   UNL A   1      47.266  36.354  28.832  1.00  0.00    -0.200 F 
ENDBRANCH  58  81
ENDBRANCH  32  33
ENDBRANCH  24  27
ENDBRANCH  22  23
ENDBRANCH  21  22
ENDBRANCH   1  21
TORSDOF 15
ENDMDL
MODEL 2
REMARK VINA RESULT:     -11.4      4.912     10.220
REMARK SMILES CC[C@H](NS(=O)(=O)Cc1ccccc1)C(=O)NCCCNC(=O)c1ccc(-c2c3nc(c(-c4c(F)c(F)c(F)c(F)c4F)c4ccc([nH]4)c(-c4c(F)c(F)c(F)c(F)c4F)c4nc(c(-c5c(F)c(F)c(F)c(F)c5F)c5ccc2[nH]5)C=C4)C=C3)cc1
REMARK SMILES IDX 18 1 17 2 15 3 16 4 3 6 2 7 1 8 4 9 5 11 6 12 7 13 8 14 9 15
REMARK SMILES IDX 10 16 14 17 11 18 13 19 12 20 19 21 20 22 21 23 22 24 23 26
REMARK SMILES IDX 24 27 25 28 86 29 26 30 85 31 27 32 28 33 29 34 79 35 30 36
REMARK SMILES IDX 84 37 78 38 80 39 31 40 83 41 77 42 76 43 32 45 64 46 44 47
REMARK SMILES IDX 63 48 45 49 48 50 62 51 81 52 46 53 47 54 61 56 82 57 49 58
REMARK SMILES IDX 33 59 34 60 42 61 35 62 36 63 40 64 43 65 37 66 38 67 41 68
REMARK SMILES IDX 39 69 65 70 66 71 74 72 67 73 68 74 72 75 75 76 69 77 70 78
REMARK SMILES IDX 73 79 71 80 50 81 51 82 59 83 52 84 53 85 57 86 60 87 54 88
REMARK SMILES IDX 55 89 58 90 56 91
REMARK H PARENT 17 5 4 10 21 25 80 44 48 55
REMARK Flexibility Score: inf
ROOT
ATOM      1  C   UNL A   1      32.324  27.197  26.234  1.00  0.00     0.117 C 
ENDROOT
BRANCH   1   2
ATOM      2  N   UNL A   1      31.193  26.452  26.760  1.00  0.00    -0.355 N 
ATOM      3  C   UNL A   1      30.264  25.722  26.075  1.00  0.00     0.238 C 
ATOM      4  O   UNL A   1      29.360  25.189  26.725  1.00  0.00    -0.273 OA
ATOM      5  H   UNL A   1      31.081  26.476  27.739  1.00  0.00     0.163 HD
BRANCH   3   6
ATOM      6  C   UNL A   1      30.292  25.660  24.527  1.00  0.00     0.158 C 
BRANCH   6   7
ATOM      7  C   UNL A   1      29.047  26.344  23.959  1.00  0.00     0.027 C 
ATOM      8  C   UNL A   1      29.227  27.732  23.380  1.00  0.00     0.006 C 
ENDBRANCH   6   7
BRANCH   6   9
ATOM      9  N   UNL A   1      30.517  24.225  24.250  1.00  0.00    -0.202 NA
ATOM     10  H   UNL A   1      30.004  24.055  23.384  1.00  0.00     0.141 HD
BRANCH   9  11
ATOM     11  S   UNL A   1      31.927  23.399  24.055  1.00  0.00     0.216 S 
ATOM     12  O   UNL A   1      32.109  22.766  25.353  1.00  0.00    -0.212 OA
ATOM     13  O   UNL A   1      31.823  22.563  22.885  1.00  0.00    -0.212 OA
BRANCH  11  14
ATOM     14  C   UNL A   1      33.298  24.572  23.894  1.00  0.00     0.189 C 
BRANCH  14  15
ATOM     15  C   UNL A   1      34.646  23.999  24.233  1.00  0.00    -0.032 A 
ATOM     16  C   UNL A   1      35.260  24.304  25.456  1.00  0.00     0.005 A 
ATOM     17  C   UNL A   1      35.307  23.133  23.349  1.00  0.00     0.005 A 
ATOM     18  C   UNL A   1      36.559  23.868  25.730  1.00  0.00     0.000 A 
ATOM     19  C   UNL A   1      36.592  22.666  23.641  1.00  0.00     0.000 A 
ATOM     20  C   UNL A   1      37.229  23.060  24.816  1.00  0.00     0.000 A 
ENDBRANCH  14  15
ENDBRANCH  11  14
ENDBRANCH   9  11
ENDBRANCH   6   9
ENDBRANCH   3   6
ENDBRANCH   1   2
BRANCH   1  21
ATOM     21  C   UNL A   1      31.934  28.538  25.648  1.00  0.00     0.042 C 
BRANCH  21  22
ATOM     22  C   UNL A   1      33.055  29.559  25.673  1.00  0.00     0.118 C 
BRANCH  22  23
ATOM     23  N   UNL A   1      32.642  30.850  26.209  1.00  0.00    -0.352 N 
ATOM     24  C   UNL A   1      33.237  31.638  27.172  1.00  0.00     0.251 C 
ATOM     25  H   UNL A   1      31.812  31.214  25.827  1.00  0.00     0.163 HD
ATOM     26  O   UNL A   1      32.658  32.602  27.635  1.00  0.00    -0.269 OA
BRANCH  24  27
ATOM     27  C   UNL A   1      34.583  31.266  27.657  1.00  0.00     0.039 A 
ATOM     28  C   UNL A   1      35.566  32.251  27.768  1.00  0.00     0.014 A 
ATOM     29  C   UNL A   1      34.839  29.959  28.068  1.00  0.00     0.014 A 
ATOM     30  C   UNL A   1      36.773  31.944  28.399  1.00  0.00     0.010 A 
ATOM     31  C   UNL A   1      35.985  29.688  28.799  1.00  0.00     0.010 A 
ATOM     32  C   UNL A   1      36.964  30.677  28.975  1.00  0.00    -0.014 A 
BRANCH  32  33
ATOM     33  C   UNL A   1      38.170  30.351  29.777  1.00  0.00     0.031 A 
ATOM     34  C   UNL A   1      39.175  29.371  29.239  1.00  0.00     0.074 A 
ATOM     35  C   UNL A   1      38.296  30.843  31.026  1.00  0.00     0.049 A 
ATOM     36  N   UNL A   1      40.210  28.835  29.834  1.00  0.00    -0.248 NA
ATOM     37  C   UNL A   1      38.966  28.894  27.861  1.00  0.00     0.031 C 
ATOM     38  C   UNL A   1      37.353  31.752  31.681  1.00  0.00     0.029 A 
ATOM     39  N   UNL A   1      39.260  30.626  31.980  1.00  0.00    -0.354 N 
ATOM     40  C   UNL A   1      40.747  27.939  28.919  1.00  0.00     0.074 A 
ATOM     41  C   UNL A   1      39.902  27.964  27.748  1.00  0.00     0.031 C 
ATOM     42  C   UNL A   1      37.792  32.028  32.920  1.00  0.00     0.029 A 
ATOM     43  C   UNL A   1      39.019  31.278  33.167  1.00  0.00     0.049 A 
ATOM     44  H   UNL A   1      40.049  30.058  31.829  1.00  0.00     0.167 HD
ATOM     45  C   UNL A   1      41.861  27.181  29.041  1.00  0.00     0.037 A 
ATOM     46  C   UNL A   1      39.700  31.254  34.330  1.00  0.00     0.037 A 
ATOM     47  C   UNL A   1      42.729  27.208  30.187  1.00  0.00     0.049 A 
ATOM     48  C   UNL A   1      40.941  30.406  34.429  1.00  0.00     0.074 A 
ATOM     49  C   UNL A   1      43.945  26.571  30.359  1.00  0.00     0.029 A 
ATOM     50  N   UNL A   1      42.470  27.907  31.355  1.00  0.00    -0.354 N 
ATOM     51  N   UNL A   1      41.498  29.645  33.519  1.00  0.00    -0.248 NA
ATOM     52  C   UNL A   1      41.646  30.412  35.719  1.00  0.00     0.031 C 
ATOM     53  C   UNL A   1      44.394  26.838  31.655  1.00  0.00     0.029 A 
ATOM     54  C   UNL A   1      43.484  27.682  32.271  1.00  0.00     0.049 A 
ATOM     55  H   UNL A   1      41.683  28.477  31.512  1.00  0.00     0.167 HD
ATOM     56  C   UNL A   1      42.628  29.102  34.116  1.00  0.00     0.074 A 
ATOM     57  C   UNL A   1      42.689  29.635  35.460  1.00  0.00     0.031 C 
ATOM     58  C   UNL A   1      43.531  28.234  33.599  1.00  0.00     0.037 A 
BRANCH  45  59
ATOM     59  C   UNL A   1      42.218  26.263  27.910  1.00  0.00     0.064 A 
ATOM     60  C   UNL A   1      41.604  25.013  27.751  1.00  0.00     0.173 A 
ATOM     61  C   UNL A   1      43.140  26.671  26.934  1.00  0.00     0.173 A 
ATOM     62  F   UNL A   1      40.725  24.571  28.663  1.00  0.00    -0.203 F 
ATOM     63  C   UNL A   1      41.911  24.197  26.664  1.00  0.00     0.198 A 
ATOM     64  C   UNL A   1      43.422  25.867  25.834  1.00  0.00     0.198 A 
ATOM     65  F   UNL A   1      43.754  27.860  27.038  1.00  0.00    -0.203 F 
ATOM     66  F   UNL A   1      41.339  22.991  26.552  1.00  0.00    -0.200 F 
ATOM     67  C   UNL A   1      42.811  24.630  25.702  1.00  0.00     0.200 A 
ATOM     68  F   UNL A   1      44.282  26.292  24.898  1.00  0.00    -0.200 F 
ATOM     69  F   UNL A   1      43.092  23.851  24.648  1.00  0.00    -0.200 F 
ENDBRANCH  45  59
BRANCH  46  70
ATOM     70  C   UNL A   1      39.228  32.048  35.496  1.00  0.00     0.064 A 
ATOM     71  C   UNL A   1      39.608  33.389  35.656  1.00  0.00     0.173 A 
ATOM     72  C   UNL A   1      38.420  31.478  36.491  1.00  0.00     0.173 A 
ATOM     73  F   UNL A   1      40.398  33.973  34.743  1.00  0.00    -0.203 F 
ATOM     74  C   UNL A   1      39.224  34.117  36.781  1.00  0.00     0.198 A 
ATOM     75  C   UNL A   1      38.011  32.218  37.599  1.00  0.00     0.198 A 
ATOM     76  F   UNL A   1      38.026  30.201  36.387  1.00  0.00    -0.203 F 
ATOM     77  F   UNL A   1      39.654  35.378  36.937  1.00  0.00    -0.200 F 
ATOM     78  C   UNL A   1      38.423  33.533  37.749  1.00  0.00     0.200 A 
ATOM     79  F   UNL A   1      37.227  31.652  38.526  1.00  0.00    -0.200 F 
ATOM     80  F   UNL A   1      38.060  34.232  38.834  1.00  0.00    -0.200 F 
ENDBRANCH  46  70
BRANCH  58  81
ATOM     81  C   UNL A   1      44.675  27.822  34.478  1.00  0.00     0.064 A 
ATOM     82  C   UNL A   1      45.877  28.544  34.502  1.00  0.00     0.173 A 
ATOM     83  C   UNL A   1      44.541  26.735  35.355  1.00  0.00     0.173 A 
ATOM     84  F   UNL A   1      46.057  29.581  33.671  1.00  0.00    -0.203 F 
ATOM     85  C   UNL A   1      46.909  28.183  35.362  1.00  0.00     0.198 A 
ATOM     86  C   UNL A   1      45.564  26.396  36.236  1.00  0.00     0.198 A 
ATOM     87  F   UNL A   1      43.407  26.018  35.376  1.00  0.00    -0.203 F 
ATOM     88  F   UNL A   1      48.063  28.864  35.342  1.00  0.00    -0.200 F 
ATOM     89  C   UNL A   1      46.748  27.117  36.235  1.00  0.00     0.200 A 
ATOM     90  F   UNL A   1      45.399  25.378  37.090  1.00  0.00    -0.200 F 
ATOM     91  F   UNL A   1      47.737  26.783  37.075  1.00  0.00    -0.200 F 
ENDBRANCH  58  81
ENDBRANCH  32  33
ENDBRANCH  24  27
ENDBRANCH  22  23
ENDBRANCH  21  22
ENDBRANCH   1  21
TORSDOF 15
ENDMDL
MODEL 3
REMARK VINA RESULT:     -11.4      6.103     11.256
REMARK SMILES CC[C@H](NS(=O)(=O)Cc1ccccc1)C(=O)NCCCNC(=O)c1ccc(-c2c3nc(c(-c4c(F)c(F)c(F)c(F)c4F)c4ccc([nH]4)c(-c4c(F)c(F)c(F)c(F)c4F)c4nc(c(-c5c(F)c(F)c(F)c(F)c5F)c5ccc2[nH]5)C=C4)C=C3)cc1
REMARK SMILES IDX 18 1 17 2 15 3 16 4 3 6 2 7 1 8 4 9 5 11 6 12 7 13 8 14 9 15
REMARK SMILES IDX 10 16 14 17 11 18 13 19 12 20 19 21 20 22 21 23 22 24 23 26
REMARK SMILES IDX 24 27 25 28 86 29 26 30 85 31 27 32 28 33 29 34 79 35 30 36
REMARK SMILES IDX 84 37 78 38 80 39 31 40 83 41 77 42 76 43 32 45 64 46 44 47
REMARK SMILES IDX 63 48 45 49 48 50 62 51 81 52 46 53 47 54 61 56 82 57 49 58
REMARK SMILES IDX 33 59 34 60 42 61 35 62 36 63 40 64 43 65 37 66 38 67 41 68
REMARK SMILES IDX 39 69 65 70 66 71 74 72 67 73 68 74 72 75 75 76 69 77 70 78
REMARK SMILES IDX 73 79 71 80 50 81 51 82 59 83 52 84 53 85 57 86 60 87 54 88
REMARK SMILES IDX 55 89 58 90 56 91
REMARK H PARENT 17 5 4 10 21 25 80 44 48 55
REMARK Flexibility Score: inf
ROOT
ATOM      1  C   UNL A   1      32.083  30.501  25.834  1.00  0.00     0.117 C 
ENDROOT
BRANCH   1   2
ATOM      2  N   UNL A   1      33.072  29.486  26.154  1.00  0.00    -0.355 N 
ATOM      3  C   UNL A   1      32.977  28.131  26.008  1.00  0.00     0.238 C 
ATOM      4  O   UNL A   1      33.935  27.446  26.375  1.00  0.00    -0.273 OA
ATOM      5  H   UNL A   1      33.922  29.817  26.525  1.00  0.00     0.163 HD
BRANCH   3   6
ATOM      6  C   UNL A   1      31.667  27.481  25.496  1.00  0.00     0.158 C 
BRANCH   6   7
ATOM      7  C   UNL A   1      31.386  26.197  26.279  1.00  0.00     0.027 C 
ATOM      8  C   UNL A   1      31.130  24.941  25.472  1.00  0.00     0.006 C 
ENDBRANCH   6   7
BRANCH   6   9
ATOM      9  N   UNL A   1      31.876  27.403  24.034  1.00  0.00    -0.202 NA
ATOM     10  H   UNL A   1      31.864  26.403  23.833  1.00  0.00     0.141 HD
BRANCH   9  11
ATOM     11  S   UNL A   1      31.004  28.072  22.809  1.00  0.00     0.216 S 
ATOM     12  O   UNL A   1      31.761  29.277  22.499  1.00  0.00    -0.212 OA
ATOM     13  O   UNL A   1      30.815  27.086  21.775  1.00  0.00    -0.212 OA
BRANCH  11  14
ATOM     14  C   UNL A   1      29.412  28.656  23.448  1.00  0.00     0.189 C 
BRANCH  14  15
ATOM     15  C   UNL A   1      28.977  29.988  22.904  1.00  0.00    -0.032 A 
ATOM     16  C   UNL A   1      28.494  30.095  21.591  1.00  0.00     0.005 A 
ATOM     17  C   UNL A   1      29.021  31.144  23.697  1.00  0.00     0.005 A 
ATOM     18  C   UNL A   1      28.195  31.344  21.042  1.00  0.00     0.000 A 
ATOM     19  C   UNL A   1      28.685  32.388  23.158  1.00  0.00     0.000 A 
ATOM     20  C   UNL A   1      28.304  32.492  21.821  1.00  0.00     0.000 A 
ENDBRANCH  14  15
ENDBRANCH  11  14
ENDBRANCH   9  11
ENDBRANCH   6   9
ENDBRANCH   3   6
ENDBRANCH   1   2
BRANCH   1  21
ATOM     21  C   UNL A   1      31.780  31.424  26.996  1.00  0.00     0.042 C 
BRANCH  21  22
ATOM     22  C   UNL A   1      32.938  32.332  27.365  1.00  0.00     0.118 C 
BRANCH  22  23
ATOM     23  N   UNL A   1      32.541  33.723  27.541  1.00  0.00    -0.352 N 
ATOM     24  C   UNL A   1      33.003  34.668  28.433  1.00  0.00     0.251 C 
ATOM     25  H   UNL A   1      31.835  34.036  26.931  1.00  0.00     0.163 HD
ATOM     26  O   UNL A   1      32.431  35.732  28.568  1.00  0.00    -0.269 OA
BRANCH  24  27
ATOM     27  C   UNL A   1      34.193  34.347  29.250  1.00  0.00     0.039 A 
ATOM     28  C   UNL A   1      34.021  33.776  30.512  1.00  0.00     0.014 A 
ATOM     29  C   UNL A   1      35.471  34.546  28.729  1.00  0.00     0.014 A 
ATOM     30  C   UNL A   1      35.136  33.300  31.204  1.00  0.00     0.010 A 
ATOM     31  C   UNL A   1      36.560  33.967  29.361  1.00  0.00     0.010 A 
ATOM     32  C   UNL A   1      36.406  33.336  30.604  1.00  0.00    -0.014 A 
BRANCH  32  33
ATOM     33  C   UNL A   1      37.595  32.715  31.240  1.00  0.00     0.031 A 
ATOM     34  C   UNL A   1      38.270  31.550  30.570  1.00  0.00     0.074 A 
ATOM     35  C   UNL A   1      37.988  33.120  32.465  1.00  0.00     0.049 A 
ATOM     36  N   UNL A   1      39.219  30.771  31.021  1.00  0.00    -0.248 NA
ATOM     37  C   UNL A   1      37.785  31.184  29.228  1.00  0.00     0.031 C 
ATOM     38  C   UNL A   1      37.371  34.197  33.242  1.00  0.00     0.029 A 
ATOM     39  N   UNL A   1      38.987  32.655  33.283  1.00  0.00    -0.354 N 
ATOM     40  C   UNL A   1      39.416  29.810  30.039  1.00  0.00     0.074 A 
ATOM     41  C   UNL A   1      38.459  30.069  28.988  1.00  0.00     0.031 C 
ATOM     42  C   UNL A   1      38.014  34.321  34.415  1.00  0.00     0.029 A 
ATOM     43  C   UNL A   1      39.055  33.302  34.494  1.00  0.00     0.049 A 
ATOM     44  H   UNL A   1      39.599  31.927  33.027  1.00  0.00     0.167 HD
ATOM     45  C   UNL A   1      40.330  28.814  30.010  1.00  0.00     0.037 A 
ATOM     46  C   UNL A   1      39.853  33.082  35.558  1.00  0.00     0.037 A 
ATOM     47  C   UNL A   1      41.318  28.600  31.033  1.00  0.00     0.049 A 
ATOM     48  C   UNL A   1      40.867  31.970  35.490  1.00  0.00     0.074 A 
ATOM     49  C   UNL A   1      42.365  27.697  31.041  1.00  0.00     0.029 A 
ATOM     50  N   UNL A   1      41.377  29.298  32.228  1.00  0.00    -0.354 N 
ATOM     51  N   UNL A   1      41.114  31.134  34.510  1.00  0.00    -0.248 NA
ATOM     52  C   UNL A   1      41.711  31.768  36.676  1.00  0.00     0.031 C 
ATOM     53  C   UNL A   1      43.023  27.808  32.268  1.00  0.00     0.029 A 
ATOM     54  C   UNL A   1      42.419  28.815  33.002  1.00  0.00     0.049 A 
ATOM     55  H   UNL A   1      40.769  30.027  32.490  1.00  0.00     0.167 HD
ATOM     56  C   UNL A   1      42.153  30.326  34.951  1.00  0.00     0.074 A 
ATOM     57  C   UNL A   1      42.505  30.783  36.279  1.00  0.00     0.031 C 
ATOM     58  C   UNL A   1      42.759  29.294  34.316  1.00  0.00     0.037 A 
BRANCH  45  59
ATOM     59  C   UNL A   1      40.320  27.879  28.837  1.00  0.00     0.064 A 
ATOM     60  C   UNL A   1      41.036  28.156  27.664  1.00  0.00     0.173 A 
ATOM     61  C   UNL A   1      39.637  26.655  28.916  1.00  0.00     0.173 A 
ATOM     62  F   UNL A   1      41.695  29.317  27.534  1.00  0.00    -0.203 F 
ATOM     63  C   UNL A   1      41.056  27.251  26.606  1.00  0.00     0.198 A 
ATOM     64  C   UNL A   1      39.684  25.740  27.869  1.00  0.00     0.198 A 
ATOM     65  F   UNL A   1      38.938  26.340  30.017  1.00  0.00    -0.203 F 
ATOM     66  F   UNL A   1      41.717  27.554  25.480  1.00  0.00    -0.200 F 
ATOM     67  C   UNL A   1      40.389  26.040  26.714  1.00  0.00     0.200 A 
ATOM     68  F   UNL A   1      39.050  24.564  27.979  1.00  0.00    -0.200 F 
ATOM     69  F   UNL A   1      40.425  25.162  25.701  1.00  0.00    -0.200 F 
ENDBRANCH  45  59
BRANCH  46  70
ATOM     70  C   UNL A   1      39.729  33.920  36.780  1.00  0.00     0.064 A 
ATOM     71  C   UNL A   1      38.911  33.520  37.848  1.00  0.00     0.173 A 
ATOM     72  C   UNL A   1      40.392  35.151  36.896  1.00  0.00     0.173 A 
ATOM     73  F   UNL A   1      38.238  32.362  37.777  1.00  0.00    -0.203 F 
ATOM     74  C   UNL A   1      38.737  34.333  38.967  1.00  0.00     0.198 A 
ATOM     75  C   UNL A   1      40.242  35.947  38.030  1.00  0.00     0.198 A 
ATOM     76  F   UNL A   1      41.188  35.580  35.906  1.00  0.00    -0.203 F 
ATOM     77  F   UNL A   1      37.901  33.952  39.944  1.00  0.00    -0.200 F 
ATOM     78  C   UNL A   1      39.406  35.543  39.059  1.00  0.00     0.200 A 
ATOM     79  F   UNL A   1      40.900  37.111  38.119  1.00  0.00    -0.200 F 
ATOM     80  F   UNL A   1      39.233  36.327  40.133  1.00  0.00    -0.200 F 
ENDBRANCH  46  70
BRANCH  58  81
ATOM     81  C   UNL A   1      43.878  28.601  35.036  1.00  0.00     0.064 A 
ATOM     82  C   UNL A   1      43.651  27.462  35.820  1.00  0.00     0.173 A 
ATOM     83  C   UNL A   1      45.202  29.043  34.883  1.00  0.00     0.173 A 
ATOM     84  F   UNL A   1      42.402  27.010  36.008  1.00  0.00    -0.203 F 
ATOM     85  C   UNL A   1      44.707  26.797  36.436  1.00  0.00     0.198 A 
ATOM     86  C   UNL A   1      46.257  28.359  35.475  1.00  0.00     0.198 A 
ATOM     87  F   UNL A   1      45.471  30.125  34.136  1.00  0.00    -0.203 F 
ATOM     88  F   UNL A   1      44.463  25.732  37.211  1.00  0.00    -0.200 F 
ATOM     89  C   UNL A   1      46.009  27.240  36.256  1.00  0.00     0.200 A 
ATOM     90  F   UNL A   1      47.515  28.777  35.285  1.00  0.00    -0.200 F 
ATOM     91  F   UNL A   1      47.026  26.587  36.836  1.00  0.00    -0.200 F 
ENDBRANCH  58  81
ENDBRANCH  32  33
ENDBRANCH  24  27
ENDBRANCH  22  23
ENDBRANCH  21  22
ENDBRANCH   1  21
TORSDOF 15
ENDMDL
