MODEL 1
REMARK VINA RESULT:     -13.0      0.000      0.000
REMARK SMILES CC(C)C[C@H](C(=O)NCCCNC(=O)c1ccc(-c2c3nc(c(-c4c(F)c(F)c(F)c(F)c4F)c4ccc([nH]4)c(-c4c(F)c(F)c(F)c(F)c4F)c4nc(c(-c5c(F)c(F)c(F)c(F)c5F)c5ccc2[nH]5)C=C4)C=C3)cc1)N1C(=O)/C(=C/C2=c3ccccc3=NC2)SC1=S
REMARK SMILES IDX 10 1 9 2 8 3 6 4 7 5 5 7 4 8 2 9 1 10 3 11 78 12 79 13 93 14
REMARK SMILES IDX 80 15 81 16 92 17 94 18 82 19 83 20 84 21 91 22 85 23 89 24
REMARK SMILES IDX 90 25 86 26 88 27 87 28 11 29 12 30 13 31 14 33 15 34 16 35
REMARK SMILES IDX 77 36 17 37 76 38 18 39 19 40 20 41 70 42 21 43 75 44 69 45
REMARK SMILES IDX 71 46 22 47 74 48 68 49 67 50 23 52 55 53 35 54 54 55 36 56
REMARK SMILES IDX 39 57 53 58 72 59 37 60 38 61 52 63 73 64 40 65 24 66 25 67
REMARK SMILES IDX 33 68 26 69 27 70 31 71 34 72 28 73 29 74 32 75 30 76 56 77
REMARK SMILES IDX 57 78 65 79 58 80 59 81 63 82 66 83 60 84 61 85 64 86 62 87
REMARK SMILES IDX 41 88 42 89 50 90 43 91 44 92 48 93 51 94 45 95 46 96 49 97
REMARK SMILES IDX 47 98
REMARK H PARENT 8 6 12 32 71 51 39 62
REMARK Flexibility Score: inf
ROOT
ATOM      1  C   UNL A   1      31.410  31.741  26.499  1.00  0.00     0.042 C 
ENDROOT
BRANCH   1   2
ATOM      2  C   UNL A   1      31.647  30.285  26.158  1.00  0.00     0.117 C 
BRANCH   2   3
ATOM      3  N   UNL A   1      32.329  30.078  24.887  1.00  0.00    -0.354 N 
ATOM      4  C   UNL A   1      32.135  29.138  23.909  1.00  0.00     0.243 C 
ATOM      5  O   UNL A   1      32.648  29.351  22.807  1.00  0.00    -0.273 OA
ATOM      6  H   UNL A   1      33.049  30.723  24.698  1.00  0.00     0.163 HD
BRANCH   4   7
ATOM      7  C   UNL A   1      31.277  27.879  24.153  1.00  0.00     0.181 C 
BRANCH   7   8
ATOM      8  C   UNL A   1      30.083  27.821  23.162  1.00  0.00     0.038 C 
BRANCH   8   9
ATOM      9  C   UNL A   1      29.120  29.027  23.127  1.00  0.00    -0.015 C 
ATOM     10  C   UNL A   1      29.329  29.922  21.904  1.00  0.00     0.007 C 
ATOM     11  C   UNL A   1      27.675  28.511  23.126  1.00  0.00     0.007 C 
ENDBRANCH   8   9
ENDBRANCH   7   8
BRANCH   7  12
ATOM     12  N   UNL A   1      32.008  26.600  24.283  1.00  0.00    -0.280 N 
ATOM     13  C   UNL A   1      32.365  26.144  25.548  1.00  0.00     0.266 C 
ATOM     14  C   UNL A   1      32.204  25.653  23.305  1.00  0.00     0.149 C 
ATOM     15  O   UNL A   1      32.412  26.793  26.582  1.00  0.00    -0.268 OA
ATOM     16  C   UNL A   1      32.708  24.692  25.464  1.00  0.00     0.080 C 
ATOM     17  S   UNL A   1      31.977  24.078  24.030  1.00  0.00    -0.054 SA
ATOM     18  S   UNL A   1      32.900  25.815  21.797  1.00  0.00    -0.052 S 
ATOM     19  C   UNL A   1      33.563  24.050  26.272  1.00  0.00     0.027 C 
BRANCH  19  20
ATOM     20  C   UNL A   1      34.016  22.688  26.078  1.00  0.00    -0.016 C 
ATOM     21  C   UNL A   1      35.253  22.244  25.847  1.00  0.00     0.005 A 
ATOM     22  C   UNL A   1      33.044  21.544  26.067  1.00  0.00     0.179 C 
ATOM     23  C   UNL A   1      36.559  22.828  25.773  1.00  0.00     0.011 A 
ATOM     24  C   UNL A   1      35.030  20.828  25.510  1.00  0.00     0.065 A 
ATOM     25  N   UNL A   1      33.826  20.358  25.634  1.00  0.00    -0.280 NA
ATOM     26  C   UNL A   1      37.576  22.096  25.293  1.00  0.00     0.001 A 
ATOM     27  C   UNL A   1      36.204  20.082  25.001  1.00  0.00     0.028 A 
ATOM     28  C   UNL A   1      37.383  20.716  24.884  1.00  0.00     0.002 A 
ENDBRANCH  19  20
ENDBRANCH   7  12
ENDBRANCH   4   7
ENDBRANCH   2   3
ENDBRANCH   1   2
BRANCH   1  29
ATOM     29  C   UNL A   1      32.656  32.443  27.008  1.00  0.00     0.118 C 
BRANCH  29  30
ATOM     30  N   UNL A   1      32.414  33.830  27.387  1.00  0.00    -0.352 N 
ATOM     31  C   UNL A   1      32.987  34.591  28.376  1.00  0.00     0.251 C 
ATOM     32  H   UNL A   1      31.731  34.293  26.851  1.00  0.00     0.163 HD
ATOM     33  O   UNL A   1      32.527  35.697  28.643  1.00  0.00    -0.269 OA
BRANCH  31  34
ATOM     34  C   UNL A   1      34.143  34.073  29.139  1.00  0.00     0.039 A 
ATOM     35  C   UNL A   1      33.916  33.185  30.193  1.00  0.00     0.014 A 
ATOM     36  C   UNL A   1      35.444  34.467  28.822  1.00  0.00     0.014 A 
ATOM     37  C   UNL A   1      35.001  32.635  30.881  1.00  0.00     0.010 A 
ATOM     38  C   UNL A   1      36.523  33.848  29.438  1.00  0.00     0.010 A 
ATOM     39  C   UNL A   1      36.312  32.936  30.482  1.00  0.00    -0.014 A 
BRANCH  39  40
ATOM     40  C   UNL A   1      37.490  32.347  31.163  1.00  0.00     0.031 A 
ATOM     41  C   UNL A   1      38.239  31.220  30.508  1.00  0.00     0.074 A 
ATOM     42  C   UNL A   1      37.827  32.756  32.401  1.00  0.00     0.049 A 
ATOM     43  N   UNL A   1      39.199  30.472  30.987  1.00  0.00    -0.248 NA
ATOM     44  C   UNL A   1      37.821  30.860  29.143  1.00  0.00     0.031 C 
ATOM     45  C   UNL A   1      37.146  33.803  33.164  1.00  0.00     0.029 A 
ATOM     46  N   UNL A   1      38.823  32.327  33.240  1.00  0.00    -0.354 N 
ATOM     47  C   UNL A   1      39.464  29.527  30.005  1.00  0.00     0.074 A 
ATOM     48  C   UNL A   1      38.542  29.773  28.917  1.00  0.00     0.031 C 
ATOM     49  C   UNL A   1      37.760  33.953  34.349  1.00  0.00     0.029 A 
ATOM     50  C   UNL A   1      38.855  32.992  34.440  1.00  0.00     0.049 A 
ATOM     51  H   UNL A   1      39.457  31.611  33.003  1.00  0.00     0.167 HD
ATOM     52  C   UNL A   1      40.403  28.553  30.004  1.00  0.00     0.037 A 
ATOM     53  C   UNL A   1      39.678  32.839  35.495  1.00  0.00     0.037 A 
ATOM     54  C   UNL A   1      41.364  28.357  31.054  1.00  0.00     0.049 A 
ATOM     55  C   UNL A   1      40.761  31.800  35.438  1.00  0.00     0.074 A 
ATOM     56  C   UNL A   1      42.411  27.453  31.112  1.00  0.00     0.029 A 
ATOM     57  N   UNL A   1      41.405  29.096  32.227  1.00  0.00    -0.354 N 
ATOM     58  N   UNL A   1      41.031  30.941  34.486  1.00  0.00    -0.248 NA
ATOM     59  C   UNL A   1      41.656  31.713  36.600  1.00  0.00     0.031 C 
ATOM     60  C   UNL A   1      43.075  27.633  32.331  1.00  0.00     0.029 A 
ATOM     61  C   UNL A   1      42.458  28.667  33.018  1.00  0.00     0.049 A 
ATOM     62  H   UNL A   1      40.779  29.817  32.463  1.00  0.00     0.167 HD
ATOM     63  C   UNL A   1      42.140  30.228  34.921  1.00  0.00     0.074 A 
ATOM     64  C   UNL A   1      42.497  30.760  36.220  1.00  0.00     0.031 C 
ATOM     65  C   UNL A   1      42.803  29.224  34.299  1.00  0.00     0.037 A 
BRANCH  52  66
ATOM     66  C   UNL A   1      40.436  27.632  28.822  1.00  0.00     0.064 A 
ATOM     67  C   UNL A   1      41.224  27.909  27.695  1.00  0.00     0.173 A 
ATOM     68  C   UNL A   1      39.674  26.453  28.819  1.00  0.00     0.173 A 
ATOM     69  F   UNL A   1      41.955  29.033  27.643  1.00  0.00    -0.203 F 
ATOM     70  C   UNL A   1      41.224  27.056  26.595  1.00  0.00     0.198 A 
ATOM     71  C   UNL A   1      39.697  25.590  27.728  1.00  0.00     0.198 A 
ATOM     72  F   UNL A   1      38.905  26.144  29.873  1.00  0.00    -0.203 F 
ATOM     73  F   UNL A   1      41.943  27.367  25.508  1.00  0.00    -0.200 F 
ATOM     74  C   UNL A   1      40.464  25.895  26.614  1.00  0.00     0.200 A 
ATOM     75  F   UNL A   1      38.968  24.466  27.750  1.00  0.00    -0.200 F 
ATOM     76  F   UNL A   1      40.465  25.076  25.553  1.00  0.00    -0.200 F 
ENDBRANCH  52  66
BRANCH  53  77
ATOM     77  C   UNL A   1      39.535  33.729  36.674  1.00  0.00     0.064 A 
ATOM     78  C   UNL A   1      38.756  33.335  37.770  1.00  0.00     0.173 A 
ATOM     79  C   UNL A   1      40.181  34.970  36.739  1.00  0.00     0.173 A 
ATOM     80  F   UNL A   1      38.106  32.162  37.742  1.00  0.00    -0.203 F 
ATOM     81  C   UNL A   1      38.617  34.157  38.885  1.00  0.00     0.198 A 
ATOM     82  C   UNL A   1      40.057  35.784  37.863  1.00  0.00     0.198 A 
ATOM     83  F   UNL A   1      40.944  35.386  35.718  1.00  0.00    -0.203 F 
ATOM     84  F   UNL A   1      37.842  33.771  39.908  1.00  0.00    -0.200 F 
ATOM     85  C   UNL A   1      39.272  35.379  38.933  1.00  0.00     0.200 A 
ATOM     86  F   UNL A   1      40.700  36.958  37.912  1.00  0.00    -0.200 F 
ATOM     87  F   UNL A   1      39.143  36.168  40.008  1.00  0.00    -0.200 F 
ENDBRANCH  53  77
BRANCH  65  88
ATOM     88  C   UNL A   1      44.002  28.662  34.998  1.00  0.00     0.064 A 
ATOM     89  C   UNL A   1      43.896  27.563  35.862  1.00  0.00     0.173 A 
ATOM     90  C   UNL A   1      45.275  29.202  34.765  1.00  0.00     0.173 A 
ATOM     91  F   UNL A   1      42.696  27.025  36.125  1.00  0.00    -0.203 F 
ATOM     92  C   UNL A   1      45.024  27.034  36.482  1.00  0.00     0.198 A 
ATOM     93  C   UNL A   1      46.402  28.659  35.373  1.00  0.00     0.198 A 
ATOM     94  F   UNL A   1      45.423  30.252  33.943  1.00  0.00    -0.203 F 
ATOM     95  F   UNL A   1      44.898  26.005  37.331  1.00  0.00    -0.200 F 
ATOM     96  C   UNL A   1      46.276  27.578  36.233  1.00  0.00     0.200 A 
ATOM     97  F   UNL A   1      47.612  29.180  35.126  1.00  0.00    -0.200 F 
ATOM     98  F   UNL A   1      47.361  27.065  36.828  1.00  0.00    -0.200 F 
ENDBRANCH  65  88
ENDBRANCH  39  40
ENDBRANCH  31  34
ENDBRANCH  29  30
ENDBRANCH   1  29
TORSDOF 14
ENDMDL
MODEL 2
REMARK VINA RESULT:     -13.0      5.141     10.799
REMARK SMILES CC(C)C[C@H](C(=O)NCCCNC(=O)c1ccc(-c2c3nc(c(-c4c(F)c(F)c(F)c(F)c4F)c4ccc([nH]4)c(-c4c(F)c(F)c(F)c(F)c4F)c4nc(c(-c5c(F)c(F)c(F)c(F)c5F)c5ccc2[nH]5)C=C4)C=C3)cc1)N1C(=O)/C(=C/C2=c3ccccc3=NC2)SC1=S
REMARK SMILES IDX 10 1 9 2 8 3 6 4 7 5 5 7 4 8 2 9 1 10 3 11 78 12 79 13 93 14
REMARK SMILES IDX 80 15 81 16 92 17 94 18 82 19 83 20 84 21 91 22 85 23 89 24
REMARK SMILES IDX 90 25 86 26 88 27 87 28 11 29 12 30 13 31 14 33 15 34 16 35
REMARK SMILES IDX 77 36 17 37 76 38 18 39 19 40 20 41 70 42 21 43 75 44 69 45
REMARK SMILES IDX 71 46 22 47 74 48 68 49 67 50 23 52 55 53 35 54 54 55 36 56
REMARK SMILES IDX 39 57 53 58 72 59 37 60 38 61 52 63 73 64 40 65 24 66 25 67
REMARK SMILES IDX 33 68 26 69 27 70 31 71 34 72 28 73 29 74 32 75 30 76 56 77
REMARK SMILES IDX 57 78 65 79 58 80 59 81 63 82 66 83 60 84 61 85 64 86 62 87
REMARK SMILES IDX 41 88 42 89 50 90 43 91 44 92 48 93 51 94 45 95 46 96 49 97
REMARK SMILES IDX 47 98
REMARK H PARENT 8 6 12 32 71 51 39 62
REMARK Flexibility Score: inf
ROOT
ATOM      1  C   UNL A   1      37.775  19.824  24.995  1.00  0.00     0.042 C 
ENDROOT
BRANCH   1   2
ATOM      2  C   UNL A   1      36.722  20.906  24.871  1.00  0.00     0.117 C 
BRANCH   2   3
ATOM      3  N   UNL A   1      35.884  21.054  26.055  1.00  0.00    -0.354 N 
ATOM      4  C   UNL A   1      34.548  21.331  26.176  1.00  0.00     0.243 C 
ATOM      5  O   UNL A   1      34.023  21.121  27.273  1.00  0.00    -0.273 OA
ATOM      6  H   UNL A   1      36.358  20.934  26.910  1.00  0.00     0.163 HD
BRANCH   4   7
ATOM      7  C   UNL A   1      33.714  21.845  24.985  1.00  0.00     0.181 C 
BRANCH   7   8
ATOM      8  C   UNL A   1      32.589  20.840  24.619  1.00  0.00     0.038 C 
BRANCH   8   9
ATOM      9  C   UNL A   1      33.008  19.406  24.230  1.00  0.00    -0.015 C 
ATOM     10  C   UNL A   1      32.768  18.390  25.349  1.00  0.00     0.007 C 
ATOM     11  C   UNL A   1      32.215  18.975  22.988  1.00  0.00     0.007 C 
ENDBRANCH   8   9
ENDBRANCH   7   8
BRANCH   7  12
ATOM     12  N   UNL A   1      33.257  23.250  25.060  1.00  0.00    -0.280 N 
ATOM     13  C   UNL A   1      34.032  24.251  24.480  1.00  0.00     0.266 C 
ATOM     14  C   UNL A   1      32.018  23.701  25.451  1.00  0.00     0.149 C 
ATOM     15  O   UNL A   1      35.205  24.179  24.148  1.00  0.00    -0.268 OA
ATOM     16  C   UNL A   1      33.199  25.481  24.323  1.00  0.00     0.080 C 
ATOM     17  S   UNL A   1      31.548  24.989  24.366  1.00  0.00    -0.054 SA
ATOM     18  S   UNL A   1      31.195  23.432  26.877  1.00  0.00    -0.052 S 
ATOM     19  C   UNL A   1      33.666  26.738  24.318  1.00  0.00     0.027 C 
BRANCH  19  20
ATOM     20  C   UNL A   1      32.837  27.926  24.335  1.00  0.00    -0.016 C 
ATOM     21  C   UNL A   1      32.828  28.925  25.220  1.00  0.00     0.005 A 
ATOM     22  C   UNL A   1      31.779  28.144  23.294  1.00  0.00     0.179 C 
ATOM     23  C   UNL A   1      33.594  29.284  26.375  1.00  0.00     0.011 A 
ATOM     24  C   UNL A   1      31.631  29.689  24.830  1.00  0.00     0.065 A 
ATOM     25  N   UNL A   1      31.006  29.328  23.750  1.00  0.00    -0.280 NA
ATOM     26  C   UNL A   1      33.154  30.272  27.170  1.00  0.00     0.001 A 
ATOM     27  C   UNL A   1      31.217  30.774  25.749  1.00  0.00     0.028 A 
ATOM     28  C   UNL A   1      31.940  31.004  26.858  1.00  0.00     0.002 A 
ENDBRANCH  19  20
ENDBRANCH   7  12
ENDBRANCH   4   7
ENDBRANCH   2   3
ENDBRANCH   1   2
BRANCH   1  29
ATOM     29  C   UNL A   1      39.011  20.281  25.749  1.00  0.00     0.118 C 
BRANCH  29  30
ATOM     30  N   UNL A   1      40.045  19.255  25.820  1.00  0.00    -0.352 N 
ATOM     31  C   UNL A   1      41.397  19.374  26.028  1.00  0.00     0.251 C 
ATOM     32  H   UNL A   1      39.723  18.333  25.701  1.00  0.00     0.163 HD
ATOM     33  O   UNL A   1      42.126  18.396  25.891  1.00  0.00    -0.269 OA
BRANCH  31  34
ATOM     34  C   UNL A   1      41.983  20.681  26.393  1.00  0.00     0.039 A 
ATOM     35  C   UNL A   1      42.280  21.597  25.380  1.00  0.00     0.014 A 
ATOM     36  C   UNL A   1      42.246  21.001  27.726  1.00  0.00     0.014 A 
ATOM     37  C   UNL A   1      42.772  22.862  25.713  1.00  0.00     0.010 A 
ATOM     38  C   UNL A   1      42.641  22.289  28.063  1.00  0.00     0.010 A 
ATOM     39  C   UNL A   1      42.920  23.227  27.059  1.00  0.00    -0.014 A 
BRANCH  39  40
ATOM     40  C   UNL A   1      43.406  24.571  27.455  1.00  0.00     0.031 A 
ATOM     41  C   UNL A   1      42.420  25.614  27.902  1.00  0.00     0.074 A 
ATOM     42  C   UNL A   1      44.709  24.881  27.324  1.00  0.00     0.049 A 
ATOM     43  N   UNL A   1      42.611  26.884  28.152  1.00  0.00    -0.248 NA
ATOM     44  C   UNL A   1      41.022  25.178  28.045  1.00  0.00     0.031 C 
ATOM     45  C   UNL A   1      45.755  23.973  26.850  1.00  0.00     0.029 A 
ATOM     46  N   UNL A   1      45.374  26.056  27.567  1.00  0.00    -0.354 N 
ATOM     47  C   UNL A   1      41.355  27.404  28.433  1.00  0.00     0.074 A 
ATOM     48  C   UNL A   1      40.404  26.323  28.291  1.00  0.00     0.031 C 
ATOM     49  C   UNL A   1      46.934  24.617  26.862  1.00  0.00     0.029 A 
ATOM     50  C   UNL A   1      46.720  25.989  27.311  1.00  0.00     0.049 A 
ATOM     51  H   UNL A   1      44.927  26.870  27.895  1.00  0.00     0.167 HD
ATOM     52  C   UNL A   1      41.027  28.666  28.796  1.00  0.00     0.037 A 
ATOM     53  C   UNL A   1      47.673  26.933  27.427  1.00  0.00     0.037 A 
ATOM     54  C   UNL A   1      41.982  29.719  29.007  1.00  0.00     0.049 A 
ATOM     55  C   UNL A   1      47.294  28.306  27.904  1.00  0.00     0.074 A 
ATOM     56  C   UNL A   1      41.761  31.010  29.456  1.00  0.00     0.029 A 
ATOM     57  N   UNL A   1      43.347  29.592  28.801  1.00  0.00    -0.354 N 
ATOM     58  N   UNL A   1      46.110  28.776  28.210  1.00  0.00    -0.248 NA
ATOM     59  C   UNL A   1      48.385  29.279  28.055  1.00  0.00     0.031 C 
ATOM     60  C   UNL A   1      42.994  31.671  29.504  1.00  0.00     0.029 A 
ATOM     61  C   UNL A   1      43.983  30.783  29.110  1.00  0.00     0.049 A 
ATOM     62  H   UNL A   1      43.797  28.778  28.481  1.00  0.00     0.167 HD
ATOM     63  C   UNL A   1      46.314  30.088  28.613  1.00  0.00     0.074 A 
ATOM     64  C   UNL A   1      47.737  30.339  28.519  1.00  0.00     0.031 C 
ATOM     65  C   UNL A   1      45.403  31.003  29.025  1.00  0.00     0.037 A 
BRANCH  52  66
ATOM     66  C   UNL A   1      39.572  28.967  28.993  1.00  0.00     0.064 A 
ATOM     67  C   UNL A   1      38.961  28.853  30.250  1.00  0.00     0.173 A 
ATOM     68  C   UNL A   1      38.781  29.383  27.911  1.00  0.00     0.173 A 
ATOM     69  F   UNL A   1      39.672  28.441  31.311  1.00  0.00    -0.203 F 
ATOM     70  C   UNL A   1      37.603  29.112  30.412  1.00  0.00     0.198 A 
ATOM     71  C   UNL A   1      37.429  29.667  28.082  1.00  0.00     0.198 A 
ATOM     72  F   UNL A   1      39.319  29.508  26.689  1.00  0.00    -0.203 F 
ATOM     73  F   UNL A   1      37.028  28.945  31.611  1.00  0.00    -0.200 F 
ATOM     74  C   UNL A   1      36.839  29.523  29.329  1.00  0.00     0.200 A 
ATOM     75  F   UNL A   1      36.693  30.069  27.036  1.00  0.00    -0.200 F 
ATOM     76  F   UNL A   1      35.531  29.771  29.486  1.00  0.00    -0.200 F 
ENDBRANCH  52  66
BRANCH  53  77
ATOM     77  C   UNL A   1      49.087  26.592  27.132  1.00  0.00     0.064 A 
ATOM     78  C   UNL A   1      49.565  26.628  25.815  1.00  0.00     0.173 A 
ATOM     79  C   UNL A   1      49.985  26.242  28.147  1.00  0.00     0.173 A 
ATOM     80  F   UNL A   1      48.734  26.941  24.810  1.00  0.00    -0.203 F 
ATOM     81  C   UNL A   1      50.891  26.315  25.523  1.00  0.00     0.198 A 
ATOM     82  C   UNL A   1      51.316  25.947  27.857  1.00  0.00     0.198 A 
ATOM     83  F   UNL A   1      49.575  26.201  29.424  1.00  0.00    -0.203 F 
ATOM     84  F   UNL A   1      51.316  26.329  24.253  1.00  0.00    -0.200 F 
ATOM     85  C   UNL A   1      51.766  25.980  26.546  1.00  0.00     0.200 A 
ATOM     86  F   UNL A   1      52.163  25.635  28.847  1.00  0.00    -0.200 F 
ATOM     87  F   UNL A   1      53.042  25.683  26.266  1.00  0.00    -0.200 F 
ENDBRANCH  53  77
BRANCH  65  88
ATOM     88  C   UNL A   1      45.922  32.344  29.440  1.00  0.00     0.064 A 
ATOM     89  C   UNL A   1      46.291  32.605  30.767  1.00  0.00     0.173 A 
ATOM     90  C   UNL A   1      46.092  33.363  28.492  1.00  0.00     0.173 A 
ATOM     91  F   UNL A   1      46.131  31.664  31.710  1.00  0.00    -0.203 F 
ATOM     92  C   UNL A   1      46.799  33.848  31.133  1.00  0.00     0.198 A 
ATOM     93  C   UNL A   1      46.617  34.598  28.858  1.00  0.00     0.198 A 
ATOM     94  F   UNL A   1      45.754  33.155  27.210  1.00  0.00    -0.203 F 
ATOM     95  F   UNL A   1      47.115  34.090  32.412  1.00  0.00    -0.200 F 
ATOM     96  C   UNL A   1      46.967  34.841  30.178  1.00  0.00     0.200 A 
ATOM     97  F   UNL A   1      46.785  35.554  27.934  1.00  0.00    -0.200 F 
ATOM     98  F   UNL A   1      47.459  36.036  30.532  1.00  0.00    -0.200 F 
ENDBRANCH  65  88
ENDBRANCH  39  40
ENDBRANCH  31  34
ENDBRANCH  29  30
ENDBRANCH   1  29
TORSDOF 14
ENDMDL
MODEL 3
REMARK VINA RESULT:     -12.9      5.118     10.572
REMARK SMILES CC(C)C[C@H](C(=O)NCCCNC(=O)c1ccc(-c2c3nc(c(-c4c(F)c(F)c(F)c(F)c4F)c4ccc([nH]4)c(-c4c(F)c(F)c(F)c(F)c4F)c4nc(c(-c5c(F)c(F)c(F)c(F)c5F)c5ccc2[nH]5)C=C4)C=C3)cc1)N1C(=O)/C(=C/C2=c3ccccc3=NC2)SC1=S
REMARK SMILES IDX 10 1 9 2 8 3 6 4 7 5 5 7 4 8 2 9 1 10 3 11 78 12 79 13 93 14
REMARK SMILES IDX 80 15 81 16 92 17 94 18 82 19 83 20 84 21 91 22 85 23 89 24
REMARK SMILES IDX 90 25 86 26 88 27 87 28 11 29 12 30 13 31 14 33 15 34 16 35
REMARK SMILES IDX 77 36 17 37 76 38 18 39 19 40 20 41 70 42 21 43 75 44 69 45
REMARK SMILES IDX 71 46 22 47 74 48 68 49 67 50 23 52 55 53 35 54 54 55 36 56
REMARK SMILES IDX 39 57 53 58 72 59 37 60 38 61 52 63 73 64 40 65 24 66 25 67
REMARK SMILES IDX 33 68 26 69 27 70 31 71 34 72 28 73 29 74 32 75 30 76 56 77
REMARK SMILES IDX 57 78 65 79 58 80 59 81 63 82 66 83 60 84 61 85 64 86 62 87
REMARK SMILES IDX 41 88 42 89 50 90 43 91 44 92 48 93 51 94 45 95 46 96 49 97
REMARK SMILES IDX 47 98
REMARK H PARENT 8 6 12 32 71 51 39 62
REMARK Flexibility Score: inf
ROOT
ATOM      1  C   UNL A   1      37.766  19.891  24.911  1.00  0.00     0.042 C 
ENDROOT
BRANCH   1   2
ATOM      2  C   UNL A   1      36.691  20.955  24.829  1.00  0.00     0.117 C 
BRANCH   2   3
ATOM      3  N   UNL A   1      35.671  20.847  25.865  1.00  0.00    -0.354 N 
ATOM      4  C   UNL A   1      34.305  20.812  25.776  1.00  0.00     0.243 C 
ATOM      5  O   UNL A   1      33.681  20.430  26.769  1.00  0.00    -0.273 OA
ATOM      6  H   UNL A   1      36.024  20.788  26.782  1.00  0.00     0.163 HD
BRANCH   4   7
ATOM      7  C   UNL A   1      33.566  21.194  24.476  1.00  0.00     0.181 C 
BRANCH   7   8
ATOM      8  C   UNL A   1      32.498  20.128  24.111  1.00  0.00     0.038 C 
BRANCH   8   9
ATOM      9  C   UNL A   1      32.978  18.676  23.900  1.00  0.00    -0.015 C 
ATOM     10  C   UNL A   1      32.501  17.725  25.000  1.00  0.00     0.007 C 
ATOM     11  C   UNL A   1      32.460  18.172  22.546  1.00  0.00     0.007 C 
ENDBRANCH   8   9
ENDBRANCH   7   8
BRANCH   7  12
ATOM     12  N   UNL A   1      33.076  22.587  24.383  1.00  0.00    -0.280 N 
ATOM     13  C   UNL A   1      33.649  23.452  23.456  1.00  0.00     0.266 C 
ATOM     14  C   UNL A   1      31.941  23.107  24.960  1.00  0.00     0.149 C 
ATOM     15  O   UNL A   1      34.716  23.314  22.877  1.00  0.00    -0.268 OA
ATOM     16  C   UNL A   1      32.747  24.627  23.264  1.00  0.00     0.080 C 
ATOM     17  S   UNL A   1      31.175  24.155  23.789  1.00  0.00    -0.054 SA
ATOM     18  S   UNL A   1      31.482  23.128  26.565  1.00  0.00    -0.052 S 
ATOM     19  C   UNL A   1      33.142  25.857  22.907  1.00  0.00     0.027 C 
BRANCH  19  20
ATOM     20  C   UNL A   1      32.286  27.026  22.889  1.00  0.00    -0.016 C 
ATOM     21  C   UNL A   1      32.282  28.071  23.719  1.00  0.00     0.005 A 
ATOM     22  C   UNL A   1      31.189  27.164  21.874  1.00  0.00     0.179 C 
ATOM     23  C   UNL A   1      33.077  28.509  24.826  1.00  0.00     0.011 A 
ATOM     24  C   UNL A   1      31.055  28.786  23.329  1.00  0.00     0.065 A 
ATOM     25  N   UNL A   1      30.404  28.354  22.292  1.00  0.00    -0.280 NA
ATOM     26  C   UNL A   1      32.640  29.528  25.582  1.00  0.00     0.001 A 
ATOM     27  C   UNL A   1      30.645  29.910  24.203  1.00  0.00     0.028 A 
ATOM     28  C   UNL A   1      31.399  30.216  25.273  1.00  0.00     0.002 A 
ENDBRANCH  19  20
ENDBRANCH   7  12
ENDBRANCH   4   7
ENDBRANCH   2   3
ENDBRANCH   1   2
BRANCH   1  29
ATOM     29  C   UNL A   1      38.956  20.313  25.753  1.00  0.00     0.118 C 
BRANCH  29  30
ATOM     30  N   UNL A   1      39.990  19.288  25.832  1.00  0.00    -0.352 N 
ATOM     31  C   UNL A   1      41.335  19.403  26.083  1.00  0.00     0.251 C 
ATOM     32  H   UNL A   1      39.674  18.368  25.681  1.00  0.00     0.163 HD
ATOM     33  O   UNL A   1      42.070  18.430  25.945  1.00  0.00    -0.269 OA
BRANCH  31  34
ATOM     34  C   UNL A   1      41.907  20.702  26.495  1.00  0.00     0.039 A 
ATOM     35  C   UNL A   1      42.224  21.645  25.514  1.00  0.00     0.014 A 
ATOM     36  C   UNL A   1      42.138  20.988  27.842  1.00  0.00     0.014 A 
ATOM     37  C   UNL A   1      42.703  22.903  25.891  1.00  0.00     0.010 A 
ATOM     38  C   UNL A   1      42.520  22.267  28.222  1.00  0.00     0.010 A 
ATOM     39  C   UNL A   1      42.818  23.233  27.250  1.00  0.00    -0.014 A 
BRANCH  39  40
ATOM     40  C   UNL A   1      43.290  24.567  27.692  1.00  0.00     0.031 A 
ATOM     41  C   UNL A   1      42.287  25.615  28.085  1.00  0.00     0.074 A 
ATOM     42  C   UNL A   1      44.602  24.865  27.651  1.00  0.00     0.049 A 
ATOM     43  N   UNL A   1      42.473  26.880  28.362  1.00  0.00    -0.248 NA
ATOM     44  C   UNL A   1      40.878  25.192  28.131  1.00  0.00     0.031 C 
ATOM     45  C   UNL A   1      45.668  23.952  27.237  1.00  0.00     0.029 A 
ATOM     46  N   UNL A   1      45.260  26.031  27.950  1.00  0.00    -0.354 N 
ATOM     47  C   UNL A   1      41.206  27.410  28.566  1.00  0.00     0.074 A 
ATOM     48  C   UNL A   1      40.256  26.340  28.348  1.00  0.00     0.031 C 
ATOM     49  C   UNL A   1      46.849  24.584  27.333  1.00  0.00     0.029 A 
ATOM     50  C   UNL A   1      46.620  25.953  27.783  1.00  0.00     0.049 A 
ATOM     51  H   UNL A   1      44.800  26.846  28.257  1.00  0.00     0.167 HD
ATOM     52  C   UNL A   1      40.866  28.671  28.920  1.00  0.00     0.037 A 
ATOM     53  C   UNL A   1      47.572  26.886  27.972  1.00  0.00     0.037 A 
ATOM     54  C   UNL A   1      41.815  29.712  29.206  1.00  0.00     0.049 A 
ATOM     55  C   UNL A   1      47.175  28.258  28.438  1.00  0.00     0.074 A 
ATOM     56  C   UNL A   1      41.577  31.000  29.654  1.00  0.00     0.029 A 
ATOM     57  N   UNL A   1      43.189  29.574  29.088  1.00  0.00    -0.354 N 
ATOM     58  N   UNL A   1      45.978  28.736  28.671  1.00  0.00    -0.248 NA
ATOM     59  C   UNL A   1      48.263  29.218  28.671  1.00  0.00     0.031 C 
ATOM     60  C   UNL A   1      42.810  31.649  29.790  1.00  0.00     0.029 A 
ATOM     61  C   UNL A   1      43.815  30.755  29.452  1.00  0.00     0.049 A 
ATOM     62  H   UNL A   1      43.652  28.759  28.790  1.00  0.00     0.167 HD
ATOM     63  C   UNL A   1      46.167  30.041  29.102  1.00  0.00     0.074 A 
ATOM     64  C   UNL A   1      47.595  30.280  29.104  1.00  0.00     0.031 C 
ATOM     65  C   UNL A   1      45.239  30.961  29.463  1.00  0.00     0.037 A 
BRANCH  52  66
ATOM     66  C   UNL A   1      39.405  28.985  29.024  1.00  0.00     0.064 A 
ATOM     67  C   UNL A   1      38.656  29.383  27.907  1.00  0.00     0.173 A 
ATOM     68  C   UNL A   1      38.743  28.881  30.257  1.00  0.00     0.173 A 
ATOM     69  F   UNL A   1      39.248  29.516  26.711  1.00  0.00    -0.203 F 
ATOM     70  C   UNL A   1      37.305  29.696  28.026  1.00  0.00     0.198 A 
ATOM     71  C   UNL A   1      37.386  29.169  30.367  1.00  0.00     0.198 A 
ATOM     72  F   UNL A   1      39.415  28.504  31.355  1.00  0.00    -0.203 F 
ATOM     73  F   UNL A   1      36.621  30.125  26.956  1.00  0.00    -0.200 F 
ATOM     74  C   UNL A   1      36.670  29.584  29.254  1.00  0.00     0.200 A 
ATOM     75  F   UNL A   1      36.772  29.055  31.553  1.00  0.00    -0.200 F 
ATOM     76  F   UNL A   1      35.369  29.888  29.367  1.00  0.00    -0.200 F 
ENDBRANCH  52  66
BRANCH  53  77
ATOM     77  C   UNL A   1      48.998  26.534  27.766  1.00  0.00     0.064 A 
ATOM     78  C   UNL A   1      49.827  26.259  28.863  1.00  0.00     0.173 A 
ATOM     79  C   UNL A   1      49.556  26.447  26.485  1.00  0.00     0.173 A 
ATOM     80  F   UNL A   1      49.338  26.348  30.109  1.00  0.00    -0.203 F 
ATOM     81  C   UNL A   1      51.166  25.923  28.685  1.00  0.00     0.198 A 
ATOM     82  C   UNL A   1      50.891  26.091  26.306  1.00  0.00     0.198 A 
ATOM     83  F   UNL A   1      48.800  26.693  25.404  1.00  0.00    -0.203 F 
ATOM     84  F   UNL A   1      51.945  25.693  29.751  1.00  0.00    -0.200 F 
ATOM     85  C   UNL A   1      51.696  25.834  27.406  1.00  0.00     0.200 A 
ATOM     86  F   UNL A   1      51.398  25.995  25.070  1.00  0.00    -0.200 F 
ATOM     87  F   UNL A   1      52.983  25.505  27.235  1.00  0.00    -0.200 F 
ENDBRANCH  53  77
BRANCH  65  88
ATOM     88  C   UNL A   1      45.743  32.293  29.927  1.00  0.00     0.064 A 
ATOM     89  C   UNL A   1      46.058  32.526  31.273  1.00  0.00     0.173 A 
ATOM     90  C   UNL A   1      45.951  33.330  29.007  1.00  0.00     0.173 A 
ATOM     91  F   UNL A   1      45.859  31.566  32.189  1.00  0.00    -0.203 F 
ATOM     92  C   UNL A   1      46.551  33.760  31.684  1.00  0.00     0.198 A 
ATOM     93  C   UNL A   1      46.463  34.557  29.420  1.00  0.00     0.198 A 
ATOM     94  F   UNL A   1      45.666  33.150  27.709  1.00  0.00    -0.203 F 
ATOM     95  F   UNL A   1      46.816  33.974  32.980  1.00  0.00    -0.200 F 
ATOM     96  C   UNL A   1      46.759  34.772  30.758  1.00  0.00     0.200 A 
ATOM     97  F   UNL A   1      46.669  35.531  28.523  1.00  0.00    -0.200 F 
ATOM     98  F   UNL A   1      47.238  35.958  31.156  1.00  0.00    -0.200 F 
ENDBRANCH  65  88
ENDBRANCH  39  40
ENDBRANCH  31  34
ENDBRANCH  29  30
ENDBRANCH   1  29
TORSDOF 14
ENDMDL
