MODEL 1
REMARK VINA RESULT:     -11.5      0.000      0.000
REMARK SMILES N#Cc1nccnc1N(CC(=O)NCCCNC(=O)c1ccc(-c2c3nc(c(-c4c(F)c(F)c(F)c(F)c4F)c4ccc([nH]4)c(-c4c(F)c(F)c(F)c(F)c4F)c4nc(c(-c5c(F)c(F)c(F)c(F)c5F)c5ccc2[nH]5)C=C4)C=C3)cc1)CC(F)(F)F
REMARK SMILES IDX 14 1 13 2 11 3 12 4 10 6 9 7 8 8 3 9 4 10 5 11 7 12 6 13
REMARK SMILES IDX 2 14 1 15 83 16 84 17 85 18 86 19 87 20 15 21 16 22 17 23
REMARK SMILES IDX 18 24 19 26 20 27 21 28 82 29 22 30 81 31 23 32 24 33 25 34
REMARK SMILES IDX 75 35 26 36 80 37 74 38 76 39 27 40 79 41 73 42 72 43 28 45
REMARK SMILES IDX 60 46 40 47 59 48 41 49 44 50 58 51 77 52 42 53 43 54 57 56
REMARK SMILES IDX 78 57 45 58 29 59 30 60 38 61 31 62 32 63 36 64 39 65 33 66
REMARK SMILES IDX 34 67 37 68 35 69 61 70 62 71 70 72 63 73 64 74 68 75 71 76
REMARK SMILES IDX 65 77 66 78 69 79 67 80 46 81 47 82 55 83 48 84 49 85 53 86
REMARK SMILES IDX 56 87 50 88 51 89 54 90 52 91
REMARK H PARENT 13 5 17 25 76 44 44 55
REMARK Flexibility Score: inf
ROOT
ATOM      1  C   UNL A   1      31.731  30.754  26.152  1.00  0.00     0.117 C 
ENDROOT
BRANCH   1   2
ATOM      2  N   UNL A   1      31.449  29.688  27.096  1.00  0.00    -0.354 N 
ATOM      3  C   UNL A   1      31.890  28.397  27.088  1.00  0.00     0.239 C 
ATOM      4  O   UNL A   1      31.471  27.627  27.955  1.00  0.00    -0.273 OA
ATOM      5  H   UNL A   1      30.858  29.931  27.844  1.00  0.00     0.163 HD
BRANCH   3   6
ATOM      6  C   UNL A   1      32.871  27.920  26.012  1.00  0.00     0.218 C 
BRANCH   6   7
ATOM      7  N   UNL A   1      32.291  26.876  25.125  1.00  0.00    -0.336 N 
BRANCH   7   8
ATOM      8  C   UNL A   1      32.998  25.694  24.968  1.00  0.00     0.166 A 
ATOM      9  C   UNL A   1      33.626  25.189  23.811  1.00  0.00     0.183 A 
ATOM     10  N   UNL A   1      34.331  24.011  23.771  1.00  0.00    -0.240 NA
ATOM     11  C   UNL A   1      34.397  23.313  24.917  1.00  0.00     0.133 A 
ATOM     12  N   UNL A   1      33.101  24.930  26.092  1.00  0.00    -0.235 NA
ATOM     13  C   UNL A   1      33.786  23.764  26.059  1.00  0.00     0.133 A 
BRANCH   9  14
ATOM     14  C   UNL A   1      33.573  25.813  22.521  1.00  0.00     0.123 C 
ATOM     15  N   UNL A   1      33.527  26.349  21.493  1.00  0.00    -0.191 NA
ENDBRANCH   9  14
ENDBRANCH   7   8
BRANCH   7  16
ATOM     16  C   UNL A   1      30.910  27.157  24.634  1.00  0.00     0.234 C 
BRANCH  16  17
ATOM     17  C   UNL A   1      30.785  28.188  23.495  1.00  0.00     0.405 C 
ATOM     18  F   UNL A   1      30.253  27.647  22.375  1.00  0.00    -0.169 F 
ATOM     19  F   UNL A   1      29.996  29.220  23.865  1.00  0.00    -0.169 F 
ATOM     20  F   UNL A   1      31.986  28.703  23.149  1.00  0.00    -0.169 F 
ENDBRANCH  16  17
ENDBRANCH   7  16
ENDBRANCH   6   7
ENDBRANCH   3   6
ENDBRANCH   1   2
BRANCH   1  21
ATOM     21  C   UNL A   1      31.454  32.133  26.738  1.00  0.00     0.042 C 
BRANCH  21  22
ATOM     22  C   UNL A   1      32.708  32.835  27.246  1.00  0.00     0.118 C 
BRANCH  22  23
ATOM     23  N   UNL A   1      32.446  34.219  27.629  1.00  0.00    -0.352 N 
ATOM     24  C   UNL A   1      33.004  34.979  28.629  1.00  0.00     0.251 C 
ATOM     25  H   UNL A   1      31.765  34.679  27.087  1.00  0.00     0.163 HD
ATOM     26  O   UNL A   1      32.497  36.051  28.940  1.00  0.00    -0.269 OA
BRANCH  24  27
ATOM     27  C   UNL A   1      34.198  34.489  29.350  1.00  0.00     0.039 A 
ATOM     28  C   UNL A   1      35.473  34.651  28.809  1.00  0.00     0.014 A 
ATOM     29  C   UNL A   1      34.037  33.848  30.582  1.00  0.00     0.014 A 
ATOM     30  C   UNL A   1      36.556  34.005  29.393  1.00  0.00     0.010 A 
ATOM     31  C   UNL A   1      35.147  33.291  31.224  1.00  0.00     0.010 A 
ATOM     32  C   UNL A   1      36.407  33.316  30.606  1.00  0.00    -0.014 A 
BRANCH  32  33
ATOM     33  C   UNL A   1      37.577  32.620  31.207  1.00  0.00     0.031 A 
ATOM     34  C   UNL A   1      38.055  32.973  32.589  1.00  0.00     0.074 A 
ATOM     35  C   UNL A   1      38.179  31.629  30.522  1.00  0.00     0.049 A 
ATOM     36  N   UNL A   1      39.055  32.471  33.273  1.00  0.00    -0.248 NA
ATOM     37  C   UNL A   1      37.321  34.032  33.297  1.00  0.00     0.031 C 
ATOM     38  C   UNL A   1      37.792  31.176  29.186  1.00  0.00     0.029 A 
ATOM     39  N   UNL A   1      39.223  30.807  30.863  1.00  0.00    -0.354 N 
ATOM     40  C   UNL A   1      39.067  33.152  34.484  1.00  0.00     0.074 A 
ATOM     41  C   UNL A   1      38.019  34.145  34.419  1.00  0.00     0.031 C 
ATOM     42  C   UNL A   1      38.545  30.120  28.846  1.00  0.00     0.029 A 
ATOM     43  C   UNL A   1      39.516  29.869  29.905  1.00  0.00     0.049 A 
ATOM     44  H   UNL A   1      39.715  30.883  31.712  1.00  0.00     0.167 HD
ATOM     45  C   UNL A   1      39.862  32.947  35.562  1.00  0.00     0.037 A 
ATOM     46  C   UNL A   1      40.468  28.918  29.873  1.00  0.00     0.037 A 
ATOM     47  C   UNL A   1      40.905  31.955  35.623  1.00  0.00     0.049 A 
ATOM     48  C   UNL A   1      41.406  28.781  31.039  1.00  0.00     0.074 A 
ATOM     49  C   UNL A   1      41.771  31.677  36.667  1.00  0.00     0.029 A 
ATOM     50  N   UNL A   1      41.224  31.077  34.596  1.00  0.00    -0.354 N 
ATOM     51  N   UNL A   1      41.407  29.427  32.179  1.00  0.00    -0.248 NA
ATOM     52  C   UNL A   1      42.479  27.787  30.909  1.00  0.00     0.031 C 
ATOM     53  C   UNL A   1      42.652  30.674  36.250  1.00  0.00     0.029 A 
ATOM     54  C   UNL A   1      42.293  30.277  34.972  1.00  0.00     0.049 A 
ATOM     55  H   UNL A   1      40.760  31.029  33.729  1.00  0.00     0.167 HD
ATOM     56  C   UNL A   1      42.460  28.901  32.914  1.00  0.00     0.074 A 
ATOM     57  C   UNL A   1      43.065  27.870  32.097  1.00  0.00     0.031 C 
ATOM     58  C   UNL A   1      42.887  29.247  34.154  1.00  0.00     0.037 A 
BRANCH  45  59
ATOM     59  C   UNL A   1      39.637  33.817  36.770  1.00  0.00     0.064 A 
ATOM     60  C   UNL A   1      40.206  35.096  36.870  1.00  0.00     0.173 A 
ATOM     61  C   UNL A   1      38.812  33.386  37.821  1.00  0.00     0.173 A 
ATOM     62  F   UNL A   1      41.009  35.556  35.899  1.00  0.00    -0.203 F 
ATOM     63  C   UNL A   1      39.986  35.896  37.990  1.00  0.00     0.198 A 
ATOM     64  C   UNL A   1      38.563  34.203  38.921  1.00  0.00     0.198 A 
ATOM     65  F   UNL A   1      38.233  32.176  37.776  1.00  0.00    -0.203 F 
ATOM     66  F   UNL A   1      40.587  37.089  38.088  1.00  0.00    -0.200 F 
ATOM     67  C   UNL A   1      39.158  35.453  39.009  1.00  0.00     0.200 A 
ATOM     68  F   UNL A   1      37.747  33.781  39.897  1.00  0.00    -0.200 F 
ATOM     69  F   UNL A   1      38.940  36.226  40.082  1.00  0.00    -0.200 F 
ENDBRANCH  45  59
BRANCH  46  70
ATOM     70  C   UNL A   1      40.550  28.005  28.703  1.00  0.00     0.064 A 
ATOM     71  C   UNL A   1      39.824  26.807  28.683  1.00  0.00     0.173 A 
ATOM     72  C   UNL A   1      41.309  28.329  27.568  1.00  0.00     0.173 A 
ATOM     73  F   UNL A   1      39.099  26.444  29.751  1.00  0.00    -0.203 F 
ATOM     74  C   UNL A   1      39.852  25.968  27.571  1.00  0.00     0.198 A 
ATOM     75  C   UNL A   1      41.311  27.505  26.445  1.00  0.00     0.198 A 
ATOM     76  F   UNL A   1      42.020  29.465  27.536  1.00  0.00    -0.203 F 
ATOM     77  F   UNL A   1      39.170  24.815  27.588  1.00  0.00    -0.200 F 
ATOM     78  C   UNL A   1      40.585  26.324  26.449  1.00  0.00     0.200 A 
ATOM     79  F   UNL A   1      42.004  27.862  25.356  1.00  0.00    -0.200 F 
ATOM     80  F   UNL A   1      40.593  25.527  25.372  1.00  0.00    -0.200 F 
ENDBRANCH  46  70
BRANCH  58  81
ATOM     81  C   UNL A   1      44.055  28.494  34.727  1.00  0.00     0.064 A 
ATOM     82  C   UNL A   1      45.367  28.974  34.612  1.00  0.00     0.173 A 
ATOM     83  C   UNL A   1      43.849  27.318  35.465  1.00  0.00     0.173 A 
ATOM     84  F   UNL A   1      45.621  30.086  33.904  1.00  0.00    -0.203 F 
ATOM     85  C   UNL A   1      46.432  28.298  35.202  1.00  0.00     0.198 A 
ATOM     86  C   UNL A   1      44.911  26.665  36.085  1.00  0.00     0.198 A 
ATOM     87  F   UNL A   1      42.614  26.818  35.613  1.00  0.00    -0.203 F 
ATOM     88  F   UNL A   1      47.683  28.754  35.046  1.00  0.00    -0.200 F 
ATOM     89  C   UNL A   1      46.202  27.152  35.949  1.00  0.00     0.200 A 
ATOM     90  F   UNL A   1      44.683  25.570  36.824  1.00  0.00    -0.200 F 
ATOM     91  F   UNL A   1      47.225  26.517  36.537  1.00  0.00    -0.200 F 
ENDBRANCH  58  81
ENDBRANCH  32  33
ENDBRANCH  24  27
ENDBRANCH  22  23
ENDBRANCH  21  22
ENDBRANCH   1  21
TORSDOF 15
ENDMDL
MODEL 2
REMARK VINA RESULT:     -11.4      0.780      1.852
REMARK SMILES N#Cc1nccnc1N(CC(=O)NCCCNC(=O)c1ccc(-c2c3nc(c(-c4c(F)c(F)c(F)c(F)c4F)c4ccc([nH]4)c(-c4c(F)c(F)c(F)c(F)c4F)c4nc(c(-c5c(F)c(F)c(F)c(F)c5F)c5ccc2[nH]5)C=C4)C=C3)cc1)CC(F)(F)F
REMARK SMILES IDX 14 1 13 2 11 3 12 4 10 6 9 7 8 8 3 9 4 10 5 11 7 12 6 13
REMARK SMILES IDX 2 14 1 15 83 16 84 17 85 18 86 19 87 20 15 21 16 22 17 23
REMARK SMILES IDX 18 24 19 26 20 27 21 28 82 29 22 30 81 31 23 32 24 33 25 34
REMARK SMILES IDX 75 35 26 36 80 37 74 38 76 39 27 40 79 41 73 42 72 43 28 45
REMARK SMILES IDX 60 46 40 47 59 48 41 49 44 50 58 51 77 52 42 53 43 54 57 56
REMARK SMILES IDX 78 57 45 58 29 59 30 60 38 61 31 62 32 63 36 64 39 65 33 66
REMARK SMILES IDX 34 67 37 68 35 69 61 70 62 71 70 72 63 73 64 74 68 75 71 76
REMARK SMILES IDX 65 77 66 78 69 79 67 80 46 81 47 82 55 83 48 84 49 85 53 86
REMARK SMILES IDX 56 87 50 88 51 89 54 90 52 91
REMARK H PARENT 13 5 17 25 76 44 44 55
REMARK Flexibility Score: inf
ROOT
ATOM      1  C   UNL A   1      31.619  30.499  26.381  1.00  0.00     0.117 C 
ENDROOT
BRANCH   1   2
ATOM      2  N   UNL A   1      32.020  30.207  25.017  1.00  0.00    -0.354 N 
ATOM      3  C   UNL A   1      32.669  29.110  24.530  1.00  0.00     0.239 C 
ATOM      4  O   UNL A   1      32.980  29.092  23.337  1.00  0.00    -0.273 OA
ATOM      5  H   UNL A   1      31.793  30.897  24.351  1.00  0.00     0.163 HD
BRANCH   3   6
ATOM      6  C   UNL A   1      33.013  27.940  25.456  1.00  0.00     0.218 C 
BRANCH   6   7
ATOM      7  N   UNL A   1      32.286  26.691  25.102  1.00  0.00    -0.336 N 
BRANCH   7   8
ATOM      8  C   UNL A   1      33.034  25.541  24.903  1.00  0.00     0.166 A 
ATOM      9  C   UNL A   1      33.650  25.082  23.720  1.00  0.00     0.183 A 
ATOM     10  N   UNL A   1      34.398  23.934  23.639  1.00  0.00    -0.240 NA
ATOM     11  C   UNL A   1      34.521  23.218  24.768  1.00  0.00     0.133 A 
ATOM     12  N   UNL A   1      33.195  24.760  26.009  1.00  0.00    -0.235 NA
ATOM     13  C   UNL A   1      33.923  23.623  25.934  1.00  0.00     0.133 A 
BRANCH   9  14
ATOM     14  C   UNL A   1      33.538  25.729  22.445  1.00  0.00     0.123 C 
ATOM     15  N   UNL A   1      33.473  26.233  21.401  1.00  0.00    -0.191 NA
ENDBRANCH   9  14
ENDBRANCH   7   8
BRANCH   7  16
ATOM     16  C   UNL A   1      30.798  26.783  25.170  1.00  0.00     0.234 C 
BRANCH  16  17
ATOM     17  C   UNL A   1      30.031  26.435  23.880  1.00  0.00     0.405 C 
ATOM     18  F   UNL A   1      28.715  26.737  23.972  1.00  0.00    -0.169 F 
ATOM     19  F   UNL A   1      30.533  27.111  22.824  1.00  0.00    -0.169 F 
ATOM     20  F   UNL A   1      30.110  25.116  23.588  1.00  0.00    -0.169 F 
ENDBRANCH  16  17
ENDBRANCH   7  16
ENDBRANCH   6   7
ENDBRANCH   3   6
ENDBRANCH   1   2
BRANCH   1  21
ATOM     21  C   UNL A   1      31.442  31.993  26.623  1.00  0.00     0.042 C 
BRANCH  21  22
ATOM     22  C   UNL A   1      32.658  32.648  27.267  1.00  0.00     0.118 C 
BRANCH  22  23
ATOM     23  N   UNL A   1      32.424  34.053  27.585  1.00  0.00    -0.352 N 
ATOM     24  C   UNL A   1      33.002  34.850  28.543  1.00  0.00     0.251 C 
ATOM     25  H   UNL A   1      31.747  34.498  27.025  1.00  0.00     0.163 HD
ATOM     26  O   UNL A   1      32.515  35.944  28.805  1.00  0.00    -0.269 OA
BRANCH  24  27
ATOM     27  C   UNL A   1      34.191  34.374  29.280  1.00  0.00     0.039 A 
ATOM     28  C   UNL A   1      35.475  34.604  28.785  1.00  0.00     0.014 A 
ATOM     29  C   UNL A   1      34.020  33.678  30.480  1.00  0.00     0.014 A 
ATOM     30  C   UNL A   1      36.564  33.974  29.375  1.00  0.00     0.010 A 
ATOM     31  C   UNL A   1      35.130  33.135  31.132  1.00  0.00     0.010 A 
ATOM     32  C   UNL A   1      36.406  33.231  30.555  1.00  0.00    -0.014 A 
BRANCH  32  33
ATOM     33  C   UNL A   1      37.583  32.554  31.162  1.00  0.00     0.031 A 
ATOM     34  C   UNL A   1      38.059  32.927  32.539  1.00  0.00     0.074 A 
ATOM     35  C   UNL A   1      38.194  31.561  30.487  1.00  0.00     0.049 A 
ATOM     36  N   UNL A   1      39.064  32.443  33.228  1.00  0.00    -0.248 NA
ATOM     37  C   UNL A   1      37.316  33.988  33.236  1.00  0.00     0.031 C 
ATOM     38  C   UNL A   1      37.810  31.088  29.158  1.00  0.00     0.029 A 
ATOM     39  N   UNL A   1      39.247  30.753  30.837  1.00  0.00    -0.354 N 
ATOM     40  C   UNL A   1      39.071  33.138  34.431  1.00  0.00     0.074 A 
ATOM     41  C   UNL A   1      38.013  34.120  34.355  1.00  0.00     0.031 C 
ATOM     42  C   UNL A   1      38.573  30.035  28.829  1.00  0.00     0.029 A 
ATOM     43  C   UNL A   1      39.548  29.806  29.889  1.00  0.00     0.049 A 
ATOM     44  H   UNL A   1      39.738  30.843  31.685  1.00  0.00     0.167 HD
ATOM     45  C   UNL A   1      39.870  32.953  35.510  1.00  0.00     0.037 A 
ATOM     46  C   UNL A   1      40.510  28.864  29.868  1.00  0.00     0.037 A 
ATOM     47  C   UNL A   1      40.923  31.973  35.582  1.00  0.00     0.049 A 
ATOM     48  C   UNL A   1      41.450  28.751  31.034  1.00  0.00     0.074 A 
ATOM     49  C   UNL A   1      41.792  31.716  36.627  1.00  0.00     0.029 A 
ATOM     50  N   UNL A   1      41.249  31.086  34.564  1.00  0.00    -0.354 N 
ATOM     51  N   UNL A   1      41.446  29.409  32.166  1.00  0.00    -0.248 NA
ATOM     52  C   UNL A   1      42.532  27.765  30.914  1.00  0.00     0.031 C 
ATOM     53  C   UNL A   1      42.682  30.717  36.221  1.00  0.00     0.029 A 
ATOM     54  C   UNL A   1      42.326  30.301  34.949  1.00  0.00     0.049 A 
ATOM     55  H   UNL A   1      40.784  31.023  33.699  1.00  0.00     0.167 HD
ATOM     56  C   UNL A   1      42.505  28.902  32.907  1.00  0.00     0.074 A 
ATOM     57  C   UNL A   1      43.118  27.868  32.101  1.00  0.00     0.031 C 
ATOM     58  C   UNL A   1      42.929  29.268  34.142  1.00  0.00     0.037 A 
BRANCH  45  59
ATOM     59  C   UNL A   1      39.637  33.835  36.708  1.00  0.00     0.064 A 
ATOM     60  C   UNL A   1      38.835  33.419  37.782  1.00  0.00     0.173 A 
ATOM     61  C   UNL A   1      40.252  35.093  36.803  1.00  0.00     0.173 A 
ATOM     62  F   UNL A   1      38.216  32.230  37.742  1.00  0.00    -0.203 F 
ATOM     63  C   UNL A   1      38.632  34.241  38.889  1.00  0.00     0.198 A 
ATOM     64  C   UNL A   1      40.078  35.897  37.928  1.00  0.00     0.198 A 
ATOM     65  F   UNL A   1      41.037  35.541  35.811  1.00  0.00    -0.203 F 
ATOM     66  F   UNL A   1      37.815  33.845  39.874  1.00  0.00    -0.200 F 
ATOM     67  C   UNL A   1      39.259  35.474  38.964  1.00  0.00     0.200 A 
ATOM     68  F   UNL A   1      40.701  37.080  38.008  1.00  0.00    -0.200 F 
ATOM     69  F   UNL A   1      39.070  36.261  40.033  1.00  0.00    -0.200 F 
ENDBRANCH  45  59
BRANCH  46  70
ATOM     70  C   UNL A   1      40.599  27.939  28.708  1.00  0.00     0.064 A 
ATOM     71  C   UNL A   1      39.886  26.733  28.704  1.00  0.00     0.173 A 
ATOM     72  C   UNL A   1      41.352  28.257  27.568  1.00  0.00     0.173 A 
ATOM     73  F   UNL A   1      39.167  26.375  29.778  1.00  0.00    -0.203 F 
ATOM     74  C   UNL A   1      39.921  25.881  27.601  1.00  0.00     0.198 A 
ATOM     75  C   UNL A   1      41.361  27.421  26.455  1.00  0.00     0.198 A 
ATOM     76  F   UNL A   1      42.051  29.401  27.521  1.00  0.00    -0.203 F 
ATOM     77  F   UNL A   1      39.251  24.721  27.634  1.00  0.00    -0.200 F 
ATOM     78  C   UNL A   1      40.648  26.232  26.474  1.00  0.00     0.200 A 
ATOM     79  F   UNL A   1      42.048  27.772  25.361  1.00  0.00    -0.200 F 
ATOM     80  F   UNL A   1      40.663  25.422  25.407  1.00  0.00    -0.200 F 
ENDBRANCH  46  70
BRANCH  58  81
ATOM     81  C   UNL A   1      44.105  28.533  34.722  1.00  0.00     0.064 A 
ATOM     82  C   UNL A   1      43.945  27.334  35.433  1.00  0.00     0.173 A 
ATOM     83  C   UNL A   1      45.412  28.992  34.497  1.00  0.00     0.173 A 
ATOM     84  F   UNL A   1      42.717  26.858  35.688  1.00  0.00    -0.203 F 
ATOM     85  C   UNL A   1      45.049  26.631  35.909  1.00  0.00     0.198 A 
ATOM     86  C   UNL A   1      46.514  28.268  34.943  1.00  0.00     0.198 A 
ATOM     87  F   UNL A   1      45.623  30.129  33.818  1.00  0.00    -0.203 F 
ATOM     88  F   UNL A   1      44.870  25.509  36.621  1.00  0.00    -0.200 F 
ATOM     89  C   UNL A   1      46.332  27.091  35.653  1.00  0.00     0.200 A 
ATOM     90  F   UNL A   1      47.754  28.704  34.676  1.00  0.00    -0.200 F 
ATOM     91  F   UNL A   1      47.393  26.401  36.092  1.00  0.00    -0.200 F 
ENDBRANCH  58  81
ENDBRANCH  32  33
ENDBRANCH  24  27
ENDBRANCH  22  23
ENDBRANCH  21  22
ENDBRANCH   1  21
TORSDOF 15
ENDMDL
MODEL 3
REMARK VINA RESULT:     -11.3      0.751      7.527
REMARK SMILES N#Cc1nccnc1N(CC(=O)NCCCNC(=O)c1ccc(-c2c3nc(c(-c4c(F)c(F)c(F)c(F)c4F)c4ccc([nH]4)c(-c4c(F)c(F)c(F)c(F)c4F)c4nc(c(-c5c(F)c(F)c(F)c(F)c5F)c5ccc2[nH]5)C=C4)C=C3)cc1)CC(F)(F)F
REMARK SMILES IDX 14 1 13 2 11 3 12 4 10 6 9 7 8 8 3 9 4 10 5 11 7 12 6 13
REMARK SMILES IDX 2 14 1 15 83 16 84 17 85 18 86 19 87 20 15 21 16 22 17 23
REMARK SMILES IDX 18 24 19 26 20 27 21 28 82 29 22 30 81 31 23 32 24 33 25 34
REMARK SMILES IDX 75 35 26 36 80 37 74 38 76 39 27 40 79 41 73 42 72 43 28 45
REMARK SMILES IDX 60 46 40 47 59 48 41 49 44 50 58 51 77 52 42 53 43 54 57 56
REMARK SMILES IDX 78 57 45 58 29 59 30 60 38 61 31 62 32 63 36 64 39 65 33 66
REMARK SMILES IDX 34 67 37 68 35 69 61 70 62 71 70 72 63 73 64 74 68 75 71 76
REMARK SMILES IDX 65 77 66 78 69 79 67 80 46 81 47 82 55 83 48 84 49 85 53 86
REMARK SMILES IDX 56 87 50 88 51 89 54 90 52 91
REMARK H PARENT 13 5 17 25 76 44 44 55
REMARK Flexibility Score: inf
ROOT
ATOM      1  C   UNL A   1      31.760  30.812  26.151  1.00  0.00     0.117 C 
ENDROOT
BRANCH   1   2
ATOM      2  N   UNL A   1      31.505  29.733  27.088  1.00  0.00    -0.354 N 
ATOM      3  C   UNL A   1      31.926  28.436  27.037  1.00  0.00     0.239 C 
ATOM      4  O   UNL A   1      31.536  27.656  27.908  1.00  0.00    -0.273 OA
ATOM      5  H   UNL A   1      30.952  29.970  27.867  1.00  0.00     0.163 HD
BRANCH   3   6
ATOM      6  C   UNL A   1      32.850  27.966  25.909  1.00  0.00     0.218 C 
BRANCH   6   7
ATOM      7  N   UNL A   1      32.233  26.909  25.062  1.00  0.00    -0.336 N 
BRANCH   7   8
ATOM      8  C   UNL A   1      32.882  25.688  24.976  1.00  0.00     0.166 A 
ATOM      9  C   UNL A   1      33.509  25.098  23.858  1.00  0.00     0.183 A 
ATOM     10  N   UNL A   1      34.154  23.886  23.889  1.00  0.00    -0.240 NA
ATOM     11  C   UNL A   1      34.159  23.240  25.066  1.00  0.00     0.133 A 
ATOM     12  N   UNL A   1      32.920  24.972  26.135  1.00  0.00    -0.235 NA
ATOM     13  C   UNL A   1      33.545  23.773  26.171  1.00  0.00     0.133 A 
BRANCH   9  14
ATOM     14  C   UNL A   1      33.517  25.665  22.541  1.00  0.00     0.123 C 
ATOM     15  N   UNL A   1      33.554  26.109  21.469  1.00  0.00    -0.191 NA
ENDBRANCH   9  14
ENDBRANCH   7   8
BRANCH   7  16
ATOM     16  C   UNL A   1      30.876  27.234  24.531  1.00  0.00     0.234 C 
BRANCH  16  17
ATOM     17  C   UNL A   1      29.792  26.155  24.717  1.00  0.00     0.405 C 
ATOM     18  F   UNL A   1      28.569  26.590  24.337  1.00  0.00    -0.169 F 
ATOM     19  F   UNL A   1      30.079  25.054  23.988  1.00  0.00    -0.169 F 
ATOM     20  F   UNL A   1      29.685  25.766  26.008  1.00  0.00    -0.169 F 
ENDBRANCH  16  17
ENDBRANCH   7  16
ENDBRANCH   6   7
ENDBRANCH   3   6
ENDBRANCH   1   2
BRANCH   1  21
ATOM     21  C   UNL A   1      31.492  32.182  26.762  1.00  0.00     0.042 C 
BRANCH  21  22
ATOM     22  C   UNL A   1      32.746  32.851  27.315  1.00  0.00     0.118 C 
BRANCH  22  23
ATOM     23  N   UNL A   1      32.517  34.251  27.658  1.00  0.00    -0.352 N 
ATOM     24  C   UNL A   1      33.051  35.010  28.670  1.00  0.00     0.251 C 
ATOM     25  H   UNL A   1      31.881  34.724  27.073  1.00  0.00     0.163 HD
ATOM     26  O   UNL A   1      32.569  36.106  28.935  1.00  0.00    -0.269 OA
BRANCH  24  27
ATOM     27  C   UNL A   1      34.188  34.493  29.462  1.00  0.00     0.039 A 
ATOM     28  C   UNL A   1      35.492  34.580  28.975  1.00  0.00     0.014 A 
ATOM     29  C   UNL A   1      33.943  33.901  30.704  1.00  0.00     0.014 A 
ATOM     30  C   UNL A   1      36.517  33.906  29.628  1.00  0.00     0.010 A 
ATOM     31  C   UNL A   1      34.996  33.317  31.413  1.00  0.00     0.010 A 
ATOM     32  C   UNL A   1      36.283  33.265  30.854  1.00  0.00    -0.014 A 
BRANCH  32  33
ATOM     33  C   UNL A   1      37.392  32.539  31.530  1.00  0.00     0.031 A 
ATOM     34  C   UNL A   1      38.118  31.423  30.831  1.00  0.00     0.074 A 
ATOM     35  C   UNL A   1      37.779  32.925  32.761  1.00  0.00     0.049 A 
ATOM     36  N   UNL A   1      39.109  30.681  31.262  1.00  0.00    -0.248 NA
ATOM     37  C   UNL A   1      37.671  31.087  29.470  1.00  0.00     0.031 C 
ATOM     38  C   UNL A   1      37.174  34.010  33.531  1.00  0.00     0.029 A 
ATOM     39  N   UNL A   1      38.791  32.467  33.567  1.00  0.00    -0.354 N 
ATOM     40  C   UNL A   1      39.401  29.797  30.231  1.00  0.00     0.074 A 
ATOM     41  C   UNL A   1      38.442  30.050  29.178  1.00  0.00     0.031 C 
ATOM     42  C   UNL A   1      37.862  34.177  34.670  1.00  0.00     0.029 A 
ATOM     43  C   UNL A   1      38.908  33.163  34.745  1.00  0.00     0.049 A 
ATOM     44  H   UNL A   1      39.376  31.714  33.326  1.00  0.00     0.167 HD
ATOM     45  C   UNL A   1      40.395  28.879  30.158  1.00  0.00     0.037 A 
ATOM     46  C   UNL A   1      39.754  32.998  35.779  1.00  0.00     0.037 A 
ATOM     47  C   UNL A   1      41.348  28.631  31.210  1.00  0.00     0.049 A 
ATOM     48  C   UNL A   1      40.780  31.902  35.718  1.00  0.00     0.074 A 
ATOM     49  C   UNL A   1      42.385  27.716  31.236  1.00  0.00     0.029 A 
ATOM     50  N   UNL A   1      41.380  29.304  32.424  1.00  0.00    -0.354 N 
ATOM     51  N   UNL A   1      41.049  31.075  34.738  1.00  0.00    -0.248 NA
ATOM     52  C   UNL A   1      41.616  31.714  36.911  1.00  0.00     0.031 C 
ATOM     53  C   UNL A   1      43.006  27.792  32.487  1.00  0.00     0.029 A 
ATOM     54  C   UNL A   1      42.401  28.802  33.217  1.00  0.00     0.049 A 
ATOM     55  H   UNL A   1      40.768  30.031  32.684  1.00  0.00     0.167 HD
ATOM     56  C   UNL A   1      42.101  30.286  35.183  1.00  0.00     0.074 A 
ATOM     57  C   UNL A   1      42.432  30.746  36.515  1.00  0.00     0.031 C 
ATOM     58  C   UNL A   1      42.730  29.270  34.542  1.00  0.00     0.037 A 
BRANCH  45  59
ATOM     59  C   UNL A   1      40.503  28.067  28.896  1.00  0.00     0.064 A 
ATOM     60  C   UNL A   1      39.807  26.858  28.738  1.00  0.00     0.173 A 
ATOM     61  C   UNL A   1      41.277  28.520  27.816  1.00  0.00     0.173 A 
ATOM     62  F   UNL A   1      39.059  26.373  29.739  1.00  0.00    -0.203 F 
ATOM     63  C   UNL A   1      39.909  26.117  27.562  1.00  0.00     0.198 A 
ATOM     64  C   UNL A   1      41.346  27.796  26.627  1.00  0.00     0.198 A 
ATOM     65  F   UNL A   1      41.956  29.674  27.905  1.00  0.00    -0.203 F 
ATOM     66  F   UNL A   1      39.283  24.938  27.458  1.00  0.00    -0.200 F 
ATOM     67  C   UNL A   1      40.671  26.591  26.505  1.00  0.00     0.200 A 
ATOM     68  F   UNL A   1      42.067  28.265  25.600  1.00  0.00    -0.200 F 
ATOM     69  F   UNL A   1      40.762  25.882  25.371  1.00  0.00    -0.200 F 
ENDBRANCH  45  59
BRANCH  46  70
ATOM     70  C   UNL A   1      39.677  33.922  36.940  1.00  0.00     0.064 A 
ATOM     71  C   UNL A   1      40.344  35.154  36.915  1.00  0.00     0.173 A 
ATOM     72  C   UNL A   1      38.902  33.621  38.071  1.00  0.00     0.173 A 
ATOM     73  F   UNL A   1      41.112  35.479  35.865  1.00  0.00    -0.203 F 
ATOM     74  C   UNL A   1      40.237  36.051  37.976  1.00  0.00     0.198 A 
ATOM     75  C   UNL A   1      38.771  34.532  39.117  1.00  0.00     0.198 A 
ATOM     76  F   UNL A   1      38.242  32.456  38.143  1.00  0.00    -0.203 F 
ATOM     77  F   UNL A   1      40.907  37.211  37.939  1.00  0.00    -0.200 F 
ATOM     78  C   UNL A   1      39.442  35.744  39.070  1.00  0.00     0.200 A 
ATOM     79  F   UNL A   1      37.986  34.240  40.161  1.00  0.00    -0.200 F 
ATOM     80  F   UNL A   1      39.323  36.617  40.079  1.00  0.00    -0.200 F 
ENDBRANCH  46  70
BRANCH  58  81
ATOM     81  C   UNL A   1      43.863  28.588  35.256  1.00  0.00     0.064 A 
ATOM     82  C   UNL A   1      45.188  29.026  35.120  1.00  0.00     0.173 A 
ATOM     83  C   UNL A   1      43.610  27.535  36.148  1.00  0.00     0.173 A 
ATOM     84  F   UNL A   1      45.487  30.021  34.270  1.00  0.00    -0.203 F 
ATOM     85  C   UNL A   1      46.219  28.426  35.838  1.00  0.00     0.198 A 
ATOM     86  C   UNL A   1      44.637  26.960  36.892  1.00  0.00     0.198 A 
ATOM     87  F   UNL A   1      42.360  27.080  36.322  1.00  0.00    -0.203 F 
ATOM     88  F   UNL A   1      47.483  28.835  35.661  1.00  0.00    -0.200 F 
ATOM     89  C   UNL A   1      45.942  27.402  36.732  1.00  0.00     0.200 A 
ATOM     90  F   UNL A   1      44.363  25.986  37.771  1.00  0.00    -0.200 F 
ATOM     91  F   UNL A   1      46.932  26.842  37.440  1.00  0.00    -0.200 F 
ENDBRANCH  58  81
ENDBRANCH  32  33
ENDBRANCH  24  27
ENDBRANCH  22  23
ENDBRANCH  21  22
ENDBRANCH   1  21
TORSDOF 15
ENDMDL
