MODEL 1
REMARK VINA RESULT:     -14.0      0.000      0.000
REMARK SMILES O=C(NCCCNC(=O)c1ccc(Cn2nnc3ccccc32)nc1)c1ccc(-c2c3nc(c(-c4c(F)c(F)c(F)c(F)c4F)c4ccc([nH]4)c(-c4c(F)c(F)c(F)c(F)c4F)c4nc(c(-c5c(F)c(F)c(F)c(F)c5F)c5ccc2[nH]5)C=C4)C=C3)cc1
REMARK SMILES IDX 5 1 4 2 3 3 1 4 2 5 26 7 27 8 88 9 28 10 87 11 29 12 30 13
REMARK SMILES IDX 31 14 81 15 32 16 86 17 80 18 82 19 33 20 85 21 79 22 78 23
REMARK SMILES IDX 34 25 66 26 46 27 65 28 47 29 50 30 64 31 83 32 48 33 49 34
REMARK SMILES IDX 63 36 84 37 51 38 35 39 36 40 44 41 37 42 38 43 42 44 45 45
REMARK SMILES IDX 39 46 40 47 43 48 41 49 67 50 68 51 76 52 69 53 70 54 74 55
REMARK SMILES IDX 77 56 71 57 72 58 75 59 73 60 52 61 53 62 61 63 54 64 55 65
REMARK SMILES IDX 59 66 62 67 56 68 57 69 60 70 58 71 6 72 7 73 8 74 9 76
REMARK SMILES IDX 10 77 11 78 25 79 12 80 24 81 13 82 14 83 15 84 16 85 23 86
REMARK SMILES IDX 17 87 18 88 22 89 19 90 21 91 20 92
REMARK H PARENT 3 6 82 24 50 35 7 75
REMARK Flexibility Score: inf
ROOT
ATOM      1  C   UNL A   1      36.084  30.122  27.558  1.00  0.00     0.042 C 
ENDROOT
BRANCH   1   2
ATOM      2  C   UNL A   1      37.016  29.513  28.569  1.00  0.00     0.118 C 
BRANCH   2   3
ATOM      3  N   UNL A   1      37.759  30.478  29.391  1.00  0.00    -0.352 N 
ATOM      4  O   UNL A   1      39.608  31.069  30.600  1.00  0.00    -0.269 OA
ATOM      5  C   UNL A   1      39.119  30.424  29.710  1.00  0.00     0.251 C 
ATOM      6  H   UNL A   1      37.248  31.239  29.752  1.00  0.00     0.163 HD
BRANCH   5   7
ATOM      7  C   UNL A   1      39.944  29.603  28.800  1.00  0.00     0.039 A 
ATOM      8  C   UNL A   1      40.017  29.663  27.416  1.00  0.00     0.014 A 
ATOM      9  C   UNL A   1      40.669  28.617  29.429  1.00  0.00     0.014 A 
ATOM     10  C   UNL A   1      40.868  28.725  26.801  1.00  0.00     0.010 A 
ATOM     11  C   UNL A   1      41.880  28.346  28.905  1.00  0.00     0.010 A 
ATOM     12  C   UNL A   1      41.747  27.959  27.611  1.00  0.00    -0.014 A 
BRANCH  12  13
ATOM     13  C   UNL A   1      42.888  27.158  27.182  1.00  0.00     0.031 A 
ATOM     14  C   UNL A   1      42.419  25.763  27.023  1.00  0.00     0.074 A 
ATOM     15  C   UNL A   1      44.115  27.666  26.853  1.00  0.00     0.049 A 
ATOM     16  N   UNL A   1      42.436  24.909  27.989  1.00  0.00    -0.248 NA
ATOM     17  C   UNL A   1      41.510  25.359  25.929  1.00  0.00     0.031 C 
ATOM     18  C   UNL A   1      44.592  29.062  26.805  1.00  0.00     0.029 A 
ATOM     19  N   UNL A   1      45.269  26.987  26.515  1.00  0.00    -0.354 N 
ATOM     20  C   UNL A   1      41.908  23.746  27.469  1.00  0.00     0.074 A 
ATOM     21  C   UNL A   1      41.110  24.149  26.348  1.00  0.00     0.031 C 
ATOM     22  C   UNL A   1      45.829  29.134  26.240  1.00  0.00     0.029 A 
ATOM     23  C   UNL A   1      46.325  27.791  26.008  1.00  0.00     0.049 A 
ATOM     24  H   UNL A   1      45.354  26.011  26.618  1.00  0.00     0.167 HD
ATOM     25  C   UNL A   1      42.544  22.584  27.782  1.00  0.00     0.037 A 
ATOM     26  C   UNL A   1      47.571  27.368  25.604  1.00  0.00     0.037 A 
ATOM     27  C   UNL A   1      43.426  22.814  28.913  1.00  0.00     0.049 A 
ATOM     28  C   UNL A   1      47.779  26.044  26.249  1.00  0.00     0.074 A 
ATOM     29  C   UNL A   1      43.261  23.215  30.224  1.00  0.00     0.029 A 
ATOM     30  N   UNL A   1      44.703  23.162  28.556  1.00  0.00    -0.354 N 
ATOM     31  N   UNL A   1      47.902  25.911  27.541  1.00  0.00    -0.248 NA
ATOM     32  C   UNL A   1      47.237  24.905  25.525  1.00  0.00     0.031 C 
ATOM     33  C   UNL A   1      44.347  24.106  30.493  1.00  0.00     0.029 A 
ATOM     34  C   UNL A   1      45.217  24.102  29.404  1.00  0.00     0.049 A 
ATOM     35  H   UNL A   1      45.189  22.784  27.789  1.00  0.00     0.167 HD
ATOM     36  C   UNL A   1      47.008  24.901  27.856  1.00  0.00     0.074 A 
ATOM     37  C   UNL A   1      46.633  24.313  26.560  1.00  0.00     0.031 C 
ATOM     38  C   UNL A   1      46.389  24.881  29.075  1.00  0.00     0.037 A 
BRANCH  25  39
ATOM     39  C   UNL A   1      42.818  21.484  26.781  1.00  0.00     0.064 A 
ATOM     40  C   UNL A   1      42.373  20.182  27.086  1.00  0.00     0.173 A 
ATOM     41  C   UNL A   1      43.737  21.573  25.712  1.00  0.00     0.173 A 
ATOM     42  F   UNL A   1      41.543  19.973  28.120  1.00  0.00    -0.203 F 
ATOM     43  C   UNL A   1      42.841  19.059  26.400  1.00  0.00     0.198 A 
ATOM     44  C   UNL A   1      44.166  20.456  24.998  1.00  0.00     0.198 A 
ATOM     45  F   UNL A   1      44.351  22.714  25.382  1.00  0.00    -0.203 F 
ATOM     46  F   UNL A   1      42.470  17.835  26.797  1.00  0.00    -0.200 F 
ATOM     47  C   UNL A   1      43.733  19.197  25.352  1.00  0.00     0.200 A 
ATOM     48  F   UNL A   1      45.063  20.608  24.013  1.00  0.00    -0.200 F 
ATOM     49  F   UNL A   1      44.210  18.120  24.716  1.00  0.00    -0.200 F 
ENDBRANCH  25  39
BRANCH  26  50
ATOM     50  C   UNL A   1      48.388  27.723  24.389  1.00  0.00     0.064 A 
ATOM     51  C   UNL A   1      49.795  27.547  24.339  1.00  0.00     0.173 A 
ATOM     52  C   UNL A   1      47.765  27.917  23.147  1.00  0.00     0.173 A 
ATOM     53  F   UNL A   1      50.489  27.309  25.463  1.00  0.00    -0.203 F 
ATOM     54  C   UNL A   1      50.509  27.529  23.126  1.00  0.00     0.198 A 
ATOM     55  C   UNL A   1      48.476  27.887  21.938  1.00  0.00     0.198 A 
ATOM     56  F   UNL A   1      46.433  28.041  23.075  1.00  0.00    -0.203 F 
ATOM     57  F   UNL A   1      51.833  27.301  23.120  1.00  0.00    -0.200 F 
ATOM     58  C   UNL A   1      49.843  27.678  21.925  1.00  0.00     0.200 A 
ATOM     59  F   UNL A   1      47.812  27.991  20.778  1.00  0.00    -0.200 F 
ATOM     60  F   UNL A   1      50.502  27.582  20.760  1.00  0.00    -0.200 F 
ENDBRANCH  26  50
BRANCH  38  61
ATOM     61  C   UNL A   1      46.904  25.796  30.157  1.00  0.00     0.064 A 
ATOM     62  C   UNL A   1      48.184  25.735  30.738  1.00  0.00     0.173 A 
ATOM     63  C   UNL A   1      46.109  26.904  30.474  1.00  0.00     0.173 A 
ATOM     64  F   UNL A   1      49.039  24.754  30.424  1.00  0.00    -0.203 F 
ATOM     65  C   UNL A   1      48.631  26.736  31.609  1.00  0.00     0.198 A 
ATOM     66  C   UNL A   1      46.567  27.913  31.312  1.00  0.00     0.198 A 
ATOM     67  F   UNL A   1      44.902  27.040  29.905  1.00  0.00    -0.203 F 
ATOM     68  F   UNL A   1      49.861  26.669  32.144  1.00  0.00    -0.200 F 
ATOM     69  C   UNL A   1      47.825  27.828  31.887  1.00  0.00     0.200 A 
ATOM     70  F   UNL A   1      45.803  28.993  31.526  1.00  0.00    -0.200 F 
ATOM     71  F   UNL A   1      48.266  28.811  32.683  1.00  0.00    -0.200 F 
ENDBRANCH  38  61
ENDBRANCH  12  13
ENDBRANCH   5   7
ENDBRANCH   2   3
ENDBRANCH   1   2
BRANCH   1  72
ATOM     72  C   UNL A   1      34.675  29.570  27.711  1.00  0.00     0.118 C 
BRANCH  72  73
ATOM     73  N   UNL A   1      33.634  30.593  27.597  1.00  0.00    -0.352 N 
ATOM     74  C   UNL A   1      32.403  30.502  26.999  1.00  0.00     0.252 C 
ATOM     75  H   UNL A   1      33.846  31.462  28.006  1.00  0.00     0.163 HD
ATOM     76  O   UNL A   1      31.700  31.492  26.836  1.00  0.00    -0.269 OA
BRANCH  74  77
ATOM     77  C   UNL A   1      31.969  29.195  26.500  1.00  0.00     0.058 A 
ATOM     78  C   UNL A   1      31.776  28.943  25.142  1.00  0.00     0.017 A 
ATOM     79  C   UNL A   1      31.630  28.227  27.417  1.00  0.00     0.125 A 
ATOM     80  C   UNL A   1      31.164  27.758  24.751  1.00  0.00     0.026 A 
ATOM     81  N   UNL A   1      31.026  27.076  27.057  1.00  0.00    -0.258 NA
ATOM     82  C   UNL A   1      30.817  26.838  25.734  1.00  0.00     0.062 A 
BRANCH  82  83
ATOM     83  C   UNL A   1      30.241  25.497  25.368  1.00  0.00     0.202 C 
BRANCH  83  84
ATOM     84  N   UNL A   1      30.812  24.458  26.201  1.00  0.00    -0.239 N 
ATOM     85  N   UNL A   1      30.013  23.750  27.028  1.00  0.00    -0.066 NA
ATOM     86  C   UNL A   1      32.121  24.053  26.292  1.00  0.00     0.089 A 
ATOM     87  N   UNL A   1      30.774  22.858  27.650  1.00  0.00    -0.130 NA
ATOM     88  C   UNL A   1      32.061  23.012  27.209  1.00  0.00     0.113 A 
ATOM     89  C   UNL A   1      33.312  24.448  25.671  1.00  0.00     0.030 A 
ATOM     90  C   UNL A   1      33.234  22.312  27.531  1.00  0.00     0.032 A 
ATOM     91  C   UNL A   1      34.463  23.716  25.970  1.00  0.00     0.002 A 
ATOM     92  C   UNL A   1      34.429  22.667  26.891  1.00  0.00     0.002 A 
ENDBRANCH  83  84
ENDBRANCH  82  83
ENDBRANCH  74  77
ENDBRANCH  72  73
ENDBRANCH   1  72
TORSDOF 12
ENDMDL
MODEL 2
REMARK VINA RESULT:     -13.4      3.938      8.751
REMARK SMILES O=C(NCCCNC(=O)c1ccc(Cn2nnc3ccccc32)nc1)c1ccc(-c2c3nc(c(-c4c(F)c(F)c(F)c(F)c4F)c4ccc([nH]4)c(-c4c(F)c(F)c(F)c(F)c4F)c4nc(c(-c5c(F)c(F)c(F)c(F)c5F)c5ccc2[nH]5)C=C4)C=C3)cc1
REMARK SMILES IDX 5 1 4 2 3 3 1 4 2 5 26 7 27 8 88 9 28 10 87 11 29 12 30 13
REMARK SMILES IDX 31 14 81 15 32 16 86 17 80 18 82 19 33 20 85 21 79 22 78 23
REMARK SMILES IDX 34 25 66 26 46 27 65 28 47 29 50 30 64 31 83 32 48 33 49 34
REMARK SMILES IDX 63 36 84 37 51 38 35 39 36 40 44 41 37 42 38 43 42 44 45 45
REMARK SMILES IDX 39 46 40 47 43 48 41 49 67 50 68 51 76 52 69 53 70 54 74 55
REMARK SMILES IDX 77 56 71 57 72 58 75 59 73 60 52 61 53 62 61 63 54 64 55 65
REMARK SMILES IDX 59 66 62 67 56 68 57 69 60 70 58 71 6 72 7 73 8 74 9 76
REMARK SMILES IDX 10 77 11 78 25 79 12 80 24 81 13 82 14 83 15 84 16 85 23 86
REMARK SMILES IDX 17 87 18 88 22 89 19 90 21 91 20 92
REMARK H PARENT 3 6 82 24 50 35 7 75
REMARK Flexibility Score: inf
ROOT
ATOM      1  C   UNL A   1      38.022  19.697  25.009  1.00  0.00     0.042 C 
ENDROOT
BRANCH   1   2
ATOM      2  C   UNL A   1      39.217  20.211  25.766  1.00  0.00     0.118 C 
BRANCH   2   3
ATOM      3  N   UNL A   1      40.349  19.279  25.847  1.00  0.00    -0.352 N 
ATOM      4  O   UNL A   1      42.585  18.829  25.669  1.00  0.00    -0.269 OA
ATOM      5  C   UNL A   1      41.705  19.621  25.885  1.00  0.00     0.251 C 
ATOM      6  H   UNL A   1      40.132  18.319  25.878  1.00  0.00     0.163 HD
BRANCH   5   7
ATOM      7  C   UNL A   1      41.991  21.002  26.324  1.00  0.00     0.039 A 
ATOM      8  C   UNL A   1      42.100  22.146  25.547  1.00  0.00     0.014 A 
ATOM      9  C   UNL A   1      42.243  21.126  27.670  1.00  0.00     0.014 A 
ATOM     10  C   UNL A   1      42.419  23.332  26.235  1.00  0.00     0.010 A 
ATOM     11  C   UNL A   1      41.808  22.260  28.254  1.00  0.00     0.010 A 
ATOM     12  C   UNL A   1      42.380  23.335  27.655  1.00  0.00    -0.014 A 
BRANCH  12  13
ATOM     13  C   UNL A   1      42.390  24.490  28.547  1.00  0.00     0.031 A 
ATOM     14  C   UNL A   1      41.150  25.258  28.295  1.00  0.00     0.074 A 
ATOM     15  C   UNL A   1      43.319  24.707  29.527  1.00  0.00     0.049 A 
ATOM     16  N   UNL A   1      41.079  26.192  27.411  1.00  0.00    -0.248 NA
ATOM     17  C   UNL A   1      39.817  24.752  28.689  1.00  0.00     0.031 C 
ATOM     18  C   UNL A   1      44.468  23.885  29.957  1.00  0.00     0.029 A 
ATOM     19  N   UNL A   1      43.455  25.799  30.362  1.00  0.00    -0.354 N 
ATOM     20  C   UNL A   1      39.777  26.649  27.452  1.00  0.00     0.074 A 
ATOM     21  C   UNL A   1      39.008  25.574  28.007  1.00  0.00     0.031 C 
ATOM     22  C   UNL A   1      45.019  24.381  31.100  1.00  0.00     0.029 A 
ATOM     23  C   UNL A   1      44.380  25.641  31.429  1.00  0.00     0.049 A 
ATOM     24  H   UNL A   1      42.946  26.631  30.226  1.00  0.00     0.167 HD
ATOM     25  C   UNL A   1      39.593  27.997  27.417  1.00  0.00     0.037 A 
ATOM     26  C   UNL A   1      44.703  26.569  32.393  1.00  0.00     0.037 A 
ATOM     27  C   UNL A   1      40.817  28.632  26.960  1.00  0.00     0.049 A 
ATOM     28  C   UNL A   1      44.306  27.890  31.834  1.00  0.00     0.074 A 
ATOM     29  C   UNL A   1      41.579  28.586  25.809  1.00  0.00     0.029 A 
ATOM     30  N   UNL A   1      41.665  28.995  27.974  1.00  0.00    -0.354 N 
ATOM     31  N   UNL A   1      44.905  28.416  30.800  1.00  0.00    -0.248 NA
ATOM     32  C   UNL A   1      42.916  28.263  32.042  1.00  0.00     0.031 C 
ATOM     33  C   UNL A   1      42.941  28.590  26.248  1.00  0.00     0.029 A 
ATOM     34  C   UNL A   1      42.971  28.792  27.627  1.00  0.00     0.049 A 
ATOM     35  H   UNL A   1      41.372  29.355  28.842  1.00  0.00     0.167 HD
ATOM     36  C   UNL A   1      43.863  28.774  29.961  1.00  0.00     0.074 A 
ATOM     37  C   UNL A   1      42.654  28.659  30.793  1.00  0.00     0.031 C 
ATOM     38  C   UNL A   1      44.036  28.769  28.605  1.00  0.00     0.037 A 
BRANCH  25  39
ATOM     39  C   UNL A   1      38.608  28.731  28.297  1.00  0.00     0.064 A 
ATOM     40  C   UNL A   1      37.841  29.763  27.720  1.00  0.00     0.173 A 
ATOM     41  C   UNL A   1      38.594  28.686  29.709  1.00  0.00     0.173 A 
ATOM     42  F   UNL A   1      37.828  29.935  26.389  1.00  0.00    -0.203 F 
ATOM     43  C   UNL A   1      37.150  30.696  28.496  1.00  0.00     0.198 A 
ATOM     44  C   UNL A   1      37.864  29.590  30.480  1.00  0.00     0.198 A 
ATOM     45  F   UNL A   1      39.368  27.853  30.412  1.00  0.00    -0.203 F 
ATOM     46  F   UNL A   1      36.524  31.720  27.903  1.00  0.00    -0.200 F 
ATOM     47  C   UNL A   1      37.156  30.605  29.876  1.00  0.00     0.200 A 
ATOM     48  F   UNL A   1      37.919  29.509  31.817  1.00  0.00    -0.200 F 
ATOM     49  F   UNL A   1      36.524  31.518  30.623  1.00  0.00    -0.200 F 
ENDBRANCH  25  39
BRANCH  26  50
ATOM     50  C   UNL A   1      44.865  26.428  33.884  1.00  0.00     0.064 A 
ATOM     51  C   UNL A   1      43.822  25.956  34.722  1.00  0.00     0.173 A 
ATOM     52  C   UNL A   1      46.144  26.428  34.462  1.00  0.00     0.173 A 
ATOM     53  F   UNL A   1      42.565  25.871  34.258  1.00  0.00    -0.203 F 
ATOM     54  C   UNL A   1      44.059  25.485  36.027  1.00  0.00     0.198 A 
ATOM     55  C   UNL A   1      46.381  25.946  35.757  1.00  0.00     0.198 A 
ATOM     56  F   UNL A   1      47.207  26.804  33.740  1.00  0.00    -0.203 F 
ATOM     57  F   UNL A   1      43.051  24.993  36.766  1.00  0.00    -0.200 F 
ATOM     58  C   UNL A   1      45.344  25.461  36.535  1.00  0.00     0.200 A 
ATOM     59  F   UNL A   1      47.637  25.889  36.222  1.00  0.00    -0.200 F 
ATOM     60  F   UNL A   1      45.592  24.939  37.745  1.00  0.00    -0.200 F 
ENDBRANCH  26  50
BRANCH  38  61
ATOM     61  C   UNL A   1      45.436  28.651  28.060  1.00  0.00     0.064 A 
ATOM     62  C   UNL A   1      46.061  27.453  27.666  1.00  0.00     0.173 A 
ATOM     63  C   UNL A   1      46.094  29.848  27.754  1.00  0.00     0.173 A 
ATOM     64  F   UNL A   1      45.461  26.270  27.845  1.00  0.00    -0.203 F 
ATOM     65  C   UNL A   1      47.296  27.465  27.009  1.00  0.00     0.198 A 
ATOM     66  C   UNL A   1      47.306  29.859  27.072  1.00  0.00     0.198 A 
ATOM     67  F   UNL A   1      45.517  31.020  28.058  1.00  0.00    -0.203 F 
ATOM     68  F   UNL A   1      47.872  26.314  26.627  1.00  0.00    -0.200 F 
ATOM     69  C   UNL A   1      47.912  28.669  26.706  1.00  0.00     0.200 A 
ATOM     70  F   UNL A   1      47.861  31.029  26.731  1.00  0.00    -0.200 F 
ATOM     71  F   UNL A   1      49.073  28.687  26.036  1.00  0.00    -0.200 F 
ENDBRANCH  38  61
ENDBRANCH  12  13
ENDBRANCH   5   7
ENDBRANCH   2   3
ENDBRANCH   1   2
BRANCH   1  72
ATOM     72  C   UNL A   1      36.943  20.763  24.902  1.00  0.00     0.118 C 
BRANCH  72  73
ATOM     73  N   UNL A   1      35.652  20.341  25.445  1.00  0.00    -0.352 N 
ATOM     74  C   UNL A   1      34.505  21.077  25.604  1.00  0.00     0.252 C 
ATOM     75  H   UNL A   1      35.600  19.402  25.736  1.00  0.00     0.163 HD
ATOM     76  O   UNL A   1      33.547  20.635  26.227  1.00  0.00    -0.269 OA
BRANCH  74  77
ATOM     77  C   UNL A   1      34.472  22.436  25.060  1.00  0.00     0.058 A 
ATOM     78  C   UNL A   1      34.964  23.533  25.767  1.00  0.00     0.017 A 
ATOM     79  C   UNL A   1      33.828  22.645  23.863  1.00  0.00     0.125 A 
ATOM     80  C   UNL A   1      34.714  24.815  25.293  1.00  0.00     0.026 A 
ATOM     81  N   UNL A   1      33.567  23.881  23.392  1.00  0.00    -0.258 NA
ATOM     82  C   UNL A   1      34.027  24.953  24.092  1.00  0.00     0.062 A 
BRANCH  82  83
ATOM     83  C   UNL A   1      33.810  26.309  23.477  1.00  0.00     0.202 C 
BRANCH  83  84
ATOM     84  N   UNL A   1      32.861  27.073  24.261  1.00  0.00    -0.239 N 
ATOM     85  N   UNL A   1      31.539  26.952  24.012  1.00  0.00    -0.066 NA
ATOM     86  C   UNL A   1      33.105  27.959  25.280  1.00  0.00     0.089 A 
ATOM     87  N   UNL A   1      30.898  27.730  24.875  1.00  0.00    -0.130 NA
ATOM     88  C   UNL A   1      31.829  28.344  25.670  1.00  0.00     0.113 A 
ATOM     89  C   UNL A   1      34.264  28.430  25.909  1.00  0.00     0.030 A 
ATOM     90  C   UNL A   1      31.679  29.238  26.741  1.00  0.00     0.032 A 
ATOM     91  C   UNL A   1      34.096  29.287  27.000  1.00  0.00     0.002 A 
ATOM     92  C   UNL A   1      32.825  29.691  27.408  1.00  0.00     0.002 A 
ENDBRANCH  83  84
ENDBRANCH  82  83
ENDBRANCH  74  77
ENDBRANCH  72  73
ENDBRANCH   1  72
TORSDOF 12
ENDMDL
MODEL 3
REMARK VINA RESULT:     -13.4      5.244     11.805
REMARK SMILES O=C(NCCCNC(=O)c1ccc(Cn2nnc3ccccc32)nc1)c1ccc(-c2c3nc(c(-c4c(F)c(F)c(F)c(F)c4F)c4ccc([nH]4)c(-c4c(F)c(F)c(F)c(F)c4F)c4nc(c(-c5c(F)c(F)c(F)c(F)c5F)c5ccc2[nH]5)C=C4)C=C3)cc1
REMARK SMILES IDX 5 1 4 2 3 3 1 4 2 5 26 7 27 8 88 9 28 10 87 11 29 12 30 13
REMARK SMILES IDX 31 14 81 15 32 16 86 17 80 18 82 19 33 20 85 21 79 22 78 23
REMARK SMILES IDX 34 25 66 26 46 27 65 28 47 29 50 30 64 31 83 32 48 33 49 34
REMARK SMILES IDX 63 36 84 37 51 38 35 39 36 40 44 41 37 42 38 43 42 44 45 45
REMARK SMILES IDX 39 46 40 47 43 48 41 49 67 50 68 51 76 52 69 53 70 54 74 55
REMARK SMILES IDX 77 56 71 57 72 58 75 59 73 60 52 61 53 62 61 63 54 64 55 65
REMARK SMILES IDX 59 66 62 67 56 68 57 69 60 70 58 71 6 72 7 73 8 74 9 76
REMARK SMILES IDX 10 77 11 78 25 79 12 80 24 81 13 82 14 83 15 84 16 85 23 86
REMARK SMILES IDX 17 87 18 88 22 89 19 90 21 91 20 92
REMARK H PARENT 3 6 82 24 50 35 7 75
REMARK Flexibility Score: inf
ROOT
ATOM      1  C   UNL A   1      42.293  20.186  27.257  1.00  0.00     0.042 C 
ENDROOT
BRANCH   1   2
ATOM      2  C   UNL A   1      41.076  20.936  27.725  1.00  0.00     0.118 C 
BRANCH   2   3
ATOM      3  N   UNL A   1      40.105  21.265  26.673  1.00  0.00    -0.352 N 
ATOM      4  O   UNL A   1      38.418  22.569  25.845  1.00  0.00    -0.269 OA
ATOM      5  C   UNL A   1      39.390  22.460  26.546  1.00  0.00     0.251 C 
ATOM      6  H   UNL A   1      39.942  20.575  25.989  1.00  0.00     0.163 HD
BRANCH   5   7
ATOM      7  C   UNL A   1      39.980  23.619  27.246  1.00  0.00     0.039 A 
ATOM      8  C   UNL A   1      41.277  23.774  27.711  1.00  0.00     0.014 A 
ATOM      9  C   UNL A   1      39.087  24.630  27.516  1.00  0.00     0.014 A 
ATOM     10  C   UNL A   1      41.554  24.982  28.380  1.00  0.00     0.010 A 
ATOM     11  C   UNL A   1      39.573  25.885  27.453  1.00  0.00     0.010 A 
ATOM     12  C   UNL A   1      40.595  26.028  28.335  1.00  0.00    -0.014 A 
BRANCH  12  13
ATOM     13  C   UNL A   1      40.782  27.428  28.700  1.00  0.00     0.031 A 
ATOM     14  C   UNL A   1      41.977  27.920  27.978  1.00  0.00     0.074 A 
ATOM     15  C   UNL A   1      39.905  28.159  29.454  1.00  0.00     0.049 A 
ATOM     16  N   UNL A   1      43.166  27.840  28.468  1.00  0.00    -0.248 NA
ATOM     17  C   UNL A   1      41.983  28.125  26.514  1.00  0.00     0.031 C 
ATOM     18  C   UNL A   1      38.604  27.785  30.042  1.00  0.00     0.029 A 
ATOM     19  N   UNL A   1      40.033  29.456  29.912  1.00  0.00    -0.354 N 
ATOM     20  C   UNL A   1      44.003  28.372  27.509  1.00  0.00     0.074 A 
ATOM     21  C   UNL A   1      43.295  28.251  26.268  1.00  0.00     0.031 C 
ATOM     22  C   UNL A   1      37.972  28.876  30.557  1.00  0.00     0.029 A 
ATOM     23  C   UNL A   1      38.861  30.020  30.485  1.00  0.00     0.049 A 
ATOM     24  H   UNL A   1      40.879  29.955  29.847  1.00  0.00     0.167 HD
ATOM     25  C   UNL A   1      44.980  29.217  27.939  1.00  0.00     0.037 A 
ATOM     26  C   UNL A   1      38.721  31.282  31.016  1.00  0.00     0.037 A 
ATOM     27  C   UNL A   1      45.144  29.063  29.374  1.00  0.00     0.049 A 
ATOM     28  C   UNL A   1      40.099  31.745  31.333  1.00  0.00     0.074 A 
ATOM     29  C   UNL A   1      45.501  28.030  30.218  1.00  0.00     0.029 A 
ATOM     30  N   UNL A   1      44.376  29.924  30.114  1.00  0.00    -0.354 N 
ATOM     31  N   UNL A   1      40.825  31.187  32.263  1.00  0.00    -0.248 NA
ATOM     32  C   UNL A   1      40.817  32.367  30.231  1.00  0.00     0.031 C 
ATOM     33  C   UNL A   1      44.636  28.144  31.353  1.00  0.00     0.029 A 
ATOM     34  C   UNL A   1      43.893  29.318  31.239  1.00  0.00     0.049 A 
ATOM     35  H   UNL A   1      44.195  30.860  29.868  1.00  0.00     0.167 HD
ATOM     36  C   UNL A   1      42.034  30.941  31.635  1.00  0.00     0.074 A 
ATOM     37  C   UNL A   1      41.968  31.703  30.378  1.00  0.00     0.031 C 
ATOM     38  C   UNL A   1      42.803  29.874  32.010  1.00  0.00     0.037 A 
BRANCH  25  39
ATOM     39  C   UNL A   1      45.335  30.509  27.241  1.00  0.00     0.064 A 
ATOM     40  C   UNL A   1      46.699  30.806  27.046  1.00  0.00     0.173 A 
ATOM     41  C   UNL A   1      44.447  31.588  27.032  1.00  0.00     0.173 A 
ATOM     42  F   UNL A   1      47.636  29.873  27.273  1.00  0.00    -0.203 F 
ATOM     43  C   UNL A   1      47.137  32.089  26.709  1.00  0.00     0.198 A 
ATOM     44  C   UNL A   1      44.884  32.855  26.648  1.00  0.00     0.198 A 
ATOM     45  F   UNL A   1      43.140  31.507  27.299  1.00  0.00    -0.203 F 
ATOM     46  F   UNL A   1      48.450  32.346  26.641  1.00  0.00    -0.200 F 
ATOM     47  C   UNL A   1      46.229  33.112  26.504  1.00  0.00     0.200 A 
ATOM     48  F   UNL A   1      43.988  33.841  26.496  1.00  0.00    -0.200 F 
ATOM     49  F   UNL A   1      46.648  34.349  26.215  1.00  0.00    -0.200 F 
ENDBRANCH  25  39
BRANCH  26  50
ATOM     50  C   UNL A   1      37.628  32.306  30.852  1.00  0.00     0.064 A 
ATOM     51  C   UNL A   1      37.034  32.590  29.595  1.00  0.00     0.173 A 
ATOM     52  C   UNL A   1      36.917  32.770  31.969  1.00  0.00     0.173 A 
ATOM     53  F   UNL A   1      37.604  32.154  28.461  1.00  0.00    -0.203 F 
ATOM     54  C   UNL A   1      35.800  33.256  29.479  1.00  0.00     0.198 A 
ATOM     55  C   UNL A   1      35.682  33.423  31.853  1.00  0.00     0.198 A 
ATOM     56  F   UNL A   1      37.362  32.510  33.205  1.00  0.00    -0.203 F 
ATOM     57  F   UNL A   1      35.244  33.454  28.273  1.00  0.00    -0.200 F 
ATOM     58  C   UNL A   1      35.115  33.653  30.612  1.00  0.00     0.200 A 
ATOM     59  F   UNL A   1      35.008  33.765  32.961  1.00  0.00    -0.200 F 
ATOM     60  F   UNL A   1      33.901  34.217  30.516  1.00  0.00    -0.200 F 
ENDBRANCH  26  50
BRANCH  38  61
ATOM     61  C   UNL A   1      42.457  29.153  33.287  1.00  0.00     0.064 A 
ATOM     62  C   UNL A   1      41.655  28.001  33.384  1.00  0.00     0.173 A 
ATOM     63  C   UNL A   1      43.137  29.559  34.442  1.00  0.00     0.173 A 
ATOM     64  F   UNL A   1      41.037  27.497  32.308  1.00  0.00    -0.203 F 
ATOM     65  C   UNL A   1      41.534  27.304  34.591  1.00  0.00     0.198 A 
ATOM     66  C   UNL A   1      43.042  28.846  35.631  1.00  0.00     0.198 A 
ATOM     67  F   UNL A   1      43.957  30.619  34.391  1.00  0.00    -0.203 F 
ATOM     68  F   UNL A   1      40.776  26.198  34.662  1.00  0.00    -0.200 F 
ATOM     69  C   UNL A   1      42.235  27.723  35.710  1.00  0.00     0.200 A 
ATOM     70  F   UNL A   1      43.771  29.226  36.689  1.00  0.00    -0.200 F 
ATOM     71  F   UNL A   1      42.160  27.032  36.856  1.00  0.00    -0.200 F 
ENDBRANCH  38  61
ENDBRANCH  12  13
ENDBRANCH   5   7
ENDBRANCH   2   3
ENDBRANCH   1   2
BRANCH   1  72
ATOM     72  C   UNL A   1      42.313  20.069  25.741  1.00  0.00     0.118 C 
BRANCH  72  73
ATOM     73  N   UNL A   1      43.420  19.257  25.235  1.00  0.00    -0.352 N 
ATOM     74  C   UNL A   1      44.637  19.670  24.752  1.00  0.00     0.252 C 
ATOM     75  H   UNL A   1      43.272  18.284  25.241  1.00  0.00     0.163 HD
ATOM     76  O   UNL A   1      45.404  18.885  24.208  1.00  0.00    -0.269 OA
BRANCH  74  77
ATOM     77  C   UNL A   1      44.975  21.091  24.850  1.00  0.00     0.058 A 
ATOM     78  C   UNL A   1      45.493  21.656  26.015  1.00  0.00     0.017 A 
ATOM     79  C   UNL A   1      44.657  21.912  23.792  1.00  0.00     0.125 A 
ATOM     80  C   UNL A   1      45.594  23.037  26.116  1.00  0.00     0.026 A 
ATOM     81  N   UNL A   1      44.737  23.255  23.875  1.00  0.00    -0.258 NA
ATOM     82  C   UNL A   1      45.223  23.808  25.019  1.00  0.00     0.062 A 
BRANCH  82  83
ATOM     83  C   UNL A   1      45.399  25.302  25.029  1.00  0.00     0.202 C 
BRANCH  83  84
ATOM     84  N   UNL A   1      46.806  25.645  25.049  1.00  0.00    -0.239 N 
ATOM     85  N   UNL A   1      47.529  25.567  23.910  1.00  0.00    -0.066 NA
ATOM     86  C   UNL A   1      47.574  26.061  26.108  1.00  0.00     0.089 A 
ATOM     87  N   UNL A   1      48.766  25.954  24.196  1.00  0.00    -0.130 NA
ATOM     88  C   UNL A   1      48.817  26.274  25.527  1.00  0.00     0.113 A 
ATOM     89  C   UNL A   1      47.322  26.297  27.465  1.00  0.00     0.030 A 
ATOM     90  C   UNL A   1      49.872  26.753  26.319  1.00  0.00     0.032 A 
ATOM     91  C   UNL A   1      48.370  26.813  28.231  1.00  0.00     0.002 A 
ATOM     92  C   UNL A   1      49.629  27.032  27.670  1.00  0.00     0.002 A 
ENDBRANCH  83  84
ENDBRANCH  82  83
ENDBRANCH  74  77
ENDBRANCH  72  73
ENDBRANCH   1  72
TORSDOF 12
ENDMDL
