MODEL 1
REMARK VINA RESULT:     -12.6      0.000      0.000
REMARK SMILES CC1(C)O[C@](C)([C@H](O)C2CCCCC2)CC[C@H]1C(=O)NCCCNC(=O)c1ccc(-c2c3nc(c(-c4c(F)c(F)c(F)c(F)c4F)c4ccc([nH]4)c(-c4c(F)c(F)c(F)c(F)c4F)c4nc(c(-c5c(F)c(F)c(F)c(F)c5F)c5ccc2[nH]5)C=C4)C=C3)cc1
REMARK SMILES IDX 22 1 21 2 20 3 18 4 19 5 17 7 1 8 2 9 3 10 4 11 5 12 16 13
REMARK SMILES IDX 6 14 15 15 7 16 9 17 10 18 14 19 11 20 13 21 12 22 8 23
REMARK SMILES IDX 23 25 24 26 25 27 26 29 27 30 28 31 89 32 29 33 88 34 30 35
REMARK SMILES IDX 31 36 32 37 82 38 33 39 87 40 81 41 83 42 34 43 86 44 80 45
REMARK SMILES IDX 79 46 35 48 67 49 47 50 66 51 48 52 51 53 65 54 84 55 49 56
REMARK SMILES IDX 50 57 64 59 85 60 52 61 36 62 37 63 45 64 38 65 39 66 43 67
REMARK SMILES IDX 46 68 40 69 41 70 44 71 42 72 68 73 69 74 77 75 70 76 71 77
REMARK SMILES IDX 75 78 78 79 72 80 73 81 76 82 74 83 53 84 54 85 62 86 55 87
REMARK SMILES IDX 56 88 60 89 63 90 57 91 58 92 61 93 59 94
REMARK H PARENT 20 6 8 24 24 28 83 47 51 58
REMARK Flexibility Score: inf
ROOT
ATOM      1  C   UNL A   1      37.998  19.562  25.008  1.00  0.00     0.042 C 
ENDROOT
BRANCH   1   2
ATOM      2  C   UNL A   1      36.851  20.553  24.834  1.00  0.00     0.117 C 
BRANCH   2   3
ATOM      3  N   UNL A   1      35.542  19.943  24.998  1.00  0.00    -0.356 N 
ATOM      4  C   UNL A   1      34.319  20.425  25.337  1.00  0.00     0.226 C 
ATOM      5  O   UNL A   1      33.418  19.582  25.420  1.00  0.00    -0.275 OA
ATOM      6  H   UNL A   1      35.543  18.974  24.828  1.00  0.00     0.163 HD
BRANCH   4   7
ATOM      7  C   UNL A   1      34.002  21.896  25.625  1.00  0.00     0.110 C 
ATOM      8  C   UNL A   1      32.391  21.912  23.547  1.00  0.00     0.043 C 
ATOM      9  C   UNL A   1      33.355  22.682  24.445  1.00  0.00     0.075 C 
ATOM     10  C   UNL A   1      34.496  23.145  23.504  1.00  0.00     0.043 C 
ATOM     11  O   UNL A   1      32.687  23.898  24.822  1.00  0.00    -0.366 OA
ATOM     12  C   UNL A   1      31.985  23.991  26.068  1.00  0.00     0.092 C 
ATOM     13  C   UNL A   1      33.452  22.145  27.030  1.00  0.00     0.019 C 
ATOM     14  C   UNL A   1      30.722  23.116  26.109  1.00  0.00     0.045 C 
ATOM     15  C   UNL A   1      32.949  23.576  27.196  1.00  0.00     0.039 C 
BRANCH  12  16
ATOM     16  C   UNL A   1      31.616  25.517  26.233  1.00  0.00     0.149 C 
BRANCH  16  17
ATOM     17  C   UNL A   1      32.157  26.529  25.159  1.00  0.00     0.021 C 
ATOM     18  C   UNL A   1      31.497  27.914  25.023  1.00  0.00     0.006 C 
ATOM     19  C   UNL A   1      33.675  26.780  25.328  1.00  0.00     0.006 C 
ATOM     20  C   UNL A   1      31.740  28.829  26.213  1.00  0.00     0.000 C 
ATOM     21  C   UNL A   1      34.036  27.749  26.458  1.00  0.00     0.000 C 
ATOM     22  C   UNL A   1      33.230  29.046  26.437  1.00  0.00     0.000 C 
ENDBRANCH  16  17
BRANCH  16  23
ATOM     23  O   UNL A   1      30.224  25.696  26.498  1.00  0.00    -0.390 OA
ATOM     24  H   UNL A   1      29.920  25.005  27.106  1.00  0.00     0.211 HD
ENDBRANCH  16  23
ENDBRANCH  12  16
ENDBRANCH   4   7
ENDBRANCH   2   3
ENDBRANCH   1   2
BRANCH   1  25
ATOM     25  C   UNL A   1      39.195  20.129  25.748  1.00  0.00     0.118 C 
BRANCH  25  26
ATOM     26  N   UNL A   1      40.263  19.155  25.873  1.00  0.00    -0.352 N 
ATOM     27  C   UNL A   1      41.612  19.351  26.044  1.00  0.00     0.251 C 
ATOM     28  H   UNL A   1      39.979  18.213  25.829  1.00  0.00     0.163 HD
ATOM     29  O   UNL A   1      42.384  18.411  25.873  1.00  0.00    -0.269 OA
BRANCH  27  30
ATOM     30  C   UNL A   1      42.150  20.682  26.420  1.00  0.00     0.039 A 
ATOM     31  C   UNL A   1      42.189  21.039  27.771  1.00  0.00     0.014 A 
ATOM     32  C   UNL A   1      42.558  21.606  25.454  1.00  0.00     0.014 A 
ATOM     33  C   UNL A   1      42.659  22.300  28.150  1.00  0.00     0.010 A 
ATOM     34  C   UNL A   1      43.127  22.817  25.836  1.00  0.00     0.010 A 
ATOM     35  C   UNL A   1      43.148  23.196  27.186  1.00  0.00    -0.014 A 
BRANCH  35  36
ATOM     36  C   UNL A   1      43.598  24.564  27.550  1.00  0.00     0.031 A 
ATOM     37  C   UNL A   1      42.574  25.612  27.909  1.00  0.00     0.074 A 
ATOM     38  C   UNL A   1      44.906  24.884  27.517  1.00  0.00     0.049 A 
ATOM     39  N   UNL A   1      42.741  26.885  28.165  1.00  0.00    -0.248 NA
ATOM     40  C   UNL A   1      41.169  25.175  27.951  1.00  0.00     0.031 C 
ATOM     41  C   UNL A   1      45.992  23.976  27.151  1.00  0.00     0.029 A 
ATOM     42  N   UNL A   1      45.543  26.069  27.791  1.00  0.00    -0.354 N 
ATOM     43  C   UNL A   1      41.466  27.399  28.369  1.00  0.00     0.074 A 
ATOM     44  C   UNL A   1      40.531  26.319  28.147  1.00  0.00     0.031 C 
ATOM     45  C   UNL A   1      47.163  24.627  27.251  1.00  0.00     0.029 A 
ATOM     46  C   UNL A   1      46.908  26.008  27.651  1.00  0.00     0.049 A 
ATOM     47  H   UNL A   1      45.066  26.886  28.062  1.00  0.00     0.167 HD
ATOM     48  C   UNL A   1      41.104  28.650  28.741  1.00  0.00     0.037 A 
ATOM     49  C   UNL A   1      47.845  26.959  27.825  1.00  0.00     0.037 A 
ATOM     50  C   UNL A   1      42.037  29.712  29.010  1.00  0.00     0.049 A 
ATOM     51  C   UNL A   1      47.418  28.339  28.253  1.00  0.00     0.074 A 
ATOM     52  C   UNL A   1      41.777  31.003  29.435  1.00  0.00     0.029 A 
ATOM     53  N   UNL A   1      43.414  29.597  28.892  1.00  0.00    -0.354 N 
ATOM     54  N   UNL A   1      46.213  28.799  28.487  1.00  0.00    -0.248 NA
ATOM     55  C   UNL A   1      48.485  29.330  28.450  1.00  0.00     0.031 C 
ATOM     56  C   UNL A   1      42.997  31.680  29.545  1.00  0.00     0.029 A 
ATOM     57  C   UNL A   1      44.017  30.795  29.232  1.00  0.00     0.049 A 
ATOM     58  H   UNL A   1      43.891  28.783  28.609  1.00  0.00     0.167 HD
ATOM     59  C   UNL A   1      46.379  30.116  28.894  1.00  0.00     0.074 A 
ATOM     60  C   UNL A   1      47.803  30.379  28.885  1.00  0.00     0.031 C 
ATOM     61  C   UNL A   1      45.439  31.027  29.243  1.00  0.00     0.037 A 
BRANCH  48  62
ATOM     62  C   UNL A   1      39.638  28.932  28.899  1.00  0.00     0.064 A 
ATOM     63  C   UNL A   1      39.001  28.836  30.145  1.00  0.00     0.173 A 
ATOM     64  C   UNL A   1      38.865  29.331  27.798  1.00  0.00     0.173 A 
ATOM     65  F   UNL A   1      39.691  28.443  31.227  1.00  0.00    -0.203 F 
ATOM     66  C   UNL A   1      37.640  29.097  30.279  1.00  0.00     0.198 A 
ATOM     67  C   UNL A   1      37.511  29.624  27.940  1.00  0.00     0.198 A 
ATOM     68  F   UNL A   1      39.424  29.444  26.584  1.00  0.00    -0.203 F 
ATOM     69  F   UNL A   1      37.043  28.946  31.469  1.00  0.00    -0.200 F 
ATOM     70  C   UNL A   1      36.897  29.498  29.178  1.00  0.00     0.200 A 
ATOM     71  F   UNL A   1      36.797  30.023  26.879  1.00  0.00    -0.200 F 
ATOM     72  F   UNL A   1      35.589  29.757  29.309  1.00  0.00    -0.200 F 
ENDBRANCH  48  62
BRANCH  49  73
ATOM     73  C   UNL A   1      49.282  26.637  27.635  1.00  0.00     0.064 A 
ATOM     74  C   UNL A   1      50.111  26.377  28.735  1.00  0.00     0.173 A 
ATOM     75  C   UNL A   1      49.864  26.604  26.359  1.00  0.00     0.173 A 
ATOM     76  F   UNL A   1      49.606  26.418  29.978  1.00  0.00    -0.203 F 
ATOM     77  C   UNL A   1      51.471  26.121  28.570  1.00  0.00     0.198 A 
ATOM     78  C   UNL A   1      51.218  26.320  26.192  1.00  0.00     0.198 A 
ATOM     79  F   UNL A   1      49.114  26.841  25.272  1.00  0.00    -0.203 F 
ATOM     80  F   UNL A   1      52.249  25.927  29.643  1.00  0.00    -0.200 F 
ATOM     81  C   UNL A   1      52.022  26.089  27.299  1.00  0.00     0.200 A 
ATOM     82  F   UNL A   1      51.745  26.275  24.961  1.00  0.00    -0.200 F 
ATOM     83  F   UNL A   1      53.330  25.844  27.139  1.00  0.00    -0.200 F 
ENDBRANCH  49  73
BRANCH  61  84
ATOM     84  C   UNL A   1      45.919  32.373  29.701  1.00  0.00     0.064 A 
ATOM     85  C   UNL A   1      46.231  32.627  31.044  1.00  0.00     0.173 A 
ATOM     86  C   UNL A   1      46.108  33.407  28.772  1.00  0.00     0.173 A 
ATOM     87  F   UNL A   1      46.052  31.674  31.970  1.00  0.00    -0.203 F 
ATOM     88  C   UNL A   1      46.689  33.879  31.446  1.00  0.00     0.198 A 
ATOM     89  C   UNL A   1      46.594  34.648  29.173  1.00  0.00     0.198 A 
ATOM     90  F   UNL A   1      45.832  33.210  27.475  1.00  0.00    -0.203 F 
ATOM     91  F   UNL A   1      46.936  34.115  32.741  1.00  0.00    -0.200 F 
ATOM     92  C   UNL A   1      46.877  34.886  30.509  1.00  0.00     0.200 A 
ATOM     93  F   UNL A   1      46.789  35.614  28.265  1.00  0.00    -0.200 F 
ATOM     94  F   UNL A   1      47.324  36.088  30.896  1.00  0.00    -0.200 F 
ENDBRANCH  61  84
ENDBRANCH  35  36
ENDBRANCH  27  30
ENDBRANCH  25  26
ENDBRANCH   1  25
TORSDOF 13
ENDMDL
MODEL 2
REMARK VINA RESULT:     -12.6      5.583     10.774
REMARK SMILES CC1(C)O[C@](C)([C@H](O)C2CCCCC2)CC[C@H]1C(=O)NCCCNC(=O)c1ccc(-c2c3nc(c(-c4c(F)c(F)c(F)c(F)c4F)c4ccc([nH]4)c(-c4c(F)c(F)c(F)c(F)c4F)c4nc(c(-c5c(F)c(F)c(F)c(F)c5F)c5ccc2[nH]5)C=C4)C=C3)cc1
REMARK SMILES IDX 22 1 21 2 20 3 18 4 19 5 17 7 1 8 2 9 3 10 4 11 5 12 16 13
REMARK SMILES IDX 6 14 15 15 7 16 9 17 10 18 14 19 11 20 13 21 12 22 8 23
REMARK SMILES IDX 23 25 24 26 25 27 26 29 27 30 28 31 89 32 29 33 88 34 30 35
REMARK SMILES IDX 31 36 32 37 82 38 33 39 87 40 81 41 83 42 34 43 86 44 80 45
REMARK SMILES IDX 79 46 35 48 67 49 47 50 66 51 48 52 51 53 65 54 84 55 49 56
REMARK SMILES IDX 50 57 64 59 85 60 52 61 36 62 37 63 45 64 38 65 39 66 43 67
REMARK SMILES IDX 46 68 40 69 41 70 44 71 42 72 68 73 69 74 77 75 70 76 71 77
REMARK SMILES IDX 75 78 78 79 72 80 73 81 76 82 74 83 53 84 54 85 62 86 55 87
REMARK SMILES IDX 56 88 60 89 63 90 57 91 58 92 61 93 59 94
REMARK H PARENT 20 6 8 24 24 28 83 47 51 58
REMARK Flexibility Score: inf
ROOT
ATOM      1  C   UNL A   1      31.350  32.333  26.476  1.00  0.00     0.042 C 
ENDROOT
BRANCH   1   2
ATOM      2  C   UNL A   1      31.432  30.857  26.101  1.00  0.00     0.117 C 
BRANCH   2   3
ATOM      3  N   UNL A   1      30.753  30.547  24.855  1.00  0.00    -0.356 N 
ATOM      4  C   UNL A   1      30.896  29.565  23.928  1.00  0.00     0.226 C 
ATOM      5  O   UNL A   1      30.147  29.646  22.946  1.00  0.00    -0.275 OA
ATOM      6  H   UNL A   1      30.038  31.186  24.634  1.00  0.00     0.163 HD
BRANCH   4   7
ATOM      7  C   UNL A   1      31.900  28.412  24.016  1.00  0.00     0.110 C 
ATOM      8  C   UNL A   1      29.888  26.722  24.104  1.00  0.00     0.043 C 
ATOM      9  C   UNL A   1      31.317  27.057  24.519  1.00  0.00     0.075 C 
ATOM     10  C   UNL A   1      31.284  27.104  26.069  1.00  0.00     0.043 C 
ATOM     11  O   UNL A   1      32.118  25.903  24.215  1.00  0.00    -0.366 OA
ATOM     12  C   UNL A   1      32.852  25.825  22.986  1.00  0.00     0.092 C 
ATOM     13  C   UNL A   1      32.893  28.368  22.854  1.00  0.00     0.019 C 
ATOM     14  C   UNL A   1      31.943  25.699  21.754  1.00  0.00     0.045 C 
ATOM     15  C   UNL A   1      33.725  27.090  22.867  1.00  0.00     0.039 C 
BRANCH  12  16
ATOM     16  C   UNL A   1      33.785  24.560  23.129  1.00  0.00     0.149 C 
BRANCH  16  17
ATOM     17  C   UNL A   1      33.713  23.736  24.465  1.00  0.00     0.021 C 
ATOM     18  C   UNL A   1      34.078  22.240  24.453  1.00  0.00     0.006 C 
ATOM     19  C   UNL A   1      34.565  24.388  25.581  1.00  0.00     0.006 C 
ATOM     20  C   UNL A   1      35.554  21.970  24.201  1.00  0.00     0.000 C 
ATOM     21  C   UNL A   1      36.070  24.121  25.469  1.00  0.00     0.000 C 
ATOM     22  C   UNL A   1      36.419  22.649  25.253  1.00  0.00     0.000 C 
ENDBRANCH  16  17
BRANCH  16  23
ATOM     23  O   UNL A   1      33.720  23.726  21.971  1.00  0.00    -0.390 OA
ATOM     24  H   UNL A   1      34.497  23.147  21.946  1.00  0.00     0.211 HD
ENDBRANCH  16  23
ENDBRANCH  12  16
ENDBRANCH   4   7
ENDBRANCH   2   3
ENDBRANCH   1   2
BRANCH   1  25
ATOM     25  C   UNL A   1      32.574  32.852  27.207  1.00  0.00     0.118 C 
BRANCH  25  26
ATOM     26  N   UNL A   1      32.424  34.243  27.590  1.00  0.00    -0.352 N 
ATOM     27  C   UNL A   1      33.013  34.937  28.620  1.00  0.00     0.251 C 
ATOM     28  H   UNL A   1      31.809  34.769  27.029  1.00  0.00     0.163 HD
ATOM     29  O   UNL A   1      32.568  36.036  28.938  1.00  0.00    -0.269 OA
BRANCH  27  30
ATOM     30  C   UNL A   1      34.170  34.373  29.359  1.00  0.00     0.039 A 
ATOM     31  C   UNL A   1      35.457  34.560  28.846  1.00  0.00     0.014 A 
ATOM     32  C   UNL A   1      33.997  33.610  30.516  1.00  0.00     0.014 A 
ATOM     33  C   UNL A   1      36.561  34.009  29.504  1.00  0.00     0.010 A 
ATOM     34  C   UNL A   1      35.101  33.156  31.231  1.00  0.00     0.010 A 
ATOM     35  C   UNL A   1      36.394  33.315  30.713  1.00  0.00    -0.014 A 
BRANCH  35  36
ATOM     36  C   UNL A   1      37.539  32.668  31.405  1.00  0.00     0.031 A 
ATOM     37  C   UNL A   1      38.277  31.541  30.725  1.00  0.00     0.074 A 
ATOM     38  C   UNL A   1      37.890  33.049  32.648  1.00  0.00     0.049 A 
ATOM     39  N   UNL A   1      39.238  30.780  31.184  1.00  0.00    -0.248 NA
ATOM     40  C   UNL A   1      37.852  31.204  29.357  1.00  0.00     0.031 C 
ATOM     41  C   UNL A   1      37.235  34.098  33.430  1.00  0.00     0.029 A 
ATOM     42  N   UNL A   1      38.884  32.591  33.476  1.00  0.00    -0.354 N 
ATOM     43  C   UNL A   1      39.509  29.864  30.174  1.00  0.00     0.074 A 
ATOM     44  C   UNL A   1      38.572  30.122  29.104  1.00  0.00     0.031 C 
ATOM     45  C   UNL A   1      37.862  34.223  34.611  1.00  0.00     0.029 A 
ATOM     46  C   UNL A   1      38.938  33.239  34.686  1.00  0.00     0.049 A 
ATOM     47  H   UNL A   1      39.501  31.865  33.226  1.00  0.00     0.167 HD
ATOM     48  C   UNL A   1      40.473  28.913  30.126  1.00  0.00     0.037 A 
ATOM     49  C   UNL A   1      39.764  33.058  35.734  1.00  0.00     0.037 A 
ATOM     50  C   UNL A   1      41.436  28.690  31.170  1.00  0.00     0.049 A 
ATOM     51  C   UNL A   1      40.837  32.004  35.650  1.00  0.00     0.074 A 
ATOM     52  C   UNL A   1      42.480  27.782  31.202  1.00  0.00     0.029 A 
ATOM     53  N   UNL A   1      41.479  29.394  32.364  1.00  0.00    -0.354 N 
ATOM     54  N   UNL A   1      41.110  31.176  34.672  1.00  0.00    -0.248 NA
ATOM     55  C   UNL A   1      41.722  31.867  36.816  1.00  0.00     0.031 C 
ATOM     56  C   UNL A   1      43.138  27.917  32.430  1.00  0.00     0.029 A 
ATOM     57  C   UNL A   1      42.530  28.939  33.142  1.00  0.00     0.049 A 
ATOM     58  H   UNL A   1      40.855  30.111  32.620  1.00  0.00     0.167 HD
ATOM     59  C   UNL A   1      42.218  30.448  35.085  1.00  0.00     0.074 A 
ATOM     60  C   UNL A   1      42.573  30.940  36.400  1.00  0.00     0.031 C 
ATOM     61  C   UNL A   1      42.883  29.461  34.437  1.00  0.00     0.037 A 
BRANCH  48  62
ATOM     62  C   UNL A   1      40.544  28.058  28.895  1.00  0.00     0.064 A 
ATOM     63  C   UNL A   1      39.806  26.869  28.782  1.00  0.00     0.173 A 
ATOM     64  C   UNL A   1      41.335  28.442  27.802  1.00  0.00     0.173 A 
ATOM     65  F   UNL A   1      39.045  26.448  29.805  1.00  0.00    -0.203 F 
ATOM     66  C   UNL A   1      39.881  26.082  27.636  1.00  0.00     0.198 A 
ATOM     67  C   UNL A   1      41.384  27.670  26.644  1.00  0.00     0.198 A 
ATOM     68  F   UNL A   1      42.058  29.571  27.854  1.00  0.00    -0.203 F 
ATOM     69  F   UNL A   1      39.209  24.925  27.574  1.00  0.00    -0.200 F 
ATOM     70  C   UNL A   1      40.664  26.487  26.565  1.00  0.00     0.200 A 
ATOM     71  F   UNL A   1      42.130  28.068  25.605  1.00  0.00    -0.200 F 
ATOM     72  F   UNL A   1      40.730  25.733  25.460  1.00  0.00    -0.200 F 
ENDBRANCH  48  62
BRANCH  49  73
ATOM     73  C   UNL A   1      39.638  33.916  36.941  1.00  0.00     0.064 A 
ATOM     74  C   UNL A   1      38.868  33.502  38.037  1.00  0.00     0.173 A 
ATOM     75  C   UNL A   1      40.261  35.169  37.019  1.00  0.00     0.173 A 
ATOM     76  F   UNL A   1      38.234  32.320  38.002  1.00  0.00    -0.203 F 
ATOM     77  C   UNL A   1      38.704  34.320  39.154  1.00  0.00     0.198 A 
ATOM     78  C   UNL A   1      40.121  35.974  38.147  1.00  0.00     0.198 A 
ATOM     79  F   UNL A   1      41.014  35.610  35.999  1.00  0.00    -0.203 F 
ATOM     80  F   UNL A   1      37.921  33.921  40.164  1.00  0.00    -0.200 F 
ATOM     81  C   UNL A   1      39.334  35.554  39.209  1.00  0.00     0.200 A 
ATOM     82  F   UNL A   1      40.743  37.160  38.205  1.00  0.00    -0.200 F 
ATOM     83  F   UNL A   1      39.177  36.341  40.283  1.00  0.00    -0.200 F 
ENDBRANCH  49  73
BRANCH  61  84
ATOM     84  C   UNL A   1      44.094  28.888  35.111  1.00  0.00     0.064 A 
ATOM     85  C   UNL A   1      45.376  29.414  34.896  1.00  0.00     0.173 A 
ATOM     86  C   UNL A   1      43.961  27.824  36.015  1.00  0.00     0.173 A 
ATOM     87  F   UNL A   1      45.555  30.423  34.030  1.00  0.00    -0.203 F 
ATOM     88  C   UNL A   1      46.486  28.876  35.543  1.00  0.00     0.198 A 
ATOM     89  C   UNL A   1      45.068  27.308  36.681  1.00  0.00     0.198 A 
ATOM     90  F   UNL A   1      42.754  27.291  36.260  1.00  0.00    -0.203 F 
ATOM     91  F   UNL A   1      47.707  29.363  35.288  1.00  0.00    -0.200 F 
ATOM     92  C   UNL A   1      46.330  27.829  36.439  1.00  0.00     0.200 A 
ATOM     93  F   UNL A   1      44.914  26.306  37.558  1.00  0.00    -0.200 F 
ATOM     94  F   UNL A   1      47.398  27.318  37.066  1.00  0.00    -0.200 F 
ENDBRANCH  61  84
ENDBRANCH  35  36
ENDBRANCH  27  30
ENDBRANCH  25  26
ENDBRANCH   1  25
TORSDOF 13
ENDMDL
MODEL 3
REMARK VINA RESULT:     -12.6      5.591     10.766
REMARK SMILES CC1(C)O[C@](C)([C@H](O)C2CCCCC2)CC[C@H]1C(=O)NCCCNC(=O)c1ccc(-c2c3nc(c(-c4c(F)c(F)c(F)c(F)c4F)c4ccc([nH]4)c(-c4c(F)c(F)c(F)c(F)c4F)c4nc(c(-c5c(F)c(F)c(F)c(F)c5F)c5ccc2[nH]5)C=C4)C=C3)cc1
REMARK SMILES IDX 22 1 21 2 20 3 18 4 19 5 17 7 1 8 2 9 3 10 4 11 5 12 16 13
REMARK SMILES IDX 6 14 15 15 7 16 9 17 10 18 14 19 11 20 13 21 12 22 8 23
REMARK SMILES IDX 23 25 24 26 25 27 26 29 27 30 28 31 89 32 29 33 88 34 30 35
REMARK SMILES IDX 31 36 32 37 82 38 33 39 87 40 81 41 83 42 34 43 86 44 80 45
REMARK SMILES IDX 79 46 35 48 67 49 47 50 66 51 48 52 51 53 65 54 84 55 49 56
REMARK SMILES IDX 50 57 64 59 85 60 52 61 36 62 37 63 45 64 38 65 39 66 43 67
REMARK SMILES IDX 46 68 40 69 41 70 44 71 42 72 68 73 69 74 77 75 70 76 71 77
REMARK SMILES IDX 75 78 78 79 72 80 73 81 76 82 74 83 53 84 54 85 62 86 55 87
REMARK SMILES IDX 56 88 60 89 63 90 57 91 58 92 61 93 59 94
REMARK H PARENT 20 6 8 24 24 28 83 47 51 58
REMARK Flexibility Score: inf
ROOT
ATOM      1  C   UNL A   1      31.351  32.336  26.481  1.00  0.00     0.042 C 
ENDROOT
BRANCH   1   2
ATOM      2  C   UNL A   1      31.442  30.863  26.098  1.00  0.00     0.117 C 
BRANCH   2   3
ATOM      3  N   UNL A   1      30.762  30.554  24.852  1.00  0.00    -0.356 N 
ATOM      4  C   UNL A   1      30.902  29.573  23.925  1.00  0.00     0.226 C 
ATOM      5  O   UNL A   1      30.153  29.655  22.943  1.00  0.00    -0.275 OA
ATOM      6  H   UNL A   1      30.048  31.195  24.633  1.00  0.00     0.163 HD
BRANCH   4   7
ATOM      7  C   UNL A   1      31.905  28.418  24.011  1.00  0.00     0.110 C 
ATOM      8  C   UNL A   1      29.890  26.731  24.101  1.00  0.00     0.043 C 
ATOM      9  C   UNL A   1      31.321  27.064  24.515  1.00  0.00     0.075 C 
ATOM     10  C   UNL A   1      31.289  27.110  26.064  1.00  0.00     0.043 C 
ATOM     11  O   UNL A   1      32.119  25.908  24.209  1.00  0.00    -0.366 OA
ATOM     12  C   UNL A   1      32.852  25.830  22.980  1.00  0.00     0.092 C 
ATOM     13  C   UNL A   1      32.897  28.373  22.849  1.00  0.00     0.019 C 
ATOM     14  C   UNL A   1      31.942  25.705  21.749  1.00  0.00     0.045 C 
ATOM     15  C   UNL A   1      33.727  27.093  22.861  1.00  0.00     0.039 C 
BRANCH  12  16
ATOM     16  C   UNL A   1      33.783  24.563  23.122  1.00  0.00     0.149 C 
BRANCH  16  17
ATOM     17  C   UNL A   1      33.717  23.743  24.461  1.00  0.00     0.021 C 
ATOM     18  C   UNL A   1      34.094  22.250  24.454  1.00  0.00     0.006 C 
ATOM     19  C   UNL A   1      34.561  24.405  25.576  1.00  0.00     0.006 C 
ATOM     20  C   UNL A   1      35.573  21.992  24.205  1.00  0.00     0.000 C 
ATOM     21  C   UNL A   1      36.068  24.150  25.467  1.00  0.00     0.000 C 
ATOM     22  C   UNL A   1      36.430  22.681  25.257  1.00  0.00     0.000 C 
ENDBRANCH  16  17
BRANCH  16  23
ATOM     23  O   UNL A   1      33.712  23.727  21.966  1.00  0.00    -0.390 OA
ATOM     24  H   UNL A   1      34.595  23.382  21.762  1.00  0.00     0.211 HD
ENDBRANCH  16  23
ENDBRANCH  12  16
ENDBRANCH   4   7
ENDBRANCH   2   3
ENDBRANCH   1   2
BRANCH   1  25
ATOM     25  C   UNL A   1      32.571  32.860  27.214  1.00  0.00     0.118 C 
BRANCH  25  26
ATOM     26  N   UNL A   1      32.417  34.251  27.595  1.00  0.00    -0.352 N 
ATOM     27  C   UNL A   1      33.000  34.947  28.626  1.00  0.00     0.251 C 
ATOM     28  H   UNL A   1      31.802  34.775  27.031  1.00  0.00     0.163 HD
ATOM     29  O   UNL A   1      32.552  36.046  28.940  1.00  0.00    -0.269 OA
BRANCH  27  30
ATOM     30  C   UNL A   1      34.155  34.387  29.370  1.00  0.00     0.039 A 
ATOM     31  C   UNL A   1      35.442  34.557  28.849  1.00  0.00     0.014 A 
ATOM     32  C   UNL A   1      33.981  33.643  30.540  1.00  0.00     0.014 A 
ATOM     33  C   UNL A   1      36.545  34.009  29.513  1.00  0.00     0.010 A 
ATOM     34  C   UNL A   1      35.085  33.193  31.257  1.00  0.00     0.010 A 
ATOM     35  C   UNL A   1      36.377  33.335  30.733  1.00  0.00    -0.014 A 
BRANCH  35  36
ATOM     36  C   UNL A   1      37.520  32.691  31.432  1.00  0.00     0.031 A 
ATOM     37  C   UNL A   1      38.251  31.552  30.765  1.00  0.00     0.074 A 
ATOM     38  C   UNL A   1      37.875  33.087  32.669  1.00  0.00     0.049 A 
ATOM     39  N   UNL A   1      39.209  30.792  31.232  1.00  0.00    -0.248 NA
ATOM     40  C   UNL A   1      37.822  31.199  29.402  1.00  0.00     0.031 C 
ATOM     41  C   UNL A   1      37.227  34.149  33.438  1.00  0.00     0.029 A 
ATOM     42  N   UNL A   1      38.868  32.635  33.501  1.00  0.00    -0.354 N 
ATOM     43  C   UNL A   1      39.473  29.861  30.234  1.00  0.00     0.074 A 
ATOM     44  C   UNL A   1      38.535  30.110  29.162  1.00  0.00     0.031 C 
ATOM     45  C   UNL A   1      37.857  34.287  34.616  1.00  0.00     0.029 A 
ATOM     46  C   UNL A   1      38.928  33.298  34.702  1.00  0.00     0.049 A 
ATOM     47  H   UNL A   1      39.481  31.902  33.259  1.00  0.00     0.167 HD
ATOM     48  C   UNL A   1      40.432  28.905  30.196  1.00  0.00     0.037 A 
ATOM     49  C   UNL A   1      39.754  33.126  35.751  1.00  0.00     0.037 A 
ATOM     50  C   UNL A   1      41.396  28.690  31.242  1.00  0.00     0.049 A 
ATOM     51  C   UNL A   1      40.822  32.065  35.679  1.00  0.00     0.074 A 
ATOM     52  C   UNL A   1      42.435  27.778  31.284  1.00  0.00     0.029 A 
ATOM     53  N   UNL A   1      41.445  29.409  32.426  1.00  0.00    -0.354 N 
ATOM     54  N   UNL A   1      41.089  31.223  34.711  1.00  0.00    -0.248 NA
ATOM     55  C   UNL A   1      41.708  31.939  36.845  1.00  0.00     0.031 C 
ATOM     56  C   UNL A   1      43.096  27.925  32.509  1.00  0.00     0.029 A 
ATOM     57  C   UNL A   1      42.495  28.959  33.208  1.00  0.00     0.049 A 
ATOM     58  H   UNL A   1      40.825  30.133  32.674  1.00  0.00     0.167 HD
ATOM     59  C   UNL A   1      42.194  30.495  35.132  1.00  0.00     0.074 A 
ATOM     60  C   UNL A   1      42.554  31.002  36.440  1.00  0.00     0.031 C 
ATOM     61  C   UNL A   1      42.852  29.497  34.495  1.00  0.00     0.037 A 
BRANCH  48  62
ATOM     62  C   UNL A   1      40.496  28.033  28.976  1.00  0.00     0.064 A 
ATOM     63  C   UNL A   1      39.744  26.853  28.876  1.00  0.00     0.173 A 
ATOM     64  C   UNL A   1      41.296  28.394  27.881  1.00  0.00     0.173 A 
ATOM     65  F   UNL A   1      38.975  26.454  29.901  1.00  0.00    -0.203 F 
ATOM     66  C   UNL A   1      39.813  26.050  27.740  1.00  0.00     0.198 A 
ATOM     67  C   UNL A   1      41.338  27.607  26.733  1.00  0.00     0.198 A 
ATOM     68  F   UNL A   1      42.032  29.515  27.921  1.00  0.00    -0.203 F 
ATOM     69  F   UNL A   1      39.127  24.901  27.691  1.00  0.00    -0.200 F 
ATOM     70  C   UNL A   1      40.605  26.432  26.667  1.00  0.00     0.200 A 
ATOM     71  F   UNL A   1      42.093  27.982  25.692  1.00  0.00    -0.200 F 
ATOM     72  F   UNL A   1      40.665  25.663  25.571  1.00  0.00    -0.200 F 
ENDBRANCH  48  62
BRANCH  49  73
ATOM     73  C   UNL A   1      39.635  34.000  36.947  1.00  0.00     0.064 A 
ATOM     74  C   UNL A   1      40.309  35.228  37.008  1.00  0.00     0.173 A 
ATOM     75  C   UNL A   1      38.870  33.621  38.060  1.00  0.00     0.173 A 
ATOM     76  F   UNL A   1      41.071  35.625  35.977  1.00  0.00    -0.203 F 
ATOM     77  C   UNL A   1      40.243  36.032  38.144  1.00  0.00     0.198 A 
ATOM     78  C   UNL A   1      38.781  34.439  39.184  1.00  0.00     0.198 A 
ATOM     79  F   UNL A   1      38.202  32.458  38.051  1.00  0.00    -0.203 F 
ATOM     80  F   UNL A   1      40.938  37.176  38.194  1.00  0.00    -0.200 F 
ATOM     81  C   UNL A   1      39.476  35.638  39.230  1.00  0.00     0.200 A 
ATOM     82  F   UNL A   1      38.027  34.063  40.226  1.00  0.00    -0.200 F 
ATOM     83  F   UNL A   1      39.412  36.411  40.323  1.00  0.00    -0.200 F 
ENDBRANCH  49  73
BRANCH  61  84
ATOM     84  C   UNL A   1      44.062  28.926  35.175  1.00  0.00     0.064 A 
ATOM     85  C   UNL A   1      43.969  27.843  36.060  1.00  0.00     0.173 A 
ATOM     86  C   UNL A   1      45.336  29.446  34.900  1.00  0.00     0.173 A 
ATOM     87  F   UNL A   1      42.771  27.321  36.364  1.00  0.00    -0.203 F 
ATOM     88  C   UNL A   1      45.106  27.319  36.669  1.00  0.00     0.198 A 
ATOM     89  C   UNL A   1      46.473  28.901  35.488  1.00  0.00     0.198 A 
ATOM     90  F   UNL A   1      45.478  30.477  34.054  1.00  0.00    -0.203 F 
ATOM     91  F   UNL A   1      44.989  26.315  37.548  1.00  0.00    -0.200 F 
ATOM     92  C   UNL A   1      46.357  27.844  36.378  1.00  0.00     0.200 A 
ATOM     93  F   UNL A   1      47.682  29.400  35.195  1.00  0.00    -0.200 F 
ATOM     94  F   UNL A   1      47.451  27.333  36.959  1.00  0.00    -0.200 F 
ENDBRANCH  61  84
ENDBRANCH  35  36
ENDBRANCH  27  30
ENDBRANCH  25  26
ENDBRANCH   1  25
TORSDOF 13
ENDMDL
