MODEL 1
REMARK VINA RESULT:     -12.4      0.000      0.000
REMARK SMILES [NH3+]C[C@H]1CC[C@@H](C(=O)NCc2ccc(C(=O)NCCCNC(=O)c3ccc(-c4c5nc(c(-c6c(F)c(F)c(F)c(F)c6F)c6ccc([nH]6)c(-c6c(F)c(F)c(F)c(F)c6F)c6nc(c(-c7c(F)c(F)c(F)c(F)c7F)c7ccc4[nH]7)C=C6)C=C5)cc3)cc2)CC1
REMARK SMILES IDX 15 1 16 2 17 3 14 5 11 6 12 7 88 8 13 9 87 10 10 11 9 12
REMARK SMILES IDX 7 13 8 14 6 16 3 17 4 18 90 19 5 20 89 21 2 22 1 23 18 27
REMARK SMILES IDX 19 28 20 29 21 30 22 31 23 33 24 34 25 35 86 36 26 37 85 38
REMARK SMILES IDX 27 39 28 40 29 41 79 42 30 43 84 44 78 45 80 46 31 47 83 48
REMARK SMILES IDX 77 49 76 50 32 52 64 53 44 54 63 55 45 56 48 57 62 58 81 59
REMARK SMILES IDX 46 60 47 61 61 63 82 64 49 65 33 66 34 67 42 68 35 69 36 70
REMARK SMILES IDX 40 71 43 72 37 73 38 74 41 75 39 76 65 77 66 78 74 79 67 80
REMARK SMILES IDX 68 81 72 82 75 83 69 84 70 85 73 86 71 87 50 88 51 89 59 90
REMARK SMILES IDX 52 91 53 92 57 93 60 94 54 95 55 96 58 97 56 98
REMARK H PARENT 17 4 9 15 1 24 1 25 1 26 21 32 80 51 48 62
REMARK Flexibility Score: inf
ROOT
ATOM      1  C   UNL A   1      36.318  22.607  23.609  1.00  0.00     0.251 C 
ATOM      2  O   UNL A   1      36.861  23.316  22.761  1.00  0.00    -0.269 OA
ATOM      3  N   UNL A   1      36.972  21.464  23.985  1.00  0.00    -0.352 N 
ATOM      4  H   UNL A   1      37.811  21.309  23.495  1.00  0.00     0.163 HD
ENDROOT
BRANCH   1   5
ATOM      5  C   UNL A   1      35.022  23.048  24.199  1.00  0.00     0.039 A 
ATOM      6  C   UNL A   1      32.654  24.052  25.385  1.00  0.00    -0.029 A 
ATOM      7  C   UNL A   1      33.906  24.495  25.820  1.00  0.00     0.006 A 
ATOM      8  C   UNL A   1      32.607  23.074  24.379  1.00  0.00     0.006 A 
ATOM      9  C   UNL A   1      35.076  23.992  25.236  1.00  0.00     0.014 A 
ATOM     10  C   UNL A   1      33.772  22.625  23.751  1.00  0.00     0.014 A 
BRANCH   6  11
ATOM     11  C   UNL A   1      31.345  24.613  25.880  1.00  0.00     0.151 C 
BRANCH  11  12
ATOM     12  N   UNL A   1      31.446  25.745  26.767  1.00  0.00    -0.352 N 
ATOM     13  C   UNL A   1      31.382  27.083  26.591  1.00  0.00     0.223 C 
ATOM     14  O   UNL A   1      31.352  27.744  27.638  1.00  0.00    -0.275 OA
ATOM     15  H   UNL A   1      31.592  25.487  27.706  1.00  0.00     0.163 HD
BRANCH  13  16
ATOM     16  C   UNL A   1      31.370  27.830  25.247  1.00  0.00     0.078 C 
ATOM     17  C   UNL A   1      32.041  26.764  22.492  1.00  0.00     0.044 C 
ATOM     18  C   UNL A   1      30.643  26.557  23.096  1.00  0.00     0.010 C 
ATOM     19  C   UNL A   1      33.128  27.095  23.523  1.00  0.00     0.010 C 
ATOM     20  C   UNL A   1      30.271  27.485  24.246  1.00  0.00     0.014 C 
ATOM     21  C   UNL A   1      32.733  28.073  24.612  1.00  0.00     0.014 C 
BRANCH  17  22
ATOM     22  C   UNL A   1      32.498  25.514  21.702  1.00  0.00     0.262 C 
BRANCH  22  23
ATOM     23  N   UNL A   1      32.352  25.621  20.257  1.00  0.00    -0.357 N 
ATOM     24  H   UNL A   1      33.272  25.723  19.829  1.00  0.00     0.344 HD
ATOM     25  H   UNL A   1      31.780  26.435  20.032  1.00  0.00     0.344 HD
ATOM     26  H   UNL A   1      31.901  24.779  19.897  1.00  0.00     0.344 HD
ENDBRANCH  22  23
ENDBRANCH  17  22
ENDBRANCH  13  16
ENDBRANCH  11  12
ENDBRANCH   6  11
ENDBRANCH   1   5
BRANCH   3  27
ATOM     27  C   UNL A   1      36.670  20.435  24.963  1.00  0.00     0.118 C 
BRANCH  27  28
ATOM     28  C   UNL A   1      37.845  19.470  25.114  1.00  0.00     0.042 C 
BRANCH  28  29
ATOM     29  C   UNL A   1      39.076  20.134  25.730  1.00  0.00     0.118 C 
BRANCH  29  30
ATOM     30  N   UNL A   1      40.162  19.179  25.913  1.00  0.00    -0.352 N 
ATOM     31  C   UNL A   1      41.500  19.391  26.111  1.00  0.00     0.251 C 
ATOM     32  H   UNL A   1      39.890  18.233  25.891  1.00  0.00     0.163 HD
ATOM     33  O   UNL A   1      42.285  18.454  26.003  1.00  0.00    -0.269 OA
BRANCH  31  34
ATOM     34  C   UNL A   1      42.005  20.737  26.450  1.00  0.00     0.039 A 
ATOM     35  C   UNL A   1      42.255  21.639  25.411  1.00  0.00     0.014 A 
ATOM     36  C   UNL A   1      42.288  21.092  27.771  1.00  0.00     0.014 A 
ATOM     37  C   UNL A   1      42.747  22.912  25.702  1.00  0.00     0.010 A 
ATOM     38  C   UNL A   1      42.713  22.383  28.067  1.00  0.00     0.010 A 
ATOM     39  C   UNL A   1      42.957  23.301  27.035  1.00  0.00    -0.014 A 
BRANCH  39  40
ATOM     40  C   UNL A   1      43.434  24.665  27.366  1.00  0.00     0.031 A 
ATOM     41  C   UNL A   1      42.486  25.684  27.929  1.00  0.00     0.074 A 
ATOM     42  C   UNL A   1      44.708  25.003  27.090  1.00  0.00     0.049 A 
ATOM     43  N   UNL A   1      42.697  26.943  28.217  1.00  0.00    -0.248 NA
ATOM     44  C   UNL A   1      41.107  25.234  28.172  1.00  0.00     0.031 C 
ATOM     45  C   UNL A   1      45.703  24.115  26.489  1.00  0.00     0.029 A 
ATOM     46  N   UNL A   1      45.375  26.188  27.262  1.00  0.00    -0.354 N 
ATOM     47  C   UNL A   1      41.478  27.438  28.660  1.00  0.00     0.074 A 
ATOM     48  C   UNL A   1      40.519  26.360  28.548  1.00  0.00     0.031 C 
ATOM     49  C   UNL A   1      46.859  24.782  26.353  1.00  0.00     0.029 A 
ATOM     50  C   UNL A   1      46.676  26.152  26.823  1.00  0.00     0.049 A 
ATOM     51  H   UNL A   1      44.963  26.987  27.661  1.00  0.00     0.167 HD
ATOM     52  C   UNL A   1      41.191  28.672  29.138  1.00  0.00     0.037 A 
ATOM     53  C   UNL A   1      47.612  27.118  26.794  1.00  0.00     0.037 A 
ATOM     54  C   UNL A   1      42.156  29.734  29.258  1.00  0.00     0.049 A 
ATOM     55  C   UNL A   1      47.276  28.479  27.335  1.00  0.00     0.074 A 
ATOM     56  C   UNL A   1      41.986  31.001  29.787  1.00  0.00     0.029 A 
ATOM     57  N   UNL A   1      43.474  29.654  28.831  1.00  0.00    -0.354 N 
ATOM     58  N   UNL A   1      46.140  28.917  27.823  1.00  0.00    -0.248 NA
ATOM     59  C   UNL A   1      48.353  29.477  27.331  1.00  0.00     0.031 C 
ATOM     60  C   UNL A   1      43.188  31.703  29.637  1.00  0.00     0.029 A 
ATOM     61  C   UNL A   1      44.124  30.856  29.062  1.00  0.00     0.049 A 
ATOM     62  H   UNL A   1      43.887  28.858  28.424  1.00  0.00     0.167 HD
ATOM     63  C   UNL A   1      46.369  30.232  28.201  1.00  0.00     0.074 A 
ATOM     64  C   UNL A   1      47.758  30.515  27.901  1.00  0.00     0.031 C 
ATOM     65  C   UNL A   1      45.505  31.123  28.749  1.00  0.00     0.037 A 
BRANCH  52  66
ATOM     66  C   UNL A   1      39.772  28.935  29.559  1.00  0.00     0.064 A 
ATOM     67  C   UNL A   1      38.808  29.407  28.653  1.00  0.00     0.173 A 
ATOM     68  C   UNL A   1      39.369  28.715  30.884  1.00  0.00     0.173 A 
ATOM     69  F   UNL A   1      39.143  29.645  27.376  1.00  0.00    -0.203 F 
ATOM     70  C   UNL A   1      37.510  29.692  29.067  1.00  0.00     0.198 A 
ATOM     71  C   UNL A   1      38.059  28.968  31.288  1.00  0.00     0.198 A 
ATOM     72  F   UNL A   1      40.243  28.257  31.791  1.00  0.00    -0.203 F 
ATOM     73  F   UNL A   1      36.629  30.207  28.199  1.00  0.00    -0.200 F 
ATOM     74  C   UNL A   1      37.135  29.470  30.384  1.00  0.00     0.200 A 
ATOM     75  F   UNL A   1      37.695  28.739  32.557  1.00  0.00    -0.200 F 
ATOM     76  F   UNL A   1      35.886  29.747  30.783  1.00  0.00    -0.200 F 
ENDBRANCH  52  66
BRANCH  53  77
ATOM     77  C   UNL A   1      48.961  26.809  26.254  1.00  0.00     0.064 A 
ATOM     78  C   UNL A   1      49.927  26.176  27.046  1.00  0.00     0.173 A 
ATOM     79  C   UNL A   1      49.294  27.100  24.922  1.00  0.00     0.173 A 
ATOM     80  F   UNL A   1      49.659  25.893  28.329  1.00  0.00    -0.203 F 
ATOM     81  C   UNL A   1      51.179  25.852  26.529  1.00  0.00     0.198 A 
ATOM     82  C   UNL A   1      50.538  26.752  24.399  1.00  0.00     0.198 A 
ATOM     83  F   UNL A   1      48.400  27.697  24.121  1.00  0.00    -0.203 F 
ATOM     84  F   UNL A   1      52.095  25.272  27.317  1.00  0.00    -0.200 F 
ATOM     85  C   UNL A   1      51.481  26.132  25.205  1.00  0.00     0.200 A 
ATOM     86  F   UNL A   1      50.817  27.008  23.115  1.00  0.00    -0.200 F 
ATOM     87  F   UNL A   1      52.680  25.805  24.704  1.00  0.00    -0.200 F 
ENDBRANCH  53  77
BRANCH  65  88
ATOM     88  C   UNL A   1      46.044  32.487  29.074  1.00  0.00     0.064 A 
ATOM     89  C   UNL A   1      45.972  33.544  28.157  1.00  0.00     0.173 A 
ATOM     90  C   UNL A   1      46.605  32.746  30.335  1.00  0.00     0.173 A 
ATOM     91  F   UNL A   1      45.460  33.344  26.934  1.00  0.00    -0.203 F 
ATOM     92  C   UNL A   1      46.463  34.807  28.481  1.00  0.00     0.198 A 
ATOM     93  C   UNL A   1      47.067  34.016  30.666  1.00  0.00     0.198 A 
ATOM     94  F   UNL A   1      46.693  31.769  31.250  1.00  0.00    -0.203 F 
ATOM     95  F   UNL A   1      46.426  35.791  27.573  1.00  0.00    -0.200 F 
ATOM     96  C   UNL A   1      47.002  35.044  29.737  1.00  0.00     0.200 A 
ATOM     97  F   UNL A   1      47.575  34.247  31.884  1.00  0.00    -0.200 F 
ATOM     98  F   UNL A   1      47.467  36.261  30.049  1.00  0.00    -0.200 F 
ENDBRANCH  65  88
ENDBRANCH  39  40
ENDBRANCH  31  34
ENDBRANCH  29  30
ENDBRANCH  28  29
ENDBRANCH  27  28
ENDBRANCH   3  27
TORSDOF 15
ENDMDL
MODEL 2
REMARK VINA RESULT:     -12.3      5.262     10.955
REMARK SMILES [NH3+]C[C@H]1CC[C@@H](C(=O)NCc2ccc(C(=O)NCCCNC(=O)c3ccc(-c4c5nc(c(-c6c(F)c(F)c(F)c(F)c6F)c6ccc([nH]6)c(-c6c(F)c(F)c(F)c(F)c6F)c6nc(c(-c7c(F)c(F)c(F)c(F)c7F)c7ccc4[nH]7)C=C6)C=C5)cc3)cc2)CC1
REMARK SMILES IDX 15 1 16 2 17 3 14 5 11 6 12 7 88 8 13 9 87 10 10 11 9 12
REMARK SMILES IDX 7 13 8 14 6 16 3 17 4 18 90 19 5 20 89 21 2 22 1 23 18 27
REMARK SMILES IDX 19 28 20 29 21 30 22 31 23 33 24 34 25 35 86 36 26 37 85 38
REMARK SMILES IDX 27 39 28 40 29 41 79 42 30 43 84 44 78 45 80 46 31 47 83 48
REMARK SMILES IDX 77 49 76 50 32 52 64 53 44 54 63 55 45 56 48 57 62 58 81 59
REMARK SMILES IDX 46 60 47 61 61 63 82 64 49 65 33 66 34 67 42 68 35 69 36 70
REMARK SMILES IDX 40 71 43 72 37 73 38 74 41 75 39 76 65 77 66 78 74 79 67 80
REMARK SMILES IDX 68 81 72 82 75 83 69 84 70 85 73 86 71 87 50 88 51 89 59 90
REMARK SMILES IDX 52 91 53 92 57 93 60 94 54 95 55 96 58 97 56 98
REMARK H PARENT 17 4 9 15 1 24 1 25 1 26 21 32 80 51 48 62
REMARK Flexibility Score: inf
ROOT
ATOM      1  C   UNL A   1      33.415  29.085  26.847  1.00  0.00     0.251 C 
ATOM      2  O   UNL A   1      34.484  28.928  27.439  1.00  0.00    -0.269 OA
ATOM      3  N   UNL A   1      32.825  30.319  26.933  1.00  0.00    -0.352 N 
ATOM      4  H   UNL A   1      33.315  30.953  27.505  1.00  0.00     0.163 HD
ENDROOT
BRANCH   1   5
ATOM      5  C   UNL A   1      32.855  27.957  26.052  1.00  0.00     0.039 A 
ATOM      6  C   UNL A   1      31.940  25.840  24.407  1.00  0.00    -0.029 A 
ATOM      7  C   UNL A   1      32.746  26.851  23.876  1.00  0.00     0.006 A 
ATOM      8  C   UNL A   1      31.568  25.926  25.758  1.00  0.00     0.006 A 
ATOM      9  C   UNL A   1      33.192  27.900  24.691  1.00  0.00     0.014 A 
ATOM     10  C   UNL A   1      32.071  26.935  26.584  1.00  0.00     0.014 A 
BRANCH   6  11
ATOM     11  C   UNL A   1      31.502  24.622  23.634  1.00  0.00     0.151 C 
BRANCH  11  12
ATOM     12  N   UNL A   1      32.057  23.367  24.076  1.00  0.00    -0.352 N 
ATOM     13  C   UNL A   1      33.304  22.951  24.386  1.00  0.00     0.223 C 
ATOM     14  O   UNL A   1      33.365  21.821  24.891  1.00  0.00    -0.275 OA
ATOM     15  H   UNL A   1      31.379  22.659  24.174  1.00  0.00     0.163 HD
BRANCH  13  16
ATOM     16  C   UNL A   1      34.612  23.724  24.150  1.00  0.00     0.078 C 
ATOM     17  C   UNL A   1      37.413  23.013  25.060  1.00  0.00     0.044 C 
ATOM     18  C   UNL A   1      36.821  22.396  23.784  1.00  0.00     0.010 C 
ATOM     19  C   UNL A   1      36.366  23.590  26.023  1.00  0.00     0.010 C 
ATOM     20  C   UNL A   1      35.630  23.130  23.181  1.00  0.00     0.014 C 
ATOM     21  C   UNL A   1      35.233  24.368  25.383  1.00  0.00     0.014 C 
BRANCH  17  22
ATOM     22  C   UNL A   1      38.260  21.979  25.840  1.00  0.00     0.262 C 
BRANCH  22  23
ATOM     23  N   UNL A   1      39.693  22.236  25.833  1.00  0.00    -0.357 N 
ATOM     24  H   UNL A   1      40.150  21.634  26.517  1.00  0.00     0.344 HD
ATOM     25  H   UNL A   1      39.864  23.213  26.072  1.00  0.00     0.344 HD
ATOM     26  H   UNL A   1      40.069  22.042  24.905  1.00  0.00     0.344 HD
ENDBRANCH  22  23
ENDBRANCH  17  22
ENDBRANCH  13  16
ENDBRANCH  11  12
ENDBRANCH   6  11
ENDBRANCH   1   5
BRANCH   3  27
ATOM     27  C   UNL A   1      31.620  30.874  26.347  1.00  0.00     0.118 C 
BRANCH  27  28
ATOM     28  C   UNL A   1      31.413  32.319  26.801  1.00  0.00     0.042 C 
BRANCH  28  29
ATOM     29  C   UNL A   1      32.730  33.043  27.074  1.00  0.00     0.118 C 
BRANCH  29  30
ATOM     30  N   UNL A   1      32.504  34.361  27.655  1.00  0.00    -0.352 N 
ATOM     31  C   UNL A   1      33.044  34.939  28.773  1.00  0.00     0.251 C 
ATOM     32  H   UNL A   1      31.861  34.925  27.165  1.00  0.00     0.163 HD
ATOM     33  O   UNL A   1      32.546  35.963  29.227  1.00  0.00    -0.269 OA
BRANCH  31  34
ATOM     34  C   UNL A   1      34.218  34.337  29.436  1.00  0.00     0.039 A 
ATOM     35  C   UNL A   1      34.016  33.569  30.588  1.00  0.00     0.014 A 
ATOM     36  C   UNL A   1      35.513  34.570  28.967  1.00  0.00     0.014 A 
ATOM     37  C   UNL A   1      35.109  33.002  31.244  1.00  0.00     0.010 A 
ATOM     38  C   UNL A   1      36.596  33.948  29.580  1.00  0.00     0.010 A 
ATOM     39  C   UNL A   1      36.405  33.167  30.730  1.00  0.00    -0.014 A 
BRANCH  39  40
ATOM     40  C   UNL A   1      37.573  32.533  31.386  1.00  0.00     0.031 A 
ATOM     41  C   UNL A   1      38.278  31.381  30.729  1.00  0.00     0.074 A 
ATOM     42  C   UNL A   1      37.951  32.952  32.608  1.00  0.00     0.049 A 
ATOM     43  N   UNL A   1      39.271  30.653  31.174  1.00  0.00    -0.248 NA
ATOM     44  C   UNL A   1      37.779  30.973  29.407  1.00  0.00     0.031 C 
ATOM     45  C   UNL A   1      37.307  34.023  33.367  1.00  0.00     0.029 A 
ATOM     46  N   UNL A   1      38.957  32.515  33.431  1.00  0.00    -0.354 N 
ATOM     47  C   UNL A   1      39.504  29.695  30.197  1.00  0.00     0.074 A 
ATOM     48  C   UNL A   1      38.512  29.898  29.163  1.00  0.00     0.031 C 
ATOM     49  C   UNL A   1      37.939  34.169  34.541  1.00  0.00     0.029 A 
ATOM     50  C   UNL A   1      39.009  33.180  34.631  1.00  0.00     0.049 A 
ATOM     51  H   UNL A   1      39.581  31.795  33.186  1.00  0.00     0.167 HD
ATOM     52  C   UNL A   1      40.472  28.749  30.156  1.00  0.00     0.037 A 
ATOM     53  C   UNL A   1      39.823  33.005  35.688  1.00  0.00     0.037 A 
ATOM     54  C   UNL A   1      41.462  28.564  31.185  1.00  0.00     0.049 A 
ATOM     55  C   UNL A   1      40.895  31.954  35.621  1.00  0.00     0.074 A 
ATOM     56  C   UNL A   1      42.525  27.678  31.214  1.00  0.00     0.029 A 
ATOM     57  N   UNL A   1      41.504  29.277  32.376  1.00  0.00    -0.354 N 
ATOM     58  N   UNL A   1      41.157  31.102  34.659  1.00  0.00    -0.248 NA
ATOM     59  C   UNL A   1      41.790  31.846  36.780  1.00  0.00     0.031 C 
ATOM     60  C   UNL A   1      43.180  27.821  32.443  1.00  0.00     0.029 A 
ATOM     61  C   UNL A   1      42.559  28.834  33.158  1.00  0.00     0.049 A 
ATOM     62  H   UNL A   1      40.877  29.993  32.627  1.00  0.00     0.167 HD
ATOM     63  C   UNL A   1      42.256  30.370  35.087  1.00  0.00     0.074 A 
ATOM     64  C   UNL A   1      42.622  30.891  36.388  1.00  0.00     0.031 C 
ATOM     65  C   UNL A   1      42.903  29.359  34.456  1.00  0.00     0.037 A 
BRANCH  52  66
ATOM     66  C   UNL A   1      40.495  27.839  28.960  1.00  0.00     0.064 A 
ATOM     67  C   UNL A   1      41.275  28.128  27.828  1.00  0.00     0.173 A 
ATOM     68  C   UNL A   1      39.727  26.665  28.941  1.00  0.00     0.173 A 
ATOM     69  F   UNL A   1      42.020  29.242  27.789  1.00  0.00    -0.203 F 
ATOM     70  C   UNL A   1      41.250  27.301  26.708  1.00  0.00     0.198 A 
ATOM     71  C   UNL A   1      39.731  25.822  27.832  1.00  0.00     0.198 A 
ATOM     72  F   UNL A   1      38.969  26.335  29.996  1.00  0.00    -0.203 F 
ATOM     73  F   UNL A   1      41.950  27.635  25.615  1.00  0.00    -0.200 F 
ATOM     74  C   UNL A   1      40.480  26.147  26.711  1.00  0.00     0.200 A 
ATOM     75  F   UNL A   1      38.998  24.701  27.842  1.00  0.00    -0.200 F 
ATOM     76  F   UNL A   1      40.454  25.354  25.631  1.00  0.00    -0.200 F 
ENDBRANCH  52  66
BRANCH  53  77
ATOM     77  C   UNL A   1      39.660  33.871  36.884  1.00  0.00     0.064 A 
ATOM     78  C   UNL A   1      40.261  35.135  36.945  1.00  0.00     0.173 A 
ATOM     79  C   UNL A   1      38.865  33.471  37.968  1.00  0.00     0.173 A 
ATOM     80  F   UNL A   1      41.042  35.554  35.939  1.00  0.00    -0.203 F 
ATOM     81  C   UNL A   1      40.078  35.964  38.050  1.00  0.00     0.198 A 
ATOM     82  C   UNL A   1      38.662  34.312  39.061  1.00  0.00     0.198 A 
ATOM     83  F   UNL A   1      38.262  32.273  37.953  1.00  0.00    -0.203 F 
ATOM     84  F   UNL A   1      40.686  37.158  38.095  1.00  0.00    -0.200 F 
ATOM     85  C   UNL A   1      39.272  35.556  39.102  1.00  0.00     0.200 A 
ATOM     86  F   UNL A   1      37.868  33.920  40.066  1.00  0.00    -0.200 F 
ATOM     87  F   UNL A   1      39.084  36.361  40.156  1.00  0.00    -0.200 F 
ENDBRANCH  53  77
BRANCH  65  88
ATOM     88  C   UNL A   1      44.086  28.759  35.160  1.00  0.00     0.064 A 
ATOM     89  C   UNL A   1      45.381  29.270  34.990  1.00  0.00     0.173 A 
ATOM     90  C   UNL A   1      43.915  27.683  36.046  1.00  0.00     0.173 A 
ATOM     91  F   UNL A   1      45.599  30.286  34.143  1.00  0.00    -0.203 F 
ATOM     92  C   UNL A   1      46.465  28.711  35.663  1.00  0.00     0.198 A 
ATOM     93  C   UNL A   1      44.996  27.146  36.739  1.00  0.00     0.198 A 
ATOM     94  F   UNL A   1      42.695  27.161  36.247  1.00  0.00    -0.203 F 
ATOM     95  F   UNL A   1      47.699  29.184  35.449  1.00  0.00    -0.200 F 
ATOM     96  C   UNL A   1      46.270  27.656  36.542  1.00  0.00     0.200 A 
ATOM     97  F   UNL A   1      44.804  26.137  37.598  1.00  0.00    -0.200 F 
ATOM     98  F   UNL A   1      47.313  27.124  37.194  1.00  0.00    -0.200 F 
ENDBRANCH  65  88
ENDBRANCH  39  40
ENDBRANCH  31  34
ENDBRANCH  29  30
ENDBRANCH  28  29
ENDBRANCH  27  28
ENDBRANCH   3  27
TORSDOF 15
ENDMDL
MODEL 3
REMARK VINA RESULT:     -12.3      5.295     10.968
REMARK SMILES [NH3+]C[C@H]1CC[C@@H](C(=O)NCc2ccc(C(=O)NCCCNC(=O)c3ccc(-c4c5nc(c(-c6c(F)c(F)c(F)c(F)c6F)c6ccc([nH]6)c(-c6c(F)c(F)c(F)c(F)c6F)c6nc(c(-c7c(F)c(F)c(F)c(F)c7F)c7ccc4[nH]7)C=C6)C=C5)cc3)cc2)CC1
REMARK SMILES IDX 15 1 16 2 17 3 14 5 11 6 12 7 88 8 13 9 87 10 10 11 9 12
REMARK SMILES IDX 7 13 8 14 6 16 3 17 4 18 90 19 5 20 89 21 2 22 1 23 18 27
REMARK SMILES IDX 19 28 20 29 21 30 22 31 23 33 24 34 25 35 86 36 26 37 85 38
REMARK SMILES IDX 27 39 28 40 29 41 79 42 30 43 84 44 78 45 80 46 31 47 83 48
REMARK SMILES IDX 77 49 76 50 32 52 64 53 44 54 63 55 45 56 48 57 62 58 81 59
REMARK SMILES IDX 46 60 47 61 61 63 82 64 49 65 33 66 34 67 42 68 35 69 36 70
REMARK SMILES IDX 40 71 43 72 37 73 38 74 41 75 39 76 65 77 66 78 74 79 67 80
REMARK SMILES IDX 68 81 72 82 75 83 69 84 70 85 73 86 71 87 50 88 51 89 59 90
REMARK SMILES IDX 52 91 53 92 57 93 60 94 54 95 55 96 58 97 56 98
REMARK H PARENT 17 4 9 15 1 24 1 25 1 26 21 32 80 51 48 62
REMARK Flexibility Score: inf
ROOT
ATOM      1  C   UNL A   1      31.180  29.372  24.194  1.00  0.00     0.251 C 
ATOM      2  O   UNL A   1      30.557  29.334  23.132  1.00  0.00    -0.269 OA
ATOM      3  N   UNL A   1      30.975  30.460  25.002  1.00  0.00    -0.352 N 
ATOM      4  H   UNL A   1      30.364  31.129  24.618  1.00  0.00     0.163 HD
ENDROOT
BRANCH   1   5
ATOM      5  C   UNL A   1      32.072  28.235  24.552  1.00  0.00     0.039 A 
ATOM      6  C   UNL A   1      33.623  26.005  25.357  1.00  0.00    -0.029 A 
ATOM      7  C   UNL A   1      32.583  26.472  26.165  1.00  0.00     0.006 A 
ATOM      8  C   UNL A   1      33.899  26.693  24.164  1.00  0.00     0.006 A 
ATOM      9  C   UNL A   1      31.822  27.578  25.768  1.00  0.00     0.014 A 
ATOM     10  C   UNL A   1      33.094  27.753  23.737  1.00  0.00     0.014 A 
BRANCH   6  11
ATOM     11  C   UNL A   1      34.423  24.762  25.652  1.00  0.00     0.151 C 
BRANCH  11  12
ATOM     12  N   UNL A   1      35.094  24.166  24.524  1.00  0.00    -0.352 N 
ATOM     13  C   UNL A   1      34.712  23.309  23.552  1.00  0.00     0.223 C 
ATOM     14  O   UNL A   1      35.542  23.149  22.646  1.00  0.00    -0.275 OA
ATOM     15  H   UNL A   1      36.035  24.446  24.443  1.00  0.00     0.163 HD
BRANCH  13  16
ATOM     16  C   UNL A   1      33.393  22.522  23.492  1.00  0.00     0.078 C 
ATOM     17  C   UNL A   1      31.076  22.574  25.442  1.00  0.00     0.044 C 
ATOM     18  C   UNL A   1      31.206  23.644  24.348  1.00  0.00     0.010 C 
ATOM     19  C   UNL A   1      32.380  21.826  25.749  1.00  0.00     0.010 C 
ATOM     20  C   UNL A   1      32.114  23.291  23.176  1.00  0.00     0.014 C 
ATOM     21  C   UNL A   1      33.220  21.437  24.548  1.00  0.00     0.014 C 
BRANCH  17  22
ATOM     22  C   UNL A   1      30.555  23.188  26.765  1.00  0.00     0.262 C 
BRANCH  22  23
ATOM     23  N   UNL A   1      29.686  24.344  26.599  1.00  0.00    -0.357 N 
ATOM     24  H   UNL A   1      28.712  24.043  26.625  1.00  0.00     0.344 HD
ATOM     25  H   UNL A   1      29.881  24.790  25.702  1.00  0.00     0.344 HD
ATOM     26  H   UNL A   1      29.856  25.009  27.353  1.00  0.00     0.344 HD
ENDBRANCH  22  23
ENDBRANCH  17  22
ENDBRANCH  13  16
ENDBRANCH  11  12
ENDBRANCH   6  11
ENDBRANCH   1   5
BRANCH   3  27
ATOM     27  C   UNL A   1      31.485  30.819  26.313  1.00  0.00     0.118 C 
BRANCH  27  28
ATOM     28  C   UNL A   1      31.409  32.331  26.527  1.00  0.00     0.042 C 
BRANCH  28  29
ATOM     29  C   UNL A   1      32.695  32.906  27.117  1.00  0.00     0.118 C 
BRANCH  29  30
ATOM     30  N   UNL A   1      32.491  34.258  27.623  1.00  0.00    -0.352 N 
ATOM     31  C   UNL A   1      33.049  34.890  28.703  1.00  0.00     0.251 C 
ATOM     32  H   UNL A   1      31.853  34.802  27.107  1.00  0.00     0.163 HD
ATOM     33  O   UNL A   1      32.568  35.946  29.102  1.00  0.00    -0.269 OA
BRANCH  31  34
ATOM     34  C   UNL A   1      34.219  34.310  29.391  1.00  0.00     0.039 A 
ATOM     35  C   UNL A   1      34.012  33.589  30.571  1.00  0.00     0.014 A 
ATOM     36  C   UNL A   1      35.516  34.520  28.915  1.00  0.00     0.014 A 
ATOM     37  C   UNL A   1      35.102  33.043  31.251  1.00  0.00     0.010 A 
ATOM     38  C   UNL A   1      36.595  33.917  29.554  1.00  0.00     0.010 A 
ATOM     39  C   UNL A   1      36.400  33.183  30.733  1.00  0.00    -0.014 A 
BRANCH  39  40
ATOM     40  C   UNL A   1      37.565  32.570  31.414  1.00  0.00     0.031 A 
ATOM     41  C   UNL A   1      38.294  31.420  30.782  1.00  0.00     0.074 A 
ATOM     42  C   UNL A   1      37.917  33.006  32.639  1.00  0.00     0.049 A 
ATOM     43  N   UNL A   1      39.288  30.709  31.251  1.00  0.00    -0.248 NA
ATOM     44  C   UNL A   1      37.822  30.993  29.456  1.00  0.00     0.031 C 
ATOM     45  C   UNL A   1      37.246  34.077  33.376  1.00  0.00     0.029 A 
ATOM     46  N   UNL A   1      38.913  32.590  33.483  1.00  0.00    -0.354 N 
ATOM     47  C   UNL A   1      39.549  29.745  30.288  1.00  0.00     0.074 A 
ATOM     48  C   UNL A   1      38.573  29.924  29.235  1.00  0.00     0.031 C 
ATOM     49  C   UNL A   1      37.857  34.242  34.559  1.00  0.00     0.029 A 
ATOM     50  C   UNL A   1      38.937  33.268  34.677  1.00  0.00     0.049 A 
ATOM     51  H   UNL A   1      39.551  31.875  33.256  1.00  0.00     0.167 HD
ATOM     52  C   UNL A   1      40.530  28.810  30.273  1.00  0.00     0.037 A 
ATOM     53  C   UNL A   1      39.735  33.114  35.749  1.00  0.00     0.037 A 
ATOM     54  C   UNL A   1      41.505  28.649  31.320  1.00  0.00     0.049 A 
ATOM     55  C   UNL A   1      40.820  32.076  35.711  1.00  0.00     0.074 A 
ATOM     56  C   UNL A   1      42.577  27.776  31.376  1.00  0.00     0.029 A 
ATOM     57  N   UNL A   1      41.518  29.373  32.504  1.00  0.00    -0.354 N 
ATOM     58  N   UNL A   1      41.110  31.217  34.762  1.00  0.00    -0.248 NA
ATOM     59  C   UNL A   1      41.697  31.991  36.886  1.00  0.00     0.031 C 
ATOM     60  C   UNL A   1      43.210  27.940  32.614  1.00  0.00     0.029 A 
ATOM     61  C   UNL A   1      42.564  28.952  33.309  1.00  0.00     0.049 A 
ATOM     62  H   UNL A   1      40.877  30.084  32.737  1.00  0.00     0.167 HD
ATOM     63  C   UNL A   1      42.210  30.503  35.216  1.00  0.00     0.074 A 
ATOM     64  C   UNL A   1      42.547  31.042  36.518  1.00  0.00     0.031 C 
ATOM     65  C   UNL A   1      42.881  29.494  34.607  1.00  0.00     0.037 A 
BRANCH  52  66
ATOM     66  C   UNL A   1      40.584  27.889  29.087  1.00  0.00     0.064 A 
ATOM     67  C   UNL A   1      41.416  28.151  27.986  1.00  0.00     0.173 A 
ATOM     68  C   UNL A   1      39.795  26.730  29.046  1.00  0.00     0.173 A 
ATOM     69  F   UNL A   1      42.184  29.251  27.968  1.00  0.00    -0.203 F 
ATOM     70  C   UNL A   1      41.421  27.315  26.873  1.00  0.00     0.198 A 
ATOM     71  C   UNL A   1      39.828  25.876  27.946  1.00  0.00     0.198 A 
ATOM     72  F   UNL A   1      38.987  26.424  30.072  1.00  0.00    -0.203 F 
ATOM     73  F   UNL A   1      42.172  27.625  25.807  1.00  0.00    -0.200 F 
ATOM     74  C   UNL A   1      40.629  26.176  26.854  1.00  0.00     0.200 A 
ATOM     75  F   UNL A   1      39.073  24.769  27.935  1.00  0.00    -0.200 F 
ATOM     76  F   UNL A   1      40.632  25.373  25.781  1.00  0.00    -0.200 F 
ENDBRANCH  52  66
BRANCH  53  77
ATOM     77  C   UNL A   1      39.541  33.990  36.933  1.00  0.00     0.064 A 
ATOM     78  C   UNL A   1      38.797  33.554  38.037  1.00  0.00     0.173 A 
ATOM     79  C   UNL A   1      40.133  35.260  37.002  1.00  0.00     0.173 A 
ATOM     80  F   UNL A   1      38.200  32.354  38.010  1.00  0.00    -0.203 F 
ATOM     81  C   UNL A   1      38.646  34.359  39.164  1.00  0.00     0.198 A 
ATOM     82  C   UNL A   1      40.003  36.053  38.140  1.00  0.00     0.198 A 
ATOM     83  F   UNL A   1      40.863  35.718  35.975  1.00  0.00    -0.203 F 
ATOM     84  F   UNL A   1      37.906  33.930  40.195  1.00  0.00    -0.200 F 
ATOM     85  C   UNL A   1      39.256  35.604  39.219  1.00  0.00     0.200 A 
ATOM     86  F   UNL A   1      40.609  37.246  38.195  1.00  0.00    -0.200 F 
ATOM     87  F   UNL A   1      39.123  36.370  40.309  1.00  0.00    -0.200 F 
ENDBRANCH  53  77
BRANCH  65  88
ATOM     88  C   UNL A   1      44.059  28.916  35.337  1.00  0.00     0.064 A 
ATOM     89  C   UNL A   1      43.914  27.862  36.250  1.00  0.00     0.173 A 
ATOM     90  C   UNL A   1      45.354  29.400  35.090  1.00  0.00     0.173 A 
ATOM     91  F   UNL A   1      42.696  27.376  36.531  1.00  0.00    -0.203 F 
ATOM     92  C   UNL A   1      45.019  27.327  36.907  1.00  0.00     0.198 A 
ATOM     93  C   UNL A   1      46.459  28.844  35.727  1.00  0.00     0.198 A 
ATOM     94  F   UNL A   1      45.546  30.404  34.222  1.00  0.00    -0.203 F 
ATOM     95  F   UNL A   1      44.852  26.352  37.810  1.00  0.00    -0.200 F 
ATOM     96  C   UNL A   1      46.291  27.813  36.639  1.00  0.00     0.200 A 
ATOM     97  F   UNL A   1      47.688  29.304  35.457  1.00  0.00    -0.200 F 
ATOM     98  F   UNL A   1      47.354  27.293  37.267  1.00  0.00    -0.200 F 
ENDBRANCH  65  88
ENDBRANCH  39  40
ENDBRANCH  31  34
ENDBRANCH  29  30
ENDBRANCH  28  29
ENDBRANCH  27  28
ENDBRANCH   3  27
TORSDOF 15
ENDMDL
