MODEL 1
REMARK VINA RESULT:     -12.6      0.000      0.000
REMARK SMILES COc1ccc(F)cc1[C@H](C)NC(=O)[C@H]1CC=CC[C@@H]1C(=O)NCCCNC(=O)c1ccc(-c2c3nc(c(-c4c(F)c(F)c(F)c(F)c4F)c4ccc([nH]4)c(-c4c(F)c(F)c(F)c(F)c4F)c4nc(c(-c5c(F)c(F)c(F)c(F)c5F)c5ccc2[nH]5)C=C4)C=C3)cc1
REMARK SMILES IDX 24 1 23 2 21 3 22 4 20 6 15 7 16 8 17 9 19 10 18 11 13 12
REMARK SMILES IDX 12 13 14 15 10 16 11 17 9 18 3 19 4 20 5 21 8 22 6 23 7 24
REMARK SMILES IDX 2 25 1 26 25 27 26 28 27 29 28 30 29 32 30 33 31 34 92 35
REMARK SMILES IDX 32 36 91 37 33 38 34 39 35 40 85 41 36 42 90 43 84 44 86 45
REMARK SMILES IDX 37 46 89 47 83 48 82 49 38 51 70 52 50 53 69 54 51 55 54 56
REMARK SMILES IDX 68 57 87 58 52 59 53 60 67 62 88 63 55 64 39 65 40 66 48 67
REMARK SMILES IDX 41 68 42 69 46 70 49 71 43 72 44 73 47 74 45 75 71 76 72 77
REMARK SMILES IDX 80 78 73 79 74 80 78 81 81 82 75 83 76 84 79 85 77 86 56 87
REMARK SMILES IDX 57 88 65 89 58 90 59 91 63 92 66 93 60 94 61 95 64 96 62 97
REMARK H PARENT 23 5 12 14 27 31 86 50 54 61
REMARK Flexibility Score: inf
ROOT
ATOM      1  C   UNL A   1      31.452  30.616  26.819  1.00  0.00     0.117 C 
ENDROOT
BRANCH   1   2
ATOM      2  N   UNL A   1      32.783  30.041  26.737  1.00  0.00    -0.356 N 
ATOM      3  C   UNL A   1      33.234  28.965  26.029  1.00  0.00     0.224 C 
ATOM      4  O   UNL A   1      34.433  28.699  26.101  1.00  0.00    -0.275 OA
ATOM      5  H   UNL A   1      33.468  30.501  27.275  1.00  0.00     0.163 HD
BRANCH   3   6
ATOM      6  C   UNL A   1      32.239  28.122  25.242  1.00  0.00     0.095 C 
ATOM      7  C   UNL A   1      32.857  26.733  24.988  1.00  0.00     0.095 C 
ATOM      8  C   UNL A   1      33.792  26.672  23.767  1.00  0.00     0.041 C 
ATOM      9  C   UNL A   1      33.483  27.632  22.660  1.00  0.00    -0.030 C 
ATOM     10  C   UNL A   1      31.752  28.849  23.981  1.00  0.00     0.041 C 
ATOM     11  C   UNL A   1      32.564  28.599  22.751  1.00  0.00    -0.030 C 
BRANCH   7  12
ATOM     12  C   UNL A   1      31.760  25.679  24.898  1.00  0.00     0.224 C 
ATOM     13  N   UNL A   1      31.921  24.484  25.531  1.00  0.00    -0.349 N 
ATOM     14  H   UNL A   1      31.171  23.857  25.411  1.00  0.00     0.164 HD
ATOM     15  O   UNL A   1      30.715  25.869  24.276  1.00  0.00    -0.275 OA
BRANCH  13  16
ATOM     16  C   UNL A   1      33.008  23.970  26.354  1.00  0.00     0.113 C 
ATOM     17  C   UNL A   1      32.534  22.816  27.244  1.00  0.00     0.036 C 
BRANCH  16  18
ATOM     18  C   UNL A   1      34.177  23.561  25.477  1.00  0.00     0.019 A 
ATOM     19  C   UNL A   1      34.011  22.776  24.316  1.00  0.00     0.124 A 
ATOM     20  C   UNL A   1      35.106  22.469  23.501  1.00  0.00     0.050 A 
ATOM     21  C   UNL A   1      36.381  22.906  23.855  1.00  0.00     0.043 A 
ATOM     22  C   UNL A   1      35.472  23.984  25.821  1.00  0.00     0.049 A 
ATOM     23  C   UNL A   1      36.553  23.653  25.013  1.00  0.00     0.123 A 
ATOM     24  F   UNL A   1      37.778  24.078  25.349  1.00  0.00    -0.207 F 
BRANCH  19  25
ATOM     25  O   UNL A   1      32.731  22.420  23.968  1.00  0.00    -0.496 OA
ATOM     26  C   UNL A   1      32.520  21.011  23.906  1.00  0.00     0.278 C 
ENDBRANCH  19  25
ENDBRANCH  16  18
ENDBRANCH  13  16
ENDBRANCH   7  12
ENDBRANCH   3   6
ENDBRANCH   1   2
BRANCH   1  27
ATOM     27  C   UNL A   1      31.469  32.129  26.651  1.00  0.00     0.042 C 
BRANCH  27  28
ATOM     28  C   UNL A   1      32.686  32.821  27.252  1.00  0.00     0.118 C 
BRANCH  28  29
ATOM     29  N   UNL A   1      32.429  34.203  27.626  1.00  0.00    -0.352 N 
ATOM     30  C   UNL A   1      33.000  34.975  28.607  1.00  0.00     0.251 C 
ATOM     31  H   UNL A   1      31.738  34.656  27.092  1.00  0.00     0.163 HD
ATOM     32  O   UNL A   1      32.528  36.080  28.867  1.00  0.00    -0.269 OA
BRANCH  30  33
ATOM     33  C   UNL A   1      34.158  34.474  29.377  1.00  0.00     0.039 A 
ATOM     34  C   UNL A   1      33.936  33.898  30.631  1.00  0.00     0.014 A 
ATOM     35  C   UNL A   1      35.459  34.573  28.876  1.00  0.00     0.014 A 
ATOM     36  C   UNL A   1      35.005  33.353  31.345  1.00  0.00     0.010 A 
ATOM     37  C   UNL A   1      36.509  33.953  29.546  1.00  0.00     0.010 A 
ATOM     38  C   UNL A   1      36.294  33.335  30.787  1.00  0.00    -0.014 A 
BRANCH  38  39
ATOM     39  C   UNL A   1      37.427  32.667  31.478  1.00  0.00     0.031 A 
ATOM     40  C   UNL A   1      38.120  31.496  30.841  1.00  0.00     0.074 A 
ATOM     41  C   UNL A   1      37.790  33.077  32.711  1.00  0.00     0.049 A 
ATOM     42  N   UNL A   1      39.069  30.734  31.324  1.00  0.00    -0.248 NA
ATOM     43  C   UNL A   1      37.674  31.115  29.491  1.00  0.00     0.031 C 
ATOM     44  C   UNL A   1      37.173  34.179  33.449  1.00  0.00     0.029 A 
ATOM     45  N   UNL A   1      38.761  32.610  33.562  1.00  0.00    -0.354 N 
ATOM     46  C   UNL A   1      39.325  29.784  30.344  1.00  0.00     0.074 A 
ATOM     47  C   UNL A   1      38.393  30.025  29.265  1.00  0.00     0.031 C 
ATOM     48  C   UNL A   1      37.801  34.325  34.626  1.00  0.00     0.029 A 
ATOM     49  C   UNL A   1      38.831  33.297  34.750  1.00  0.00     0.049 A 
ATOM     50  H   UNL A   1      39.352  31.854  33.342  1.00  0.00     0.167 HD
ATOM     51  C   UNL A   1      40.272  28.817  30.335  1.00  0.00     0.037 A 
ATOM     52  C   UNL A   1      39.627  33.116  35.821  1.00  0.00     0.037 A 
ATOM     53  C   UNL A   1      41.212  28.594  31.401  1.00  0.00     0.049 A 
ATOM     54  C   UNL A   1      40.646  32.009  35.801  1.00  0.00     0.074 A 
ATOM     55  C   UNL A   1      42.237  27.667  31.463  1.00  0.00     0.029 A 
ATOM     56  N   UNL A   1      41.243  29.305  32.592  1.00  0.00    -0.354 N 
ATOM     57  N   UNL A   1      40.911  31.148  34.850  1.00  0.00    -0.248 NA
ATOM     58  C   UNL A   1      41.479  31.849  37.001  1.00  0.00     0.031 C 
ATOM     59  C   UNL A   1      42.853  27.779  32.711  1.00  0.00     0.029 A 
ATOM     60  C   UNL A   1      42.253  28.819  33.405  1.00  0.00     0.049 A 
ATOM     61  H   UNL A   1      40.636  30.045  32.824  1.00  0.00     0.167 HD
ATOM     62  C   UNL A   1      41.953  30.363  35.322  1.00  0.00     0.074 A 
ATOM     63  C   UNL A   1      42.283  30.857  36.643  1.00  0.00     0.031 C 
ATOM     64  C   UNL A   1      42.579  29.326  34.715  1.00  0.00     0.037 A 
BRANCH  51  65
ATOM     65  C   UNL A   1      40.356  27.928  29.127  1.00  0.00     0.064 A 
ATOM     66  C   UNL A   1      41.109  28.314  28.007  1.00  0.00     0.173 A 
ATOM     67  C   UNL A   1      39.631  26.729  29.047  1.00  0.00     0.173 A 
ATOM     68  F   UNL A   1      41.818  29.453  28.028  1.00  0.00    -0.203 F 
ATOM     69  C   UNL A   1      41.119  27.541  26.849  1.00  0.00     0.198 A 
ATOM     70  C   UNL A   1      39.668  25.944  27.899  1.00  0.00     0.198 A 
ATOM     71  F   UNL A   1      38.903  26.310  30.094  1.00  0.00    -0.203 F 
ATOM     72  F   UNL A   1      41.815  27.950  25.778  1.00  0.00    -0.200 F 
ATOM     73  C   UNL A   1      40.402  26.355  26.797  1.00  0.00     0.200 A 
ATOM     74  F   UNL A   1      38.995  24.785  27.860  1.00  0.00    -0.200 F 
ATOM     75  F   UNL A   1      40.420  25.608  25.685  1.00  0.00    -0.200 F 
ENDBRANCH  51  65
BRANCH  52  76
ATOM     76  C   UNL A   1      39.509  34.031  36.987  1.00  0.00     0.064 A 
ATOM     77  C   UNL A   1      40.208  35.246  37.041  1.00  0.00     0.173 A 
ATOM     78  C   UNL A   1      38.714  33.686  38.089  1.00  0.00     0.173 A 
ATOM     79  F   UNL A   1      40.988  35.619  36.015  1.00  0.00    -0.203 F 
ATOM     80  C   UNL A   1      40.136  36.068  38.163  1.00  0.00     0.198 A 
ATOM     81  C   UNL A   1      38.619  34.524  39.198  1.00  0.00     0.198 A 
ATOM     82  F   UNL A   1      38.011  32.544  38.077  1.00  0.00    -0.203 F 
ATOM     83  F   UNL A   1      40.849  37.203  38.207  1.00  0.00    -0.200 F 
ATOM     84  C   UNL A   1      39.338  35.710  39.239  1.00  0.00     0.200 A 
ATOM     85  F   UNL A   1      37.830  34.185  40.226  1.00  0.00    -0.200 F 
ATOM     86  F   UNL A   1      39.262  36.506  40.314  1.00  0.00    -0.200 F 
ENDBRANCH  52  76
BRANCH  64  87
ATOM     87  C   UNL A   1      43.707  28.658  35.449  1.00  0.00     0.064 A 
ATOM     88  C   UNL A   1      43.444  27.634  36.372  1.00  0.00     0.173 A 
ATOM     89  C   UNL A   1      45.032  29.095  35.312  1.00  0.00     0.173 A 
ATOM     90  F   UNL A   1      42.192  27.187  36.547  1.00  0.00    -0.203 F 
ATOM     91  C   UNL A   1      44.463  27.088  37.147  1.00  0.00     0.198 A 
ATOM     92  C   UNL A   1      46.054  28.524  36.066  1.00  0.00     0.198 A 
ATOM     93  F   UNL A   1      45.337  30.062  34.434  1.00  0.00    -0.203 F 
ATOM     94  F   UNL A   1      44.180  26.143  38.054  1.00  0.00    -0.200 F 
ATOM     95  C   UNL A   1      45.767  27.531  36.991  1.00  0.00     0.200 A 
ATOM     96  F   UNL A   1      47.318  28.936  35.897  1.00  0.00    -0.200 F 
ATOM     97  F   UNL A   1      46.750  27.002  37.734  1.00  0.00    -0.200 F 
ENDBRANCH  64  87
ENDBRANCH  38  39
ENDBRANCH  30  33
ENDBRANCH  28  29
ENDBRANCH  27  28
ENDBRANCH   1  27
TORSDOF 14
ENDMDL
MODEL 2
REMARK VINA RESULT:     -12.6      0.185      1.577
REMARK SMILES COc1ccc(F)cc1[C@H](C)NC(=O)[C@H]1CC=CC[C@@H]1C(=O)NCCCNC(=O)c1ccc(-c2c3nc(c(-c4c(F)c(F)c(F)c(F)c4F)c4ccc([nH]4)c(-c4c(F)c(F)c(F)c(F)c4F)c4nc(c(-c5c(F)c(F)c(F)c(F)c5F)c5ccc2[nH]5)C=C4)C=C3)cc1
REMARK SMILES IDX 24 1 23 2 21 3 22 4 20 6 15 7 16 8 17 9 19 10 18 11 13 12
REMARK SMILES IDX 12 13 14 15 10 16 11 17 9 18 3 19 4 20 5 21 8 22 6 23 7 24
REMARK SMILES IDX 2 25 1 26 25 27 26 28 27 29 28 30 29 32 30 33 31 34 92 35
REMARK SMILES IDX 32 36 91 37 33 38 34 39 35 40 85 41 36 42 90 43 84 44 86 45
REMARK SMILES IDX 37 46 89 47 83 48 82 49 38 51 70 52 50 53 69 54 51 55 54 56
REMARK SMILES IDX 68 57 87 58 52 59 53 60 67 62 88 63 55 64 39 65 40 66 48 67
REMARK SMILES IDX 41 68 42 69 46 70 49 71 43 72 44 73 47 74 45 75 71 76 72 77
REMARK SMILES IDX 80 78 73 79 74 80 78 81 81 82 75 83 76 84 79 85 77 86 56 87
REMARK SMILES IDX 57 88 65 89 58 90 59 91 63 92 66 93 60 94 61 95 64 96 62 97
REMARK H PARENT 23 5 12 14 27 31 86 50 54 61
REMARK Flexibility Score: inf
ROOT
ATOM      1  C   UNL A   1      31.428  30.636  26.819  1.00  0.00     0.117 C 
ENDROOT
BRANCH   1   2
ATOM      2  N   UNL A   1      32.760  30.061  26.750  1.00  0.00    -0.356 N 
ATOM      3  C   UNL A   1      33.221  28.990  26.039  1.00  0.00     0.224 C 
ATOM      4  O   UNL A   1      34.418  28.723  26.126  1.00  0.00    -0.275 OA
ATOM      5  H   UNL A   1      33.437  30.515  27.302  1.00  0.00     0.163 HD
BRANCH   3   6
ATOM      6  C   UNL A   1      32.236  28.156  25.231  1.00  0.00     0.095 C 
ATOM      7  C   UNL A   1      32.867  26.778  24.951  1.00  0.00     0.095 C 
ATOM      8  C   UNL A   1      33.808  26.749  23.733  1.00  0.00     0.041 C 
ATOM      9  C   UNL A   1      33.496  27.730  22.645  1.00  0.00    -0.030 C 
ATOM     10  C   UNL A   1      31.748  28.904  23.982  1.00  0.00     0.041 C 
ATOM     11  C   UNL A   1      32.568  28.687  22.751  1.00  0.00    -0.030 C 
BRANCH   7  12
ATOM     12  C   UNL A   1      31.780  25.716  24.834  1.00  0.00     0.224 C 
ATOM     13  N   UNL A   1      31.933  24.521  25.469  1.00  0.00    -0.349 N 
ATOM     14  H   UNL A   1      31.191  23.890  25.331  1.00  0.00     0.164 HD
ATOM     15  O   UNL A   1      30.748  25.900  24.188  1.00  0.00    -0.275 OA
BRANCH  13  16
ATOM     16  C   UNL A   1      33.005  24.015  26.318  1.00  0.00     0.113 C 
ATOM     17  C   UNL A   1      32.497  22.909  27.252  1.00  0.00     0.036 C 
BRANCH  16  18
ATOM     18  C   UNL A   1      34.166  23.541  25.463  1.00  0.00     0.019 A 
ATOM     19  C   UNL A   1      33.992  22.654  24.379  1.00  0.00     0.124 A 
ATOM     20  C   UNL A   1      35.079  22.286  23.579  1.00  0.00     0.050 A 
ATOM     21  C   UNL A   1      36.355  22.766  23.874  1.00  0.00     0.043 A 
ATOM     22  C   UNL A   1      35.461  24.004  25.750  1.00  0.00     0.049 A 
ATOM     23  C   UNL A   1      36.534  23.614  24.959  1.00  0.00     0.123 A 
ATOM     24  F   UNL A   1      37.759  24.078  25.238  1.00  0.00    -0.207 F 
BRANCH  19  25
ATOM     25  O   UNL A   1      32.712  22.257  24.082  1.00  0.00    -0.496 OA
ATOM     26  C   UNL A   1      32.572  20.850  23.897  1.00  0.00     0.278 C 
ENDBRANCH  19  25
ENDBRANCH  16  18
ENDBRANCH  13  16
ENDBRANCH   7  12
ENDBRANCH   3   6
ENDBRANCH   1   2
BRANCH   1  27
ATOM     27  C   UNL A   1      31.449  32.150  26.658  1.00  0.00     0.042 C 
BRANCH  27  28
ATOM     28  C   UNL A   1      32.673  32.835  27.251  1.00  0.00     0.118 C 
BRANCH  28  29
ATOM     29  N   UNL A   1      32.424  34.216  27.634  1.00  0.00    -0.352 N 
ATOM     30  C   UNL A   1      33.004  34.980  28.616  1.00  0.00     0.251 C 
ATOM     31  H   UNL A   1      31.730  34.675  27.108  1.00  0.00     0.163 HD
ATOM     32  O   UNL A   1      32.538  36.085  28.885  1.00  0.00    -0.269 OA
BRANCH  30  33
ATOM     33  C   UNL A   1      34.166  34.471  29.375  1.00  0.00     0.039 A 
ATOM     34  C   UNL A   1      33.948  33.877  30.622  1.00  0.00     0.014 A 
ATOM     35  C   UNL A   1      35.465  34.578  28.871  1.00  0.00     0.014 A 
ATOM     36  C   UNL A   1      35.021  33.325  31.325  1.00  0.00     0.010 A 
ATOM     37  C   UNL A   1      36.518  33.950  29.530  1.00  0.00     0.010 A 
ATOM     38  C   UNL A   1      36.307  33.316  30.763  1.00  0.00    -0.014 A 
BRANCH  38  39
ATOM     39  C   UNL A   1      37.444  32.641  31.441  1.00  0.00     0.031 A 
ATOM     40  C   UNL A   1      38.135  31.478  30.787  1.00  0.00     0.074 A 
ATOM     41  C   UNL A   1      37.812  33.035  32.677  1.00  0.00     0.049 A 
ATOM     42  N   UNL A   1      39.086  30.711  31.256  1.00  0.00    -0.248 NA
ATOM     43  C   UNL A   1      37.683  31.112  29.434  1.00  0.00     0.031 C 
ATOM     44  C   UNL A   1      37.198  34.129  33.431  1.00  0.00     0.029 A 
ATOM     45  N   UNL A   1      38.787  32.559  33.518  1.00  0.00    -0.354 N 
ATOM     46  C   UNL A   1      39.339  29.773  30.264  1.00  0.00     0.074 A 
ATOM     47  C   UNL A   1      38.402  30.026  29.193  1.00  0.00     0.031 C 
ATOM     48  C   UNL A   1      37.830  34.261  34.607  1.00  0.00     0.029 A 
ATOM     49  C   UNL A   1      38.862  33.232  34.714  1.00  0.00     0.049 A 
ATOM     50  H   UNL A   1      39.377  31.806  33.287  1.00  0.00     0.167 HD
ATOM     51  C   UNL A   1      40.286  28.805  30.240  1.00  0.00     0.037 A 
ATOM     52  C   UNL A   1      39.663  33.039  35.779  1.00  0.00     0.037 A 
ATOM     53  C   UNL A   1      41.230  28.570  31.299  1.00  0.00     0.049 A 
ATOM     54  C   UNL A   1      40.682  31.933  35.742  1.00  0.00     0.074 A 
ATOM     55  C   UNL A   1      42.257  27.643  31.346  1.00  0.00     0.029 A 
ATOM     56  N   UNL A   1      41.266  29.268  32.498  1.00  0.00    -0.354 N 
ATOM     57  N   UNL A   1      40.943  31.083  34.779  1.00  0.00    -0.248 NA
ATOM     58  C   UNL A   1      41.520  31.759  36.937  1.00  0.00     0.031 C 
ATOM     59  C   UNL A   1      42.878  27.741  32.593  1.00  0.00     0.029 A 
ATOM     60  C   UNL A   1      42.280  28.772  33.301  1.00  0.00     0.049 A 
ATOM     61  H   UNL A   1      40.661  30.005  32.742  1.00  0.00     0.167 HD
ATOM     62  C   UNL A   1      41.988  30.293  35.238  1.00  0.00     0.074 A 
ATOM     63  C   UNL A   1      42.323  30.772  36.563  1.00  0.00     0.031 C 
ATOM     64  C   UNL A   1      42.611  29.264  34.616  1.00  0.00     0.037 A 
BRANCH  51  65
ATOM     65  C   UNL A   1      40.366  27.931  29.021  1.00  0.00     0.064 A 
ATOM     66  C   UNL A   1      41.121  28.326  27.907  1.00  0.00     0.173 A 
ATOM     67  C   UNL A   1      39.633  26.738  28.926  1.00  0.00     0.173 A 
ATOM     68  F   UNL A   1      41.836  29.461  27.941  1.00  0.00    -0.203 F 
ATOM     69  C   UNL A   1      41.126  27.568  26.739  1.00  0.00     0.198 A 
ATOM     70  C   UNL A   1      39.667  25.966  27.769  1.00  0.00     0.198 A 
ATOM     71  F   UNL A   1      38.903  26.310  29.968  1.00  0.00    -0.203 F 
ATOM     72  F   UNL A   1      41.825  27.986  25.673  1.00  0.00    -0.200 F 
ATOM     73  C   UNL A   1      40.403  26.387  26.672  1.00  0.00     0.200 A 
ATOM     74  F   UNL A   1      38.988  24.811  27.716  1.00  0.00    -0.200 F 
ATOM     75  F   UNL A   1      40.417  25.653  25.551  1.00  0.00    -0.200 F 
ENDBRANCH  51  65
BRANCH  52  76
ATOM     76  C   UNL A   1      39.549  33.940  36.956  1.00  0.00     0.064 A 
ATOM     77  C   UNL A   1      38.758  33.602  38.065  1.00  0.00     0.173 A 
ATOM     78  C   UNL A   1      40.207  35.177  36.977  1.00  0.00     0.173 A 
ATOM     79  F   UNL A   1      38.102  32.433  38.092  1.00  0.00    -0.203 F 
ATOM     80  C   UNL A   1      38.611  34.480  39.138  1.00  0.00     0.198 A 
ATOM     81  C   UNL A   1      40.083  36.041  38.064  1.00  0.00     0.198 A 
ATOM     82  F   UNL A   1      40.990  35.537  35.949  1.00  0.00    -0.203 F 
ATOM     83  F   UNL A   1      37.815  34.151  40.165  1.00  0.00    -0.200 F 
ATOM     84  C   UNL A   1      39.278  35.696  39.139  1.00  0.00     0.200 A 
ATOM     85  F   UNL A   1      40.746  37.205  38.071  1.00  0.00    -0.200 F 
ATOM     86  F   UNL A   1      39.143  36.535  40.175  1.00  0.00    -0.200 F 
ENDBRANCH  52  76
BRANCH  64  87
ATOM     87  C   UNL A   1      43.743  28.588  35.337  1.00  0.00     0.064 A 
ATOM     88  C   UNL A   1      45.068  28.993  35.112  1.00  0.00     0.173 A 
ATOM     89  C   UNL A   1      43.526  27.483  36.172  1.00  0.00     0.173 A 
ATOM     90  F   UNL A   1      45.330  30.038  34.314  1.00  0.00    -0.203 F 
ATOM     91  C   UNL A   1      46.134  28.301  35.679  1.00  0.00     0.198 A 
ATOM     92  C   UNL A   1      44.594  26.814  36.763  1.00  0.00     0.198 A 
ATOM     93  F   UNL A   1      42.277  27.065  36.428  1.00  0.00    -0.203 F 
ATOM     94  F   UNL A   1      47.393  28.678  35.414  1.00  0.00    -0.200 F 
ATOM     95  C   UNL A   1      45.897  27.215  36.506  1.00  0.00     0.200 A 
ATOM     96  F   UNL A   1      44.362  25.779  37.583  1.00  0.00    -0.200 F 
ATOM     97  F   UNL A   1      46.924  26.552  37.056  1.00  0.00    -0.200 F 
ENDBRANCH  64  87
ENDBRANCH  38  39
ENDBRANCH  30  33
ENDBRANCH  28  29
ENDBRANCH  27  28
ENDBRANCH   1  27
TORSDOF 14
ENDMDL
MODEL 3
REMARK VINA RESULT:     -12.5      3.980      9.207
REMARK SMILES COc1ccc(F)cc1[C@H](C)NC(=O)[C@H]1CC=CC[C@@H]1C(=O)NCCCNC(=O)c1ccc(-c2c3nc(c(-c4c(F)c(F)c(F)c(F)c4F)c4ccc([nH]4)c(-c4c(F)c(F)c(F)c(F)c4F)c4nc(c(-c5c(F)c(F)c(F)c(F)c5F)c5ccc2[nH]5)C=C4)C=C3)cc1
REMARK SMILES IDX 24 1 23 2 21 3 22 4 20 6 15 7 16 8 17 9 19 10 18 11 13 12
REMARK SMILES IDX 12 13 14 15 10 16 11 17 9 18 3 19 4 20 5 21 8 22 6 23 7 24
REMARK SMILES IDX 2 25 1 26 25 27 26 28 27 29 28 30 29 32 30 33 31 34 92 35
REMARK SMILES IDX 32 36 91 37 33 38 34 39 35 40 85 41 36 42 90 43 84 44 86 45
REMARK SMILES IDX 37 46 89 47 83 48 82 49 38 51 70 52 50 53 69 54 51 55 54 56
REMARK SMILES IDX 68 57 87 58 52 59 53 60 67 62 88 63 55 64 39 65 40 66 48 67
REMARK SMILES IDX 41 68 42 69 46 70 49 71 43 72 44 73 47 74 45 75 71 76 72 77
REMARK SMILES IDX 80 78 73 79 74 80 78 81 81 82 75 83 76 84 79 85 77 86 56 87
REMARK SMILES IDX 57 88 65 89 58 90 59 91 63 92 66 93 60 94 61 95 64 96 62 97
REMARK H PARENT 23 5 12 14 27 31 86 50 54 61
REMARK Flexibility Score: inf
ROOT
ATOM      1  C   UNL A   1      31.408  27.450  26.439  1.00  0.00     0.117 C 
ENDROOT
BRANCH   1   2
ATOM      2  N   UNL A   1      31.235  26.013  26.322  1.00  0.00    -0.356 N 
ATOM      3  C   UNL A   1      31.819  25.123  25.466  1.00  0.00     0.224 C 
ATOM      4  O   UNL A   1      31.527  23.935  25.595  1.00  0.00    -0.275 OA
ATOM      5  H   UNL A   1      30.597  25.618  26.959  1.00  0.00     0.163 HD
BRANCH   3   6
ATOM      6  C   UNL A   1      32.746  25.641  24.375  1.00  0.00     0.095 C 
ATOM      7  C   UNL A   1      32.283  25.070  23.020  1.00  0.00     0.095 C 
ATOM      8  C   UNL A   1      32.807  23.654  22.719  1.00  0.00     0.041 C 
ATOM      9  C   UNL A   1      34.127  23.303  23.334  1.00  0.00    -0.030 C 
ATOM     10  C   UNL A   1      34.221  25.381  24.711  1.00  0.00     0.041 C 
ATOM     11  C   UNL A   1      34.764  24.079  24.217  1.00  0.00    -0.030 C 
BRANCH   7  12
ATOM     12  C   UNL A   1      32.629  26.038  21.895  1.00  0.00     0.224 C 
ATOM     13  N   UNL A   1      32.369  27.366  22.045  1.00  0.00    -0.349 N 
ATOM     14  H   UNL A   1      32.612  27.918  21.267  1.00  0.00     0.164 HD
ATOM     15  O   UNL A   1      33.153  25.665  20.845  1.00  0.00    -0.275 OA
BRANCH  13  16
ATOM     16  C   UNL A   1      31.791  28.113  23.155  1.00  0.00     0.113 C 
ATOM     17  C   UNL A   1      32.733  29.229  23.623  1.00  0.00     0.036 C 
BRANCH  16  18
ATOM     18  C   UNL A   1      30.428  28.653  22.767  1.00  0.00     0.019 A 
ATOM     19  C   UNL A   1      29.230  27.976  23.082  1.00  0.00     0.124 A 
ATOM     20  C   UNL A   1      27.989  28.536  22.758  1.00  0.00     0.050 A 
ATOM     21  C   UNL A   1      27.930  29.754  22.083  1.00  0.00     0.043 A 
ATOM     22  C   UNL A   1      30.346  29.875  22.078  1.00  0.00     0.049 A 
ATOM     23  C   UNL A   1      29.107  30.408  21.744  1.00  0.00     0.123 A 
ATOM     24  F   UNL A   1      29.048  31.581  21.101  1.00  0.00    -0.207 F 
BRANCH  19  25
ATOM     25  O   UNL A   1      29.329  26.812  23.803  1.00  0.00    -0.496 OA
ATOM     26  C   UNL A   1      28.074  26.290  24.235  1.00  0.00     0.278 C 
ENDBRANCH  19  25
ENDBRANCH  16  18
ENDBRANCH  13  16
ENDBRANCH   7  12
ENDBRANCH   3   6
ENDBRANCH   1   2
BRANCH   1  27
ATOM     27  C   UNL A   1      32.303  27.825  27.612  1.00  0.00     0.042 C 
BRANCH  27  28
ATOM     28  C   UNL A   1      33.604  28.515  27.223  1.00  0.00     0.118 C 
BRANCH  28  29
ATOM     29  N   UNL A   1      33.608  29.938  27.527  1.00  0.00    -0.352 N 
ATOM     30  C   UNL A   1      34.575  30.714  28.117  1.00  0.00     0.251 C 
ATOM     31  H   UNL A   1      32.790  30.420  27.269  1.00  0.00     0.163 HD
ATOM     32  O   UNL A   1      34.319  31.875  28.430  1.00  0.00    -0.269 OA
BRANCH  30  33
ATOM     33  C   UNL A   1      35.911  30.154  28.409  1.00  0.00     0.039 A 
ATOM     34  C   UNL A   1      36.887  30.181  27.409  1.00  0.00     0.014 A 
ATOM     35  C   UNL A   1      36.208  29.598  29.656  1.00  0.00     0.014 A 
ATOM     36  C   UNL A   1      38.177  29.724  27.684  1.00  0.00     0.010 A 
ATOM     37  C   UNL A   1      37.514  29.225  29.957  1.00  0.00     0.010 A 
ATOM     38  C   UNL A   1      38.514  29.285  28.974  1.00  0.00    -0.014 A 
BRANCH  38  39
ATOM     39  C   UNL A   1      39.905  28.895  29.321  1.00  0.00     0.031 A 
ATOM     40  C   UNL A   1      40.762  29.804  30.156  1.00  0.00     0.074 A 
ATOM     41  C   UNL A   1      40.417  27.748  28.830  1.00  0.00     0.049 A 
ATOM     42  N   UNL A   1      42.021  29.676  30.490  1.00  0.00    -0.248 NA
ATOM     43  C   UNL A   1      40.129  31.033  30.662  1.00  0.00     0.031 C 
ATOM     44  C   UNL A   1      39.697  26.798  27.982  1.00  0.00     0.029 A 
ATOM     45  N   UNL A   1      41.664  27.190  28.969  1.00  0.00    -0.354 N 
ATOM     46  C   UNL A   1      42.330  30.805  31.237  1.00  0.00     0.074 A 
ATOM     47  C   UNL A   1      41.148  31.638  31.256  1.00  0.00     0.031 C 
ATOM     48  C   UNL A   1      40.501  25.760  27.703  1.00  0.00     0.029 A 
ATOM     49  C   UNL A   1      41.809  25.993  28.310  1.00  0.00     0.049 A 
ATOM     50  H   UNL A   1      42.386  27.608  29.491  1.00  0.00     0.167 HD
ATOM     51  C   UNL A   1      43.487  31.106  31.872  1.00  0.00     0.037 A 
ATOM     52  C   UNL A   1      42.876  25.178  28.199  1.00  0.00     0.037 A 
ATOM     53  C   UNL A   1      44.654  30.265  31.868  1.00  0.00     0.049 A 
ATOM     54  C   UNL A   1      44.162  25.553  28.883  1.00  0.00     0.074 A 
ATOM     55  C   UNL A   1      45.859  30.463  32.520  1.00  0.00     0.029 A 
ATOM     56  N   UNL A   1      44.764  29.064  31.180  1.00  0.00    -0.354 N 
ATOM     57  N   UNL A   1      44.427  26.601  29.625  1.00  0.00    -0.248 NA
ATOM     58  C   UNL A   1      45.297  24.635  28.716  1.00  0.00     0.031 C 
ATOM     59  C   UNL A   1      46.716  29.413  32.183  1.00  0.00     0.029 A 
ATOM     60  C   UNL A   1      46.026  28.526  31.371  1.00  0.00     0.049 A 
ATOM     61  H   UNL A   1      44.052  28.657  30.637  1.00  0.00     0.167 HD
ATOM     62  C   UNL A   1      45.746  26.456  30.035  1.00  0.00     0.074 A 
ATOM     63  C   UNL A   1      46.225  25.212  29.469  1.00  0.00     0.031 C 
ATOM     64  C   UNL A   1      46.490  27.281  30.810  1.00  0.00     0.037 A 
BRANCH  51  65
ATOM     65  C   UNL A   1      43.552  32.393  32.642  1.00  0.00     0.064 A 
ATOM     66  C   UNL A   1      43.987  33.575  32.023  1.00  0.00     0.173 A 
ATOM     67  C   UNL A   1      43.256  32.443  34.013  1.00  0.00     0.173 A 
ATOM     68  F   UNL A   1      44.289  33.582  30.716  1.00  0.00    -0.203 F 
ATOM     69  C   UNL A   1      44.139  34.752  32.751  1.00  0.00     0.198 A 
ATOM     70  C   UNL A   1      43.378  33.629  34.730  1.00  0.00     0.198 A 
ATOM     71  F   UNL A   1      42.825  31.343  34.650  1.00  0.00    -0.203 F 
ATOM     72  F   UNL A   1      44.593  35.859  32.146  1.00  0.00    -0.200 F 
ATOM     73  C   UNL A   1      43.829  34.780  34.102  1.00  0.00     0.200 A 
ATOM     74  F   UNL A   1      43.053  33.660  36.031  1.00  0.00    -0.200 F 
ATOM     75  F   UNL A   1      43.966  35.916  34.799  1.00  0.00    -0.200 F 
ENDBRANCH  51  65
BRANCH  52  76
ATOM     76  C   UNL A   1      42.755  23.910  27.432  1.00  0.00     0.064 A 
ATOM     77  C   UNL A   1      42.305  22.727  28.037  1.00  0.00     0.173 A 
ATOM     78  C   UNL A   1      43.122  23.853  26.080  1.00  0.00     0.173 A 
ATOM     79  F   UNL A   1      41.948  22.726  29.329  1.00  0.00    -0.203 F 
ATOM     80  C   UNL A   1      42.251  21.530  27.324  1.00  0.00     0.198 A 
ATOM     81  C   UNL A   1      43.039  22.663  25.361  1.00  0.00     0.198 A 
ATOM     82  F   UNL A   1      43.540  24.962  25.452  1.00  0.00    -0.203 F 
ATOM     83  F   UNL A   1      41.858  20.405  27.938  1.00  0.00    -0.200 F 
ATOM     84  C   UNL A   1      42.612  21.500  25.986  1.00  0.00     0.200 A 
ATOM     85  F   UNL A   1      43.367  22.642  24.063  1.00  0.00    -0.200 F 
ATOM     86  F   UNL A   1      42.551  20.351  25.300  1.00  0.00    -0.200 F 
ENDBRANCH  52  76
BRANCH  64  87
ATOM     87  C   UNL A   1      47.899  26.868  31.125  1.00  0.00     0.064 A 
ATOM     88  C   UNL A   1      48.958  27.268  30.295  1.00  0.00     0.173 A 
ATOM     89  C   UNL A   1      48.190  26.001  32.188  1.00  0.00     0.173 A 
ATOM     90  F   UNL A   1      48.731  28.090  29.259  1.00  0.00    -0.203 F 
ATOM     91  C   UNL A   1      50.250  26.797  30.504  1.00  0.00     0.198 A 
ATOM     92  C   UNL A   1      49.490  25.557  32.413  1.00  0.00     0.198 A 
ATOM     93  F   UNL A   1      47.215  25.599  33.018  1.00  0.00    -0.203 F 
ATOM     94  F   UNL A   1      51.236  27.157  29.670  1.00  0.00    -0.200 F 
ATOM     95  C   UNL A   1      50.516  25.945  31.564  1.00  0.00     0.200 A 
ATOM     96  F   UNL A   1      49.750  24.753  33.453  1.00  0.00    -0.200 F 
ATOM     97  F   UNL A   1      51.762  25.495  31.768  1.00  0.00    -0.200 F 
ENDBRANCH  64  87
ENDBRANCH  38  39
ENDBRANCH  30  33
ENDBRANCH  28  29
ENDBRANCH  27  28
ENDBRANCH   1  27
TORSDOF 14
ENDMDL
