MODEL 1
REMARK VINA RESULT:     -13.9      0.000      0.000
REMARK SMILES COc1ccc2c(c1)OC[C@@]1(C(=O)NCCCNC(=O)c3ccc(-c4c5nc(c(-c6c(F)c(F)c(F)c(F)c6F)c6ccc([nH]6)c(-c6c(F)c(F)c(F)c(F)c6F)c6nc(c(-c7c(F)c(F)c(F)c(F)c7F)c7ccc4[nH]7)C=C6)C=C5)cc3)C[N@@H+](Cc3cc(C(C)(C)C)n[nH]3)C[C@H]21
REMARK SMILES IDX 15 1 14 2 12 3 13 4 11 6 3 7 4 8 8 9 5 10 7 11 6 12 9 13
REMARK SMILES IDX 97 14 10 15 96 16 84 17 85 18 2 20 1 21 86 22 87 23 88 24
REMARK SMILES IDX 95 25 89 26 94 27 90 29 91 30 92 31 93 32 16 33 17 34 18 35
REMARK SMILES IDX 19 36 20 38 21 39 22 40 83 41 23 42 82 43 24 44 25 45 26 46
REMARK SMILES IDX 76 47 27 48 81 49 75 50 77 51 28 52 80 53 74 54 73 55 29 57
REMARK SMILES IDX 61 58 41 59 60 60 42 61 45 62 59 63 78 64 43 65 44 66 58 68
REMARK SMILES IDX 79 69 46 70 30 71 31 72 39 73 32 74 33 75 37 76 40 77 34 78
REMARK SMILES IDX 35 79 38 80 36 81 62 82 63 83 71 84 64 85 65 86 69 87 72 88
REMARK SMILES IDX 66 89 67 90 70 91 68 92 47 93 48 94 56 95 49 96 50 97 54 98
REMARK SMILES IDX 57 99 51 100 52 101 55 102 53 103
REMARK H PARENT 14 5 85 19 95 28 18 37 77 56 45 67
REMARK Flexibility Score: inf
ROOT
ATOM      1  C   UNL A   1      32.446  27.822  27.012  1.00  0.00     0.117 C 
ENDROOT
BRANCH   1   2
ATOM      2  N   UNL A   1      33.573  27.784  26.089  1.00  0.00    -0.355 N 
ATOM      3  C   UNL A   1      33.631  27.090  24.900  1.00  0.00     0.236 C 
ATOM      4  O   UNL A   1      34.314  27.573  23.993  1.00  0.00    -0.274 OA
ATOM      5  H   UNL A   1      34.370  28.306  26.339  1.00  0.00     0.163 HD
BRANCH   3   6
ATOM      6  C   UNL A   1      32.834  25.749  24.809  1.00  0.00     0.144 C 
ATOM      7  C   UNL A   1      33.477  20.480  24.832  1.00  0.00     0.122 A 
ATOM      8  C   UNL A   1      32.549  20.720  23.818  1.00  0.00     0.047 A 
ATOM      9  C   UNL A   1      34.006  21.556  25.547  1.00  0.00     0.093 A 
ATOM     10  C   UNL A   1      32.125  22.019  23.540  1.00  0.00     0.012 A 
ATOM     11  C   UNL A   1      33.599  22.855  25.235  1.00  0.00     0.126 A 
ATOM     12  C   UNL A   1      32.640  23.101  24.267  1.00  0.00     0.005 A 
ATOM     13  O   UNL A   1      34.182  23.904  25.880  1.00  0.00    -0.492 OA
ATOM     14  C   UNL A   1      32.274  24.528  23.936  1.00  0.00     0.103 C 
ATOM     15  C   UNL A   1      34.268  25.060  25.006  1.00  0.00     0.253 C 
ATOM     16  C   UNL A   1      30.750  24.698  24.009  1.00  0.00     0.272 C 
ATOM     17  C   UNL A   1      31.945  26.662  23.792  1.00  0.00     0.284 C 
ATOM     18  N   UNL A   1      30.585  26.137  24.005  1.00  0.00    -0.328 N 
ATOM     19  H   UNL A   1      30.197  26.466  24.890  1.00  0.00     0.348 HD
BRANCH   7  20
ATOM     20  O   UNL A   1      33.824  19.167  24.986  1.00  0.00    -0.497 OA
ATOM     21  C   UNL A   1      32.747  18.260  25.189  1.00  0.00     0.278 C 
ENDBRANCH   7  20
BRANCH  18  22
ATOM     22  C   UNL A   1      29.544  26.665  23.123  1.00  0.00     0.319 C 
BRANCH  22  23
ATOM     23  C   UNL A   1      29.663  28.126  22.923  1.00  0.00     0.090 A 
ATOM     24  C   UNL A   1      29.007  29.184  23.506  1.00  0.00     0.055 A 
ATOM     25  N   UNL A   1      30.415  28.669  21.920  1.00  0.00    -0.277 N 
ATOM     26  C   UNL A   1      29.221  30.268  22.624  1.00  0.00     0.068 A 
ATOM     27  N   UNL A   1      30.146  29.963  21.703  1.00  0.00    -0.180 NA
ATOM     28  H   UNL A   1      31.086  28.161  21.409  1.00  0.00     0.190 HD
BRANCH  26  29
ATOM     29  C   UNL A   1      28.496  31.598  22.586  1.00  0.00     0.006 C 
ATOM     30  C   UNL A   1      28.027  31.897  21.154  1.00  0.00     0.017 C 
ATOM     31  C   UNL A   1      27.277  31.561  23.534  1.00  0.00     0.017 C 
ATOM     32  C   UNL A   1      29.410  32.751  23.060  1.00  0.00     0.017 C 
ENDBRANCH  26  29
ENDBRANCH  22  23
ENDBRANCH  18  22
ENDBRANCH   3   6
ENDBRANCH   1   2
BRANCH   1  33
ATOM     33  C   UNL A   1      31.868  29.202  27.234  1.00  0.00     0.042 C 
BRANCH  33  34
ATOM     34  C   UNL A   1      32.433  30.272  26.317  1.00  0.00     0.118 C 
BRANCH  34  35
ATOM     35  N   UNL A   1      32.334  31.629  26.848  1.00  0.00    -0.352 N 
ATOM     36  C   UNL A   1      33.217  32.397  27.572  1.00  0.00     0.251 C 
ATOM     37  H   UNL A   1      31.479  32.076  26.653  1.00  0.00     0.163 HD
ATOM     38  O   UNL A   1      32.860  33.493  28.000  1.00  0.00    -0.269 OA
BRANCH  36  39
ATOM     39  C   UNL A   1      34.567  31.890  27.900  1.00  0.00     0.039 A 
ATOM     40  C   UNL A   1      34.784  30.539  28.138  1.00  0.00     0.014 A 
ATOM     41  C   UNL A   1      35.630  32.791  28.021  1.00  0.00     0.014 A 
ATOM     42  C   UNL A   1      35.946  30.138  28.780  1.00  0.00     0.010 A 
ATOM     43  C   UNL A   1      36.860  32.354  28.524  1.00  0.00     0.010 A 
ATOM     44  C   UNL A   1      36.998  31.041  28.997  1.00  0.00    -0.014 A 
BRANCH  44  45
ATOM     45  C   UNL A   1      38.194  30.584  29.759  1.00  0.00     0.031 A 
ATOM     46  C   UNL A   1      38.360  30.931  31.219  1.00  0.00     0.074 A 
ATOM     47  C   UNL A   1      39.076  29.755  29.166  1.00  0.00     0.049 A 
ATOM     48  N   UNL A   1      39.303  30.564  32.051  1.00  0.00    -0.248 NA
ATOM     49  C   UNL A   1      37.346  31.810  31.825  1.00  0.00     0.031 C 
ATOM     50  C   UNL A   1      39.023  29.335  27.764  1.00  0.00     0.029 A 
ATOM     51  N   UNL A   1      40.155  29.073  29.673  1.00  0.00    -0.354 N 
ATOM     52  C   UNL A   1      39.015  31.190  33.257  1.00  0.00     0.074 A 
ATOM     53  C   UNL A   1      37.826  31.983  33.048  1.00  0.00     0.031 C 
ATOM     54  C   UNL A   1      39.955  28.397  27.548  1.00  0.00     0.029 A 
ATOM     55  C   UNL A   1      40.729  28.210  28.771  1.00  0.00     0.049 A 
ATOM     56  H   UNL A   1      40.485  29.191  30.592  1.00  0.00     0.167 HD
ATOM     57  C   UNL A   1      39.673  31.098  34.438  1.00  0.00     0.037 A 
ATOM     58  C   UNL A   1      41.768  27.364  28.905  1.00  0.00     0.037 A 
ATOM     59  C   UNL A   1      40.821  30.262  34.665  1.00  0.00     0.049 A 
ATOM     60  C   UNL A   1      42.493  27.302  30.218  1.00  0.00     0.074 A 
ATOM     61  C   UNL A   1      41.527  30.068  35.839  1.00  0.00     0.029 A 
ATOM     62  N   UNL A   1      41.427  29.473  33.698  1.00  0.00    -0.354 N 
ATOM     63  N   UNL A   1      42.210  27.905  31.346  1.00  0.00    -0.248 NA
ATOM     64  C   UNL A   1      43.699  26.463  30.269  1.00  0.00     0.031 C 
ATOM     65  C   UNL A   1      42.582  29.190  35.575  1.00  0.00     0.029 A 
ATOM     66  C   UNL A   1      42.512  28.810  34.245  1.00  0.00     0.049 A 
ATOM     67  H   UNL A   1      41.128  29.395  32.763  1.00  0.00     0.167 HD
ATOM     68  C   UNL A   1      43.203  27.529  32.237  1.00  0.00     0.074 A 
ATOM     69  C   UNL A   1      44.078  26.617  31.529  1.00  0.00     0.031 C 
ATOM     70  C   UNL A   1      43.381  27.918  33.522  1.00  0.00     0.037 A 
BRANCH  57  71
ATOM     71  C   UNL A   1      39.173  31.922  35.589  1.00  0.00     0.064 A 
ATOM     72  C   UNL A   1      38.308  31.388  36.557  1.00  0.00     0.173 A 
ATOM     73  C   UNL A   1      39.622  33.240  35.764  1.00  0.00     0.173 A 
ATOM     74  F   UNL A   1      37.843  30.137  36.427  1.00  0.00    -0.203 F 
ATOM     75  C   UNL A   1      37.903  32.149  37.650  1.00  0.00     0.198 A 
ATOM     76  C   UNL A   1      39.232  33.989  36.872  1.00  0.00     0.198 A 
ATOM     77  F   UNL A   1      40.455  33.794  34.870  1.00  0.00    -0.203 F 
ATOM     78  F   UNL A   1      37.053  31.629  38.546  1.00  0.00    -0.200 F 
ATOM     79  C   UNL A   1      38.371  33.445  37.812  1.00  0.00     0.200 A 
ATOM     80  F   UNL A   1      39.696  35.237  37.032  1.00  0.00    -0.200 F 
ATOM     81  F   UNL A   1      37.989  34.169  38.872  1.00  0.00    -0.200 F 
ENDBRANCH  57  71
BRANCH  58  82
ATOM     82  C   UNL A   1      42.183  26.521  27.755  1.00  0.00     0.064 A 
ATOM     83  C   UNL A   1      43.201  26.938  26.888  1.00  0.00     0.173 A 
ATOM     84  C   UNL A   1      41.596  25.268  27.521  1.00  0.00     0.173 A 
ATOM     85  F   UNL A   1      43.777  28.137  27.059  1.00  0.00    -0.203 F 
ATOM     86  C   UNL A   1      43.619  26.131  25.831  1.00  0.00     0.198 A 
ATOM     87  C   UNL A   1      42.034  24.452  26.481  1.00  0.00     0.198 A 
ATOM     88  F   UNL A   1      40.618  24.824  28.324  1.00  0.00    -0.203 F 
ATOM     89  F   UNL A   1      44.578  26.563  25.001  1.00  0.00    -0.200 F 
ATOM     90  C   UNL A   1      43.042  24.885  25.634  1.00  0.00     0.200 A 
ATOM     91  F   UNL A   1      41.485  23.242  26.308  1.00  0.00    -0.200 F 
ATOM     92  F   UNL A   1      43.457  24.104  24.630  1.00  0.00    -0.200 F 
ENDBRANCH  58  82
BRANCH  70  93
ATOM     93  C   UNL A   1      44.578  27.381  34.245  1.00  0.00     0.064 A 
ATOM     94  C   UNL A   1      45.776  28.106  34.294  1.00  0.00     0.173 A 
ATOM     95  C   UNL A   1      44.504  26.174  34.955  1.00  0.00     0.173 A 
ATOM     96  F   UNL A   1      45.895  29.259  33.618  1.00  0.00    -0.203 F 
ATOM     97  C   UNL A   1      46.863  27.639  35.025  1.00  0.00     0.198 A 
ATOM     98  C   UNL A   1      45.587  25.721  35.705  1.00  0.00     0.198 A 
ATOM     99  F   UNL A   1      43.376  25.448  34.943  1.00  0.00    -0.203 F 
ATOM    100  F   UNL A   1      48.008  28.334  35.041  1.00  0.00    -0.200 F 
ATOM    101  C   UNL A   1      46.765  26.453  35.738  1.00  0.00     0.200 A 
ATOM    102  F   UNL A   1      45.486  24.580  36.402  1.00  0.00    -0.200 F 
ATOM    103  F   UNL A   1      47.807  26.012  36.456  1.00  0.00    -0.200 F 
ENDBRANCH  70  93
ENDBRANCH  44  45
ENDBRANCH  36  39
ENDBRANCH  34  35
ENDBRANCH  33  34
ENDBRANCH   1  33
TORSDOF 14
ENDMDL
MODEL 2
REMARK VINA RESULT:     -13.6      4.067     10.042
REMARK SMILES COc1ccc2c(c1)OC[C@@]1(C(=O)NCCCNC(=O)c3ccc(-c4c5nc(c(-c6c(F)c(F)c(F)c(F)c6F)c6ccc([nH]6)c(-c6c(F)c(F)c(F)c(F)c6F)c6nc(c(-c7c(F)c(F)c(F)c(F)c7F)c7ccc4[nH]7)C=C6)C=C5)cc3)C[N@@H+](Cc3cc(C(C)(C)C)n[nH]3)C[C@H]21
REMARK SMILES IDX 15 1 14 2 12 3 13 4 11 6 3 7 4 8 8 9 5 10 7 11 6 12 9 13
REMARK SMILES IDX 97 14 10 15 96 16 84 17 85 18 2 20 1 21 86 22 87 23 88 24
REMARK SMILES IDX 95 25 89 26 94 27 90 29 91 30 92 31 93 32 16 33 17 34 18 35
REMARK SMILES IDX 19 36 20 38 21 39 22 40 83 41 23 42 82 43 24 44 25 45 26 46
REMARK SMILES IDX 76 47 27 48 81 49 75 50 77 51 28 52 80 53 74 54 73 55 29 57
REMARK SMILES IDX 61 58 41 59 60 60 42 61 45 62 59 63 78 64 43 65 44 66 58 68
REMARK SMILES IDX 79 69 46 70 30 71 31 72 39 73 32 74 33 75 37 76 40 77 34 78
REMARK SMILES IDX 35 79 38 80 36 81 62 82 63 83 71 84 64 85 65 86 69 87 72 88
REMARK SMILES IDX 66 89 67 90 70 91 68 92 47 93 48 94 56 95 49 96 50 97 54 98
REMARK SMILES IDX 57 99 51 100 52 101 55 102 53 103
REMARK H PARENT 14 5 85 19 95 28 18 37 77 56 45 67
REMARK Flexibility Score: inf
ROOT
ATOM      1  C   UNL A   1      34.911  23.635  23.692  1.00  0.00     0.117 C 
ENDROOT
BRANCH   1   2
ATOM      2  N   UNL A   1      35.093  24.834  24.500  1.00  0.00    -0.355 N 
ATOM      3  C   UNL A   1      34.096  25.576  25.096  1.00  0.00     0.236 C 
ATOM      4  O   UNL A   1      34.368  26.145  26.157  1.00  0.00    -0.274 OA
ATOM      5  H   UNL A   1      36.019  25.144  24.633  1.00  0.00     0.163 HD
BRANCH   3   6
ATOM      6  C   UNL A   1      32.713  25.637  24.373  1.00  0.00     0.144 C 
ATOM      7  C   UNL A   1      29.137  29.053  22.443  1.00  0.00     0.122 A 
ATOM      8  C   UNL A   1      28.381  28.083  23.102  1.00  0.00     0.047 A 
ATOM      9  C   UNL A   1      30.530  28.953  22.439  1.00  0.00     0.093 A 
ATOM     10  C   UNL A   1      29.005  27.002  23.723  1.00  0.00     0.012 A 
ATOM     11  C   UNL A   1      31.144  27.884  23.095  1.00  0.00     0.126 A 
ATOM     12  C   UNL A   1      30.402  26.887  23.706  1.00  0.00     0.005 A 
ATOM     13  O   UNL A   1      32.504  27.838  23.157  1.00  0.00    -0.492 OA
ATOM     14  C   UNL A   1      31.118  25.781  24.444  1.00  0.00     0.103 C 
ATOM     15  C   UNL A   1      32.940  27.223  24.397  1.00  0.00     0.253 C 
ATOM     16  C   UNL A   1      30.608  24.419  23.950  1.00  0.00     0.272 C 
ATOM     17  C   UNL A   1      32.466  24.332  25.319  1.00  0.00     0.284 C 
ATOM     18  N   UNL A   1      31.591  23.495  24.479  1.00  0.00    -0.328 N 
ATOM     19  H   UNL A   1      32.117  23.048  23.728  1.00  0.00     0.348 HD
BRANCH   7  20
ATOM     20  O   UNL A   1      28.406  30.070  21.896  1.00  0.00    -0.497 OA
ATOM     21  C   UNL A   1      27.885  31.023  22.814  1.00  0.00     0.278 C 
ENDBRANCH   7  20
BRANCH  18  22
ATOM     22  C   UNL A   1      31.064  22.282  25.104  1.00  0.00     0.319 C 
BRANCH  22  23
ATOM     23  C   UNL A   1      32.055  21.183  25.125  1.00  0.00     0.090 A 
ATOM     24  C   UNL A   1      32.438  20.281  24.162  1.00  0.00     0.055 A 
ATOM     25  N   UNL A   1      32.681  20.784  26.272  1.00  0.00    -0.277 N 
ATOM     26  C   UNL A   1      33.070  19.239  24.878  1.00  0.00     0.068 A 
ATOM     27  N   UNL A   1      33.284  19.593  26.153  1.00  0.00    -0.180 NA
ATOM     28  H   UNL A   1      32.689  21.317  27.099  1.00  0.00     0.190 HD
BRANCH  26  29
ATOM     29  C   UNL A   1      33.421  17.848  24.390  1.00  0.00     0.006 C 
ATOM     30  C   UNL A   1      32.834  16.796  25.344  1.00  0.00     0.017 C 
ATOM     31  C   UNL A   1      32.857  17.632  22.968  1.00  0.00     0.017 C 
ATOM     32  C   UNL A   1      34.951  17.648  24.311  1.00  0.00     0.017 C 
ENDBRANCH  26  29
ENDBRANCH  22  23
ENDBRANCH  18  22
ENDBRANCH   3   6
ENDBRANCH   1   2
BRANCH   1  33
ATOM     33  C   UNL A   1      36.070  22.665  23.747  1.00  0.00     0.042 C 
BRANCH  33  34
ATOM     34  C   UNL A   1      36.460  22.235  25.150  1.00  0.00     0.118 C 
BRANCH  34  35
ATOM     35  N   UNL A   1      37.535  21.247  25.196  1.00  0.00    -0.352 N 
ATOM     36  C   UNL A   1      38.793  21.285  25.751  1.00  0.00     0.251 C 
ATOM     37  H   UNL A   1      37.319  20.398  24.747  1.00  0.00     0.163 HD
ATOM     38  O   UNL A   1      39.568  20.348  25.567  1.00  0.00    -0.269 OA
BRANCH  36  39
ATOM     39  C   UNL A   1      39.249  22.471  26.508  1.00  0.00     0.039 A 
ATOM     40  C   UNL A   1      38.688  23.721  26.283  1.00  0.00     0.014 A 
ATOM     41  C   UNL A   1      40.293  22.341  27.429  1.00  0.00     0.014 A 
ATOM     42  C   UNL A   1      39.351  24.856  26.724  1.00  0.00     0.010 A 
ATOM     43  C   UNL A   1      40.866  23.482  28.000  1.00  0.00     0.010 A 
ATOM     44  C   UNL A   1      40.460  24.757  27.579  1.00  0.00    -0.014 A 
BRANCH  44  45
ATOM     45  C   UNL A   1      41.187  25.998  27.964  1.00  0.00     0.031 A 
ATOM     46  C   UNL A   1      42.574  26.277  27.439  1.00  0.00     0.074 A 
ATOM     47  C   UNL A   1      40.549  26.934  28.696  1.00  0.00     0.049 A 
ATOM     48  N   UNL A   1      43.327  27.335  27.620  1.00  0.00    -0.248 NA
ATOM     49  C   UNL A   1      43.208  25.235  26.614  1.00  0.00     0.031 C 
ATOM     50  C   UNL A   1      39.203  26.792  29.255  1.00  0.00     0.029 A 
ATOM     51  N   UNL A   1      40.919  28.209  29.050  1.00  0.00    -0.354 N 
ATOM     52  C   UNL A   1      44.522  27.071  26.964  1.00  0.00     0.074 A 
ATOM     53  C   UNL A   1      44.413  25.744  26.403  1.00  0.00     0.031 C 
ATOM     54  C   UNL A   1      38.822  27.959  29.791  1.00  0.00     0.029 A 
ATOM     55  C   UNL A   1      39.925  28.908  29.691  1.00  0.00     0.049 A 
ATOM     56  H   UNL A   1      41.809  28.584  28.863  1.00  0.00     0.167 HD
ATOM     57  C   UNL A   1      45.608  27.870  26.827  1.00  0.00     0.037 A 
ATOM     58  C   UNL A   1      39.902  30.171  30.157  1.00  0.00     0.037 A 
ATOM     59  C   UNL A   1      45.696  29.213  27.333  1.00  0.00     0.049 A 
ATOM     60  C   UNL A   1      41.128  31.025  30.014  1.00  0.00     0.074 A 
ATOM     61  C   UNL A   1      46.737  30.116  27.203  1.00  0.00     0.029 A 
ATOM     62  N   UNL A   1      44.701  29.851  28.057  1.00  0.00    -0.354 N 
ATOM     63  N   UNL A   1      42.252  30.756  29.395  1.00  0.00    -0.248 NA
ATOM     64  C   UNL A   1      41.094  32.346  30.655  1.00  0.00     0.031 C 
ATOM     65  C   UNL A   1      46.387  31.287  27.881  1.00  0.00     0.029 A 
ATOM     66  C   UNL A   1      45.114  31.127  28.402  1.00  0.00     0.049 A 
ATOM     67  H   UNL A   1      43.829  29.456  28.291  1.00  0.00     0.167 HD
ATOM     68  C   UNL A   1      43.061  31.867  29.581  1.00  0.00     0.074 A 
ATOM     69  C   UNL A   1      42.288  32.828  30.340  1.00  0.00     0.031 C 
ATOM     70  C   UNL A   1      44.337  32.064  29.171  1.00  0.00     0.037 A 
BRANCH  57  71
ATOM     71  C   UNL A   1      46.800  27.319  26.100  1.00  0.00     0.064 A 
ATOM     72  C   UNL A   1      46.997  27.548  24.730  1.00  0.00     0.173 A 
ATOM     73  C   UNL A   1      47.794  26.616  26.798  1.00  0.00     0.173 A 
ATOM     74  F   UNL A   1      46.071  28.204  24.016  1.00  0.00    -0.203 F 
ATOM     75  C   UNL A   1      48.140  27.080  24.085  1.00  0.00     0.198 A 
ATOM     76  C   UNL A   1      48.946  26.172  26.154  1.00  0.00     0.198 A 
ATOM     77  F   UNL A   1      47.656  26.378  28.112  1.00  0.00    -0.203 F 
ATOM     78  F   UNL A   1      48.293  27.284  22.769  1.00  0.00    -0.200 F 
ATOM     79  C   UNL A   1      49.116  26.401  24.798  1.00  0.00     0.200 A 
ATOM     80  F   UNL A   1      49.894  25.526  26.848  1.00  0.00    -0.200 F 
ATOM     81  F   UNL A   1      50.220  25.965  24.176  1.00  0.00    -0.200 F 
ENDBRANCH  57  71
BRANCH  58  82
ATOM     82  C   UNL A   1      38.674  30.690  30.811  1.00  0.00     0.064 A 
ATOM     83  C   UNL A   1      38.529  30.651  32.204  1.00  0.00     0.173 A 
ATOM     84  C   UNL A   1      37.638  31.268  30.062  1.00  0.00     0.173 A 
ATOM     85  F   UNL A   1      39.483  30.090  32.960  1.00  0.00    -0.203 F 
ATOM     86  C   UNL A   1      37.395  31.173  32.823  1.00  0.00     0.198 A 
ATOM     87  C   UNL A   1      36.518  31.814  30.683  1.00  0.00     0.198 A 
ATOM     88  F   UNL A   1      37.730  31.330  28.725  1.00  0.00    -0.203 F 
ATOM     89  F   UNL A   1      37.268  31.102  34.155  1.00  0.00    -0.200 F 
ATOM     90  C   UNL A   1      36.395  31.763  32.063  1.00  0.00     0.200 A 
ATOM     91  F   UNL A   1      35.565  32.399  29.946  1.00  0.00    -0.200 F 
ATOM     92  F   UNL A   1      35.314  32.281  32.660  1.00  0.00    -0.200 F 
ENDBRANCH  58  82
BRANCH  70  93
ATOM     93  C   UNL A   1      44.990  33.357  29.551  1.00  0.00     0.064 A 
ATOM     94  C   UNL A   1      44.806  34.513  28.779  1.00  0.00     0.173 A 
ATOM     95  C   UNL A   1      45.740  33.461  30.732  1.00  0.00     0.173 A 
ATOM     96  F   UNL A   1      44.108  34.455  27.635  1.00  0.00    -0.203 F 
ATOM     97  C   UNL A   1      45.355  35.728  29.173  1.00  0.00     0.198 A 
ATOM     98  C   UNL A   1      46.268  34.685  31.135  1.00  0.00     0.198 A 
ATOM     99  F   UNL A   1      45.937  32.384  31.506  1.00  0.00    -0.203 F 
ATOM    100  F   UNL A   1      45.188  36.816  28.410  1.00  0.00    -0.200 F 
ATOM    101  C   UNL A   1      46.077  35.816  30.354  1.00  0.00     0.200 A 
ATOM    102  F   UNL A   1      46.956  34.770  32.283  1.00  0.00    -0.200 F 
ATOM    103  F   UNL A   1      46.591  36.992  30.742  1.00  0.00    -0.200 F 
ENDBRANCH  70  93
ENDBRANCH  44  45
ENDBRANCH  36  39
ENDBRANCH  34  35
ENDBRANCH  33  34
ENDBRANCH   1  33
TORSDOF 14
ENDMDL
MODEL 3
REMARK VINA RESULT:     -13.6      1.307      7.201
REMARK SMILES COc1ccc2c(c1)OC[C@@]1(C(=O)NCCCNC(=O)c3ccc(-c4c5nc(c(-c6c(F)c(F)c(F)c(F)c6F)c6ccc([nH]6)c(-c6c(F)c(F)c(F)c(F)c6F)c6nc(c(-c7c(F)c(F)c(F)c(F)c7F)c7ccc4[nH]7)C=C6)C=C5)cc3)C[N@@H+](Cc3cc(C(C)(C)C)n[nH]3)C[C@H]21
REMARK SMILES IDX 15 1 14 2 12 3 13 4 11 6 3 7 4 8 8 9 5 10 7 11 6 12 9 13
REMARK SMILES IDX 97 14 10 15 96 16 84 17 85 18 2 20 1 21 86 22 87 23 88 24
REMARK SMILES IDX 95 25 89 26 94 27 90 29 91 30 92 31 93 32 16 33 17 34 18 35
REMARK SMILES IDX 19 36 20 38 21 39 22 40 83 41 23 42 82 43 24 44 25 45 26 46
REMARK SMILES IDX 76 47 27 48 81 49 75 50 77 51 28 52 80 53 74 54 73 55 29 57
REMARK SMILES IDX 61 58 41 59 60 60 42 61 45 62 59 63 78 64 43 65 44 66 58 68
REMARK SMILES IDX 79 69 46 70 30 71 31 72 39 73 32 74 33 75 37 76 40 77 34 78
REMARK SMILES IDX 35 79 38 80 36 81 62 82 63 83 71 84 64 85 65 86 69 87 72 88
REMARK SMILES IDX 66 89 67 90 70 91 68 92 47 93 48 94 56 95 49 96 50 97 54 98
REMARK SMILES IDX 57 99 51 100 52 101 55 102 53 103
REMARK H PARENT 14 5 85 19 95 28 18 37 77 56 45 67
REMARK Flexibility Score: inf
ROOT
ATOM      1  C   UNL A   1      31.890  27.188  26.334  1.00  0.00     0.117 C 
ENDROOT
BRANCH   1   2
ATOM      2  N   UNL A   1      30.738  26.298  26.392  1.00  0.00    -0.355 N 
ATOM      3  C   UNL A   1      30.758  24.928  26.247  1.00  0.00     0.236 C 
ATOM      4  O   UNL A   1      29.911  24.279  26.869  1.00  0.00    -0.274 OA
ATOM      5  H   UNL A   1      29.861  26.717  26.550  1.00  0.00     0.163 HD
BRANCH   3   6
ATOM      6  C   UNL A   1      31.843  24.318  25.305  1.00  0.00     0.144 C 
ATOM      7  C   UNL A   1      36.571  21.904  25.365  1.00  0.00     0.122 A 
ATOM      8  C   UNL A   1      36.659  22.830  24.326  1.00  0.00     0.047 A 
ATOM      9  C   UNL A   1      35.394  21.818  26.111  1.00  0.00     0.093 A 
ATOM     10  C   UNL A   1      35.571  23.643  24.009  1.00  0.00     0.012 A 
ATOM     11  C   UNL A   1      34.324  22.662  25.806  1.00  0.00     0.126 A 
ATOM     12  C   UNL A   1      34.381  23.548  24.743  1.00  0.00     0.005 A 
ATOM     13  O   UNL A   1      33.210  22.631  26.590  1.00  0.00    -0.492 OA
ATOM     14  C   UNL A   1      33.214  24.473  24.489  1.00  0.00     0.103 C 
ATOM     15  C   UNL A   1      32.600  23.945  26.668  1.00  0.00     0.253 C 
ATOM     16  C   UNL A   1      32.778  24.358  23.021  1.00  0.00     0.272 C 
ATOM     17  C   UNL A   1      31.349  25.564  24.377  1.00  0.00     0.284 C 
ATOM     18  N   UNL A   1      31.487  25.017  23.016  1.00  0.00    -0.328 N 
ATOM     19  H   UNL A   1      30.738  24.357  22.805  1.00  0.00     0.348 HD
BRANCH   7  20
ATOM     20  O   UNL A   1      37.713  21.187  25.586  1.00  0.00    -0.497 OA
ATOM     21  C   UNL A   1      38.890  21.951  25.821  1.00  0.00     0.278 C 
ENDBRANCH   7  20
BRANCH  18  22
ATOM     22  C   UNL A   1      31.245  25.952  21.917  1.00  0.00     0.319 C 
BRANCH  22  23
ATOM     23  C   UNL A   1      30.877  27.302  22.397  1.00  0.00     0.090 A 
ATOM     24  C   UNL A   1      29.686  27.818  22.847  1.00  0.00     0.055 A 
ATOM     25  N   UNL A   1      31.728  28.368  22.308  1.00  0.00    -0.277 N 
ATOM     26  C   UNL A   1      29.840  29.220  22.743  1.00  0.00     0.068 A 
ATOM     27  N   UNL A   1      31.116  29.545  22.490  1.00  0.00    -0.180 NA
ATOM     28  H   UNL A   1      32.692  28.278  22.129  1.00  0.00     0.190 HD
BRANCH  26  29
ATOM     29  C   UNL A   1      28.766  30.286  22.807  1.00  0.00     0.006 C 
ATOM     30  C   UNL A   1      29.113  31.314  23.894  1.00  0.00     0.017 C 
ATOM     31  C   UNL A   1      28.647  30.996  21.440  1.00  0.00     0.017 C 
ATOM     32  C   UNL A   1      27.384  29.674  23.126  1.00  0.00     0.017 C 
ENDBRANCH  26  29
ENDBRANCH  22  23
ENDBRANCH  18  22
ENDBRANCH   3   6
ENDBRANCH   1   2
BRANCH   1  33
ATOM     33  C   UNL A   1      31.541  28.653  26.195  1.00  0.00     0.042 C 
BRANCH  33  34
ATOM     34  C   UNL A   1      32.728  29.557  25.916  1.00  0.00     0.118 C 
BRANCH  34  35
ATOM     35  N   UNL A   1      32.587  30.912  26.443  1.00  0.00    -0.352 N 
ATOM     36  C   UNL A   1      33.399  31.670  27.255  1.00  0.00     0.251 C 
ATOM     37  H   UNL A   1      31.758  31.365  26.167  1.00  0.00     0.163 HD
ATOM     38  O   UNL A   1      33.008  32.767  27.651  1.00  0.00    -0.269 OA
BRANCH  36  39
ATOM     39  C   UNL A   1      34.706  31.152  27.712  1.00  0.00     0.039 A 
ATOM     40  C   UNL A   1      34.902  29.793  27.922  1.00  0.00     0.014 A 
ATOM     41  C   UNL A   1      35.745  32.048  27.983  1.00  0.00     0.014 A 
ATOM     42  C   UNL A   1      35.987  29.370  28.674  1.00  0.00     0.010 A 
ATOM     43  C   UNL A   1      36.913  31.593  28.603  1.00  0.00     0.010 A 
ATOM     44  C   UNL A   1      37.005  30.264  29.040  1.00  0.00    -0.014 A 
BRANCH  44  45
ATOM     45  C   UNL A   1      38.111  29.780  29.912  1.00  0.00     0.031 A 
ATOM     46  C   UNL A   1      39.203  28.898  29.358  1.00  0.00     0.074 A 
ATOM     47  C   UNL A   1      38.196  30.231  31.180  1.00  0.00     0.049 A 
ATOM     48  N   UNL A   1      40.274  28.437  29.957  1.00  0.00    -0.248 NA
ATOM     49  C   UNL A   1      39.078  28.465  27.956  1.00  0.00     0.031 C 
ATOM     50  C   UNL A   1      37.210  31.096  31.832  1.00  0.00     0.029 A 
ATOM     51  N   UNL A   1      39.175  30.075  32.129  1.00  0.00    -0.354 N 
ATOM     52  C   UNL A   1      40.924  27.643  29.022  1.00  0.00     0.074 A 
ATOM     53  C   UNL A   1      40.119  27.656  27.822  1.00  0.00     0.031 C 
ATOM     54  C   UNL A   1      37.679  31.475  33.029  1.00  0.00     0.029 A 
ATOM     55  C   UNL A   1      38.956  30.813  33.268  1.00  0.00     0.049 A 
ATOM     56  H   UNL A   1      39.958  29.491  32.006  1.00  0.00     0.167 HD
ATOM     57  C   UNL A   1      42.097  26.975  29.146  1.00  0.00     0.037 A 
ATOM     58  C   UNL A   1      39.695  30.940  34.386  1.00  0.00     0.037 A 
ATOM     59  C   UNL A   1      42.930  27.009  30.318  1.00  0.00     0.049 A 
ATOM     60  C   UNL A   1      40.978  30.168  34.505  1.00  0.00     0.074 A 
ATOM     61  C   UNL A   1      44.157  26.402  30.519  1.00  0.00     0.029 A 
ATOM     62  N   UNL A   1      42.626  27.695  31.483  1.00  0.00    -0.354 N 
ATOM     63  N   UNL A   1      41.574  29.417  33.613  1.00  0.00    -0.248 NA
ATOM     64  C   UNL A   1      41.676  30.240  35.797  1.00  0.00     0.031 C 
ATOM     65  C   UNL A   1      44.579  26.691  31.821  1.00  0.00     0.029 A 
ATOM     66  C   UNL A   1      43.631  27.506  32.417  1.00  0.00     0.049 A 
ATOM     67  H   UNL A   1      41.816  28.237  31.626  1.00  0.00     0.167 HD
ATOM     68  C   UNL A   1      42.709  28.919  34.234  1.00  0.00     0.074 A 
ATOM     69  C   UNL A   1      42.738  29.481  35.569  1.00  0.00     0.031 C 
ATOM     70  C   UNL A   1      43.635  28.061  33.745  1.00  0.00     0.037 A 
BRANCH  57  71
ATOM     71  C   UNL A   1      42.559  26.143  27.985  1.00  0.00     0.064 A 
ATOM     72  C   UNL A   1      42.091  24.837  27.781  1.00  0.00     0.173 A 
ATOM     73  C   UNL A   1      43.426  26.687  27.025  1.00  0.00     0.173 A 
ATOM     74  F   UNL A   1      41.270  24.268  28.676  1.00  0.00    -0.203 F 
ATOM     75  C   UNL A   1      42.485  24.102  26.665  1.00  0.00     0.198 A 
ATOM     76  C   UNL A   1      43.799  25.958  25.898  1.00  0.00     0.198 A 
ATOM     77  F   UNL A   1      43.897  27.936  27.170  1.00  0.00    -0.203 F 
ATOM     78  F   UNL A   1      42.049  22.845  26.507  1.00  0.00    -0.200 F 
ATOM     79  C   UNL A   1      43.330  24.666  25.721  1.00  0.00     0.200 A 
ATOM     80  F   UNL A   1      44.606  26.509  24.981  1.00  0.00    -0.200 F 
ATOM     81  F   UNL A   1      43.696  23.961  24.642  1.00  0.00    -0.200 F 
ENDBRANCH  57  71
BRANCH  58  82
ATOM     82  C   UNL A   1      39.225  31.827  35.480  1.00  0.00     0.064 A 
ATOM     83  C   UNL A   1      39.612  33.173  35.530  1.00  0.00     0.173 A 
ATOM     84  C   UNL A   1      38.353  31.360  36.474  1.00  0.00     0.173 A 
ATOM     85  F   UNL A   1      40.460  33.660  34.613  1.00  0.00    -0.203 F 
ATOM     86  C   UNL A   1      39.141  34.018  36.533  1.00  0.00     0.198 A 
ATOM     87  C   UNL A   1      37.862  32.212  37.459  1.00  0.00     0.198 A 
ATOM     88  F   UNL A   1      37.953  30.080  36.469  1.00  0.00    -0.203 F 
ATOM     89  F   UNL A   1      39.545  35.295  36.574  1.00  0.00    -0.200 F 
ATOM     90  C   UNL A   1      38.259  33.540  37.491  1.00  0.00     0.200 A 
ATOM     91  F   UNL A   1      36.996  31.749  38.371  1.00  0.00    -0.200 F 
ATOM     92  F   UNL A   1      37.793  34.357  38.443  1.00  0.00    -0.200 F 
ENDBRANCH  58  82
BRANCH  70  93
ATOM     93  C   UNL A   1      44.749  27.654  34.661  1.00  0.00     0.064 A 
ATOM     94  C   UNL A   1      44.651  26.496  35.446  1.00  0.00     0.173 A 
ATOM     95  C   UNL A   1      45.948  28.380  34.698  1.00  0.00     0.173 A 
ATOM     96  F   UNL A   1      43.517  25.779  35.451  1.00  0.00    -0.203 F 
ATOM     97  C   UNL A   1      45.713  26.082  36.241  1.00  0.00     0.198 A 
ATOM     98  C   UNL A   1      47.018  27.949  35.478  1.00  0.00     0.198 A 
ATOM     99  F   UNL A   1      46.090  29.491  33.959  1.00  0.00    -0.203 F 
ATOM    100  F   UNL A   1      45.592  24.986  37.002  1.00  0.00    -0.200 F 
ATOM    101  C   UNL A   1      46.899  26.802  36.250  1.00  0.00     0.200 A 
ATOM    102  F   UNL A   1      48.167  28.640  35.476  1.00  0.00    -0.200 F 
ATOM    103  F   UNL A   1      47.929  26.393  37.004  1.00  0.00    -0.200 F 
ENDBRANCH  70  93
ENDBRANCH  44  45
ENDBRANCH  36  39
ENDBRANCH  34  35
ENDBRANCH  33  34
ENDBRANCH   1  33
TORSDOF 14
ENDMDL
