MODEL 1
REMARK VINA RESULT:     -13.5      0.000      0.000
REMARK SMILES CC[NH+]1CC[NH+]([C@@H]2CC(=O)N(c3ccc(C(=O)NCCCNC(=O)c4ccc(-c5c6nc(c(-c7c(F)c(F)c(F)c(F)c7F)c7ccc([nH]7)c(-c7c(F)c(F)c(F)c(F)c7F)c7nc(c(-c8c(F)c(F)c(F)c(F)c8F)c8ccc5[nH]8)C=C7)C=C6)cc4)cc3)C2=O)CC1
REMARK SMILES IDX 19 1 18 2 16 3 17 4 15 6 12 7 13 8 89 9 14 10 88 11 11 12
REMARK SMILES IDX 7 13 8 14 90 15 9 16 91 17 10 18 6 19 3 20 4 21 93 22 5 24
REMARK SMILES IDX 92 25 2 27 1 28 20 29 21 30 22 31 23 32 24 34 25 35 26 36
REMARK SMILES IDX 87 37 27 38 86 39 28 40 29 41 30 42 80 43 31 44 85 45 79 46
REMARK SMILES IDX 81 47 32 48 84 49 78 50 77 51 33 53 65 54 45 55 64 56 46 57
REMARK SMILES IDX 49 58 63 59 82 60 47 61 48 62 62 64 83 65 50 66 34 67 35 68
REMARK SMILES IDX 43 69 36 70 37 71 41 72 44 73 38 74 39 75 42 76 40 77 66 78
REMARK SMILES IDX 67 79 75 80 68 81 69 82 73 83 76 84 70 85 71 86 74 87 72 88
REMARK SMILES IDX 51 89 52 90 60 91 53 92 54 93 58 94 61 95 55 96 56 97 59 98
REMARK SMILES IDX 57 99
REMARK H PARENT 18 5 3 23 6 26 22 33 81 52 49 63
REMARK Flexibility Score: inf
ROOT
ATOM      1  C   UNL A   1      31.391  31.115  26.250  1.00  0.00     0.118 C 
ENDROOT
BRANCH   1   2
ATOM      2  N   UNL A   1      30.736  30.815  24.991  1.00  0.00    -0.352 N 
ATOM      3  C   UNL A   1      30.664  29.667  24.243  1.00  0.00     0.251 C 
ATOM      4  O   UNL A   1      29.991  29.704  23.212  1.00  0.00    -0.269 OA
ATOM      5  H   UNL A   1      30.252  31.578  24.600  1.00  0.00     0.163 HD
BRANCH   3   6
ATOM      6  C   UNL A   1      31.316  28.388  24.643  1.00  0.00     0.039 A 
ATOM      7  C   UNL A   1      32.394  25.890  25.364  1.00  0.00     0.052 A 
ATOM      8  C   UNL A   1      31.423  25.972  24.360  1.00  0.00     0.027 A 
ATOM      9  C   UNL A   1      32.849  27.056  25.972  1.00  0.00     0.027 A 
ATOM     10  C   UNL A   1      30.864  27.211  24.028  1.00  0.00     0.016 A 
ATOM     11  C   UNL A   1      32.358  28.293  25.567  1.00  0.00     0.016 A 
BRANCH   7  12
ATOM     12  N   UNL A   1      32.939  24.658  25.755  1.00  0.00    -0.245 N 
ATOM     13  C   UNL A   1      34.335  22.779  25.841  1.00  0.00     0.285 C 
ATOM     14  C   UNL A   1      33.246  22.653  26.902  1.00  0.00     0.176 C 
ATOM     15  C   UNL A   1      34.158  24.199  25.318  1.00  0.00     0.292 C 
ATOM     16  C   UNL A   1      32.354  23.828  26.675  1.00  0.00     0.240 C 
ATOM     17  O   UNL A   1      34.975  24.799  24.633  1.00  0.00    -0.267 OA
ATOM     18  O   UNL A   1      31.281  23.971  27.251  1.00  0.00    -0.274 OA
BRANCH  13  19
ATOM     19  N   UNL A   1      34.400  21.822  24.721  1.00  0.00    -0.315 N 
ATOM     20  N   UNL A   1      32.244  19.763  24.279  1.00  0.00    -0.326 N 
ATOM     21  C   UNL A   1      33.306  19.567  25.293  1.00  0.00     0.324 C 
ATOM     22  C   UNL A   1      32.063  21.199  24.005  1.00  0.00     0.324 C 
ATOM     23  H   UNL A   1      31.354  19.422  24.642  1.00  0.00     0.348 HD
ATOM     24  C   UNL A   1      34.594  20.417  25.112  1.00  0.00     0.325 C 
ATOM     25  C   UNL A   1      33.372  21.936  23.677  1.00  0.00     0.325 C 
ATOM     26  H   UNL A   1      35.262  22.142  24.279  1.00  0.00     0.349 HD
BRANCH  20  27
ATOM     27  C   UNL A   1      32.529  18.968  23.075  1.00  0.00     0.259 C 
ATOM     28  C   UNL A   1      33.002  17.548  23.376  1.00  0.00     0.071 C 
ENDBRANCH  20  27
ENDBRANCH  13  19
ENDBRANCH   7  12
ENDBRANCH   3   6
ENDBRANCH   1   2
BRANCH   1  29
ATOM     29  C   UNL A   1      31.403  32.622  26.510  1.00  0.00     0.042 C 
BRANCH  29  30
ATOM     30  C   UNL A   1      32.652  33.080  27.250  1.00  0.00     0.118 C 
BRANCH  30  31
ATOM     31  N   UNL A   1      32.524  34.456  27.708  1.00  0.00    -0.352 N 
ATOM     32  C   UNL A   1      33.103  35.083  28.778  1.00  0.00     0.251 C 
ATOM     33  H   UNL A   1      31.930  35.022  27.163  1.00  0.00     0.163 HD
ATOM     34  O   UNL A   1      32.665  36.166  29.156  1.00  0.00    -0.269 OA
BRANCH  32  35
ATOM     35  C   UNL A   1      34.247  34.464  29.477  1.00  0.00     0.039 A 
ATOM     36  C   UNL A   1      34.016  33.803  30.687  1.00  0.00     0.014 A 
ATOM     37  C   UNL A   1      35.545  34.575  28.975  1.00  0.00     0.014 A 
ATOM     38  C   UNL A   1      35.082  33.219  31.369  1.00  0.00     0.010 A 
ATOM     39  C   UNL A   1      36.594  33.922  29.611  1.00  0.00     0.010 A 
ATOM     40  C   UNL A   1      36.375  33.249  30.822  1.00  0.00    -0.014 A 
BRANCH  40  41
ATOM     41  C   UNL A   1      37.512  32.590  31.509  1.00  0.00     0.031 A 
ATOM     42  C   UNL A   1      38.215  31.429  30.863  1.00  0.00     0.074 A 
ATOM     43  C   UNL A   1      37.871  33.005  32.739  1.00  0.00     0.049 A 
ATOM     44  N   UNL A   1      39.184  30.683  31.330  1.00  0.00    -0.248 NA
ATOM     45  C   UNL A   1      37.747  31.034  29.524  1.00  0.00     0.031 C 
ATOM     46  C   UNL A   1      37.233  34.092  33.482  1.00  0.00     0.029 A 
ATOM     47  N   UNL A   1      38.852  32.554  33.585  1.00  0.00    -0.354 N 
ATOM     48  C   UNL A   1      39.432  29.729  30.353  1.00  0.00     0.074 A 
ATOM     49  C   UNL A   1      38.474  29.951  29.292  1.00  0.00     0.031 C 
ATOM     50  C   UNL A   1      37.854  34.240  34.662  1.00  0.00     0.029 A 
ATOM     51  C   UNL A   1      38.902  33.231  34.778  1.00  0.00     0.049 A 
ATOM     52  H   UNL A   1      39.462  31.816  33.358  1.00  0.00     0.167 HD
ATOM     53  C   UNL A   1      40.389  28.770  30.333  1.00  0.00     0.037 A 
ATOM     54  C   UNL A   1      39.697  33.050  35.850  1.00  0.00     0.037 A 
ATOM     55  C   UNL A   1      41.349  28.569  31.387  1.00  0.00     0.049 A 
ATOM     56  C   UNL A   1      40.738  31.964  35.809  1.00  0.00     0.074 A 
ATOM     57  C   UNL A   1      42.393  27.664  31.440  1.00  0.00     0.029 A 
ATOM     58  N   UNL A   1      41.375  29.280  32.577  1.00  0.00    -0.354 N 
ATOM     59  N   UNL A   1      41.012  31.114  34.850  1.00  0.00    -0.248 NA
ATOM     60  C   UNL A   1      41.586  31.818  37.000  1.00  0.00     0.031 C 
ATOM     61  C   UNL A   1      43.015  27.787  32.687  1.00  0.00     0.029 A 
ATOM     62  C   UNL A   1      42.400  28.815  33.385  1.00  0.00     0.049 A 
ATOM     63  H   UNL A   1      40.756  30.009  32.815  1.00  0.00     0.167 HD
ATOM     64  C   UNL A   1      42.080  30.354  35.306  1.00  0.00     0.074 A 
ATOM     65  C   UNL A   1      42.416  30.856  36.622  1.00  0.00     0.031 C 
ATOM     66  C   UNL A   1      42.725  29.331  34.691  1.00  0.00     0.037 A 
BRANCH  53  67
ATOM     67  C   UNL A   1      40.442  27.864  29.135  1.00  0.00     0.064 A 
ATOM     68  C   UNL A   1      39.676  26.690  29.062  1.00  0.00     0.173 A 
ATOM     69  C   UNL A   1      41.241  28.192  28.030  1.00  0.00     0.173 A 
ATOM     70  F   UNL A   1      38.902  26.324  30.095  1.00  0.00    -0.203 F 
ATOM     71  C   UNL A   1      39.733  25.863  27.943  1.00  0.00     0.198 A 
ATOM     72  C   UNL A   1      41.270  27.381  26.898  1.00  0.00     0.198 A 
ATOM     73  F   UNL A   1      41.990  29.305  28.041  1.00  0.00    -0.203 F 
ATOM     74  F   UNL A   1      39.034  24.721  27.920  1.00  0.00    -0.200 F 
ATOM     75  C   UNL A   1      40.523  26.214  26.858  1.00  0.00     0.200 A 
ATOM     76  F   UNL A   1      42.021  27.730  25.844  1.00  0.00    -0.200 F 
ATOM     77  F   UNL A   1      40.570  25.422  25.778  1.00  0.00    -0.200 F 
ENDBRANCH  53  67
BRANCH  54  78
ATOM     78  C   UNL A   1      39.550  33.926  37.042  1.00  0.00     0.064 A 
ATOM     79  C   UNL A   1      38.798  33.513  38.151  1.00  0.00     0.173 A 
ATOM     80  C   UNL A   1      40.152  35.191  37.097  1.00  0.00     0.173 A 
ATOM     81  F   UNL A   1      38.189  32.319  38.139  1.00  0.00    -0.203 F 
ATOM     82  C   UNL A   1      38.632  34.343  39.257  1.00  0.00     0.198 A 
ATOM     83  C   UNL A   1      40.013  36.007  38.218  1.00  0.00     0.198 A 
ATOM     84  F   UNL A   1      40.889  35.632  36.067  1.00  0.00    -0.203 F 
ATOM     85  F   UNL A   1      37.865  33.945  40.282  1.00  0.00    -0.200 F 
ATOM     86  C   UNL A   1      39.245  35.587  39.293  1.00  0.00     0.200 A 
ATOM     87  F   UNL A   1      40.622  37.200  38.256  1.00  0.00    -0.200 F 
ATOM     88  F   UNL A   1      39.088  36.383  40.359  1.00  0.00    -0.200 F 
ENDBRANCH  54  78
BRANCH  66  89
ATOM     89  C   UNL A   1      43.886  28.713  35.418  1.00  0.00     0.064 A 
ATOM     90  C   UNL A   1      45.198  29.178  35.245  1.00  0.00     0.173 A 
ATOM     91  C   UNL A   1      43.674  27.667  36.329  1.00  0.00     0.173 A 
ATOM     92  F   UNL A   1      45.456  30.166  34.375  1.00  0.00    -0.203 F 
ATOM     93  C   UNL A   1      46.259  28.596  35.935  1.00  0.00     0.198 A 
ATOM     94  C   UNL A   1      44.731  27.113  37.043  1.00  0.00     0.198 A 
ATOM     95  F   UNL A   1      42.437  27.191  36.537  1.00  0.00    -0.203 F 
ATOM     96  F   UNL A   1      47.510  29.019  35.713  1.00  0.00    -0.200 F 
ATOM     97  C   UNL A   1      46.024  27.572  36.839  1.00  0.00     0.200 A 
ATOM     98  F   UNL A   1      44.500  26.135  37.930  1.00  0.00    -0.200 F 
ATOM     99  F   UNL A   1      47.045  27.020  37.510  1.00  0.00    -0.200 F 
ENDBRANCH  66  89
ENDBRANCH  40  41
ENDBRANCH  32  35
ENDBRANCH  30  31
ENDBRANCH  29  30
ENDBRANCH   1  29
TORSDOF 13
ENDMDL
MODEL 2
REMARK VINA RESULT:     -13.5      1.150      1.846
REMARK SMILES CC[NH+]1CC[NH+]([C@@H]2CC(=O)N(c3ccc(C(=O)NCCCNC(=O)c4ccc(-c5c6nc(c(-c7c(F)c(F)c(F)c(F)c7F)c7ccc([nH]7)c(-c7c(F)c(F)c(F)c(F)c7F)c7nc(c(-c8c(F)c(F)c(F)c(F)c8F)c8ccc5[nH]8)C=C7)C=C6)cc4)cc3)C2=O)CC1
REMARK SMILES IDX 19 1 18 2 16 3 17 4 15 6 12 7 13 8 89 9 14 10 88 11 11 12
REMARK SMILES IDX 7 13 8 14 90 15 9 16 91 17 10 18 6 19 3 20 4 21 93 22 5 24
REMARK SMILES IDX 92 25 2 27 1 28 20 29 21 30 22 31 23 32 24 34 25 35 26 36
REMARK SMILES IDX 87 37 27 38 86 39 28 40 29 41 30 42 80 43 31 44 85 45 79 46
REMARK SMILES IDX 81 47 32 48 84 49 78 50 77 51 33 53 65 54 45 55 64 56 46 57
REMARK SMILES IDX 49 58 63 59 82 60 47 61 48 62 62 64 83 65 50 66 34 67 35 68
REMARK SMILES IDX 43 69 36 70 37 71 41 72 44 73 38 74 39 75 42 76 40 77 66 78
REMARK SMILES IDX 67 79 75 80 68 81 69 82 73 83 76 84 70 85 71 86 74 87 72 88
REMARK SMILES IDX 51 89 52 90 60 91 53 92 54 93 58 94 61 95 55 96 56 97 59 98
REMARK SMILES IDX 57 99
REMARK H PARENT 18 5 3 23 6 26 22 33 81 52 49 63
REMARK Flexibility Score: inf
ROOT
ATOM      1  C   UNL A   1      31.511  30.944  25.884  1.00  0.00     0.118 C 
ENDROOT
BRANCH   1   2
ATOM      2  N   UNL A   1      30.594  30.833  24.765  1.00  0.00    -0.352 N 
ATOM      3  C   UNL A   1      30.358  29.825  23.866  1.00  0.00     0.251 C 
ATOM      4  O   UNL A   1      29.475  30.008  23.028  1.00  0.00    -0.269 OA
ATOM      5  H   UNL A   1      30.035  31.632  24.625  1.00  0.00     0.163 HD
BRANCH   3   6
ATOM      6  C   UNL A   1      31.083  28.523  23.889  1.00  0.00     0.039 A 
ATOM      7  C   UNL A   1      32.300  25.987  23.984  1.00  0.00     0.052 A 
ATOM      8  C   UNL A   1      30.951  26.105  23.635  1.00  0.00     0.027 A 
ATOM      9  C   UNL A   1      33.042  27.135  24.245  1.00  0.00     0.027 A 
ATOM     10  C   UNL A   1      30.340  27.364  23.622  1.00  0.00     0.016 A 
ATOM     11  C   UNL A   1      32.451  28.390  24.134  1.00  0.00     0.016 A 
BRANCH   7  12
ATOM     12  N   UNL A   1      32.930  24.735  24.056  1.00  0.00    -0.245 N 
ATOM     13  C   UNL A   1      33.815  22.745  24.919  1.00  0.00     0.285 C 
ATOM     14  C   UNL A   1      34.037  22.789  23.410  1.00  0.00     0.176 C 
ATOM     15  C   UNL A   1      32.912  23.944  25.179  1.00  0.00     0.292 C 
ATOM     16  C   UNL A   1      33.554  24.138  22.992  1.00  0.00     0.240 C 
ATOM     17  O   UNL A   1      32.290  24.140  26.215  1.00  0.00    -0.267 OA
ATOM     18  O   UNL A   1      33.717  24.583  21.862  1.00  0.00    -0.274 OA
BRANCH  13  19
ATOM     19  N   UNL A   1      34.963  22.756  25.843  1.00  0.00    -0.315 N 
ATOM     20  N   UNL A   1      37.773  22.260  24.873  1.00  0.00    -0.326 N 
ATOM     21  C   UNL A   1      36.827  21.145  25.110  1.00  0.00     0.324 C 
ATOM     22  C   UNL A   1      37.032  23.506  24.612  1.00  0.00     0.324 C 
ATOM     23  H   UNL A   1      38.327  22.071  24.038  1.00  0.00     0.348 HD
ATOM     24  C   UNL A   1      35.620  21.454  26.037  1.00  0.00     0.325 C 
ATOM     25  C   UNL A   1      35.959  23.822  25.667  1.00  0.00     0.325 C 
ATOM     26  H   UNL A   1      34.477  22.989  26.709  1.00  0.00     0.349 HD
BRANCH  20  27
ATOM     27  C   UNL A   1      38.729  22.369  25.985  1.00  0.00     0.259 C 
ATOM     28  C   UNL A   1      39.662  21.167  26.111  1.00  0.00     0.071 C 
ENDBRANCH  20  27
ENDBRANCH  13  19
ENDBRANCH   7  12
ENDBRANCH   3   6
ENDBRANCH   1   2
BRANCH   1  29
ATOM     29  C   UNL A   1      31.303  32.264  26.628  1.00  0.00     0.042 C 
BRANCH  29  30
ATOM     30  C   UNL A   1      32.577  32.771  27.289  1.00  0.00     0.118 C 
BRANCH  30  31
ATOM     31  N   UNL A   1      32.455  34.169  27.675  1.00  0.00    -0.352 N 
ATOM     32  C   UNL A   1      33.053  34.854  28.698  1.00  0.00     0.251 C 
ATOM     33  H   UNL A   1      31.850  34.705  27.112  1.00  0.00     0.163 HD
ATOM     34  O   UNL A   1      32.621  35.955  29.026  1.00  0.00    -0.269 OA
BRANCH  32  35
ATOM     35  C   UNL A   1      34.211  34.274  29.408  1.00  0.00     0.039 A 
ATOM     36  C   UNL A   1      33.984  33.531  30.569  1.00  0.00     0.014 A 
ATOM     37  C   UNL A   1      35.516  34.501  28.964  1.00  0.00     0.014 A 
ATOM     38  C   UNL A   1      35.063  32.982  31.260  1.00  0.00     0.010 A 
ATOM     39  C   UNL A   1      36.585  33.885  29.605  1.00  0.00     0.010 A 
ATOM     40  C   UNL A   1      36.369  33.131  30.768  1.00  0.00    -0.014 A 
BRANCH  40  41
ATOM     41  C   UNL A   1      37.524  32.512  31.462  1.00  0.00     0.031 A 
ATOM     42  C   UNL A   1      38.245  31.348  30.841  1.00  0.00     0.074 A 
ATOM     43  C   UNL A   1      37.884  32.965  32.678  1.00  0.00     0.049 A 
ATOM     44  N   UNL A   1      39.232  30.634  31.320  1.00  0.00    -0.248 NA
ATOM     45  C   UNL A   1      37.775  30.910  29.517  1.00  0.00     0.031 C 
ATOM     46  C   UNL A   1      37.231  34.059  33.398  1.00  0.00     0.029 A 
ATOM     47  N   UNL A   1      38.879  32.555  33.528  1.00  0.00    -0.354 N 
ATOM     48  C   UNL A   1      39.491  29.660  30.365  1.00  0.00     0.074 A 
ATOM     49  C   UNL A   1      38.521  29.836  29.306  1.00  0.00     0.031 C 
ATOM     50  C   UNL A   1      37.857  34.250  34.570  1.00  0.00     0.029 A 
ATOM     51  C   UNL A   1      38.925  33.264  34.703  1.00  0.00     0.049 A 
ATOM     52  H   UNL A   1      39.503  31.824  33.316  1.00  0.00     0.167 HD
ATOM     53  C   UNL A   1      40.466  28.720  30.363  1.00  0.00     0.037 A 
ATOM     54  C   UNL A   1      39.731  33.126  35.773  1.00  0.00     0.037 A 
ATOM     55  C   UNL A   1      41.438  28.564  31.414  1.00  0.00     0.049 A 
ATOM     56  C   UNL A   1      40.793  32.060  35.752  1.00  0.00     0.074 A 
ATOM     57  C   UNL A   1      42.500  27.681  31.482  1.00  0.00     0.029 A 
ATOM     58  N   UNL A   1      41.458  29.307  32.585  1.00  0.00    -0.354 N 
ATOM     59  N   UNL A   1      41.076  31.191  34.813  1.00  0.00    -0.248 NA
ATOM     60  C   UNL A   1      41.653  31.961  36.939  1.00  0.00     0.031 C 
ATOM     61  C   UNL A   1      43.128  27.848  32.721  1.00  0.00     0.029 A 
ATOM     62  C   UNL A   1      42.498  28.882  33.396  1.00  0.00     0.049 A 
ATOM     63  H   UNL A   1      40.828  30.029  32.809  1.00  0.00     0.167 HD
ATOM     64  C   UNL A   1      42.163  30.464  35.280  1.00  0.00     0.074 A 
ATOM     65  C   UNL A   1      42.499  31.006  36.579  1.00  0.00     0.031 C 
ATOM     66  C   UNL A   1      42.823  29.438  34.686  1.00  0.00     0.037 A 
BRANCH  53  67
ATOM     67  C   UNL A   1      40.528  27.783  29.188  1.00  0.00     0.064 A 
ATOM     68  C   UNL A   1      39.704  26.650  29.101  1.00  0.00     0.173 A 
ATOM     69  C   UNL A   1      41.397  28.043  28.118  1.00  0.00     0.173 A 
ATOM     70  F   UNL A   1      38.862  26.350  30.102  1.00  0.00    -0.203 F 
ATOM     71  C   UNL A   1      39.770  25.796  28.004  1.00  0.00     0.198 A 
ATOM     72  C   UNL A   1      41.436  27.205  27.005  1.00  0.00     0.198 A 
ATOM     73  F   UNL A   1      42.203  29.114  28.143  1.00  0.00    -0.203 F 
ATOM     74  F   UNL A   1      39.012  24.692  27.970  1.00  0.00    -0.200 F 
ATOM     75  C   UNL A   1      40.630  26.078  26.953  1.00  0.00     0.200 A 
ATOM     76  F   UNL A   1      42.256  27.488  25.983  1.00  0.00    -0.200 F 
ATOM     77  F   UNL A   1      40.686  25.260  25.893  1.00  0.00    -0.200 F 
ENDBRANCH  53  67
BRANCH  54  78
ATOM     78  C   UNL A   1      39.576  34.030  36.943  1.00  0.00     0.064 A 
ATOM     79  C   UNL A   1      38.818  33.642  38.057  1.00  0.00     0.173 A 
ATOM     80  C   UNL A   1      40.177  35.297  36.972  1.00  0.00     0.173 A 
ATOM     81  F   UNL A   1      38.209  32.448  38.069  1.00  0.00    -0.203 F 
ATOM     82  C   UNL A   1      38.644  34.498  39.142  1.00  0.00     0.198 A 
ATOM     83  C   UNL A   1      40.030  36.138  38.073  1.00  0.00     0.198 A 
ATOM     84  F   UNL A   1      40.920  35.714  35.937  1.00  0.00    -0.203 F 
ATOM     85  F   UNL A   1      37.871  34.122  40.171  1.00  0.00    -0.200 F 
ATOM     86  C   UNL A   1      39.255  35.743  39.153  1.00  0.00     0.200 A 
ATOM     87  F   UNL A   1      40.637  37.332  38.087  1.00  0.00    -0.200 F 
ATOM     88  F   UNL A   1      39.091  36.564  40.199  1.00  0.00    -0.200 F 
ENDBRANCH  54  78
BRANCH  66  89
ATOM     89  C   UNL A   1      44.000  28.862  35.419  1.00  0.00     0.064 A 
ATOM     90  C   UNL A   1      45.306  29.332  35.208  1.00  0.00     0.173 A 
ATOM     91  C   UNL A   1      43.814  27.851  36.375  1.00  0.00     0.173 A 
ATOM     92  F   UNL A   1      45.540  30.286  34.295  1.00  0.00    -0.203 F 
ATOM     93  C   UNL A   1      46.382  28.789  35.905  1.00  0.00     0.198 A 
ATOM     94  C   UNL A   1      44.887  27.337  37.095  1.00  0.00     0.198 A 
ATOM     95  F   UNL A   1      42.585  27.372  36.622  1.00  0.00    -0.203 F 
ATOM     96  F   UNL A   1      47.626  29.215  35.646  1.00  0.00    -0.200 F 
ATOM     97  C   UNL A   1      46.172  27.800  36.853  1.00  0.00     0.200 A 
ATOM     98  F   UNL A   1      44.680  26.394  38.024  1.00  0.00    -0.200 F 
ATOM     99  F   UNL A   1      47.208  27.286  37.530  1.00  0.00    -0.200 F 
ENDBRANCH  66  89
ENDBRANCH  40  41
ENDBRANCH  32  35
ENDBRANCH  30  31
ENDBRANCH  29  30
ENDBRANCH   1  29
TORSDOF 13
ENDMDL
MODEL 3
REMARK VINA RESULT:     -13.4      5.458     11.309
REMARK SMILES CC[NH+]1CC[NH+]([C@@H]2CC(=O)N(c3ccc(C(=O)NCCCNC(=O)c4ccc(-c5c6nc(c(-c7c(F)c(F)c(F)c(F)c7F)c7ccc([nH]7)c(-c7c(F)c(F)c(F)c(F)c7F)c7nc(c(-c8c(F)c(F)c(F)c(F)c8F)c8ccc5[nH]8)C=C7)C=C6)cc4)cc3)C2=O)CC1
REMARK SMILES IDX 19 1 18 2 16 3 17 4 15 6 12 7 13 8 89 9 14 10 88 11 11 12
REMARK SMILES IDX 7 13 8 14 90 15 9 16 91 17 10 18 6 19 3 20 4 21 93 22 5 24
REMARK SMILES IDX 92 25 2 27 1 28 20 29 21 30 22 31 23 32 24 34 25 35 26 36
REMARK SMILES IDX 87 37 27 38 86 39 28 40 29 41 30 42 80 43 31 44 85 45 79 46
REMARK SMILES IDX 81 47 32 48 84 49 78 50 77 51 33 53 65 54 45 55 64 56 46 57
REMARK SMILES IDX 49 58 63 59 82 60 47 61 48 62 62 64 83 65 50 66 34 67 35 68
REMARK SMILES IDX 43 69 36 70 37 71 41 72 44 73 38 74 39 75 42 76 40 77 66 78
REMARK SMILES IDX 67 79 75 80 68 81 69 82 73 83 76 84 70 85 71 86 74 87 72 88
REMARK SMILES IDX 51 89 52 90 60 91 53 92 54 93 58 94 61 95 55 96 56 97 59 98
REMARK SMILES IDX 57 99
REMARK H PARENT 18 5 3 23 6 26 22 33 81 52 49 63
REMARK Flexibility Score: inf
ROOT
ATOM      1  C   UNL A   1      37.343  20.542  24.861  1.00  0.00     0.118 C 
ENDROOT
BRANCH   1   2
ATOM      2  N   UNL A   1      36.051  19.893  24.980  1.00  0.00    -0.352 N 
ATOM      3  C   UNL A   1      34.770  20.383  24.949  1.00  0.00     0.251 C 
ATOM      4  O   UNL A   1      33.850  19.569  25.043  1.00  0.00    -0.269 OA
ATOM      5  H   UNL A   1      36.104  18.918  25.105  1.00  0.00     0.163 HD
BRANCH   3   6
ATOM      6  C   UNL A   1      34.451  21.826  24.765  1.00  0.00     0.039 A 
ATOM      7  C   UNL A   1      33.735  24.506  24.288  1.00  0.00     0.052 A 
ATOM      8  C   UNL A   1      32.796  23.486  24.105  1.00  0.00     0.027 A 
ATOM      9  C   UNL A   1      35.011  24.188  24.743  1.00  0.00     0.027 A 
ATOM     10  C   UNL A   1      33.164  22.152  24.311  1.00  0.00     0.016 A 
ATOM     11  C   UNL A   1      35.339  22.868  25.038  1.00  0.00     0.016 A 
BRANCH   7  12
ATOM     12  N   UNL A   1      33.412  25.849  24.042  1.00  0.00    -0.245 N 
ATOM     13  C   UNL A   1      32.663  28.044  24.371  1.00  0.00     0.285 C 
ATOM     14  C   UNL A   1      33.141  27.880  22.932  1.00  0.00     0.176 C 
ATOM     15  C   UNL A   1      33.085  26.740  25.036  1.00  0.00     0.292 C 
ATOM     16  C   UNL A   1      33.473  26.430  22.803  1.00  0.00     0.240 C 
ATOM     17  O   UNL A   1      33.118  26.549  26.245  1.00  0.00    -0.267 OA
ATOM     18  O   UNL A   1      33.749  25.903  21.731  1.00  0.00    -0.274 OA
BRANCH  13  19
ATOM     19  N   UNL A   1      31.247  28.335  24.660  1.00  0.00    -0.315 N 
ATOM     20  N   UNL A   1      29.272  28.895  22.453  1.00  0.00    -0.326 N 
ATOM     21  C   UNL A   1      30.205  29.937  22.941  1.00  0.00     0.324 C 
ATOM     22  C   UNL A   1      29.816  27.556  22.734  1.00  0.00     0.324 C 
ATOM     23  H   UNL A   1      29.178  28.964  21.440  1.00  0.00     0.348 HD
ATOM     24  C   UNL A   1      30.816  29.707  24.350  1.00  0.00     0.325 C 
ATOM     25  C   UNL A   1      30.252  27.358  24.195  1.00  0.00     0.325 C 
ATOM     26  H   UNL A   1      31.260  28.235  25.675  1.00  0.00     0.349 HD
BRANCH  20  27
ATOM     27  C   UNL A   1      27.927  29.109  23.007  1.00  0.00     0.259 C 
ATOM     28  C   UNL A   1      27.575  30.580  23.214  1.00  0.00     0.071 C 
ENDBRANCH  20  27
ENDBRANCH  13  19
ENDBRANCH   7  12
ENDBRANCH   3   6
ENDBRANCH   1   2
BRANCH   1  29
ATOM     29  C   UNL A   1      38.476  19.518  24.941  1.00  0.00     0.042 C 
BRANCH  29  30
ATOM     30  C   UNL A   1      39.429  19.785  26.097  1.00  0.00     0.118 C 
BRANCH  30  31
ATOM     31  N   UNL A   1      40.582  18.899  26.051  1.00  0.00    -0.352 N 
ATOM     32  C   UNL A   1      41.918  19.195  26.013  1.00  0.00     0.251 C 
ATOM     33  H   UNL A   1      40.368  17.937  26.047  1.00  0.00     0.163 HD
ATOM     34  O   UNL A   1      42.725  18.323  25.706  1.00  0.00    -0.269 OA
BRANCH  32  35
ATOM     35  C   UNL A   1      42.390  20.556  26.338  1.00  0.00     0.039 A 
ATOM     36  C   UNL A   1      42.702  21.426  25.290  1.00  0.00     0.014 A 
ATOM     37  C   UNL A   1      42.573  20.959  27.663  1.00  0.00     0.014 A 
ATOM     38  C   UNL A   1      43.158  22.713  25.574  1.00  0.00     0.010 A 
ATOM     39  C   UNL A   1      42.948  22.267  27.946  1.00  0.00     0.010 A 
ATOM     40  C   UNL A   1      43.257  23.153  26.903  1.00  0.00    -0.014 A 
BRANCH  40  41
ATOM     41  C   UNL A   1      43.692  24.534  27.222  1.00  0.00     0.031 A 
ATOM     42  C   UNL A   1      42.698  25.543  27.726  1.00  0.00     0.074 A 
ATOM     43  C   UNL A   1      44.972  24.891  27.003  1.00  0.00     0.049 A 
ATOM     44  N   UNL A   1      42.871  26.811  27.998  1.00  0.00    -0.248 NA
ATOM     45  C   UNL A   1      41.318  25.070  27.923  1.00  0.00     0.031 C 
ATOM     46  C   UNL A   1      46.015  24.009  26.475  1.00  0.00     0.029 A 
ATOM     47  N   UNL A   1      45.612  26.090  27.184  1.00  0.00    -0.354 N 
ATOM     48  C   UNL A   1      41.626  27.288  28.385  1.00  0.00     0.074 A 
ATOM     49  C   UNL A   1      40.693  26.189  28.256  1.00  0.00     0.031 C 
ATOM     50  C   UNL A   1      47.169  24.690  26.399  1.00  0.00     0.029 A 
ATOM     51  C   UNL A   1      46.937  26.066  26.828  1.00  0.00     0.049 A 
ATOM     52  H   UNL A   1      45.163  26.892  27.538  1.00  0.00     0.167 HD
ATOM     53  C   UNL A   1      41.296  28.524  28.829  1.00  0.00     0.037 A 
ATOM     54  C   UNL A   1      47.859  27.047  26.836  1.00  0.00     0.037 A 
ATOM     55  C   UNL A   1      42.236  29.606  28.970  1.00  0.00     0.049 A 
ATOM     56  C   UNL A   1      47.461  28.417  27.316  1.00  0.00     0.074 A 
ATOM     57  C   UNL A   1      42.017  30.880  29.464  1.00  0.00     0.029 A 
ATOM     58  N   UNL A   1      43.573  29.542  28.607  1.00  0.00    -0.354 N 
ATOM     59  N   UNL A   1      46.298  28.838  27.748  1.00  0.00    -0.248 NA
ATOM     60  C   UNL A   1      48.509  29.447  27.316  1.00  0.00     0.031 C 
ATOM     61  C   UNL A   1      43.207  31.605  29.345  1.00  0.00     0.029 A 
ATOM     62  C   UNL A   1      44.186  30.763  28.839  1.00  0.00     0.049 A 
ATOM     63  H   UNL A   1      44.023  28.747  28.239  1.00  0.00     0.167 HD
ATOM     64  C   UNL A   1      46.479  30.169  28.100  1.00  0.00     0.074 A 
ATOM     65  C   UNL A   1      47.870  30.480  27.846  1.00  0.00     0.031 C 
ATOM     66  C   UNL A   1      45.575  31.054  28.587  1.00  0.00     0.037 A 
BRANCH  53  67
ATOM     67  C   UNL A   1      39.859  28.774  29.193  1.00  0.00     0.064 A 
ATOM     68  C   UNL A   1      39.379  28.564  30.495  1.00  0.00     0.173 A 
ATOM     69  C   UNL A   1      38.959  29.266  28.237  1.00  0.00     0.173 A 
ATOM     70  F   UNL A   1      40.196  28.086  31.447  1.00  0.00    -0.203 F 
ATOM     71  C   UNL A   1      38.046  28.806  30.818  1.00  0.00     0.198 A 
ATOM     72  C   UNL A   1      37.634  29.539  28.571  1.00  0.00     0.198 A 
ATOM     73  F   UNL A   1      39.363  29.491  26.978  1.00  0.00    -0.203 F 
ATOM     74  F   UNL A   1      37.600  28.547  32.054  1.00  0.00    -0.200 F 
ATOM     75  C   UNL A   1      37.177  29.301  29.857  1.00  0.00     0.200 A 
ATOM     76  F   UNL A   1      36.800  30.032  27.645  1.00  0.00    -0.200 F 
ATOM     77  F   UNL A   1      35.897  29.542  30.171  1.00  0.00    -0.200 F 
ENDBRANCH  53  67
BRANCH  54  78
ATOM     78  C   UNL A   1      49.250  26.765  26.391  1.00  0.00     0.064 A 
ATOM     79  C   UNL A   1      49.637  26.978  25.061  1.00  0.00     0.173 A 
ATOM     80  C   UNL A   1      50.217  26.276  27.282  1.00  0.00     0.173 A 
ATOM     81  F   UNL A   1      48.745  27.427  24.168  1.00  0.00    -0.203 F 
ATOM     82  C   UNL A   1      50.930  26.686  24.633  1.00  0.00     0.198 A 
ATOM     83  C   UNL A   1      51.519  26.017  26.860  1.00  0.00     0.198 A 
ATOM     84  F   UNL A   1      49.901  26.064  28.568  1.00  0.00    -0.203 F 
ATOM     85  F   UNL A   1      51.259  26.848  23.344  1.00  0.00    -0.200 F 
ATOM     86  C   UNL A   1      51.872  26.211  25.533  1.00  0.00     0.200 A 
ATOM     87  F   UNL A   1      52.430  25.576  27.738  1.00  0.00    -0.200 F 
ATOM     88  F   UNL A   1      53.117  25.935  25.122  1.00  0.00    -0.200 F 
ENDBRANCH  54  78
BRANCH  66  89
ATOM     89  C   UNL A   1      46.071  32.433  28.918  1.00  0.00     0.064 A 
ATOM     90  C   UNL A   1      46.026  33.479  27.983  1.00  0.00     0.173 A 
ATOM     91  C   UNL A   1      46.563  32.720  30.200  1.00  0.00     0.173 A 
ATOM     92  F   UNL A   1      45.579  33.253  26.739  1.00  0.00    -0.203 F 
ATOM     93  C   UNL A   1      46.484  34.752  28.312  1.00  0.00     0.198 A 
ATOM     94  C   UNL A   1      46.985  34.002  30.537  1.00  0.00     0.198 A 
ATOM     95  F   UNL A   1      46.619  31.758  31.134  1.00  0.00    -0.203 F 
ATOM     96  F   UNL A   1      46.483  35.721  27.387  1.00  0.00    -0.200 F 
ATOM     97  C   UNL A   1      46.954  35.015  29.589  1.00  0.00     0.200 A 
ATOM     98  F   UNL A   1      47.423  34.259  31.777  1.00  0.00    -0.200 F 
ATOM     99  F   UNL A   1      47.385  36.243  29.908  1.00  0.00    -0.200 F 
ENDBRANCH  66  89
ENDBRANCH  40  41
ENDBRANCH  32  35
ENDBRANCH  30  31
ENDBRANCH  29  30
ENDBRANCH   1  29
TORSDOF 13
ENDMDL
