MODEL 1
REMARK VINA RESULT:     -13.8      0.000      0.000
REMARK SMILES O=C(COc1ccccc1/C=N/NC(=O)c1cc(-c2ccc(F)cc2)nc2ccccc12)NCCCNC(=O)c1ccc(-c2c3nc(c(-c4c(F)c(F)c(F)c(F)c4F)c4ccc([nH]4)c(-c4c(F)c(F)c(F)c(F)c4F)c4nc(c(-c5c(F)c(F)c(F)c(F)c5F)c5ccc2[nH]5)C=C4)C=C3)cc1
REMARK SMILES IDX 1 1 2 2 33 3 3 5 4 6 5 7 6 8 10 9 7 10 9 11 8 12 11 13 12 14
REMARK SMILES IDX 13 15 14 16 15 18 16 19 17 20 32 21 18 22 27 23 31 24 26 25
REMARK SMILES IDX 28 26 30 27 29 28 19 29 20 30 25 31 21 32 24 33 22 34 23 35
REMARK SMILES IDX 34 36 35 37 36 38 37 39 38 40 39 42 40 43 41 44 102 45 42 46
REMARK SMILES IDX 101 47 43 48 44 49 45 50 95 51 46 52 100 53 94 54 96 55
REMARK SMILES IDX 47 56 99 57 93 58 92 59 48 61 80 62 60 63 79 64 61 65 64 66
REMARK SMILES IDX 78 67 97 68 62 69 63 70 77 72 98 73 65 74 49 75 50 76 58 77
REMARK SMILES IDX 51 78 52 79 56 80 59 81 53 82 54 83 57 84 55 85 81 86 82 87
REMARK SMILES IDX 90 88 83 89 84 90 88 91 91 92 85 93 86 94 89 95 87 96 66 97
REMARK SMILES IDX 67 98 75 99 68 100 69 101 73 102 76 103 70 104 71 105 74 106
REMARK SMILES IDX 72 107
REMARK H PARENT 33 4 13 17 37 41 96 60 64 71
REMARK Flexibility Score: inf
ROOT
ATOM      1  O   UNL A   1      32.945  28.271  27.029  1.00  0.00    -0.271 OA
ATOM      2  C   UNL A   1      33.243  29.230  26.337  1.00  0.00     0.257 C 
ATOM      3  N   UNL A   1      34.276  30.131  26.542  1.00  0.00    -0.353 N 
ATOM      4  H   UNL A   1      34.943  30.222  25.825  1.00  0.00     0.163 HD
ENDROOT
BRANCH   2   5
ATOM      5  C   UNL A   1      32.458  29.458  25.084  1.00  0.00     0.329 C 
BRANCH   5   6
ATOM      6  O   UNL A   1      32.284  28.156  24.564  1.00  0.00    -0.483 OA
BRANCH   6   7
ATOM      7  C   UNL A   1      31.168  28.009  23.789  1.00  0.00     0.128 A 
ATOM      8  C   UNL A   1      31.135  29.048  22.834  1.00  0.00     0.047 A 
ATOM      9  C   UNL A   1      30.031  27.221  24.067  1.00  0.00     0.037 A 
ATOM     10  C   UNL A   1      29.954  29.408  22.211  1.00  0.00     0.004 A 
ATOM     11  C   UNL A   1      28.834  27.651  23.452  1.00  0.00     0.013 A 
ATOM     12  C   UNL A   1      28.792  28.733  22.552  1.00  0.00     0.001 A 
BRANCH   9  13
ATOM     13  C   UNL A   1      29.806  26.053  25.026  1.00  0.00     0.145 C 
ATOM     14  N   UNL A   1      30.170  25.874  26.284  1.00  0.00    -0.180 NA
BRANCH  14  15
ATOM     15  N   UNL A   1      29.847  24.597  26.794  1.00  0.00    -0.243 N 
ATOM     16  C   UNL A   1      30.185  23.260  26.471  1.00  0.00     0.272 C 
ATOM     17  H   UNL A   1      29.236  24.650  27.566  1.00  0.00     0.194 HD
ATOM     18  O   UNL A   1      29.536  22.423  27.119  1.00  0.00    -0.267 OA
BRANCH  16  19
ATOM     19  C   UNL A   1      31.340  22.720  25.646  1.00  0.00     0.053 A 
ATOM     20  C   UNL A   1      31.504  21.397  25.264  1.00  0.00     0.043 A 
ATOM     21  C   UNL A   1      32.480  23.531  25.303  1.00  0.00     0.013 A 
ATOM     22  C   UNL A   1      32.256  21.138  24.113  1.00  0.00     0.072 A 
ATOM     23  C   UNL A   1      33.180  23.152  24.143  1.00  0.00     0.072 A 
ATOM     24  C   UNL A   1      33.110  24.539  26.074  1.00  0.00     0.011 A 
ATOM     25  N   UNL A   1      32.794  22.146  23.411  1.00  0.00    -0.248 NA
ATOM     26  C   UNL A   1      34.430  23.634  23.808  1.00  0.00     0.029 A 
ATOM     27  C   UNL A   1      34.420  24.969  25.779  1.00  0.00     0.001 A 
ATOM     28  C   UNL A   1      35.091  24.495  24.659  1.00  0.00     0.002 A 
BRANCH  22  29
ATOM     29  C   UNL A   1      33.013  19.933  23.714  1.00  0.00     0.000 A 
ATOM     30  C   UNL A   1      32.373  19.096  22.774  1.00  0.00     0.013 A 
ATOM     31  C   UNL A   1      33.867  19.325  24.668  1.00  0.00     0.013 A 
ATOM     32  C   UNL A   1      32.417  17.706  22.913  1.00  0.00     0.040 A 
ATOM     33  C   UNL A   1      33.925  17.932  24.789  1.00  0.00     0.040 A 
ATOM     34  C   UNL A   1      33.163  17.140  23.938  1.00  0.00     0.123 A 
ATOM     35  F   UNL A   1      33.090  15.819  24.153  1.00  0.00    -0.207 F 
ENDBRANCH  22  29
ENDBRANCH  16  19
ENDBRANCH  14  15
ENDBRANCH   9  13
ENDBRANCH   6   7
ENDBRANCH   5   6
ENDBRANCH   2   5
BRANCH   3  36
ATOM     36  C   UNL A   1      34.456  30.956  27.729  1.00  0.00     0.117 C 
BRANCH  36  37
ATOM     37  C   UNL A   1      33.373  31.940  28.042  1.00  0.00     0.042 C 
BRANCH  37  38
ATOM     38  C   UNL A   1      33.604  33.241  27.344  1.00  0.00     0.118 C 
BRANCH  38  39
ATOM     39  N   UNL A   1      33.027  34.330  28.119  1.00  0.00    -0.352 N 
ATOM     40  C   UNL A   1      33.253  34.623  29.436  1.00  0.00     0.251 C 
ATOM     41  H   UNL A   1      32.403  34.923  27.640  1.00  0.00     0.163 HD
ATOM     42  O   UNL A   1      32.457  35.317  30.059  1.00  0.00    -0.269 OA
BRANCH  40  43
ATOM     43  C   UNL A   1      34.470  34.096  30.089  1.00  0.00     0.039 A 
ATOM     44  C   UNL A   1      35.719  34.488  29.615  1.00  0.00     0.014 A 
ATOM     45  C   UNL A   1      34.374  33.197  31.157  1.00  0.00     0.014 A 
ATOM     46  C   UNL A   1      36.863  33.958  30.205  1.00  0.00     0.010 A 
ATOM     47  C   UNL A   1      35.505  32.812  31.851  1.00  0.00     0.010 A 
ATOM     48  C   UNL A   1      36.762  33.119  31.329  1.00  0.00    -0.014 A 
BRANCH  48  49
ATOM     49  C   UNL A   1      37.957  32.458  31.897  1.00  0.00     0.031 A 
ATOM     50  C   UNL A   1      38.497  32.914  33.227  1.00  0.00     0.074 A 
ATOM     51  C   UNL A   1      38.537  31.452  31.221  1.00  0.00     0.049 A 
ATOM     52  N   UNL A   1      39.499  32.435  33.921  1.00  0.00    -0.248 NA
ATOM     53  C   UNL A   1      37.850  34.080  33.855  1.00  0.00     0.031 C 
ATOM     54  C   UNL A   1      38.128  30.972  29.901  1.00  0.00     0.029 A 
ATOM     55  N   UNL A   1      39.586  30.640  31.564  1.00  0.00    -0.354 N 
ATOM     56  C   UNL A   1      39.599  33.243  35.046  1.00  0.00     0.074 A 
ATOM     57  C   UNL A   1      38.621  34.294  34.908  1.00  0.00     0.031 C 
ATOM     58  C   UNL A   1      38.879  29.910  29.570  1.00  0.00     0.029 A 
ATOM     59  C   UNL A   1      39.850  29.669  30.633  1.00  0.00     0.049 A 
ATOM     60  H   UNL A   1      40.101  30.745  32.397  1.00  0.00     0.167 HD
ATOM     61  C   UNL A   1      40.408  33.098  36.122  1.00  0.00     0.037 A 
ATOM     62  C   UNL A   1      40.773  28.690  30.644  1.00  0.00     0.037 A 
ATOM     63  C   UNL A   1      41.370  32.038  36.254  1.00  0.00     0.049 A 
ATOM     64  C   UNL A   1      41.673  28.561  31.844  1.00  0.00     0.074 A 
ATOM     65  C   UNL A   1      42.216  31.768  37.313  1.00  0.00     0.029 A 
ATOM     66  N   UNL A   1      41.618  31.076  35.284  1.00  0.00    -0.354 N 
ATOM     67  N   UNL A   1      41.711  29.286  32.937  1.00  0.00    -0.248 NA
ATOM     68  C   UNL A   1      42.647  27.465  31.816  1.00  0.00     0.031 C 
ATOM     69  C   UNL A   1      43.027  30.688  36.954  1.00  0.00     0.029 A 
ATOM     70  C   UNL A   1      42.625  30.227  35.711  1.00  0.00     0.049 A 
ATOM     71  H   UNL A   1      41.147  31.009  34.422  1.00  0.00     0.167 HD
ATOM     72  C   UNL A   1      42.684  28.708  33.744  1.00  0.00     0.074 A 
ATOM     73  C   UNL A   1      43.194  27.564  33.019  1.00  0.00     0.031 C 
ATOM     74  C   UNL A   1      43.112  29.087  34.975  1.00  0.00     0.037 A 
BRANCH  61  75
ATOM     75  C   UNL A   1      40.289  34.113  37.225  1.00  0.00     0.064 A 
ATOM     76  C   UNL A   1      39.381  33.957  38.285  1.00  0.00     0.173 A 
ATOM     77  C   UNL A   1      41.110  35.250  37.234  1.00  0.00     0.173 A 
ATOM     78  F   UNL A   1      38.559  32.897  38.321  1.00  0.00    -0.203 F 
ATOM     79  C   UNL A   1      39.275  34.916  39.289  1.00  0.00     0.198 A 
ATOM     80  C   UNL A   1      41.031  36.187  38.261  1.00  0.00     0.198 A 
ATOM     81  F   UNL A   1      41.998  35.452  36.249  1.00  0.00    -0.203 F 
ATOM     82  F   UNL A   1      38.355  34.777  40.254  1.00  0.00    -0.200 F 
ATOM     83  C   UNL A   1      40.107  36.026  39.282  1.00  0.00     0.200 A 
ATOM     84  F   UNL A   1      41.848  37.249  38.261  1.00  0.00    -0.200 F 
ATOM     85  F   UNL A   1      40.011  36.943  40.253  1.00  0.00    -0.200 F 
ENDBRANCH  61  75
BRANCH  62  86
ATOM     86  C   UNL A   1      40.872  27.746  29.499  1.00  0.00     0.064 A 
ATOM     87  C   UNL A   1      41.895  27.863  28.547  1.00  0.00     0.173 A 
ATOM     88  C   UNL A   1      39.937  26.715  29.327  1.00  0.00     0.173 A 
ATOM     89  F   UNL A   1      42.808  28.840  28.660  1.00  0.00    -0.203 F 
ATOM     90  C   UNL A   1      41.955  27.011  27.447  1.00  0.00     0.198 A 
ATOM     91  C   UNL A   1      40.021  25.840  28.248  1.00  0.00     0.198 A 
ATOM     92  F   UNL A   1      38.946  26.551  30.216  1.00  0.00    -0.203 F 
ATOM     93  F   UNL A   1      42.904  27.187  26.517  1.00  0.00    -0.200 F 
ATOM     94  C   UNL A   1      41.022  25.997  27.301  1.00  0.00     0.200 A 
ATOM     95  F   UNL A   1      39.129  24.848  28.123  1.00  0.00    -0.200 F 
ATOM     96  F   UNL A   1      41.079  25.177  26.243  1.00  0.00    -0.200 F 
ENDBRANCH  62  86
BRANCH  74  97
ATOM     97  C   UNL A   1      44.138  28.212  35.642  1.00  0.00     0.064 A 
ATOM     98  C   UNL A   1      45.516  28.386  35.439  1.00  0.00     0.173 A 
ATOM     99  C   UNL A   1      43.730  27.186  36.508  1.00  0.00     0.173 A 
ATOM    100  F   UNL A   1      45.962  29.348  34.616  1.00  0.00    -0.203 F 
ATOM    101  C   UNL A   1      46.440  27.530  36.031  1.00  0.00     0.198 A 
ATOM    102  C   UNL A   1      44.657  26.363  37.137  1.00  0.00     0.198 A 
ATOM    103  F   UNL A   1      42.425  26.985  36.752  1.00  0.00    -0.203 F 
ATOM    104  F   UNL A   1      47.745  27.662  35.755  1.00  0.00    -0.200 F 
ATOM    105  C   UNL A   1      46.011  26.524  36.883  1.00  0.00     0.200 A 
ATOM    106  F   UNL A   1      44.241  25.409  37.980  1.00  0.00    -0.200 F 
ATOM    107  F   UNL A   1      46.901  25.700  37.453  1.00  0.00    -0.200 F 
ENDBRANCH  74  97
ENDBRANCH  48  49
ENDBRANCH  40  43
ENDBRANCH  38  39
ENDBRANCH  37  38
ENDBRANCH  36  37
ENDBRANCH   3  36
TORSDOF 16
ENDMDL
MODEL 2
REMARK VINA RESULT:     -13.7      1.850      2.541
REMARK SMILES O=C(COc1ccccc1/C=N/NC(=O)c1cc(-c2ccc(F)cc2)nc2ccccc12)NCCCNC(=O)c1ccc(-c2c3nc(c(-c4c(F)c(F)c(F)c(F)c4F)c4ccc([nH]4)c(-c4c(F)c(F)c(F)c(F)c4F)c4nc(c(-c5c(F)c(F)c(F)c(F)c5F)c5ccc2[nH]5)C=C4)C=C3)cc1
REMARK SMILES IDX 1 1 2 2 33 3 3 5 4 6 5 7 6 8 10 9 7 10 9 11 8 12 11 13 12 14
REMARK SMILES IDX 13 15 14 16 15 18 16 19 17 20 32 21 18 22 27 23 31 24 26 25
REMARK SMILES IDX 28 26 30 27 29 28 19 29 20 30 25 31 21 32 24 33 22 34 23 35
REMARK SMILES IDX 34 36 35 37 36 38 37 39 38 40 39 42 40 43 41 44 102 45 42 46
REMARK SMILES IDX 101 47 43 48 44 49 45 50 95 51 46 52 100 53 94 54 96 55
REMARK SMILES IDX 47 56 99 57 93 58 92 59 48 61 80 62 60 63 79 64 61 65 64 66
REMARK SMILES IDX 78 67 97 68 62 69 63 70 77 72 98 73 65 74 49 75 50 76 58 77
REMARK SMILES IDX 51 78 52 79 56 80 59 81 53 82 54 83 57 84 55 85 81 86 82 87
REMARK SMILES IDX 90 88 83 89 84 90 88 91 91 92 85 93 86 94 89 95 87 96 66 97
REMARK SMILES IDX 67 98 75 99 68 100 69 101 73 102 76 103 70 104 71 105 74 106
REMARK SMILES IDX 72 107
REMARK H PARENT 33 4 13 17 37 41 96 60 64 71
REMARK Flexibility Score: inf
ROOT
ATOM      1  O   UNL A   1      32.700  27.899  27.037  1.00  0.00    -0.271 OA
ATOM      2  C   UNL A   1      32.431  28.867  26.348  1.00  0.00     0.257 C 
ATOM      3  N   UNL A   1      33.093  30.085  26.305  1.00  0.00    -0.353 N 
ATOM      4  H   UNL A   1      33.451  30.373  25.436  1.00  0.00     0.163 HD
ENDROOT
BRANCH   2   5
ATOM      5  C   UNL A   1      31.294  28.745  25.383  1.00  0.00     0.329 C 
BRANCH   5   6
ATOM      6  O   UNL A   1      31.168  30.049  24.857  1.00  0.00    -0.483 OA
BRANCH   6   7
ATOM      7  C   UNL A   1      30.218  30.169  23.881  1.00  0.00     0.128 A 
ATOM      8  C   UNL A   1      29.303  31.177  24.257  1.00  0.00     0.047 A 
ATOM      9  C   UNL A   1      29.926  29.247  22.855  1.00  0.00     0.037 A 
ATOM     10  C   UNL A   1      28.036  31.233  23.705  1.00  0.00     0.004 A 
ATOM     11  C   UNL A   1      28.606  29.301  22.354  1.00  0.00     0.013 A 
ATOM     12  C   UNL A   1      27.673  30.266  22.780  1.00  0.00     0.001 A 
BRANCH   9  13
ATOM     13  C   UNL A   1      30.727  28.090  22.261  1.00  0.00     0.145 C 
ATOM     14  N   UNL A   1      32.025  27.846  22.243  1.00  0.00    -0.180 NA
BRANCH  14  15
ATOM     15  N   UNL A   1      32.380  26.699  21.497  1.00  0.00    -0.243 N 
ATOM     16  C   UNL A   1      33.054  25.483  21.766  1.00  0.00     0.272 C 
ATOM     17  H   UNL A   1      32.084  26.762  20.559  1.00  0.00     0.194 HD
ATOM     18  O   UNL A   1      33.270  24.810  20.746  1.00  0.00    -0.267 OA
BRANCH  16  19
ATOM     19  C   UNL A   1      33.338  24.799  23.092  1.00  0.00     0.053 A 
ATOM     20  C   UNL A   1      34.407  23.953  23.346  1.00  0.00     0.043 A 
ATOM     21  C   UNL A   1      32.413  24.854  24.195  1.00  0.00     0.013 A 
ATOM     22  C   UNL A   1      34.849  23.837  24.668  1.00  0.00     0.072 A 
ATOM     23  C   UNL A   1      32.970  24.689  25.476  1.00  0.00     0.072 A 
ATOM     24  C   UNL A   1      30.997  24.856  24.159  1.00  0.00     0.011 A 
ATOM     25  N   UNL A   1      34.252  24.530  25.648  1.00  0.00    -0.248 NA
ATOM     26  C   UNL A   1      32.224  24.448  26.613  1.00  0.00     0.029 A 
ATOM     27  C   UNL A   1      30.239  24.528  25.302  1.00  0.00     0.001 A 
ATOM     28  C   UNL A   1      30.856  24.297  26.524  1.00  0.00     0.002 A 
BRANCH  22  29
ATOM     29  C   UNL A   1      35.568  22.738  25.346  1.00  0.00     0.000 A 
ATOM     30  C   UNL A   1      36.964  22.909  25.471  1.00  0.00     0.013 A 
ATOM     31  C   UNL A   1      35.074  21.417  25.201  1.00  0.00     0.013 A 
ATOM     32  C   UNL A   1      37.835  21.839  25.250  1.00  0.00     0.040 A 
ATOM     33  C   UNL A   1      35.951  20.345  25.001  1.00  0.00     0.040 A 
ATOM     34  C   UNL A   1      37.321  20.577  24.983  1.00  0.00     0.123 A 
ATOM     35  F   UNL A   1      38.154  19.588  24.634  1.00  0.00    -0.207 F 
ENDBRANCH  22  29
ENDBRANCH  16  19
ENDBRANCH  14  15
ENDBRANCH   9  13
ENDBRANCH   6   7
ENDBRANCH   5   6
ENDBRANCH   2   5
BRANCH   3  36
ATOM     36  C   UNL A   1      33.301  30.974  27.440  1.00  0.00     0.117 C 
BRANCH  36  37
ATOM     37  C   UNL A   1      32.440  32.196  27.511  1.00  0.00     0.042 C 
BRANCH  37  38
ATOM     38  C   UNL A   1      33.192  33.416  27.086  1.00  0.00     0.118 C 
BRANCH  38  39
ATOM     39  N   UNL A   1      32.905  34.519  27.991  1.00  0.00    -0.352 N 
ATOM     40  C   UNL A   1      33.338  34.669  29.280  1.00  0.00     0.251 C 
ATOM     41  H   UNL A   1      32.334  35.238  27.635  1.00  0.00     0.163 HD
ATOM     42  O   UNL A   1      32.752  35.430  30.043  1.00  0.00    -0.269 OA
BRANCH  40  43
ATOM     43  C   UNL A   1      34.521  33.907  29.733  1.00  0.00     0.039 A 
ATOM     44  C   UNL A   1      34.341  32.805  30.565  1.00  0.00     0.014 A 
ATOM     45  C   UNL A   1      35.810  34.296  29.350  1.00  0.00     0.014 A 
ATOM     46  C   UNL A   1      35.459  32.114  31.023  1.00  0.00     0.010 A 
ATOM     47  C   UNL A   1      36.900  33.506  29.662  1.00  0.00     0.010 A 
ATOM     48  C   UNL A   1      36.745  32.460  30.571  1.00  0.00    -0.014 A 
BRANCH  48  49
ATOM     49  C   UNL A   1      37.949  31.812  31.134  1.00  0.00     0.031 A 
ATOM     50  C   UNL A   1      38.397  32.159  32.530  1.00  0.00     0.074 A 
ATOM     51  C   UNL A   1      38.622  30.913  30.395  1.00  0.00     0.049 A 
ATOM     52  N   UNL A   1      39.392  31.668  33.226  1.00  0.00    -0.248 NA
ATOM     53  C   UNL A   1      37.651  33.217  33.235  1.00  0.00     0.031 C 
ATOM     54  C   UNL A   1      38.306  30.549  29.013  1.00  0.00     0.029 A 
ATOM     55  N   UNL A   1      39.700  30.131  30.711  1.00  0.00    -0.354 N 
ATOM     56  C   UNL A   1      39.389  32.361  34.429  1.00  0.00     0.074 A 
ATOM     57  C   UNL A   1      38.356  33.365  34.344  1.00  0.00     0.031 C 
ATOM     58  C   UNL A   1      39.134  29.569  28.619  1.00  0.00     0.029 A 
ATOM     59  C   UNL A   1      40.066  29.275  29.704  1.00  0.00     0.049 A 
ATOM     60  H   UNL A   1      40.167  30.178  31.577  1.00  0.00     0.167 HD
ATOM     61  C   UNL A   1      40.153  32.153  35.527  1.00  0.00     0.037 A 
ATOM     62  C   UNL A   1      41.045  28.353  29.667  1.00  0.00     0.037 A 
ATOM     63  C   UNL A   1      41.170  31.140  35.605  1.00  0.00     0.049 A 
ATOM     64  C   UNL A   1      41.893  28.153  30.895  1.00  0.00     0.074 A 
ATOM     65  C   UNL A   1      41.979  30.810  36.676  1.00  0.00     0.029 A 
ATOM     66  N   UNL A   1      41.521  30.296  34.560  1.00  0.00    -0.354 N 
ATOM     67  N   UNL A   1      41.835  28.763  32.055  1.00  0.00    -0.248 NA
ATOM     68  C   UNL A   1      42.932  27.120  30.811  1.00  0.00     0.031 C 
ATOM     69  C   UNL A   1      42.870  29.818  36.256  1.00  0.00     0.029 A 
ATOM     70  C   UNL A   1      42.556  29.465  34.953  1.00  0.00     0.049 A 
ATOM     71  H   UNL A   1      41.097  30.291  33.671  1.00  0.00     0.167 HD
ATOM     72  C   UNL A   1      42.801  28.161  32.852  1.00  0.00     0.074 A 
ATOM     73  C   UNL A   1      43.413  27.127  32.045  1.00  0.00     0.031 C 
ATOM     74  C   UNL A   1      43.147  28.435  34.135  1.00  0.00     0.037 A 
BRANCH  61  75
ATOM     75  C   UNL A   1      39.920  33.041  36.717  1.00  0.00     0.064 A 
ATOM     76  C   UNL A   1      38.941  32.752  37.681  1.00  0.00     0.173 A 
ATOM     77  C   UNL A   1      40.702  34.190  36.908  1.00  0.00     0.173 A 
ATOM     78  F   UNL A   1      38.152  31.675  37.543  1.00  0.00    -0.203 F 
ATOM     79  C   UNL A   1      38.730  33.596  38.769  1.00  0.00     0.198 A 
ATOM     80  C   UNL A   1      40.517  35.010  38.019  1.00  0.00     0.198 A 
ATOM     81  F   UNL A   1      41.654  34.516  36.022  1.00  0.00    -0.203 F 
ATOM     82  F   UNL A   1      37.745  33.334  39.640  1.00  0.00    -0.200 F 
ATOM     83  C   UNL A   1      39.525  34.720  38.942  1.00  0.00     0.200 A 
ATOM     84  F   UNL A   1      41.298  36.085  38.192  1.00  0.00    -0.200 F 
ATOM     85  F   UNL A   1      39.328  35.526  39.994  1.00  0.00    -0.200 F 
ENDBRANCH  61  75
BRANCH  62  86
ATOM     86  C   UNL A   1      41.256  27.538  28.442  1.00  0.00     0.064 A 
ATOM     87  C   UNL A   1      42.186  27.921  27.465  1.00  0.00     0.173 A 
ATOM     88  C   UNL A   1      40.521  26.365  28.216  1.00  0.00     0.173 A 
ATOM     89  F   UNL A   1      42.907  29.041  27.627  1.00  0.00    -0.203 F 
ATOM     90  C   UNL A   1      42.344  27.184  26.294  1.00  0.00     0.198 A 
ATOM     91  C   UNL A   1      40.707  25.609  27.063  1.00  0.00     0.198 A 
ATOM     92  F   UNL A   1      39.626  25.946  29.125  1.00  0.00    -0.203 F 
ATOM     93  F   UNL A   1      43.192  27.609  25.346  1.00  0.00    -0.200 F 
ATOM     94  C   UNL A   1      41.608  26.026  26.095  1.00  0.00     0.200 A 
ATOM     95  F   UNL A   1      40.009  24.478  26.886  1.00  0.00    -0.200 F 
ATOM     96  F   UNL A   1      41.759  25.318  24.968  1.00  0.00    -0.200 F 
ENDBRANCH  62  86
BRANCH  74  97
ATOM     97  C   UNL A   1      44.191  27.555  34.766  1.00  0.00     0.064 A 
ATOM     98  C   UNL A   1      45.550  27.903  34.787  1.00  0.00     0.173 A 
ATOM     99  C   UNL A   1      43.817  26.344  35.370  1.00  0.00     0.173 A 
ATOM    100  F   UNL A   1      45.964  29.046  34.220  1.00  0.00    -0.203 F 
ATOM    101  C   UNL A   1      46.499  27.045  35.335  1.00  0.00     0.198 A 
ATOM    102  C   UNL A   1      44.761  25.512  35.960  1.00  0.00     0.198 A 
ATOM    103  F   UNL A   1      42.528  25.969  35.395  1.00  0.00    -0.203 F 
ATOM    104  F   UNL A   1      47.801  27.359  35.267  1.00  0.00    -0.200 F 
ATOM    105  C   UNL A   1      46.104  25.855  35.925  1.00  0.00     0.200 A 
ATOM    106  F   UNL A   1      44.374  24.375  36.553  1.00  0.00    -0.200 F 
ATOM    107  F   UNL A   1      47.020  25.030  36.452  1.00  0.00    -0.200 F 
ENDBRANCH  74  97
ENDBRANCH  48  49
ENDBRANCH  40  43
ENDBRANCH  38  39
ENDBRANCH  37  38
ENDBRANCH  36  37
ENDBRANCH   3  36
TORSDOF 16
ENDMDL
MODEL 3
REMARK VINA RESULT:     -13.1      3.894      9.010
REMARK SMILES O=C(COc1ccccc1/C=N/NC(=O)c1cc(-c2ccc(F)cc2)nc2ccccc12)NCCCNC(=O)c1ccc(-c2c3nc(c(-c4c(F)c(F)c(F)c(F)c4F)c4ccc([nH]4)c(-c4c(F)c(F)c(F)c(F)c4F)c4nc(c(-c5c(F)c(F)c(F)c(F)c5F)c5ccc2[nH]5)C=C4)C=C3)cc1
REMARK SMILES IDX 1 1 2 2 33 3 3 5 4 6 5 7 6 8 10 9 7 10 9 11 8 12 11 13 12 14
REMARK SMILES IDX 13 15 14 16 15 18 16 19 17 20 32 21 18 22 27 23 31 24 26 25
REMARK SMILES IDX 28 26 30 27 29 28 19 29 20 30 25 31 21 32 24 33 22 34 23 35
REMARK SMILES IDX 34 36 35 37 36 38 37 39 38 40 39 42 40 43 41 44 102 45 42 46
REMARK SMILES IDX 101 47 43 48 44 49 45 50 95 51 46 52 100 53 94 54 96 55
REMARK SMILES IDX 47 56 99 57 93 58 92 59 48 61 80 62 60 63 79 64 61 65 64 66
REMARK SMILES IDX 78 67 97 68 62 69 63 70 77 72 98 73 65 74 49 75 50 76 58 77
REMARK SMILES IDX 51 78 52 79 56 80 59 81 53 82 54 83 57 84 55 85 81 86 82 87
REMARK SMILES IDX 90 88 83 89 84 90 88 91 91 92 85 93 86 94 89 95 87 96 66 97
REMARK SMILES IDX 67 98 75 99 68 100 69 101 73 102 76 103 70 104 71 105 74 106
REMARK SMILES IDX 72 107
REMARK H PARENT 33 4 13 17 37 41 96 60 64 71
REMARK Flexibility Score: inf
ROOT
ATOM      1  O   UNL A   1      41.889  20.001  25.748  1.00  0.00    -0.271 OA
ATOM      2  C   UNL A   1      42.440  21.019  26.129  1.00  0.00     0.257 C 
ATOM      3  N   UNL A   1      43.200  21.901  25.375  1.00  0.00    -0.353 N 
ATOM      4  H   UNL A   1      42.905  22.838  25.347  1.00  0.00     0.163 HD
ENDROOT
BRANCH   2   5
ATOM      5  C   UNL A   1      42.251  21.424  27.556  1.00  0.00     0.329 C 
BRANCH   5   6
ATOM      6  O   UNL A   1      40.850  21.561  27.675  1.00  0.00    -0.483 OA
BRANCH   6   7
ATOM      7  C   UNL A   1      40.367  22.763  27.240  1.00  0.00     0.128 A 
ATOM      8  C   UNL A   1      41.174  23.796  27.765  1.00  0.00     0.047 A 
ATOM      9  C   UNL A   1      39.096  23.024  26.686  1.00  0.00     0.037 A 
ATOM     10  C   UNL A   1      40.705  25.094  27.854  1.00  0.00     0.004 A 
ATOM     11  C   UNL A   1      38.630  24.349  26.843  1.00  0.00     0.013 A 
ATOM     12  C   UNL A   1      39.413  25.362  27.430  1.00  0.00     0.001 A 
BRANCH   9  13
ATOM     13  C   UNL A   1      38.048  22.109  26.056  1.00  0.00     0.145 C 
ATOM     14  N   UNL A   1      37.479  22.124  24.864  1.00  0.00    -0.180 NA
BRANCH  14  15
ATOM     15  N   UNL A   1      36.471  21.148  24.700  1.00  0.00    -0.243 N 
ATOM     16  C   UNL A   1      35.056  21.153  24.631  1.00  0.00     0.272 C 
ATOM     17  H   UNL A   1      36.845  20.241  24.613  1.00  0.00     0.194 HD
ATOM     18  O   UNL A   1      34.564  20.013  24.625  1.00  0.00    -0.267 OA
BRANCH  16  19
ATOM     19  C   UNL A   1      34.099  22.296  24.344  1.00  0.00     0.053 A 
ATOM     20  C   UNL A   1      34.314  23.311  23.424  1.00  0.00     0.043 A 
ATOM     21  C   UNL A   1      32.913  22.518  25.131  1.00  0.00     0.013 A 
ATOM     22  C   UNL A   1      33.194  23.950  22.882  1.00  0.00     0.072 A 
ATOM     23  C   UNL A   1      31.865  23.203  24.490  1.00  0.00     0.072 A 
ATOM     24  C   UNL A   1      32.727  22.315  26.522  1.00  0.00     0.011 A 
ATOM     25  N   UNL A   1      31.957  23.581  23.247  1.00  0.00    -0.248 NA
ATOM     26  C   UNL A   1      30.775  23.733  25.151  1.00  0.00     0.029 A 
ATOM     27  C   UNL A   1      31.659  22.927  27.210  1.00  0.00     0.001 A 
ATOM     28  C   UNL A   1      30.697  23.659  26.527  1.00  0.00     0.002 A 
BRANCH  22  29
ATOM     29  C   UNL A   1      33.046  25.304  22.308  1.00  0.00     0.000 A 
ATOM     30  C   UNL A   1      33.855  26.304  22.891  1.00  0.00     0.013 A 
ATOM     31  C   UNL A   1      31.779  25.689  21.803  1.00  0.00     0.013 A 
ATOM     32  C   UNL A   1      33.338  27.577  23.148  1.00  0.00     0.040 A 
ATOM     33  C   UNL A   1      31.275  26.973  22.044  1.00  0.00     0.040 A 
ATOM     34  C   UNL A   1      32.044  27.887  22.753  1.00  0.00     0.123 A 
ATOM     35  F   UNL A   1      31.505  29.056  23.124  1.00  0.00    -0.207 F 
ENDBRANCH  22  29
ENDBRANCH  16  19
ENDBRANCH  14  15
ENDBRANCH   9  13
ENDBRANCH   6   7
ENDBRANCH   5   6
ENDBRANCH   2   5
BRANCH   3  36
ATOM     36  C   UNL A   1      44.398  21.555  24.623  1.00  0.00     0.117 C 
BRANCH  36  37
ATOM     37  C   UNL A   1      45.603  22.417  24.833  1.00  0.00     0.042 C 
BRANCH  37  38
ATOM     38  C   UNL A   1      45.220  23.780  25.312  1.00  0.00     0.118 C 
BRANCH  38  39
ATOM     39  N   UNL A   1      46.178  24.764  24.833  1.00  0.00    -0.352 N 
ATOM     40  C   UNL A   1      46.129  26.121  25.001  1.00  0.00     0.251 C 
ATOM     41  H   UNL A   1      46.949  24.414  24.331  1.00  0.00     0.163 HD
ATOM     42  O   UNL A   1      46.774  26.858  24.262  1.00  0.00    -0.269 OA
BRANCH  40  43
ATOM     43  C   UNL A   1      45.293  26.680  26.085  1.00  0.00     0.039 A 
ATOM     44  C   UNL A   1      45.091  28.057  26.145  1.00  0.00     0.014 A 
ATOM     45  C   UNL A   1      44.727  25.844  27.053  1.00  0.00     0.014 A 
ATOM     46  C   UNL A   1      44.338  28.585  27.189  1.00  0.00     0.010 A 
ATOM     47  C   UNL A   1      43.839  26.352  27.982  1.00  0.00     0.010 A 
ATOM     48  C   UNL A   1      43.706  27.734  28.113  1.00  0.00    -0.014 A 
BRANCH  48  49
ATOM     49  C   UNL A   1      42.998  28.280  29.291  1.00  0.00     0.031 A 
ATOM     50  C   UNL A   1      43.688  28.299  30.630  1.00  0.00     0.074 A 
ATOM     51  C   UNL A   1      41.752  28.763  29.147  1.00  0.00     0.049 A 
ATOM     52  N   UNL A   1      43.265  28.779  31.772  1.00  0.00    -0.248 NA
ATOM     53  C   UNL A   1      45.019  27.670  30.713  1.00  0.00     0.031 C 
ATOM     54  C   UNL A   1      40.974  28.739  27.908  1.00  0.00     0.029 A 
ATOM     55  N   UNL A   1      40.930  29.383  30.050  1.00  0.00    -0.354 N 
ATOM     56  C   UNL A   1      44.267  28.502  32.693  1.00  0.00     0.074 A 
ATOM     57  C   UNL A   1      45.280  27.737  32.007  1.00  0.00     0.031 C 
ATOM     58  C   UNL A   1      39.809  29.374  28.112  1.00  0.00     0.029 A 
ATOM     59  C   UNL A   1      39.742  29.802  29.507  1.00  0.00     0.049 A 
ATOM     60  H   UNL A   1      41.168  29.515  30.996  1.00  0.00     0.167 HD
ATOM     61  C   UNL A   1      44.356  28.886  33.987  1.00  0.00     0.037 A 
ATOM     62  C   UNL A   1      38.718  30.463  30.075  1.00  0.00     0.037 A 
ATOM     63  C   UNL A   1      43.345  29.660  34.656  1.00  0.00     0.049 A 
ATOM     64  C   UNL A   1      38.834  30.864  31.522  1.00  0.00     0.074 A 
ATOM     65  C   UNL A   1      43.343  30.141  35.952  1.00  0.00     0.029 A 
ATOM     66  N   UNL A   1      42.149  30.059  34.077  1.00  0.00    -0.354 N 
ATOM     67  N   UNL A   1      39.818  30.662  32.366  1.00  0.00    -0.248 NA
ATOM     68  C   UNL A   1      37.700  31.603  32.089  1.00  0.00     0.031 C 
ATOM     69  C   UNL A   1      42.114  30.766  36.180  1.00  0.00     0.029 A 
ATOM     70  C   UNL A   1      41.388  30.757  35.000  1.00  0.00     0.049 A 
ATOM     71  H   UNL A   1      41.881  29.873  33.147  1.00  0.00     0.167 HD
ATOM     72  C   UNL A   1      39.440  31.282  33.550  1.00  0.00     0.074 A 
ATOM     73  C   UNL A   1      38.145  31.882  33.304  1.00  0.00     0.031 C 
ATOM     74  C   UNL A   1      40.104  31.354  34.731  1.00  0.00     0.037 A 
BRANCH  61  75
ATOM     75  C   UNL A   1      45.577  28.467  34.757  1.00  0.00     0.064 A 
ATOM     76  C   UNL A   1      46.787  29.175  34.677  1.00  0.00     0.173 A 
ATOM     77  C   UNL A   1      45.532  27.350  35.605  1.00  0.00     0.173 A 
ATOM     78  F   UNL A   1      46.894  30.243  33.870  1.00  0.00    -0.203 F 
ATOM     79  C   UNL A   1      47.912  28.762  35.386  1.00  0.00     0.198 A 
ATOM     80  C   UNL A   1      46.647  26.963  36.344  1.00  0.00     0.198 A 
ATOM     81  F   UNL A   1      44.404  26.635  35.723  1.00  0.00    -0.203 F 
ATOM     82  F   UNL A   1      49.073  29.416  35.242  1.00  0.00    -0.200 F 
ATOM     83  C   UNL A   1      47.839  27.661  36.226  1.00  0.00     0.200 A 
ATOM     84  F   UNL A   1      46.569  25.909  37.169  1.00  0.00    -0.200 F 
ATOM     85  F   UNL A   1      48.919  27.269  36.916  1.00  0.00    -0.200 F 
ENDBRANCH  61  75
BRANCH  62  86
ATOM     86  C   UNL A   1      37.516  30.808  29.272  1.00  0.00     0.064 A 
ATOM     87  C   UNL A   1      37.310  32.110  28.794  1.00  0.00     0.173 A 
ATOM     88  C   UNL A   1      36.540  29.845  28.977  1.00  0.00     0.173 A 
ATOM     89  F   UNL A   1      38.208  33.072  29.059  1.00  0.00    -0.203 F 
ATOM     90  C   UNL A   1      36.157  32.443  28.087  1.00  0.00     0.198 A 
ATOM     91  C   UNL A   1      35.407  30.170  28.237  1.00  0.00     0.198 A 
ATOM     92  F   UNL A   1      36.694  28.580  29.399  1.00  0.00    -0.203 F 
ATOM     93  F   UNL A   1      35.954  33.710  27.700  1.00  0.00    -0.200 F 
ATOM     94  C   UNL A   1      35.209  31.472  27.804  1.00  0.00     0.200 A 
ATOM     95  F   UNL A   1      34.504  29.223  27.948  1.00  0.00    -0.200 F 
ATOM     96  F   UNL A   1      34.100  31.793  27.125  1.00  0.00    -0.200 F 
ENDBRANCH  62  86
BRANCH  74  97
ATOM     97  C   UNL A   1      39.470  32.168  35.825  1.00  0.00     0.064 A 
ATOM     98  C   UNL A   1      39.787  33.519  36.033  1.00  0.00     0.173 A 
ATOM     99  C   UNL A   1      38.519  31.581  36.675  1.00  0.00     0.173 A 
ATOM    100  F   UNL A   1      40.693  34.129  35.254  1.00  0.00    -0.203 F 
ATOM    101  C   UNL A   1      39.219  34.233  37.085  1.00  0.00     0.198 A 
ATOM    102  C   UNL A   1      37.918  32.311  37.695  1.00  0.00     0.198 A 
ATOM    103  F   UNL A   1      38.165  30.297  36.512  1.00  0.00    -0.203 F 
ATOM    104  F   UNL A   1      39.602  35.497  37.316  1.00  0.00    -0.200 F 
ATOM    105  C   UNL A   1      38.283  33.631  37.910  1.00  0.00     0.200 A 
ATOM    106  F   UNL A   1      36.994  31.734  38.475  1.00  0.00    -0.200 F 
ATOM    107  F   UNL A   1      37.738  34.320  38.923  1.00  0.00    -0.200 F 
ENDBRANCH  74  97
ENDBRANCH  48  49
ENDBRANCH  40  43
ENDBRANCH  38  39
ENDBRANCH  37  38
ENDBRANCH  36  37
ENDBRANCH   3  36
TORSDOF 16
ENDMDL
