MODEL 1
REMARK VINA RESULT:     -12.5      0.000      0.000
REMARK SMILES CCOc1cc2nccc(Nc3ccc(C(=O)NCCCNC(=O)c4ccc(-c5c6nc(c(-c7c(F)c(F)c(F)c(F)c7F)c7ccc([nH]7)c(-c7c(F)c(F)c(F)c(F)c7F)c7nc(c(-c8c(F)c(F)c(F)c(F)c8F)c8ccc5[nH]8)C=C7)C=C6)cc4)cc3)c2cc1OCC
REMARK SMILES IDX 19 1 18 2 16 3 17 4 15 6 12 7 13 8 89 9 14 10 88 11 11 12
REMARK SMILES IDX 10 14 4 15 5 16 92 17 6 18 91 19 7 20 90 21 8 22 9 23 3 24
REMARK SMILES IDX 2 25 1 26 93 27 94 28 95 29 20 30 21 31 22 32 23 33 24 35
REMARK SMILES IDX 25 36 26 37 87 38 27 39 86 40 28 41 29 42 30 43 80 44 31 45
REMARK SMILES IDX 85 46 79 47 81 48 32 49 84 50 78 51 77 52 33 54 65 55 45 56
REMARK SMILES IDX 64 57 46 58 49 59 63 60 82 61 47 62 48 63 62 65 83 66 50 67
REMARK SMILES IDX 34 68 35 69 43 70 36 71 37 72 41 73 44 74 38 75 39 76 42 77
REMARK SMILES IDX 40 78 66 79 67 80 75 81 68 82 69 83 73 84 76 85 70 86 71 87
REMARK SMILES IDX 74 88 72 89 51 90 52 91 60 92 53 93 54 94 58 95 61 96 55 97
REMARK SMILES IDX 56 98 59 99 57 100
REMARK H PARENT 18 5 11 13 22 34 81 53 49 64
REMARK Flexibility Score: inf
ROOT
ATOM      1  C   UNL A   1      37.075  20.331  24.661  1.00  0.00     0.118 C 
ENDROOT
BRANCH   1   2
ATOM      2  N   UNL A   1      35.737  19.970  25.090  1.00  0.00    -0.352 N 
ATOM      3  C   UNL A   1      34.627  20.732  25.340  1.00  0.00     0.251 C 
ATOM      4  O   UNL A   1      33.600  20.157  25.696  1.00  0.00    -0.269 OA
ATOM      5  H   UNL A   1      35.604  19.004  25.225  1.00  0.00     0.163 HD
BRANCH   3   6
ATOM      6  C   UNL A   1      34.601  22.200  25.117  1.00  0.00     0.039 A 
ATOM      7  C   UNL A   1      34.520  25.008  24.937  1.00  0.00     0.038 A 
ATOM      8  C   UNL A   1      35.188  24.381  25.994  1.00  0.00     0.027 A 
ATOM      9  C   UNL A   1      33.931  24.220  23.949  1.00  0.00     0.027 A 
ATOM     10  C   UNL A   1      35.222  22.991  26.089  1.00  0.00     0.016 A 
ATOM     11  C   UNL A   1      34.010  22.826  24.015  1.00  0.00     0.016 A 
BRANCH   7  12
ATOM     12  N   UNL A   1      34.436  26.403  24.928  1.00  0.00    -0.355 N 
ATOM     13  H   UNL A   1      35.222  26.849  24.538  1.00  0.00     0.167 HD
BRANCH  12  14
ATOM     14  C   UNL A   1      33.432  27.292  25.374  1.00  0.00     0.050 A 
ATOM     15  C   UNL A   1      30.359  28.445  22.720  1.00  0.00     0.163 A 
ATOM     16  C   UNL A   1      30.490  29.048  23.980  1.00  0.00     0.079 A 
ATOM     17  C   UNL A   1      31.194  27.383  22.379  1.00  0.00     0.161 A 
ATOM     18  C   UNL A   1      31.466  28.641  24.894  1.00  0.00     0.076 A 
ATOM     19  C   UNL A   1      32.197  27.000  23.260  1.00  0.00     0.063 A 
ATOM     20  N   UNL A   1      31.544  29.231  26.100  1.00  0.00    -0.256 NA
ATOM     21  C   UNL A   1      32.370  27.632  24.504  1.00  0.00     0.028 A 
ATOM     22  C   UNL A   1      32.522  28.830  26.945  1.00  0.00     0.114 A 
ATOM     23  C   UNL A   1      33.472  27.873  26.637  1.00  0.00     0.047 A 
BRANCH  15  24
ATOM     24  O   UNL A   1      29.528  28.946  21.760  1.00  0.00    -0.490 OA
BRANCH  24  25
ATOM     25  C   UNL A   1      28.409  29.692  22.242  1.00  0.00     0.226 C 
ATOM     26  C   UNL A   1      28.337  30.965  21.408  1.00  0.00     0.049 C 
ENDBRANCH  24  25
ENDBRANCH  15  24
BRANCH  17  27
ATOM     27  O   UNL A   1      31.175  26.647  21.229  1.00  0.00    -0.490 OA
BRANCH  27  28
ATOM     28  C   UNL A   1      32.268  25.759  21.001  1.00  0.00     0.226 C 
ATOM     29  C   UNL A   1      32.515  25.438  19.530  1.00  0.00     0.049 C 
ENDBRANCH  27  28
ENDBRANCH  17  27
ENDBRANCH  12  14
ENDBRANCH   7  12
ENDBRANCH   3   6
ENDBRANCH   1   2
BRANCH   1  30
ATOM     30  C   UNL A   1      38.089  19.304  25.162  1.00  0.00     0.042 C 
BRANCH  30  31
ATOM     31  C   UNL A   1      39.326  19.948  25.776  1.00  0.00     0.118 C 
BRANCH  31  32
ATOM     32  N   UNL A   1      40.398  18.982  25.959  1.00  0.00    -0.352 N 
ATOM     33  C   UNL A   1      41.744  19.185  26.112  1.00  0.00     0.251 C 
ATOM     34  H   UNL A   1      40.112  18.039  25.976  1.00  0.00     0.163 HD
ATOM     35  O   UNL A   1      42.513  18.233  26.022  1.00  0.00    -0.269 OA
BRANCH  33  36
ATOM     36  C   UNL A   1      42.278  20.536  26.385  1.00  0.00     0.039 A 
ATOM     37  C   UNL A   1      42.334  20.978  27.710  1.00  0.00     0.014 A 
ATOM     38  C   UNL A   1      42.655  21.393  25.347  1.00  0.00     0.014 A 
ATOM     39  C   UNL A   1      42.787  22.267  27.996  1.00  0.00     0.010 A 
ATOM     40  C   UNL A   1      43.176  22.652  25.637  1.00  0.00     0.010 A 
ATOM     41  C   UNL A   1      43.222  23.109  26.962  1.00  0.00    -0.014 A 
BRANCH  41  42
ATOM     42  C   UNL A   1      43.675  24.495  27.243  1.00  0.00     0.031 A 
ATOM     43  C   UNL A   1      42.697  25.509  27.769  1.00  0.00     0.074 A 
ATOM     44  C   UNL A   1      44.946  24.851  26.980  1.00  0.00     0.049 A 
ATOM     45  N   UNL A   1      42.872  26.783  28.014  1.00  0.00    -0.248 NA
ATOM     46  C   UNL A   1      41.328  25.033  28.028  1.00  0.00     0.031 C 
ATOM     47  C   UNL A   1      45.975  23.967  26.432  1.00  0.00     0.029 A 
ATOM     48  N   UNL A   1      45.586  26.055  27.131  1.00  0.00    -0.354 N 
ATOM     49  C   UNL A   1      41.637  27.260  28.433  1.00  0.00     0.074 A 
ATOM     50  C   UNL A   1      40.707  26.156  28.359  1.00  0.00     0.031 C 
ATOM     51  C   UNL A   1      47.123  24.652  26.310  1.00  0.00     0.029 A 
ATOM     52  C   UNL A   1      46.901  26.031  26.738  1.00  0.00     0.049 A 
ATOM     53  H   UNL A   1      45.144  26.859  27.487  1.00  0.00     0.167 HD
ATOM     54  C   UNL A   1      41.312  28.503  28.863  1.00  0.00     0.037 A 
ATOM     55  C   UNL A   1      47.822  27.013  26.724  1.00  0.00     0.037 A 
ATOM     56  C   UNL A   1      42.250  29.590  28.966  1.00  0.00     0.049 A 
ATOM     57  C   UNL A   1      47.440  28.383  27.218  1.00  0.00     0.074 A 
ATOM     58  C   UNL A   1      42.038  30.873  29.441  1.00  0.00     0.029 A 
ATOM     59  N   UNL A   1      43.584  29.518  28.588  1.00  0.00    -0.354 N 
ATOM     60  N   UNL A   1      46.284  28.808  27.668  1.00  0.00    -0.248 NA
ATOM     61  C   UNL A   1      48.495  29.406  27.211  1.00  0.00     0.031 C 
ATOM     62  C   UNL A   1      43.232  31.590  29.312  1.00  0.00     0.029 A 
ATOM     63  C   UNL A   1      44.203  30.739  28.806  1.00  0.00     0.049 A 
ATOM     64  H   UNL A   1      44.025  28.719  28.220  1.00  0.00     0.167 HD
ATOM     65  C   UNL A   1      46.480  30.134  28.030  1.00  0.00     0.074 A 
ATOM     66  C   UNL A   1      47.869  30.439  27.756  1.00  0.00     0.031 C 
ATOM     67  C   UNL A   1      45.591  31.019  28.543  1.00  0.00     0.037 A 
BRANCH  54  68
ATOM     68  C   UNL A   1      39.885  28.752  29.257  1.00  0.00     0.064 A 
ATOM     69  C   UNL A   1      38.937  29.223  28.335  1.00  0.00     0.173 A 
ATOM     70  C   UNL A   1      39.452  28.489  30.566  1.00  0.00     0.173 A 
ATOM     71  F   UNL A   1      39.302  29.501  27.075  1.00  0.00    -0.203 F 
ATOM     72  C   UNL A   1      37.618  29.452  28.718  1.00  0.00     0.198 A 
ATOM     73  C   UNL A   1      38.124  28.689  30.936  1.00  0.00     0.198 A 
ATOM     74  F   UNL A   1      40.314  28.033  31.486  1.00  0.00    -0.203 F 
ATOM     75  F   UNL A   1      36.744  29.953  27.833  1.00  0.00    -0.200 F 
ATOM     76  C   UNL A   1      37.211  29.179  30.014  1.00  0.00     0.200 A 
ATOM     77  F   UNL A   1      37.729  28.413  32.186  1.00  0.00    -0.200 F 
ATOM     78  F   UNL A   1      35.939  29.395  30.379  1.00  0.00    -0.200 F 
ENDBRANCH  54  68
BRANCH  55  79
ATOM     79  C   UNL A   1      49.203  26.729  26.254  1.00  0.00     0.064 A 
ATOM     80  C   UNL A   1      49.573  26.973  24.924  1.00  0.00     0.173 A 
ATOM     81  C   UNL A   1      50.177  26.208  27.117  1.00  0.00     0.173 A 
ATOM     82  F   UNL A   1      48.672  27.453  24.055  1.00  0.00    -0.203 F 
ATOM     83  C   UNL A   1      50.859  26.685  24.470  1.00  0.00     0.198 A 
ATOM     84  C   UNL A   1      51.470  25.948  26.670  1.00  0.00     0.198 A 
ATOM     85  F   UNL A   1      49.876  25.965  28.402  1.00  0.00    -0.203 F 
ATOM     86  F   UNL A   1      51.172  26.885  23.183  1.00  0.00    -0.200 F 
ATOM     87  C   UNL A   1      51.808  26.179  25.345  1.00  0.00     0.200 A 
ATOM     88  F   UNL A   1      52.389  25.473  27.522  1.00  0.00    -0.200 F 
ATOM     89  F   UNL A   1      53.046  25.906  24.909  1.00  0.00    -0.200 F 
ENDBRANCH  55  79
BRANCH  67  90
ATOM     90  C   UNL A   1      46.102  32.386  28.891  1.00  0.00     0.064 A 
ATOM     91  C   UNL A   1      46.648  32.672  30.151  1.00  0.00     0.173 A 
ATOM     92  C   UNL A   1      46.081  33.412  27.934  1.00  0.00     0.173 A 
ATOM     93  F   UNL A   1      46.677  31.729  31.104  1.00  0.00    -0.203 F 
ATOM     94  C   UNL A   1      47.131  33.944  30.448  1.00  0.00     0.198 A 
ATOM     95  C   UNL A   1      46.593  34.674  28.225  1.00  0.00     0.198 A 
ATOM     96  F   UNL A   1      45.576  33.188  26.711  1.00  0.00    -0.203 F 
ATOM     97  F   UNL A   1      47.604  34.208  31.673  1.00  0.00    -0.200 F 
ATOM     98  C   UNL A   1      47.110  34.940  29.483  1.00  0.00     0.200 A 
ATOM     99  F   UNL A   1      46.585  35.631  27.287  1.00  0.00    -0.200 F 
ATOM    100  F   UNL A   1      47.582  36.161  29.769  1.00  0.00    -0.200 F 
ENDBRANCH  67  90
ENDBRANCH  41  42
ENDBRANCH  33  36
ENDBRANCH  31  32
ENDBRANCH  30  31
ENDBRANCH   1  30
TORSDOF 16
ENDMDL
MODEL 2
REMARK VINA RESULT:     -12.4      2.298      7.860
REMARK SMILES CCOc1cc2nccc(Nc3ccc(C(=O)NCCCNC(=O)c4ccc(-c5c6nc(c(-c7c(F)c(F)c(F)c(F)c7F)c7ccc([nH]7)c(-c7c(F)c(F)c(F)c(F)c7F)c7nc(c(-c8c(F)c(F)c(F)c(F)c8F)c8ccc5[nH]8)C=C7)C=C6)cc4)cc3)c2cc1OCC
REMARK SMILES IDX 19 1 18 2 16 3 17 4 15 6 12 7 13 8 89 9 14 10 88 11 11 12
REMARK SMILES IDX 10 14 4 15 5 16 92 17 6 18 91 19 7 20 90 21 8 22 9 23 3 24
REMARK SMILES IDX 2 25 1 26 93 27 94 28 95 29 20 30 21 31 22 32 23 33 24 35
REMARK SMILES IDX 25 36 26 37 87 38 27 39 86 40 28 41 29 42 30 43 80 44 31 45
REMARK SMILES IDX 85 46 79 47 81 48 32 49 84 50 78 51 77 52 33 54 65 55 45 56
REMARK SMILES IDX 64 57 46 58 49 59 63 60 82 61 47 62 48 63 62 65 83 66 50 67
REMARK SMILES IDX 34 68 35 69 43 70 36 71 37 72 41 73 44 74 38 75 39 76 42 77
REMARK SMILES IDX 40 78 66 79 67 80 75 81 68 82 69 83 73 84 76 85 70 86 71 87
REMARK SMILES IDX 74 88 72 89 51 90 52 91 60 92 53 93 54 94 58 95 61 96 55 97
REMARK SMILES IDX 56 98 59 99 57 100
REMARK H PARENT 18 5 11 13 22 34 81 53 49 64
REMARK Flexibility Score: inf
ROOT
ATOM      1  C   UNL A   1      41.666  19.350  27.625  1.00  0.00     0.118 C 
ENDROOT
BRANCH   1   2
ATOM      2  N   UNL A   1      42.220  20.595  28.120  1.00  0.00    -0.352 N 
ATOM      3  C   UNL A   1      41.814  21.894  27.969  1.00  0.00     0.251 C 
ATOM      4  O   UNL A   1      42.480  22.775  28.510  1.00  0.00    -0.269 OA
ATOM      5  H   UNL A   1      43.034  20.486  28.663  1.00  0.00     0.163 HD
BRANCH   3   6
ATOM      6  C   UNL A   1      40.565  22.261  27.254  1.00  0.00     0.039 A 
ATOM      7  C   UNL A   1      38.118  23.054  26.111  1.00  0.00     0.038 A 
ATOM      8  C   UNL A   1      38.785  23.887  27.015  1.00  0.00     0.027 A 
ATOM      9  C   UNL A   1      38.705  21.842  25.751  1.00  0.00     0.027 A 
ATOM     10  C   UNL A   1      39.993  23.492  27.588  1.00  0.00     0.016 A 
ATOM     11  C   UNL A   1      39.942  21.469  26.284  1.00  0.00     0.016 A 
BRANCH   7  12
ATOM     12  N   UNL A   1      36.868  23.450  25.628  1.00  0.00    -0.355 N 
ATOM     13  H   UNL A   1      36.880  24.305  25.141  1.00  0.00     0.167 HD
BRANCH  12  14
ATOM     14  C   UNL A   1      35.590  22.852  25.709  1.00  0.00     0.050 A 
ATOM     15  C   UNL A   1      32.174  25.302  26.087  1.00  0.00     0.163 A 
ATOM     16  C   UNL A   1      32.079  23.907  26.200  1.00  0.00     0.079 A 
ATOM     17  C   UNL A   1      33.397  25.880  25.749  1.00  0.00     0.161 A 
ATOM     18  C   UNL A   1      33.189  23.076  26.023  1.00  0.00     0.076 A 
ATOM     19  C   UNL A   1      34.515  25.069  25.616  1.00  0.00     0.063 A 
ATOM     20  N   UNL A   1      33.050  21.742  26.117  1.00  0.00    -0.256 NA
ATOM     21  C   UNL A   1      34.442  23.674  25.777  1.00  0.00     0.028 A 
ATOM     22  C   UNL A   1      34.154  20.973  25.970  1.00  0.00     0.114 A 
ATOM     23  C   UNL A   1      35.427  21.471  25.760  1.00  0.00     0.047 A 
BRANCH  15  24
ATOM     24  O   UNL A   1      31.142  26.129  26.425  1.00  0.00    -0.490 OA
BRANCH  24  25
ATOM     25  C   UNL A   1      29.905  25.875  25.756  1.00  0.00     0.226 C 
ATOM     26  C   UNL A   1      30.035  26.456  24.354  1.00  0.00     0.049 C 
ENDBRANCH  24  25
ENDBRANCH  15  24
BRANCH  17  27
ATOM     27  O   UNL A   1      33.662  27.204  25.545  1.00  0.00    -0.490 OA
BRANCH  27  28
ATOM     28  C   UNL A   1      33.633  27.678  24.200  1.00  0.00     0.226 C 
ATOM     29  C   UNL A   1      32.821  28.954  24.005  1.00  0.00     0.049 C 
ENDBRANCH  27  28
ENDBRANCH  17  27
ENDBRANCH  12  14
ENDBRANCH   7  12
ENDBRANCH   3   6
ENDBRANCH   1   2
BRANCH   1  30
ATOM     30  C   UNL A   1      42.702  18.603  26.788  1.00  0.00     0.042 C 
BRANCH  30  31
ATOM     31  C   UNL A   1      42.741  19.074  25.340  1.00  0.00     0.118 C 
BRANCH  31  32
ATOM     32  N   UNL A   1      43.997  18.722  24.696  1.00  0.00    -0.352 N 
ATOM     33  C   UNL A   1      45.039  19.524  24.311  1.00  0.00     0.251 C 
ATOM     34  H   UNL A   1      44.117  17.763  24.511  1.00  0.00     0.163 HD
ATOM     35  O   UNL A   1      45.910  19.071  23.575  1.00  0.00    -0.269 OA
BRANCH  33  36
ATOM     36  C   UNL A   1      45.123  20.927  24.771  1.00  0.00     0.039 A 
ATOM     37  C   UNL A   1      44.902  21.949  23.843  1.00  0.00     0.014 A 
ATOM     38  C   UNL A   1      45.484  21.243  26.084  1.00  0.00     0.014 A 
ATOM     39  C   UNL A   1      45.022  23.283  24.235  1.00  0.00     0.010 A 
ATOM     40  C   UNL A   1      45.530  22.573  26.493  1.00  0.00     0.010 A 
ATOM     41  C   UNL A   1      45.326  23.605  25.566  1.00  0.00    -0.014 A 
BRANCH  41  42
ATOM     42  C   UNL A   1      45.490  25.017  25.994  1.00  0.00     0.031 A 
ATOM     43  C   UNL A   1      46.845  25.666  25.923  1.00  0.00     0.074 A 
ATOM     44  C   UNL A   1      44.439  25.695  26.488  1.00  0.00     0.049 A 
ATOM     45  N   UNL A   1      47.215  26.861  26.309  1.00  0.00    -0.248 NA
ATOM     46  C   UNL A   1      47.940  24.852  25.368  1.00  0.00     0.031 C 
ATOM     47  C   UNL A   1      43.086  25.159  26.643  1.00  0.00     0.029 A 
ATOM     48  N   UNL A   1      44.345  26.979  26.962  1.00  0.00    -0.354 N 
ATOM     49  C   UNL A   1      48.581  26.932  26.065  1.00  0.00     0.074 A 
ATOM     50  C   UNL A   1      48.986  25.644  25.547  1.00  0.00     0.031 C 
ATOM     51  C   UNL A   1      42.293  26.113  27.157  1.00  0.00     0.029 A 
ATOM     52  C   UNL A   1      43.087  27.313  27.399  1.00  0.00     0.049 A 
ATOM     53  H   UNL A   1      45.107  27.601  26.985  1.00  0.00     0.167 HD
ATOM     54  C   UNL A   1      49.417  27.984  26.235  1.00  0.00     0.037 A 
ATOM     55  C   UNL A   1      42.631  28.460  27.938  1.00  0.00     0.037 A 
ATOM     56  C   UNL A   1      49.000  29.273  26.719  1.00  0.00     0.049 A 
ATOM     57  C   UNL A   1      43.578  29.618  28.105  1.00  0.00     0.074 A 
ATOM     58  C   UNL A   1      49.755  30.422  26.877  1.00  0.00     0.029 A 
ATOM     59  N   UNL A   1      47.709  29.584  27.122  1.00  0.00    -0.354 N 
ATOM     60  N   UNL A   1      44.854  29.693  27.815  1.00  0.00    -0.248 NA
ATOM     61  C   UNL A   1      43.015  30.855  28.666  1.00  0.00     0.031 C 
ATOM     62  C   UNL A   1      48.932  31.417  27.414  1.00  0.00     0.029 A 
ATOM     63  C   UNL A   1      47.650  30.903  27.542  1.00  0.00     0.049 A 
ATOM     64  H   UNL A   1      46.948  28.960  27.112  1.00  0.00     0.167 HD
ATOM     65  C   UNL A   1      45.239  30.990  28.124  1.00  0.00     0.074 A 
ATOM     66  C   UNL A   1      44.059  31.670  28.614  1.00  0.00     0.031 C 
ATOM     67  C   UNL A   1      46.461  31.567  28.011  1.00  0.00     0.037 A 
BRANCH  54  68
ATOM     68  C   UNL A   1      50.864  27.783  25.891  1.00  0.00     0.064 A 
ATOM     69  C   UNL A   1      51.336  27.922  24.576  1.00  0.00     0.173 A 
ATOM     70  C   UNL A   1      51.799  27.477  26.892  1.00  0.00     0.173 A 
ATOM     71  F   UNL A   1      50.483  28.203  23.579  1.00  0.00    -0.203 F 
ATOM     72  C   UNL A   1      52.681  27.730  24.272  1.00  0.00     0.198 A 
ATOM     73  C   UNL A   1      53.149  27.316  26.589  1.00  0.00     0.198 A 
ATOM     74  F   UNL A   1      51.404  27.337  28.167  1.00  0.00    -0.203 F 
ATOM     75  F   UNL A   1      53.097  27.815  23.001  1.00  0.00    -0.200 F 
ATOM     76  C   UNL A   1      53.587  27.433  25.279  1.00  0.00     0.200 A 
ATOM     77  F   UNL A   1      54.025  27.042  27.566  1.00  0.00    -0.200 F 
ATOM     78  F   UNL A   1      54.882  27.254  24.985  1.00  0.00    -0.200 F 
ENDBRANCH  54  68
BRANCH  55  79
ATOM     79  C   UNL A   1      41.202  28.579  28.328  1.00  0.00     0.064 A 
ATOM     80  C   UNL A   1      40.239  29.006  27.403  1.00  0.00     0.173 A 
ATOM     81  C   UNL A   1      40.770  28.272  29.626  1.00  0.00     0.173 A 
ATOM     82  F   UNL A   1      40.606  29.328  26.154  1.00  0.00    -0.203 F 
ATOM     83  C   UNL A   1      38.901  29.144  27.769  1.00  0.00     0.198 A 
ATOM     84  C   UNL A   1      39.428  28.383  29.982  1.00  0.00     0.198 A 
ATOM     85  F   UNL A   1      41.651  27.852  30.546  1.00  0.00    -0.203 F 
ATOM     86  F   UNL A   1      38.009  29.598  26.877  1.00  0.00    -0.200 F 
ATOM     87  C   UNL A   1      38.496  28.826  29.056  1.00  0.00     0.200 A 
ATOM     88  F   UNL A   1      39.037  28.061  31.223  1.00  0.00    -0.200 F 
ATOM     89  F   UNL A   1      37.208  28.955  29.406  1.00  0.00    -0.200 F 
ENDBRANCH  55  79
BRANCH  67  90
ATOM     90  C   UNL A   1      46.574  33.019  28.376  1.00  0.00     0.064 A 
ATOM     91  C   UNL A   1      46.914  33.430  29.674  1.00  0.00     0.173 A 
ATOM     92  C   UNL A   1      46.377  34.009  27.402  1.00  0.00     0.173 A 
ATOM     93  F   UNL A   1      47.097  32.521  30.643  1.00  0.00    -0.203 F 
ATOM     94  C   UNL A   1      47.027  34.781  29.988  1.00  0.00     0.198 A 
ATOM     95  C   UNL A   1      46.522  35.359  27.713  1.00  0.00     0.198 A 
ATOM     96  F   UNL A   1      46.057  33.668  26.144  1.00  0.00    -0.203 F 
ATOM     97  F   UNL A   1      47.305  35.153  31.245  1.00  0.00    -0.200 F 
ATOM     98  C   UNL A   1      46.839  35.743  29.006  1.00  0.00     0.200 A 
ATOM     99  F   UNL A   1      46.353  36.286  26.760  1.00  0.00    -0.200 F 
ATOM    100  F   UNL A   1      46.956  37.043  29.309  1.00  0.00    -0.200 F 
ENDBRANCH  67  90
ENDBRANCH  41  42
ENDBRANCH  33  36
ENDBRANCH  31  32
ENDBRANCH  30  31
ENDBRANCH   1  30
TORSDOF 16
ENDMDL
MODEL 3
REMARK VINA RESULT:     -12.4      6.409     11.144
REMARK SMILES CCOc1cc2nccc(Nc3ccc(C(=O)NCCCNC(=O)c4ccc(-c5c6nc(c(-c7c(F)c(F)c(F)c(F)c7F)c7ccc([nH]7)c(-c7c(F)c(F)c(F)c(F)c7F)c7nc(c(-c8c(F)c(F)c(F)c(F)c8F)c8ccc5[nH]8)C=C7)C=C6)cc4)cc3)c2cc1OCC
REMARK SMILES IDX 19 1 18 2 16 3 17 4 15 6 12 7 13 8 89 9 14 10 88 11 11 12
REMARK SMILES IDX 10 14 4 15 5 16 92 17 6 18 91 19 7 20 90 21 8 22 9 23 3 24
REMARK SMILES IDX 2 25 1 26 93 27 94 28 95 29 20 30 21 31 22 32 23 33 24 35
REMARK SMILES IDX 25 36 26 37 87 38 27 39 86 40 28 41 29 42 30 43 80 44 31 45
REMARK SMILES IDX 85 46 79 47 81 48 32 49 84 50 78 51 77 52 33 54 65 55 45 56
REMARK SMILES IDX 64 57 46 58 49 59 63 60 82 61 47 62 48 63 62 65 83 66 50 67
REMARK SMILES IDX 34 68 35 69 43 70 36 71 37 72 41 73 44 74 38 75 39 76 42 77
REMARK SMILES IDX 40 78 66 79 67 80 75 81 68 82 69 83 73 84 76 85 70 86 71 87
REMARK SMILES IDX 74 88 72 89 51 90 52 91 60 92 53 93 54 94 58 95 61 96 55 97
REMARK SMILES IDX 56 98 59 99 57 100
REMARK H PARENT 18 5 11 13 22 34 81 53 49 64
REMARK Flexibility Score: inf
ROOT
ATOM      1  C   UNL A   1      34.435  35.077  27.855  1.00  0.00     0.118 C 
ENDROOT
BRANCH   1   2
ATOM      2  N   UNL A   1      35.742  34.617  28.285  1.00  0.00    -0.352 N 
ATOM      3  C   UNL A   1      36.250  33.356  28.455  1.00  0.00     0.251 C 
ATOM      4  O   UNL A   1      37.416  33.249  28.834  1.00  0.00    -0.269 OA
ATOM      5  H   UNL A   1      36.377  35.340  28.490  1.00  0.00     0.163 HD
BRANCH   3   6
ATOM      6  C   UNL A   1      35.478  32.133  28.121  1.00  0.00     0.039 A 
ATOM      7  C   UNL A   1      34.197  29.754  27.332  1.00  0.00     0.038 A 
ATOM      8  C   UNL A   1      35.580  29.784  27.537  1.00  0.00     0.027 A 
ATOM      9  C   UNL A   1      33.455  30.911  27.566  1.00  0.00     0.027 A 
ATOM     10  C   UNL A   1      36.217  30.963  27.919  1.00  0.00     0.016 A 
ATOM     11  C   UNL A   1      34.086  32.080  28.002  1.00  0.00     0.016 A 
BRANCH   7  12
ATOM     12  N   UNL A   1      33.612  28.574  26.865  1.00  0.00    -0.355 N 
ATOM     13  H   UNL A   1      33.757  27.796  27.450  1.00  0.00     0.167 HD
BRANCH  12  14
ATOM     14  C   UNL A   1      32.850  28.291  25.709  1.00  0.00     0.050 A 
ATOM     15  C   UNL A   1      33.776  24.879  23.402  1.00  0.00     0.163 A 
ATOM     16  C   UNL A   1      32.834  25.818  22.957  1.00  0.00     0.079 A 
ATOM     17  C   UNL A   1      34.342  25.024  24.667  1.00  0.00     0.161 A 
ATOM     18  C   UNL A   1      32.473  26.924  23.732  1.00  0.00     0.076 A 
ATOM     19  C   UNL A   1      34.027  26.142  25.426  1.00  0.00     0.063 A 
ATOM     20  N   UNL A   1      31.549  27.789  23.278  1.00  0.00    -0.256 NA
ATOM     21  C   UNL A   1      33.122  27.116  24.969  1.00  0.00     0.028 A 
ATOM     22  C   UNL A   1      31.250  28.864  24.044  1.00  0.00     0.114 A 
ATOM     23  C   UNL A   1      31.857  29.151  25.253  1.00  0.00     0.047 A 
BRANCH  15  24
ATOM     24  O   UNL A   1      34.260  23.896  22.588  1.00  0.00    -0.490 OA
BRANCH  24  25
ATOM     25  C   UNL A   1      33.278  23.027  22.021  1.00  0.00     0.226 C 
ATOM     26  C   UNL A   1      32.841  22.075  23.126  1.00  0.00     0.049 C 
ENDBRANCH  24  25
ENDBRANCH  15  24
BRANCH  17  27
ATOM     27  O   UNL A   1      35.228  24.185  25.282  1.00  0.00    -0.490 OA
BRANCH  27  28
ATOM     28  C   UNL A   1      34.696  23.218  26.185  1.00  0.00     0.226 C 
ATOM     29  C   UNL A   1      35.367  21.851  26.102  1.00  0.00     0.049 C 
ENDBRANCH  27  28
ENDBRANCH  17  27
ENDBRANCH  12  14
ENDBRANCH   7  12
ENDBRANCH   3   6
ENDBRANCH   1   2
BRANCH   1  30
ATOM     30  C   UNL A   1      33.777  35.908  28.954  1.00  0.00     0.042 C 
BRANCH  30  31
ATOM     31  C   UNL A   1      32.864  35.081  29.851  1.00  0.00     0.118 C 
BRANCH  31  32
ATOM     32  N   UNL A   1      32.380  35.856  30.982  1.00  0.00    -0.352 N 
ATOM     33  C   UNL A   1      32.741  35.800  32.303  1.00  0.00     0.251 C 
ATOM     34  H   UNL A   1      31.688  36.524  30.766  1.00  0.00     0.163 HD
ATOM     35  O   UNL A   1      32.054  36.373  33.142  1.00  0.00    -0.269 OA
BRANCH  33  36
ATOM     36  C   UNL A   1      33.947  35.056  32.724  1.00  0.00     0.039 A 
ATOM     37  C   UNL A   1      35.199  35.649  32.535  1.00  0.00     0.014 A 
ATOM     38  C   UNL A   1      33.861  33.758  33.236  1.00  0.00     0.014 A 
ATOM     39  C   UNL A   1      36.359  34.953  32.877  1.00  0.00     0.010 A 
ATOM     40  C   UNL A   1      35.013  33.093  33.646  1.00  0.00     0.010 A 
ATOM     41  C   UNL A   1      36.274  33.673  33.446  1.00  0.00    -0.014 A 
BRANCH  41  42
ATOM     42  C   UNL A   1      37.497  32.904  33.786  1.00  0.00     0.031 A 
ATOM     43  C   UNL A   1      38.226  33.187  35.071  1.00  0.00     0.074 A 
ATOM     44  C   UNL A   1      37.975  31.990  32.922  1.00  0.00     0.049 A 
ATOM     45  N   UNL A   1      39.344  32.677  35.521  1.00  0.00    -0.248 NA
ATOM     46  C   UNL A   1      37.632  34.202  35.957  1.00  0.00     0.031 C 
ATOM     47  C   UNL A   1      37.378  31.656  31.629  1.00  0.00     0.029 A 
ATOM     48  N   UNL A   1      39.080  31.181  32.998  1.00  0.00    -0.354 N 
ATOM     49  C   UNL A   1      39.596  33.322  36.725  1.00  0.00     0.074 A 
ATOM     50  C   UNL A   1      38.545  34.297  36.912  1.00  0.00     0.031 C 
ATOM     51  C   UNL A   1      38.112  30.699  31.040  1.00  0.00     0.029 A 
ATOM     52  C   UNL A   1      39.249  30.376  31.898  1.00  0.00     0.049 A 
ATOM     53  H   UNL A   1      39.694  31.177  33.767  1.00  0.00     0.167 HD
ATOM     54  C   UNL A   1      40.600  33.104  37.607  1.00  0.00     0.037 A 
ATOM     55  C   UNL A   1      40.215  29.482  31.615  1.00  0.00     0.037 A 
ATOM     56  C   UNL A   1      41.625  32.109  37.431  1.00  0.00     0.049 A 
ATOM     57  C   UNL A   1      41.314  29.250  32.617  1.00  0.00     0.074 A 
ATOM     58  C   UNL A   1      42.656  31.769  38.289  1.00  0.00     0.029 A 
ATOM     59  N   UNL A   1      41.744  31.289  36.318  1.00  0.00    -0.354 N 
ATOM     60  N   UNL A   1      41.509  29.823  33.780  1.00  0.00    -0.248 NA
ATOM     61  C   UNL A   1      42.321  28.237  32.270  1.00  0.00     0.031 C 
ATOM     62  C   UNL A   1      43.424  30.773  37.678  1.00  0.00     0.029 A 
ATOM     63  C   UNL A   1      42.841  30.455  36.461  1.00  0.00     0.049 A 
ATOM     64  H   UNL A   1      41.139  31.300  35.541  1.00  0.00     0.167 HD
ATOM     65  C   UNL A   1      42.637  29.219  34.319  1.00  0.00     0.074 A 
ATOM     66  C   UNL A   1      43.077  28.227  33.359  1.00  0.00     0.031 C 
ATOM     67  C   UNL A   1      43.253  29.462  35.502  1.00  0.00     0.037 A 
BRANCH  54  68
ATOM     68  C   UNL A   1      40.637  33.956  38.843  1.00  0.00     0.064 A 
ATOM     69  C   UNL A   1      39.954  33.588  40.012  1.00  0.00     0.173 A 
ATOM     70  C   UNL A   1      41.388  35.142  38.869  1.00  0.00     0.173 A 
ATOM     71  F   UNL A   1      39.212  32.470  40.038  1.00  0.00    -0.203 F 
ATOM     72  C   UNL A   1      39.995  34.391  41.150  1.00  0.00     0.198 A 
ATOM     73  C   UNL A   1      41.451  35.925  40.019  1.00  0.00     0.198 A 
ATOM     74  F   UNL A   1      42.064  35.539  37.781  1.00  0.00    -0.203 F 
ATOM     75  F   UNL A   1      39.290  34.045  42.236  1.00  0.00    -0.200 F 
ATOM     76  C   UNL A   1      40.748  35.554  41.154  1.00  0.00     0.200 A 
ATOM     77  F   UNL A   1      42.190  37.044  40.026  1.00  0.00    -0.200 F 
ATOM     78  F   UNL A   1      40.790  36.323  42.252  1.00  0.00    -0.200 F 
ENDBRANCH  54  68
BRANCH  55  79
ATOM     79  C   UNL A   1      40.168  28.717  30.342  1.00  0.00     0.064 A 
ATOM     80  C   UNL A   1      40.789  29.210  29.186  1.00  0.00     0.173 A 
ATOM     81  C   UNL A   1      39.505  27.485  30.252  1.00  0.00     0.173 A 
ATOM     82  F   UNL A   1      41.421  30.393  29.217  1.00  0.00    -0.203 F 
ATOM     83  C   UNL A   1      40.728  28.510  27.982  1.00  0.00     0.198 A 
ATOM     84  C   UNL A   1      39.470  26.773  29.055  1.00  0.00     0.198 A 
ATOM     85  F   UNL A   1      38.902  26.966  31.332  1.00  0.00    -0.203 F 
ATOM     86  F   UNL A   1      41.291  29.027  26.881  1.00  0.00    -0.200 F 
ATOM     87  C   UNL A   1      40.074  27.290  27.919  1.00  0.00     0.200 A 
ATOM     88  F   UNL A   1      38.849  25.586  29.002  1.00  0.00    -0.200 F 
ATOM     89  F   UNL A   1      40.019  26.615  26.762  1.00  0.00    -0.200 F 
ENDBRANCH  55  79
BRANCH  67  90
ATOM     90  C   UNL A   1      44.438  28.610  35.849  1.00  0.00     0.064 A 
ATOM     91  C   UNL A   1      45.740  28.964  35.465  1.00  0.00     0.173 A 
ATOM     92  C   UNL A   1      44.271  27.444  36.612  1.00  0.00     0.173 A 
ATOM     93  F   UNL A   1      45.950  30.061  34.723  1.00  0.00    -0.203 F 
ATOM     94  C   UNL A   1      46.828  28.166  35.809  1.00  0.00     0.198 A 
ATOM     95  C   UNL A   1      45.365  26.666  36.981  1.00  0.00     0.198 A 
ATOM     96  F   UNL A   1      43.047  27.065  37.010  1.00  0.00    -0.203 F 
ATOM     97  F   UNL A   1      48.057  28.497  35.391  1.00  0.00    -0.200 F 
ATOM     98  C   UNL A   1      46.640  27.023  36.574  1.00  0.00     0.200 A 
ATOM     99  F   UNL A   1      45.183  25.570  37.730  1.00  0.00    -0.200 F 
ATOM    100  F   UNL A   1      47.690  26.262  36.911  1.00  0.00    -0.200 F 
ENDBRANCH  67  90
ENDBRANCH  41  42
ENDBRANCH  33  36
ENDBRANCH  31  32
ENDBRANCH  30  31
ENDBRANCH   1  30
TORSDOF 16
ENDMDL
