MODEL 1
REMARK VINA RESULT:     -12.5      0.000      0.000
REMARK SMILES CC(=O)[C@H]1CC(C)=C(C)C[C@@H]1C(=O)NCCCNC(=O)c1ccc(-c2c3nc(c(-c4c(F)c(F)c(F)c(F)c4F)c4ccc([nH]4)c(-c4c(F)c(F)c(F)c(F)c4F)c4nc(c(-c5c(F)c(F)c(F)c(F)c5F)c5ccc2[nH]5)C=C4)C=C3)cc1
REMARK SMILES IDX 16 1 15 2 14 3 12 4 13 5 11 7 4 8 5 9 6 10 10 11 7 12 8 13
REMARK SMILES IDX 9 14 2 15 1 16 3 17 17 18 18 19 19 20 20 22 21 23 22 24
REMARK SMILES IDX 83 25 23 26 82 27 24 28 25 29 26 30 76 31 27 32 81 33 75 34
REMARK SMILES IDX 77 35 28 36 80 37 74 38 73 39 29 41 61 42 41 43 60 44 42 45
REMARK SMILES IDX 45 46 59 47 78 48 43 49 44 50 58 52 79 53 46 54 30 55 31 56
REMARK SMILES IDX 39 57 32 58 33 59 37 60 40 61 34 62 35 63 38 64 36 65 62 66
REMARK SMILES IDX 63 67 71 68 64 69 65 70 69 71 72 72 66 73 67 74 70 75 68 76
REMARK SMILES IDX 47 77 48 78 56 79 49 80 50 81 54 82 57 83 51 84 52 85 55 86
REMARK SMILES IDX 53 87
REMARK H PARENT 14 6 18 21 77 40 45 51
REMARK Flexibility Score: inf
ROOT
ATOM      1  C   UNL A   1      31.508  32.129  26.564  1.00  0.00     0.042 C 
ENDROOT
BRANCH   1   2
ATOM      2  C   UNL A   1      31.763  30.705  26.072  1.00  0.00     0.117 C 
BRANCH   2   3
ATOM      3  N   UNL A   1      31.645  29.735  27.152  1.00  0.00    -0.356 N 
ATOM      4  C   UNL A   1      31.639  28.370  27.101  1.00  0.00     0.224 C 
ATOM      5  O   UNL A   1      31.412  27.747  28.138  1.00  0.00    -0.275 OA
ATOM      6  H   UNL A   1      31.557  30.121  28.054  1.00  0.00     0.163 HD
BRANCH   4   7
ATOM      7  C   UNL A   1      31.982  27.673  25.791  1.00  0.00     0.093 C 
ATOM      8  C   UNL A   1      30.697  27.271  25.034  1.00  0.00     0.072 C 
ATOM      9  C   UNL A   1      30.380  25.770  24.982  1.00  0.00     0.043 C 
ATOM     10  C   UNL A   1      31.486  24.787  25.256  1.00  0.00    -0.074 C 
ATOM     11  C   UNL A   1      33.016  26.579  26.098  1.00  0.00     0.045 C 
ATOM     12  C   UNL A   1      31.119  23.358  24.932  1.00  0.00     0.039 C 
ATOM     13  C   UNL A   1      32.673  25.153  25.772  1.00  0.00    -0.074 C 
ATOM     14  C   UNL A   1      33.759  24.160  26.110  1.00  0.00     0.039 C 
BRANCH   8  15
ATOM     15  C   UNL A   1      30.642  27.930  23.642  1.00  0.00     0.134 C 
ATOM     16  C   UNL A   1      31.007  27.087  22.443  1.00  0.00     0.088 C 
ATOM     17  O   UNL A   1      30.249  29.085  23.464  1.00  0.00    -0.300 OA
ENDBRANCH   8  15
ENDBRANCH   4   7
ENDBRANCH   2   3
ENDBRANCH   1   2
BRANCH   1  18
ATOM     18  C   UNL A   1      32.718  32.770  27.246  1.00  0.00     0.118 C 
BRANCH  18  19
ATOM     19  N   UNL A   1      32.477  34.156  27.629  1.00  0.00    -0.352 N 
ATOM     20  C   UNL A   1      33.038  34.917  28.619  1.00  0.00     0.251 C 
ATOM     21  H   UNL A   1      31.799  34.621  27.086  1.00  0.00     0.163 HD
ATOM     22  O   UNL A   1      32.543  36.013  28.899  1.00  0.00    -0.269 OA
BRANCH  20  23
ATOM     23  C   UNL A   1      34.216  34.439  29.369  1.00  0.00     0.039 A 
ATOM     24  C   UNL A   1      34.026  33.866  30.630  1.00  0.00     0.014 A 
ATOM     25  C   UNL A   1      35.506  34.580  28.853  1.00  0.00     0.014 A 
ATOM     26  C   UNL A   1      35.119  33.358  31.336  1.00  0.00     0.010 A 
ATOM     27  C   UNL A   1      36.588  34.020  29.528  1.00  0.00     0.010 A 
ATOM     28  C   UNL A   1      36.403  33.391  30.768  1.00  0.00    -0.014 A 
BRANCH  28  29
ATOM     29  C   UNL A   1      37.556  32.729  31.429  1.00  0.00     0.031 A 
ATOM     30  C   UNL A   1      38.227  31.549  30.788  1.00  0.00     0.074 A 
ATOM     31  C   UNL A   1      37.941  33.146  32.651  1.00  0.00     0.049 A 
ATOM     32  N   UNL A   1      39.165  30.770  31.267  1.00  0.00    -0.248 NA
ATOM     33  C   UNL A   1      37.771  31.179  29.440  1.00  0.00     0.031 C 
ATOM     34  C   UNL A   1      37.344  34.260  33.390  1.00  0.00     0.029 A 
ATOM     35  N   UNL A   1      38.911  32.670  33.497  1.00  0.00    -0.354 N 
ATOM     36  C   UNL A   1      39.405  29.818  30.286  1.00  0.00     0.074 A 
ATOM     37  C   UNL A   1      38.485  30.088  29.202  1.00  0.00     0.031 C 
ATOM     38  C   UNL A   1      37.965  34.387  34.573  1.00  0.00     0.029 A 
ATOM     39  C   UNL A   1      38.970  33.337  34.697  1.00  0.00     0.049 A 
ATOM     40  H   UNL A   1      39.508  31.921  33.266  1.00  0.00     0.167 HD
ATOM     41  C   UNL A   1      40.322  28.820  30.286  1.00  0.00     0.037 A 
ATOM     42  C   UNL A   1      39.732  33.112  35.783  1.00  0.00     0.037 A 
ATOM     43  C   UNL A   1      41.245  28.565  31.361  1.00  0.00     0.049 A 
ATOM     44  C   UNL A   1      40.715  31.973  35.768  1.00  0.00     0.074 A 
ATOM     45  C   UNL A   1      42.247  27.612  31.429  1.00  0.00     0.029 A 
ATOM     46  N   UNL A   1      41.276  29.264  32.558  1.00  0.00    -0.354 N 
ATOM     47  N   UNL A   1      40.972  31.114  34.812  1.00  0.00    -0.248 NA
ATOM     48  C   UNL A   1      41.512  31.770  36.986  1.00  0.00     0.031 C 
ATOM     49  C   UNL A   1      42.853  27.703  32.686  1.00  0.00     0.029 A 
ATOM     50  C   UNL A   1      42.264  28.744  33.382  1.00  0.00     0.049 A 
ATOM     51  H   UNL A   1      40.687  30.017  32.789  1.00  0.00     0.167 HD
ATOM     52  C   UNL A   1      41.971  30.286  35.302  1.00  0.00     0.074 A 
ATOM     53  C   UNL A   1      42.290  30.758  36.633  1.00  0.00     0.031 C 
ATOM     54  C   UNL A   1      42.569  29.226  34.705  1.00  0.00     0.037 A 
BRANCH  41  55
ATOM     55  C   UNL A   1      40.381  27.927  29.081  1.00  0.00     0.064 A 
ATOM     56  C   UNL A   1      39.635  26.741  29.012  1.00  0.00     0.173 A 
ATOM     57  C   UNL A   1      41.137  28.294  27.958  1.00  0.00     0.173 A 
ATOM     58  F   UNL A   1      38.903  26.341  30.061  1.00  0.00    -0.203 F 
ATOM     59  C   UNL A   1      39.662  25.944  27.869  1.00  0.00     0.198 A 
ATOM     60  C   UNL A   1      41.140  27.509  26.808  1.00  0.00     0.198 A 
ATOM     61  F   UNL A   1      41.862  29.423  27.970  1.00  0.00    -0.203 F 
ATOM     62  F   UNL A   1      38.970  24.797  27.839  1.00  0.00    -0.200 F 
ATOM     63  C   UNL A   1      40.406  26.333  26.766  1.00  0.00     0.200 A 
ATOM     64  F   UNL A   1      41.849  27.893  25.737  1.00  0.00    -0.200 F 
ATOM     65  F   UNL A   1      40.418  25.574  25.662  1.00  0.00    -0.200 F 
ENDBRANCH  41  55
BRANCH  42  66
ATOM     66  C   UNL A   1      39.595  33.979  36.984  1.00  0.00     0.064 A 
ATOM     67  C   UNL A   1      38.790  33.589  38.063  1.00  0.00     0.173 A 
ATOM     68  C   UNL A   1      40.244  35.219  37.068  1.00  0.00     0.173 A 
ATOM     69  F   UNL A   1      38.130  32.422  38.019  1.00  0.00    -0.203 F 
ATOM     70  C   UNL A   1      38.621  34.418  39.169  1.00  0.00     0.198 A 
ATOM     71  C   UNL A   1      40.097  36.034  38.188  1.00  0.00     0.198 A 
ATOM     72  F   UNL A   1      41.028  35.637  36.062  1.00  0.00    -0.203 F 
ATOM     73  F   UNL A   1      37.802  34.044  40.163  1.00  0.00    -0.200 F 
ATOM     74  C   UNL A   1      39.278  35.638  39.234  1.00  0.00     0.200 A 
ATOM     75  F   UNL A   1      40.744  37.206  38.251  1.00  0.00    -0.200 F 
ATOM     76  F   UNL A   1      39.111  36.436  40.297  1.00  0.00    -0.200 F 
ENDBRANCH  42  66
BRANCH  54  77
ATOM     77  C   UNL A   1      43.643  28.519  35.479  1.00  0.00     0.064 A 
ATOM     78  C   UNL A   1      44.995  28.861  35.337  1.00  0.00     0.173 A 
ATOM     79  C   UNL A   1      43.312  27.510  36.398  1.00  0.00     0.173 A 
ATOM     80  F   UNL A   1      45.363  29.806  34.459  1.00  0.00    -0.203 F 
ATOM     81  C   UNL A   1      45.980  28.204  36.068  1.00  0.00     0.198 A 
ATOM     82  C   UNL A   1      44.297  26.875  37.148  1.00  0.00     0.198 A 
ATOM     83  F   UNL A   1      42.032  27.148  36.574  1.00  0.00    -0.203 F 
ATOM     84  F   UNL A   1      47.271  28.514  35.881  1.00  0.00    -0.200 F 
ATOM     85  C   UNL A   1      45.630  27.217  36.978  1.00  0.00     0.200 A 
ATOM     86  F   UNL A   1      43.956  25.932  38.037  1.00  0.00    -0.200 F 
ATOM     87  F   UNL A   1      46.579  26.589  37.687  1.00  0.00    -0.200 F 
ENDBRANCH  54  77
ENDBRANCH  28  29
ENDBRANCH  20  23
ENDBRANCH  18  19
ENDBRANCH   1  18
TORSDOF 11
ENDMDL
MODEL 2
REMARK VINA RESULT:     -12.5      0.057      1.168
REMARK SMILES CC(=O)[C@H]1CC(C)=C(C)C[C@@H]1C(=O)NCCCNC(=O)c1ccc(-c2c3nc(c(-c4c(F)c(F)c(F)c(F)c4F)c4ccc([nH]4)c(-c4c(F)c(F)c(F)c(F)c4F)c4nc(c(-c5c(F)c(F)c(F)c(F)c5F)c5ccc2[nH]5)C=C4)C=C3)cc1
REMARK SMILES IDX 16 1 15 2 14 3 12 4 13 5 11 7 4 8 5 9 6 10 10 11 7 12 8 13
REMARK SMILES IDX 9 14 2 15 1 16 3 17 17 18 18 19 19 20 20 22 21 23 22 24
REMARK SMILES IDX 83 25 23 26 82 27 24 28 25 29 26 30 76 31 27 32 81 33 75 34
REMARK SMILES IDX 77 35 28 36 80 37 74 38 73 39 29 41 61 42 41 43 60 44 42 45
REMARK SMILES IDX 45 46 59 47 78 48 43 49 44 50 58 52 79 53 46 54 30 55 31 56
REMARK SMILES IDX 39 57 32 58 33 59 37 60 40 61 34 62 35 63 38 64 36 65 62 66
REMARK SMILES IDX 63 67 71 68 64 69 65 70 69 71 72 72 66 73 67 74 70 75 68 76
REMARK SMILES IDX 47 77 48 78 56 79 49 80 50 81 54 82 57 83 51 84 52 85 55 86
REMARK SMILES IDX 53 87
REMARK H PARENT 14 6 18 21 77 40 45 51
REMARK Flexibility Score: inf
ROOT
ATOM      1  C   UNL A   1      31.508  32.117  26.558  1.00  0.00     0.042 C 
ENDROOT
BRANCH   1   2
ATOM      2  C   UNL A   1      31.763  30.693  26.067  1.00  0.00     0.117 C 
BRANCH   2   3
ATOM      3  N   UNL A   1      31.689  29.729  27.156  1.00  0.00    -0.356 N 
ATOM      4  C   UNL A   1      31.681  28.363  27.112  1.00  0.00     0.224 C 
ATOM      5  O   UNL A   1      31.496  27.746  28.161  1.00  0.00    -0.275 OA
ATOM      6  H   UNL A   1      31.639  30.120  28.059  1.00  0.00     0.163 HD
BRANCH   4   7
ATOM      7  C   UNL A   1      31.968  27.660  25.793  1.00  0.00     0.093 C 
ATOM      8  C   UNL A   1      30.652  27.255  25.092  1.00  0.00     0.072 C 
ATOM      9  C   UNL A   1      30.333  25.754  25.061  1.00  0.00     0.043 C 
ATOM     10  C   UNL A   1      31.448  24.771  25.294  1.00  0.00    -0.074 C 
ATOM     11  C   UNL A   1      33.013  26.566  26.063  1.00  0.00     0.045 C 
ATOM     12  C   UNL A   1      31.067  23.341  24.993  1.00  0.00     0.039 C 
ATOM     13  C   UNL A   1      32.656  25.139  25.758  1.00  0.00    -0.074 C 
ATOM     14  C   UNL A   1      33.754  24.146  26.056  1.00  0.00     0.039 C 
BRANCH   8  15
ATOM     15  C   UNL A   1      30.541  27.907  23.699  1.00  0.00     0.134 C 
ATOM     16  C   UNL A   1      31.072  27.139  22.512  1.00  0.00     0.088 C 
ATOM     17  O   UNL A   1      29.978  28.987  23.511  1.00  0.00    -0.300 OA
ENDBRANCH   8  15
ENDBRANCH   4   7
ENDBRANCH   2   3
ENDBRANCH   1   2
BRANCH   1  18
ATOM     18  C   UNL A   1      32.714  32.755  27.249  1.00  0.00     0.118 C 
BRANCH  18  19
ATOM     19  N   UNL A   1      32.474  34.143  27.626  1.00  0.00    -0.352 N 
ATOM     20  C   UNL A   1      33.037  34.908  28.612  1.00  0.00     0.251 C 
ATOM     21  H   UNL A   1      31.796  34.606  27.082  1.00  0.00     0.163 HD
ATOM     22  O   UNL A   1      32.544  36.006  28.888  1.00  0.00    -0.269 OA
BRANCH  20  23
ATOM     23  C   UNL A   1      34.216  34.433  29.362  1.00  0.00     0.039 A 
ATOM     24  C   UNL A   1      34.028  33.861  30.623  1.00  0.00     0.014 A 
ATOM     25  C   UNL A   1      35.506  34.576  28.845  1.00  0.00     0.014 A 
ATOM     26  C   UNL A   1      35.121  33.355  31.329  1.00  0.00     0.010 A 
ATOM     27  C   UNL A   1      36.589  34.018  29.520  1.00  0.00     0.010 A 
ATOM     28  C   UNL A   1      36.406  33.390  30.761  1.00  0.00    -0.014 A 
BRANCH  28  29
ATOM     29  C   UNL A   1      37.560  32.730  31.421  1.00  0.00     0.031 A 
ATOM     30  C   UNL A   1      38.233  31.550  30.782  1.00  0.00     0.074 A 
ATOM     31  C   UNL A   1      37.944  33.149  32.644  1.00  0.00     0.049 A 
ATOM     32  N   UNL A   1      39.173  30.774  31.261  1.00  0.00    -0.248 NA
ATOM     33  C   UNL A   1      37.777  31.180  29.434  1.00  0.00     0.031 C 
ATOM     34  C   UNL A   1      37.346  34.262  33.382  1.00  0.00     0.029 A 
ATOM     35  N   UNL A   1      38.916  32.674  33.489  1.00  0.00    -0.354 N 
ATOM     36  C   UNL A   1      39.414  29.822  30.280  1.00  0.00     0.074 A 
ATOM     37  C   UNL A   1      38.493  30.090  29.196  1.00  0.00     0.031 C 
ATOM     38  C   UNL A   1      37.966  34.390  34.565  1.00  0.00     0.029 A 
ATOM     39  C   UNL A   1      38.974  33.342  34.689  1.00  0.00     0.049 A 
ATOM     40  H   UNL A   1      39.514  31.927  33.259  1.00  0.00     0.167 HD
ATOM     41  C   UNL A   1      40.332  28.826  30.281  1.00  0.00     0.037 A 
ATOM     42  C   UNL A   1      39.737  33.119  35.775  1.00  0.00     0.037 A 
ATOM     43  C   UNL A   1      41.257  28.572  31.355  1.00  0.00     0.049 A 
ATOM     44  C   UNL A   1      40.721  31.982  35.760  1.00  0.00     0.074 A 
ATOM     45  C   UNL A   1      42.260  27.621  31.424  1.00  0.00     0.029 A 
ATOM     46  N   UNL A   1      41.287  29.272  32.552  1.00  0.00    -0.354 N 
ATOM     47  N   UNL A   1      40.980  31.123  34.805  1.00  0.00    -0.248 NA
ATOM     48  C   UNL A   1      41.519  31.781  36.978  1.00  0.00     0.031 C 
ATOM     49  C   UNL A   1      42.867  27.714  32.680  1.00  0.00     0.029 A 
ATOM     50  C   UNL A   1      42.275  28.755  33.376  1.00  0.00     0.049 A 
ATOM     51  H   UNL A   1      40.696  30.024  32.782  1.00  0.00     0.167 HD
ATOM     52  C   UNL A   1      41.981  30.297  35.295  1.00  0.00     0.074 A 
ATOM     53  C   UNL A   1      42.299  30.770  36.626  1.00  0.00     0.031 C 
ATOM     54  C   UNL A   1      42.580  29.237  34.698  1.00  0.00     0.037 A 
BRANCH  41  55
ATOM     55  C   UNL A   1      40.393  27.932  29.076  1.00  0.00     0.064 A 
ATOM     56  C   UNL A   1      39.641  26.750  29.003  1.00  0.00     0.173 A 
ATOM     57  C   UNL A   1      41.157  28.294  27.957  1.00  0.00     0.173 A 
ATOM     58  F   UNL A   1      38.900  26.354  30.048  1.00  0.00    -0.203 F 
ATOM     59  C   UNL A   1      39.669  25.953  27.860  1.00  0.00     0.198 A 
ATOM     60  C   UNL A   1      41.161  27.509  26.807  1.00  0.00     0.198 A 
ATOM     61  F   UNL A   1      41.888  29.419  27.972  1.00  0.00    -0.203 F 
ATOM     62  F   UNL A   1      38.971  24.810  27.827  1.00  0.00    -0.200 F 
ATOM     63  C   UNL A   1      40.421  26.338  26.761  1.00  0.00     0.200 A 
ATOM     64  F   UNL A   1      41.878  27.889  25.740  1.00  0.00    -0.200 F 
ATOM     65  F   UNL A   1      40.434  25.578  25.658  1.00  0.00    -0.200 F 
ENDBRANCH  41  55
BRANCH  42  66
ATOM     66  C   UNL A   1      39.599  33.986  36.975  1.00  0.00     0.064 A 
ATOM     67  C   UNL A   1      38.783  33.603  38.049  1.00  0.00     0.173 A 
ATOM     68  C   UNL A   1      40.257  35.221  37.064  1.00  0.00     0.173 A 
ATOM     69  F   UNL A   1      38.114  32.441  38.000  1.00  0.00    -0.203 F 
ATOM     70  C   UNL A   1      38.612  34.432  39.155  1.00  0.00     0.198 A 
ATOM     71  C   UNL A   1      40.109  36.037  38.184  1.00  0.00     0.198 A 
ATOM     72  F   UNL A   1      41.050  35.634  36.064  1.00  0.00    -0.203 F 
ATOM     73  F   UNL A   1      37.785  34.064  40.142  1.00  0.00    -0.200 F 
ATOM     74  C   UNL A   1      39.278  35.646  39.224  1.00  0.00     0.200 A 
ATOM     75  F   UNL A   1      40.764  37.203  38.252  1.00  0.00    -0.200 F 
ATOM     76  F   UNL A   1      39.111  36.445  40.287  1.00  0.00    -0.200 F 
ENDBRANCH  42  66
BRANCH  54  77
ATOM     77  C   UNL A   1      43.655  28.533  35.473  1.00  0.00     0.064 A 
ATOM     78  C   UNL A   1      43.353  27.498  36.370  1.00  0.00     0.173 A 
ATOM     79  C   UNL A   1      45.004  28.874  35.291  1.00  0.00     0.173 A 
ATOM     80  F   UNL A   1      42.078  27.147  36.591  1.00  0.00    -0.203 F 
ATOM     81  C   UNL A   1      44.362  26.846  37.075  1.00  0.00     0.198 A 
ATOM     82  C   UNL A   1      46.011  28.201  35.976  1.00  0.00     0.198 A 
ATOM     83  F   UNL A   1      45.346  29.855  34.441  1.00  0.00    -0.203 F 
ATOM     84  F   UNL A   1      44.047  25.892  37.962  1.00  0.00    -0.200 F 
ATOM     85  C   UNL A   1      45.689  27.193  36.872  1.00  0.00     0.200 A 
ATOM     86  F   UNL A   1      47.294  28.528  35.769  1.00  0.00    -0.200 F 
ATOM     87  F   UNL A   1      46.659  26.560  37.547  1.00  0.00    -0.200 F 
ENDBRANCH  54  77
ENDBRANCH  28  29
ENDBRANCH  20  23
ENDBRANCH  18  19
ENDBRANCH   1  18
TORSDOF 11
ENDMDL
MODEL 3
REMARK VINA RESULT:     -12.5      3.995      7.975
REMARK SMILES CC(=O)[C@H]1CC(C)=C(C)C[C@@H]1C(=O)NCCCNC(=O)c1ccc(-c2c3nc(c(-c4c(F)c(F)c(F)c(F)c4F)c4ccc([nH]4)c(-c4c(F)c(F)c(F)c(F)c4F)c4nc(c(-c5c(F)c(F)c(F)c(F)c5F)c5ccc2[nH]5)C=C4)C=C3)cc1
REMARK SMILES IDX 16 1 15 2 14 3 12 4 13 5 11 7 4 8 5 9 6 10 10 11 7 12 8 13
REMARK SMILES IDX 9 14 2 15 1 16 3 17 17 18 18 19 19 20 20 22 21 23 22 24
REMARK SMILES IDX 83 25 23 26 82 27 24 28 25 29 26 30 76 31 27 32 81 33 75 34
REMARK SMILES IDX 77 35 28 36 80 37 74 38 73 39 29 41 61 42 41 43 60 44 42 45
REMARK SMILES IDX 45 46 59 47 78 48 43 49 44 50 58 52 79 53 46 54 30 55 31 56
REMARK SMILES IDX 39 57 32 58 33 59 37 60 40 61 34 62 35 63 38 64 36 65 62 66
REMARK SMILES IDX 63 67 71 68 64 69 65 70 69 71 72 72 66 73 67 74 70 75 68 76
REMARK SMILES IDX 47 77 48 78 56 79 49 80 50 81 54 82 57 83 51 84 52 85 55 86
REMARK SMILES IDX 53 87
REMARK H PARENT 14 6 18 21 77 40 45 51
REMARK Flexibility Score: inf
ROOT
ATOM      1  C   UNL A   1      36.409  23.098  23.730  1.00  0.00     0.042 C 
ENDROOT
BRANCH   1   2
ATOM      2  C   UNL A   1      34.889  22.967  23.821  1.00  0.00     0.117 C 
BRANCH   2   3
ATOM      3  N   UNL A   1      34.215  24.099  23.200  1.00  0.00    -0.356 N 
ATOM      4  C   UNL A   1      33.449  25.077  23.769  1.00  0.00     0.224 C 
ATOM      5  O   UNL A   1      32.879  25.878  23.028  1.00  0.00    -0.275 OA
ATOM      6  H   UNL A   1      34.328  24.169  22.224  1.00  0.00     0.163 HD
BRANCH   4   7
ATOM      7  C   UNL A   1      33.387  25.184  25.287  1.00  0.00     0.093 C 
ATOM      8  C   UNL A   1      31.927  25.077  25.782  1.00  0.00     0.072 C 
ATOM      9  C   UNL A   1      31.299  26.367  26.327  1.00  0.00     0.043 C 
ATOM     10  C   UNL A   1      32.205  27.491  26.749  1.00  0.00    -0.074 C 
ATOM     11  C   UNL A   1      34.206  26.414  25.704  1.00  0.00     0.045 C 
ATOM     12  C   UNL A   1      31.492  28.595  27.495  1.00  0.00     0.039 C 
ATOM     13  C   UNL A   1      33.517  27.517  26.456  1.00  0.00    -0.074 C 
ATOM     14  C   UNL A   1      34.414  28.676  26.821  1.00  0.00     0.039 C 
BRANCH   8  15
ATOM     15  C   UNL A   1      31.753  23.887  26.746  1.00  0.00     0.134 C 
ATOM     16  C   UNL A   1      32.968  23.050  27.068  1.00  0.00     0.088 C 
ATOM     17  O   UNL A   1      30.687  23.637  27.313  1.00  0.00    -0.300 OA
ENDBRANCH   8  15
ENDBRANCH   4   7
ENDBRANCH   2   3
ENDBRANCH   1   2
BRANCH   1  18
ATOM     18  C   UNL A   1      37.066  23.548  25.036  1.00  0.00     0.118 C 
BRANCH  18  19
ATOM     19  N   UNL A   1      38.119  22.639  25.474  1.00  0.00    -0.352 N 
ATOM     20  C   UNL A   1      39.285  22.886  26.150  1.00  0.00     0.251 C 
ATOM     21  H   UNL A   1      37.968  21.693  25.247  1.00  0.00     0.163 HD
ATOM     22  O   UNL A   1      40.133  21.995  26.247  1.00  0.00    -0.269 OA
BRANCH  20  23
ATOM     23  C   UNL A   1      39.548  24.208  26.751  1.00  0.00     0.039 A 
ATOM     24  C   UNL A   1      39.096  24.460  28.050  1.00  0.00     0.014 A 
ATOM     25  C   UNL A   1      40.208  25.209  26.035  1.00  0.00     0.014 A 
ATOM     26  C   UNL A   1      39.379  25.683  28.661  1.00  0.00     0.010 A 
ATOM     27  C   UNL A   1      40.544  26.406  26.665  1.00  0.00     0.010 A 
ATOM     28  C   UNL A   1      40.145  26.648  27.988  1.00  0.00    -0.014 A 
BRANCH  28  29
ATOM     29  C   UNL A   1      40.585  27.894  28.665  1.00  0.00     0.031 A 
ATOM     30  C   UNL A   1      41.982  28.018  29.201  1.00  0.00     0.074 A 
ATOM     31  C   UNL A   1      39.691  28.882  28.867  1.00  0.00     0.049 A 
ATOM     32  N   UNL A   1      42.508  28.976  29.923  1.00  0.00    -0.248 NA
ATOM     33  C   UNL A   1      42.904  26.911  28.907  1.00  0.00     0.031 C 
ATOM     34  C   UNL A   1      38.297  28.864  28.423  1.00  0.00     0.029 A 
ATOM     35  N   UNL A   1      39.816  30.085  29.517  1.00  0.00    -0.354 N 
ATOM     36  C   UNL A   1      43.816  28.585  30.175  1.00  0.00     0.074 A 
ATOM     37  C   UNL A   1      43.992  27.283  29.566  1.00  0.00     0.031 C 
ATOM     38  C   UNL A   1      37.698  30.002  28.805  1.00  0.00     0.029 A 
ATOM     39  C   UNL A   1      38.649  30.810  29.560  1.00  0.00     0.049 A 
ATOM     40  H   UNL A   1      40.661  30.398  29.915  1.00  0.00     0.167 HD
ATOM     41  C   UNL A   1      44.784  29.260  30.840  1.00  0.00     0.037 A 
ATOM     42  C   UNL A   1      38.373  31.982  30.161  1.00  0.00     0.037 A 
ATOM     43  C   UNL A   1      44.610  30.561  31.430  1.00  0.00     0.049 A 
ATOM     44  C   UNL A   1      39.459  32.690  30.924  1.00  0.00     0.074 A 
ATOM     45  C   UNL A   1      45.546  31.349  32.077  1.00  0.00     0.029 A 
ATOM     46  N   UNL A   1      43.414  31.265  31.450  1.00  0.00    -0.354 N 
ATOM     47  N   UNL A   1      40.707  32.337  31.108  1.00  0.00    -0.248 NA
ATOM     48  C   UNL A   1      39.095  33.960  31.568  1.00  0.00     0.031 C 
ATOM     49  C   UNL A   1      44.908  32.508  32.529  1.00  0.00     0.029 A 
ATOM     50  C   UNL A   1      43.585  32.466  32.122  1.00  0.00     0.049 A 
ATOM     51  H   UNL A   1      42.571  30.958  31.047  1.00  0.00     0.167 HD
ATOM     52  C   UNL A   1      41.282  33.347  31.865  1.00  0.00     0.074 A 
ATOM     53  C   UNL A   1      40.251  34.339  32.090  1.00  0.00     0.031 C 
ATOM     54  C   UNL A   1      42.549  33.443  32.337  1.00  0.00     0.037 A 
BRANCH  41  55
ATOM     55  C   UNL A   1      46.131  28.608  30.962  1.00  0.00     0.064 A 
ATOM     56  C   UNL A   1      46.438  27.757  32.033  1.00  0.00     0.173 A 
ATOM     57  C   UNL A   1      47.102  28.784  29.964  1.00  0.00     0.173 A 
ATOM     58  F   UNL A   1      45.549  27.562  33.018  1.00  0.00    -0.203 F 
ATOM     59  C   UNL A   1      47.675  27.120  32.111  1.00  0.00     0.198 A 
ATOM     60  C   UNL A   1      48.326  28.125  30.030  1.00  0.00     0.198 A 
ATOM     61  F   UNL A   1      46.855  29.582  28.914  1.00  0.00    -0.203 F 
ATOM     62  F   UNL A   1      47.960  26.339  33.162  1.00  0.00    -0.200 F 
ATOM     63  C   UNL A   1      48.614  27.297  31.106  1.00  0.00     0.200 A 
ATOM     64  F   UNL A   1      49.227  28.286  29.052  1.00  0.00    -0.200 F 
ATOM     65  F   UNL A   1      49.797  26.673  31.174  1.00  0.00    -0.200 F 
ENDBRANCH  41  55
BRANCH  42  66
ATOM     66  C   UNL A   1      37.006  32.561  30.074  1.00  0.00     0.064 A 
ATOM     67  C   UNL A   1      36.615  33.315  28.958  1.00  0.00     0.173 A 
ATOM     68  C   UNL A   1      36.074  32.395  31.108  1.00  0.00     0.173 A 
ATOM     69  F   UNL A   1      37.480  33.522  27.954  1.00  0.00    -0.203 F 
ATOM     70  C   UNL A   1      35.353  33.900  28.892  1.00  0.00     0.198 A 
ATOM     71  C   UNL A   1      34.801  32.956  31.028  1.00  0.00     0.198 A 
ATOM     72  F   UNL A   1      36.398  31.681  32.197  1.00  0.00    -0.203 F 
ATOM     73  F   UNL A   1      35.025  34.660  27.838  1.00  0.00    -0.200 F 
ATOM     74  C   UNL A   1      34.445  33.717  29.924  1.00  0.00     0.200 A 
ATOM     75  F   UNL A   1      33.923  32.766  32.021  1.00  0.00    -0.200 F 
ATOM     76  F   UNL A   1      33.232  34.282  29.861  1.00  0.00    -0.200 F 
ENDBRANCH  42  66
BRANCH  54  77
ATOM     77  C   UNL A   1      42.896  34.673  33.125  1.00  0.00     0.064 A 
ATOM     78  C   UNL A   1      43.264  35.868  32.491  1.00  0.00     0.173 A 
ATOM     79  C   UNL A   1      42.827  34.664  34.526  1.00  0.00     0.173 A 
ATOM     80  F   UNL A   1      43.362  35.922  31.155  1.00  0.00    -0.203 F 
ATOM     81  C   UNL A   1      43.574  37.004  33.234  1.00  0.00     0.198 A 
ATOM     82  C   UNL A   1      43.109  35.810  35.264  1.00  0.00     0.198 A 
ATOM     83  F   UNL A   1      42.475  33.546  35.180  1.00  0.00    -0.203 F 
ATOM     84  F   UNL A   1      43.970  38.123  32.610  1.00  0.00    -0.200 F 
ATOM     85  C   UNL A   1      43.490  36.976  34.618  1.00  0.00     0.200 A 
ATOM     86  F   UNL A   1      43.014  35.785  36.600  1.00  0.00    -0.200 F 
ATOM     87  F   UNL A   1      43.782  38.074  35.331  1.00  0.00    -0.200 F 
ENDBRANCH  54  77
ENDBRANCH  28  29
ENDBRANCH  20  23
ENDBRANCH  18  19
ENDBRANCH   1  18
TORSDOF 11
ENDMDL
