MODEL 1
REMARK VINA RESULT:     -11.8      0.000      0.000
REMARK SMILES CC1(C)CCC[C@H]([N@H+](CC(=O)NCCCNC(=O)c2ccc(-c3c4nc(c(-c5c(F)c(F)c(F)c(F)c5F)c5ccc([nH]5)c(-c5c(F)c(F)c(F)c(F)c5F)c5nc(c(-c6c(F)c(F)c(F)c(F)c6F)c6ccc3[nH]6)C=C5)C=C4)cc2)C(C)(C)C)C1
REMARK SMILES IDX 14 1 13 2 12 3 10 4 11 5 9 7 8 8 7 10 1 11 2 12 3 13 4 14
REMARK SMILES IDX 86 15 5 16 6 17 82 18 83 19 84 20 85 21 15 22 16 23 17 24
REMARK SMILES IDX 18 26 19 27 20 28 81 29 21 30 80 31 22 32 23 33 24 34 74 35
REMARK SMILES IDX 25 36 79 37 73 38 75 39 26 40 78 41 72 42 71 43 27 45 59 46
REMARK SMILES IDX 39 47 58 48 40 49 43 50 57 51 76 52 41 53 42 54 56 56 77 57
REMARK SMILES IDX 44 58 28 59 29 60 37 61 30 62 31 63 35 64 38 65 32 66 33 67
REMARK SMILES IDX 36 68 34 69 60 70 61 71 69 72 62 73 63 74 67 75 70 76 64 77
REMARK SMILES IDX 65 78 68 79 66 80 45 81 46 82 54 83 47 84 48 85 52 86 55 87
REMARK SMILES IDX 49 88 50 89 53 90 51 91
REMARK H PARENT 12 6 8 9 16 25 75 44 43 55
REMARK Flexibility Score: inf
ROOT
ATOM      1  C   UNL A   1      31.269  32.361  26.467  1.00  0.00     0.042 C 
ENDROOT
BRANCH   1   2
ATOM      2  C   UNL A   1      31.378  30.908  26.018  1.00  0.00     0.118 C 
BRANCH   2   3
ATOM      3  N   UNL A   1      32.251  30.115  26.855  1.00  0.00    -0.351 N 
ATOM      4  C   UNL A   1      32.469  28.770  26.852  1.00  0.00     0.275 C 
ATOM      5  O   UNL A   1      33.378  28.347  27.574  1.00  0.00    -0.269 OA
ATOM      6  H   UNL A   1      32.765  30.621  27.524  1.00  0.00     0.163 HD
BRANCH   4   7
ATOM      7  C   UNL A   1      31.694  27.823  25.934  1.00  0.00     0.364 C 
BRANCH   7   8
ATOM      8  N   UNL A   1      32.413  27.316  24.704  1.00  0.00    -0.321 N 
ATOM      9  H   UNL A   1      33.329  27.746  24.583  1.00  0.00     0.349 HD
BRANCH   8  10
ATOM     10  C   UNL A   1      32.630  25.820  24.915  1.00  0.00     0.185 C 
ATOM     11  C   UNL A   1      31.318  22.940  24.566  1.00  0.00     0.011 C 
ATOM     12  C   UNL A   1      31.497  23.670  25.913  1.00  0.00    -0.030 C 
ATOM     13  C   UNL A   1      30.348  23.227  26.841  1.00  0.00     0.011 C 
ATOM     14  C   UNL A   1      32.831  23.278  26.569  1.00  0.00     0.007 C 
ATOM     15  C   UNL A   1      31.435  25.210  25.721  1.00  0.00     0.071 C 
ATOM     16  C   UNL A   1      34.027  23.846  25.824  1.00  0.00     0.007 C 
ATOM     17  C   UNL A   1      33.919  25.358  25.637  1.00  0.00     0.065 C 
ENDBRANCH   8  10
BRANCH   8  18
ATOM     18  C   UNL A   1      31.727  27.736  23.415  1.00  0.00     0.090 C 
ATOM     19  C   UNL A   1      31.643  26.593  22.361  1.00  0.00     0.078 C 
ATOM     20  C   UNL A   1      30.228  28.075  23.657  1.00  0.00     0.078 C 
ATOM     21  C   UNL A   1      32.435  28.910  22.698  1.00  0.00     0.078 C 
ENDBRANCH   8  18
ENDBRANCH   7   8
ENDBRANCH   4   7
ENDBRANCH   2   3
ENDBRANCH   1   2
BRANCH   1  22
ATOM     22  C   UNL A   1      32.495  32.908  27.199  1.00  0.00     0.118 C 
BRANCH  22  23
ATOM     23  N   UNL A   1      32.331  34.285  27.648  1.00  0.00    -0.352 N 
ATOM     24  C   UNL A   1      32.986  34.997  28.619  1.00  0.00     0.251 C 
ATOM     25  H   UNL A   1      31.631  34.789  27.173  1.00  0.00     0.163 HD
ATOM     26  O   UNL A   1      32.570  36.113  28.932  1.00  0.00    -0.269 OA
BRANCH  24  27
ATOM     27  C   UNL A   1      34.171  34.447  29.316  1.00  0.00     0.039 A 
ATOM     28  C   UNL A   1      33.982  33.791  30.538  1.00  0.00     0.014 A 
ATOM     29  C   UNL A   1      35.464  34.613  28.816  1.00  0.00     0.014 A 
ATOM     30  C   UNL A   1      35.075  33.246  31.218  1.00  0.00     0.010 A 
ATOM     31  C   UNL A   1      36.546  34.011  29.460  1.00  0.00     0.010 A 
ATOM     32  C   UNL A   1      36.364  33.320  30.667  1.00  0.00    -0.014 A 
BRANCH  32  33
ATOM     33  C   UNL A   1      37.522  32.671  31.335  1.00  0.00     0.031 A 
ATOM     34  C   UNL A   1      38.243  31.528  30.677  1.00  0.00     0.074 A 
ATOM     35  C   UNL A   1      37.885  33.068  32.571  1.00  0.00     0.049 A 
ATOM     36  N   UNL A   1      39.226  30.792  31.135  1.00  0.00    -0.248 NA
ATOM     37  C   UNL A   1      37.787  31.145  29.332  1.00  0.00     0.031 C 
ATOM     38  C   UNL A   1      37.238  34.133  33.339  1.00  0.00     0.029 A 
ATOM     39  N   UNL A   1      38.878  32.613  33.405  1.00  0.00    -0.354 N 
ATOM     40  C   UNL A   1      39.490  29.851  30.149  1.00  0.00     0.074 A 
ATOM     41  C   UNL A   1      38.537  30.081  29.083  1.00  0.00     0.031 C 
ATOM     42  C   UNL A   1      37.859  34.259  34.523  1.00  0.00     0.029 A 
ATOM     43  C   UNL A   1      38.922  33.264  34.614  1.00  0.00     0.049 A 
ATOM     44  H   UNL A   1      39.499  31.890  33.158  1.00  0.00     0.167 HD
ATOM     45  C   UNL A   1      40.450  28.896  30.125  1.00  0.00     0.037 A 
ATOM     46  C   UNL A   1      39.720  33.072  35.681  1.00  0.00     0.037 A 
ATOM     47  C   UNL A   1      41.416  28.687  31.172  1.00  0.00     0.049 A 
ATOM     48  C   UNL A   1      40.784  32.009  35.626  1.00  0.00     0.074 A 
ATOM     49  C   UNL A   1      42.469  27.789  31.208  1.00  0.00     0.029 A 
ATOM     50  N   UNL A   1      41.444  29.382  32.372  1.00  0.00    -0.354 N 
ATOM     51  N   UNL A   1      41.067  31.171  34.658  1.00  0.00    -0.248 NA
ATOM     52  C   UNL A   1      41.644  31.869  36.810  1.00  0.00     0.031 C 
ATOM     53  C   UNL A   1      43.106  27.909  32.448  1.00  0.00     0.029 A 
ATOM     54  C   UNL A   1      42.482  28.918  33.165  1.00  0.00     0.049 A 
ATOM     55  H   UNL A   1      40.818  30.100  32.624  1.00  0.00     0.167 HD
ATOM     56  C   UNL A   1      42.150  30.425  35.104  1.00  0.00     0.074 A 
ATOM     57  C   UNL A   1      42.484  30.920  36.423  1.00  0.00     0.031 C 
ATOM     58  C   UNL A   1      42.808  29.422  34.474  1.00  0.00     0.037 A 
BRANCH  45  59
ATOM     59  C   UNL A   1      40.509  27.997  28.923  1.00  0.00     0.064 A 
ATOM     60  C   UNL A   1      39.766  26.809  28.854  1.00  0.00     0.173 A 
ATOM     61  C   UNL A   1      41.282  28.354  27.806  1.00  0.00     0.173 A 
ATOM     62  F   UNL A   1      39.019  26.418  29.897  1.00  0.00    -0.203 F 
ATOM     63  C   UNL A   1      39.816  25.997  27.723  1.00  0.00     0.198 A 
ATOM     64  C   UNL A   1      41.305  27.554  26.666  1.00  0.00     0.198 A 
ATOM     65  F   UNL A   1      42.004  29.483  27.815  1.00  0.00    -0.203 F 
ATOM     66  F   UNL A   1      39.134  24.843  27.699  1.00  0.00    -0.200 F 
ATOM     67  C   UNL A   1      40.579  26.374  26.628  1.00  0.00     0.200 A 
ATOM     68  F   UNL A   1      42.030  27.927  25.602  1.00  0.00    -0.200 F 
ATOM     69  F   UNL A   1      40.617  25.597  25.537  1.00  0.00    -0.200 F 
ENDBRANCH  45  59
BRANCH  46  70
ATOM     70  C   UNL A   1      39.558  33.924  36.888  1.00  0.00     0.064 A 
ATOM     71  C   UNL A   1      38.780  33.496  37.972  1.00  0.00     0.173 A 
ATOM     72  C   UNL A   1      40.177  35.178  36.982  1.00  0.00     0.173 A 
ATOM     73  F   UNL A   1      38.151  32.313  37.918  1.00  0.00    -0.203 F 
ATOM     74  C   UNL A   1      38.612  34.298  39.098  1.00  0.00     0.198 A 
ATOM     75  C   UNL A   1      40.032  35.968  38.121  1.00  0.00     0.198 A 
ATOM     76  F   UNL A   1      40.936  35.632  35.974  1.00  0.00    -0.203 F 
ATOM     77  F   UNL A   1      37.827  33.884  40.102  1.00  0.00    -0.200 F 
ATOM     78  C   UNL A   1      39.243  35.531  39.175  1.00  0.00     0.200 A 
ATOM     79  F   UNL A   1      40.654  37.152  38.198  1.00  0.00    -0.200 F 
ATOM     80  F   UNL A   1      39.086  36.300  40.260  1.00  0.00    -0.200 F 
ENDBRANCH  46  70
BRANCH  58  81
ATOM     81  C   UNL A   1      43.980  28.812  35.189  1.00  0.00     0.064 A 
ATOM     82  C   UNL A   1      45.283  29.304  35.023  1.00  0.00     0.173 A 
ATOM     83  C   UNL A   1      43.789  27.746  36.081  1.00  0.00     0.173 A 
ATOM     84  F   UNL A   1      45.519  30.313  34.170  1.00  0.00    -0.203 F 
ATOM     85  C   UNL A   1      46.355  28.735  35.704  1.00  0.00     0.198 A 
ATOM     86  C   UNL A   1      44.859  27.198  36.783  1.00  0.00     0.198 A 
ATOM     87  F   UNL A   1      42.561  27.242  36.280  1.00  0.00    -0.203 F 
ATOM     88  F   UNL A   1      47.598  29.191  35.494  1.00  0.00    -0.200 F 
ATOM     89  C   UNL A   1      46.141  27.688  36.589  1.00  0.00     0.200 A 
ATOM     90  F   UNL A   1      44.649  26.196  37.648  1.00  0.00    -0.200 F 
ATOM     91  F   UNL A   1      47.174  27.147  37.250  1.00  0.00    -0.200 F 
ENDBRANCH  58  81
ENDBRANCH  32  33
ENDBRANCH  24  27
ENDBRANCH  22  23
ENDBRANCH   1  22
TORSDOF 13
ENDMDL
MODEL 2
REMARK VINA RESULT:     -11.8      1.088      2.907
REMARK SMILES CC1(C)CCC[C@H]([N@H+](CC(=O)NCCCNC(=O)c2ccc(-c3c4nc(c(-c5c(F)c(F)c(F)c(F)c5F)c5ccc([nH]5)c(-c5c(F)c(F)c(F)c(F)c5F)c5nc(c(-c6c(F)c(F)c(F)c(F)c6F)c6ccc3[nH]6)C=C5)C=C4)cc2)C(C)(C)C)C1
REMARK SMILES IDX 14 1 13 2 12 3 10 4 11 5 9 7 8 8 7 10 1 11 2 12 3 13 4 14
REMARK SMILES IDX 86 15 5 16 6 17 82 18 83 19 84 20 85 21 15 22 16 23 17 24
REMARK SMILES IDX 18 26 19 27 20 28 81 29 21 30 80 31 22 32 23 33 24 34 74 35
REMARK SMILES IDX 25 36 79 37 73 38 75 39 26 40 78 41 72 42 71 43 27 45 59 46
REMARK SMILES IDX 39 47 58 48 40 49 43 50 57 51 76 52 41 53 42 54 56 56 77 57
REMARK SMILES IDX 44 58 28 59 29 60 37 61 30 62 31 63 35 64 38 65 32 66 33 67
REMARK SMILES IDX 36 68 34 69 60 70 61 71 69 72 62 73 63 74 67 75 70 76 64 77
REMARK SMILES IDX 65 78 68 79 66 80 45 81 46 82 54 83 47 84 48 85 52 86 55 87
REMARK SMILES IDX 49 88 50 89 53 90 51 91
REMARK H PARENT 12 6 8 9 16 25 75 44 43 55
REMARK Flexibility Score: inf
ROOT
ATOM      1  C   UNL A   1      31.402  32.518  26.393  1.00  0.00     0.042 C 
ENDROOT
BRANCH   1   2
ATOM      2  C   UNL A   1      31.118  31.021  26.458  1.00  0.00     0.118 C 
BRANCH   2   3
ATOM      3  N   UNL A   1      32.316  30.212  26.505  1.00  0.00    -0.351 N 
ATOM      4  C   UNL A   1      32.902  29.473  25.523  1.00  0.00     0.275 C 
ATOM      5  O   UNL A   1      34.009  28.983  25.772  1.00  0.00    -0.269 OA
ATOM      6  H   UNL A   1      32.778  30.194  27.374  1.00  0.00     0.163 HD
BRANCH   4   7
ATOM      7  C   UNL A   1      32.275  29.323  24.135  1.00  0.00     0.364 C 
BRANCH   7   8
ATOM      8  N   UNL A   1      31.543  28.031  23.846  1.00  0.00    -0.321 N 
ATOM      9  H   UNL A   1      31.366  27.487  24.689  1.00  0.00     0.349 HD
BRANCH   8  10
ATOM     10  C   UNL A   1      30.191  28.422  23.258  1.00  0.00     0.185 C 
ATOM     11  C   UNL A   1      28.703  30.464  21.319  1.00  0.00     0.011 C 
ATOM     12  C   UNL A   1      28.607  30.481  22.858  1.00  0.00    -0.030 C 
ATOM     13  C   UNL A   1      28.389  31.942  23.297  1.00  0.00     0.011 C 
ATOM     14  C   UNL A   1      27.409  29.644  23.336  1.00  0.00     0.007 C 
ATOM     15  C   UNL A   1      29.916  29.944  23.500  1.00  0.00     0.071 C 
ATOM     16  C   UNL A   1      27.624  28.156  23.121  1.00  0.00     0.007 C 
ATOM     17  C   UNL A   1      28.929  27.671  23.749  1.00  0.00     0.065 C 
ENDBRANCH   8  10
BRANCH   8  18
ATOM     18  C   UNL A   1      32.385  27.053  23.044  1.00  0.00     0.090 C 
ATOM     19  C   UNL A   1      33.626  27.713  22.374  1.00  0.00     0.078 C 
ATOM     20  C   UNL A   1      33.035  25.980  23.964  1.00  0.00     0.078 C 
ATOM     21  C   UNL A   1      31.604  26.374  21.893  1.00  0.00     0.078 C 
ENDBRANCH   8  18
ENDBRANCH   7   8
ENDBRANCH   4   7
ENDBRANCH   2   3
ENDBRANCH   1   2
BRANCH   1  22
ATOM     22  C   UNL A   1      32.561  32.996  27.268  1.00  0.00     0.118 C 
BRANCH  22  23
ATOM     23  N   UNL A   1      32.392  34.362  27.749  1.00  0.00    -0.352 N 
ATOM     24  C   UNL A   1      33.033  35.046  28.750  1.00  0.00     0.251 C 
ATOM     25  H   UNL A   1      31.703  34.880  27.276  1.00  0.00     0.163 HD
ATOM     26  O   UNL A   1      32.614  36.155  29.085  1.00  0.00    -0.269 OA
BRANCH  24  27
ATOM     27  C   UNL A   1      34.205  34.476  29.453  1.00  0.00     0.039 A 
ATOM     28  C   UNL A   1      34.006  33.869  30.698  1.00  0.00     0.014 A 
ATOM     29  C   UNL A   1      35.497  34.576  28.933  1.00  0.00     0.014 A 
ATOM     30  C   UNL A   1      35.085  33.306  31.384  1.00  0.00     0.010 A 
ATOM     31  C   UNL A   1      36.563  33.955  29.585  1.00  0.00     0.010 A 
ATOM     32  C   UNL A   1      36.369  33.312  30.817  1.00  0.00    -0.014 A 
BRANCH  32  33
ATOM     33  C   UNL A   1      37.510  32.641  31.494  1.00  0.00     0.031 A 
ATOM     34  C   UNL A   1      38.209  31.479  30.846  1.00  0.00     0.074 A 
ATOM     35  C   UNL A   1      37.876  33.038  32.729  1.00  0.00     0.049 A 
ATOM     36  N   UNL A   1      39.173  30.725  31.313  1.00  0.00    -0.248 NA
ATOM     37  C   UNL A   1      37.750  31.098  29.501  1.00  0.00     0.031 C 
ATOM     38  C   UNL A   1      37.251  34.122  33.488  1.00  0.00     0.029 A 
ATOM     39  N   UNL A   1      38.856  32.567  33.570  1.00  0.00    -0.354 N 
ATOM     40  C   UNL A   1      39.421  29.772  30.334  1.00  0.00     0.074 A 
ATOM     41  C   UNL A   1      38.478  30.016  29.262  1.00  0.00     0.031 C 
ATOM     42  C   UNL A   1      37.869  34.242  34.674  1.00  0.00     0.029 A 
ATOM     43  C   UNL A   1      38.909  33.224  34.775  1.00  0.00     0.049 A 
ATOM     44  H   UNL A   1      39.462  31.829  33.330  1.00  0.00     0.167 HD
ATOM     45  C   UNL A   1      40.360  28.796  30.320  1.00  0.00     0.037 A 
ATOM     46  C   UNL A   1      39.699  33.022  35.847  1.00  0.00     0.037 A 
ATOM     47  C   UNL A   1      41.317  28.572  31.373  1.00  0.00     0.049 A 
ATOM     48  C   UNL A   1      40.739  31.935  35.803  1.00  0.00     0.074 A 
ATOM     49  C   UNL A   1      42.350  27.652  31.419  1.00  0.00     0.029 A 
ATOM     50  N   UNL A   1      41.354  29.275  32.569  1.00  0.00    -0.354 N 
ATOM     51  N   UNL A   1      41.008  31.085  34.842  1.00  0.00    -0.248 NA
ATOM     52  C   UNL A   1      41.590  31.784  36.992  1.00  0.00     0.031 C 
ATOM     53  C   UNL A   1      42.984  27.766  32.661  1.00  0.00     0.029 A 
ATOM     54  C   UNL A   1      42.379  28.793  33.369  1.00  0.00     0.049 A 
ATOM     55  H   UNL A   1      40.744  30.007  32.813  1.00  0.00     0.167 HD
ATOM     56  C   UNL A   1      42.072  30.319  35.297  1.00  0.00     0.074 A 
ATOM     57  C   UNL A   1      42.412  30.815  36.614  1.00  0.00     0.031 C 
ATOM     58  C   UNL A   1      42.711  29.298  34.676  1.00  0.00     0.037 A 
BRANCH  45  59
ATOM     59  C   UNL A   1      40.404  27.888  29.124  1.00  0.00     0.064 A 
ATOM     60  C   UNL A   1      39.650  26.706  29.067  1.00  0.00     0.173 A 
ATOM     61  C   UNL A   1      41.174  28.230  28.001  1.00  0.00     0.173 A 
ATOM     62  F   UNL A   1      38.905  26.330  30.117  1.00  0.00    -0.203 F 
ATOM     63  C   UNL A   1      39.687  25.887  27.942  1.00  0.00     0.198 A 
ATOM     64  C   UNL A   1      41.184  27.423  26.866  1.00  0.00     0.198 A 
ATOM     65  F   UNL A   1      41.907  29.353  27.999  1.00  0.00    -0.203 F 
ATOM     66  F   UNL A   1      38.994  24.739  27.929  1.00  0.00    -0.200 F 
ATOM     67  C   UNL A   1      40.447  26.249  26.840  1.00  0.00     0.200 A 
ATOM     68  F   UNL A   1      41.907  27.782  25.796  1.00  0.00    -0.200 F 
ATOM     69  F   UNL A   1      40.473  25.464  25.754  1.00  0.00    -0.200 F 
ENDBRANCH  45  59
BRANCH  46  70
ATOM     70  C   UNL A   1      39.550  33.885  37.047  1.00  0.00     0.064 A 
ATOM     71  C   UNL A   1      40.185  35.132  37.121  1.00  0.00     0.173 A 
ATOM     72  C   UNL A   1      38.773  33.482  38.143  1.00  0.00     0.173 A 
ATOM     73  F   UNL A   1      40.956  35.551  36.107  1.00  0.00    -0.203 F 
ATOM     74  C   UNL A   1      40.062  35.937  38.251  1.00  0.00     0.198 A 
ATOM     75  C   UNL A   1      38.628  34.300  39.261  1.00  0.00     0.198 A 
ATOM     76  F   UNL A   1      38.142  32.298  38.121  1.00  0.00    -0.203 F 
ATOM     77  F   UNL A   1      40.715  37.105  38.313  1.00  0.00    -0.200 F 
ATOM     78  C   UNL A   1      39.279  35.524  39.318  1.00  0.00     0.200 A 
ATOM     79  F   UNL A   1      37.859  33.903  40.284  1.00  0.00    -0.200 F 
ATOM     80  F   UNL A   1      39.156  36.299  40.403  1.00  0.00    -0.200 F 
ENDBRANCH  46  70
BRANCH  58  81
ATOM     81  C   UNL A   1      43.866  28.667  35.400  1.00  0.00     0.064 A 
ATOM     82  C   UNL A   1      43.690  27.565  36.250  1.00  0.00     0.173 A 
ATOM     83  C   UNL A   1      45.170  29.147  35.208  1.00  0.00     0.173 A 
ATOM     84  F   UNL A   1      42.461  27.077  36.476  1.00  0.00    -0.203 F 
ATOM     85  C   UNL A   1      44.774  26.984  36.902  1.00  0.00     0.198 A 
ATOM     86  C   UNL A   1      46.256  28.545  35.839  1.00  0.00     0.198 A 
ATOM     87  F   UNL A   1      45.394  30.195  34.400  1.00  0.00    -0.203 F 
ATOM     88  F   UNL A   1      44.577  25.962  37.747  1.00  0.00    -0.200 F 
ATOM     89  C   UNL A   1      46.056  27.470  36.690  1.00  0.00     0.200 A 
ATOM     90  F   UNL A   1      47.496  29.007  35.622  1.00  0.00    -0.200 F 
ATOM     91  F   UNL A   1      47.100  26.904  37.313  1.00  0.00    -0.200 F 
ENDBRANCH  58  81
ENDBRANCH  32  33
ENDBRANCH  24  27
ENDBRANCH  22  23
ENDBRANCH   1  22
TORSDOF 13
ENDMDL
MODEL 3
REMARK VINA RESULT:     -11.8      0.164      1.698
REMARK SMILES CC1(C)CCC[C@H]([N@H+](CC(=O)NCCCNC(=O)c2ccc(-c3c4nc(c(-c5c(F)c(F)c(F)c(F)c5F)c5ccc([nH]5)c(-c5c(F)c(F)c(F)c(F)c5F)c5nc(c(-c6c(F)c(F)c(F)c(F)c6F)c6ccc3[nH]6)C=C5)C=C4)cc2)C(C)(C)C)C1
REMARK SMILES IDX 14 1 13 2 12 3 10 4 11 5 9 7 8 8 7 10 1 11 2 12 3 13 4 14
REMARK SMILES IDX 86 15 5 16 6 17 82 18 83 19 84 20 85 21 15 22 16 23 17 24
REMARK SMILES IDX 18 26 19 27 20 28 81 29 21 30 80 31 22 32 23 33 24 34 74 35
REMARK SMILES IDX 25 36 79 37 73 38 75 39 26 40 78 41 72 42 71 43 27 45 59 46
REMARK SMILES IDX 39 47 58 48 40 49 43 50 57 51 76 52 41 53 42 54 56 56 77 57
REMARK SMILES IDX 44 58 28 59 29 60 37 61 30 62 31 63 35 64 38 65 32 66 33 67
REMARK SMILES IDX 36 68 34 69 60 70 61 71 69 72 62 73 63 74 67 75 70 76 64 77
REMARK SMILES IDX 65 78 68 79 66 80 45 81 46 82 54 83 47 84 48 85 52 86 55 87
REMARK SMILES IDX 49 88 50 89 53 90 51 91
REMARK H PARENT 12 6 8 9 16 25 75 44 43 55
REMARK Flexibility Score: inf
ROOT
ATOM      1  C   UNL A   1      31.220  32.373  26.376  1.00  0.00     0.042 C 
ENDROOT
BRANCH   1   2
ATOM      2  C   UNL A   1      31.317  30.921  25.921  1.00  0.00     0.118 C 
BRANCH   2   3
ATOM      3  N   UNL A   1      32.103  30.094  26.810  1.00  0.00    -0.351 N 
ATOM      4  C   UNL A   1      32.243  28.739  26.835  1.00  0.00     0.275 C 
ATOM      5  O   UNL A   1      33.092  28.277  27.606  1.00  0.00    -0.269 OA
ATOM      6  H   UNL A   1      32.612  30.581  27.496  1.00  0.00     0.163 HD
BRANCH   4   7
ATOM      7  C   UNL A   1      31.461  27.823  25.893  1.00  0.00     0.364 C 
BRANCH   7   8
ATOM      8  N   UNL A   1      32.183  27.326  24.660  1.00  0.00    -0.321 N 
ATOM      9  H   UNL A   1      33.064  27.812  24.502  1.00  0.00     0.349 HD
BRANCH   8  10
ATOM     10  C   UNL A   1      32.505  25.855  24.911  1.00  0.00     0.185 C 
ATOM     11  C   UNL A   1      31.417  22.878  24.610  1.00  0.00     0.011 C 
ATOM     12  C   UNL A   1      31.517  23.650  25.941  1.00  0.00    -0.030 C 
ATOM     13  C   UNL A   1      30.387  23.144  26.860  1.00  0.00     0.011 C 
ATOM     14  C   UNL A   1      32.864  23.374  26.629  1.00  0.00     0.007 C 
ATOM     15  C   UNL A   1      31.344  25.176  25.711  1.00  0.00     0.071 C 
ATOM     16  C   UNL A   1      34.028  24.011  25.890  1.00  0.00     0.007 C 
ATOM     17  C   UNL A   1      33.812  25.507  25.665  1.00  0.00     0.065 C 
ENDBRANCH   8  10
BRANCH   8  18
ATOM     18  C   UNL A   1      31.438  27.657  23.378  1.00  0.00     0.090 C 
ATOM     19  C   UNL A   1      31.951  28.952  22.684  1.00  0.00     0.078 C 
ATOM     20  C   UNL A   1      31.685  26.575  22.286  1.00  0.00     0.078 C 
ATOM     21  C   UNL A   1      29.920  27.871  23.588  1.00  0.00     0.078 C 
ENDBRANCH   8  18
ENDBRANCH   7   8
ENDBRANCH   4   7
ENDBRANCH   2   3
ENDBRANCH   1   2
BRANCH   1  22
ATOM     22  C   UNL A   1      32.395  32.867  27.222  1.00  0.00     0.118 C 
BRANCH  22  23
ATOM     23  N   UNL A   1      32.256  34.255  27.644  1.00  0.00    -0.352 N 
ATOM     24  C   UNL A   1      32.940  34.979  28.587  1.00  0.00     0.251 C 
ATOM     25  H   UNL A   1      31.554  34.758  27.172  1.00  0.00     0.163 HD
ATOM     26  O   UNL A   1      32.543  36.107  28.884  1.00  0.00    -0.269 OA
BRANCH  24  27
ATOM     27  C   UNL A   1      34.131  34.429  29.273  1.00  0.00     0.039 A 
ATOM     28  C   UNL A   1      33.951  33.761  30.489  1.00  0.00     0.014 A 
ATOM     29  C   UNL A   1      35.421  34.607  28.767  1.00  0.00     0.014 A 
ATOM     30  C   UNL A   1      35.050  33.216  31.159  1.00  0.00     0.010 A 
ATOM     31  C   UNL A   1      36.509  34.004  29.400  1.00  0.00     0.010 A 
ATOM     32  C   UNL A   1      36.336  33.301  30.602  1.00  0.00    -0.014 A 
BRANCH  32  33
ATOM     33  C   UNL A   1      37.501  32.652  31.258  1.00  0.00     0.031 A 
ATOM     34  C   UNL A   1      38.222  31.515  30.588  1.00  0.00     0.074 A 
ATOM     35  C   UNL A   1      37.871  33.043  32.494  1.00  0.00     0.049 A 
ATOM     36  N   UNL A   1      39.210  30.780  31.035  1.00  0.00    -0.248 NA
ATOM     37  C   UNL A   1      37.757  31.139  29.243  1.00  0.00     0.031 C 
ATOM     38  C   UNL A   1      37.227  34.101  33.273  1.00  0.00     0.029 A 
ATOM     39  N   UNL A   1      38.872  32.587  33.318  1.00  0.00    -0.354 N 
ATOM     40  C   UNL A   1      39.470  29.846  30.041  1.00  0.00     0.074 A 
ATOM     41  C   UNL A   1      38.509  30.079  28.983  1.00  0.00     0.031 C 
ATOM     42  C   UNL A   1      37.856  34.223  34.453  1.00  0.00     0.029 A 
ATOM     43  C   UNL A   1      38.922  33.230  34.530  1.00  0.00     0.049 A 
ATOM     44  H   UNL A   1      39.493  31.867  33.062  1.00  0.00     0.167 HD
ATOM     45  C   UNL A   1      40.433  28.894  30.005  1.00  0.00     0.037 A 
ATOM     46  C   UNL A   1      39.729  33.035  35.590  1.00  0.00     0.037 A 
ATOM     47  C   UNL A   1      41.407  28.682  31.044  1.00  0.00     0.049 A 
ATOM     48  C   UNL A   1      40.795  31.975  35.522  1.00  0.00     0.074 A 
ATOM     49  C   UNL A   1      42.464  27.788  31.068  1.00  0.00     0.029 A 
ATOM     50  N   UNL A   1      41.441  29.371  32.248  1.00  0.00    -0.354 N 
ATOM     51  N   UNL A   1      41.074  31.144  34.547  1.00  0.00    -0.248 NA
ATOM     52  C   UNL A   1      41.664  31.832  36.699  1.00  0.00     0.031 C 
ATOM     53  C   UNL A   1      43.109  27.902  32.303  1.00  0.00     0.029 A 
ATOM     54  C   UNL A   1      42.486  28.905  33.030  1.00  0.00     0.049 A 
ATOM     55  H   UNL A   1      40.815  30.084  32.508  1.00  0.00     0.167 HD
ATOM     56  C   UNL A   1      42.163  30.400  34.980  1.00  0.00     0.074 A 
ATOM     57  C   UNL A   1      42.505  30.888  36.300  1.00  0.00     0.031 C 
ATOM     58  C   UNL A   1      42.820  29.402  34.340  1.00  0.00     0.037 A 
BRANCH  45  59
ATOM     59  C   UNL A   1      40.487  28.003  28.797  1.00  0.00     0.064 A 
ATOM     60  C   UNL A   1      41.254  28.334  27.670  1.00  0.00     0.173 A 
ATOM     61  C   UNL A   1      39.800  26.778  28.787  1.00  0.00     0.173 A 
ATOM     62  F   UNL A   1      41.921  29.497  27.625  1.00  0.00    -0.203 F 
ATOM     63  C   UNL A   1      41.310  27.486  26.567  1.00  0.00     0.198 A 
ATOM     64  C   UNL A   1      39.883  25.919  27.693  1.00  0.00     0.198 A 
ATOM     65  F   UNL A   1      39.059  26.408  29.841  1.00  0.00    -0.203 F 
ATOM     66  F   UNL A   1      42.012  27.845  25.483  1.00  0.00    -0.200 F 
ATOM     67  C   UNL A   1      40.631  26.276  26.583  1.00  0.00     0.200 A 
ATOM     68  F   UNL A   1      39.239  24.744  27.716  1.00  0.00    -0.200 F 
ATOM     69  F   UNL A   1      40.695  25.457  25.524  1.00  0.00    -0.200 F 
ENDBRANCH  45  59
BRANCH  46  70
ATOM     70  C   UNL A   1      39.572  33.879  36.803  1.00  0.00     0.064 A 
ATOM     71  C   UNL A   1      38.787  33.450  37.883  1.00  0.00     0.173 A 
ATOM     72  C   UNL A   1      40.203  35.126  36.909  1.00  0.00     0.173 A 
ATOM     73  F   UNL A   1      38.146  32.274  37.818  1.00  0.00    -0.203 F 
ATOM     74  C   UNL A   1      38.624  34.246  39.014  1.00  0.00     0.198 A 
ATOM     75  C   UNL A   1      40.063  35.908  38.054  1.00  0.00     0.198 A 
ATOM     76  F   UNL A   1      40.969  35.580  35.906  1.00  0.00    -0.203 F 
ATOM     77  F   UNL A   1      37.833  33.832  40.013  1.00  0.00    -0.200 F 
ATOM     78  C   UNL A   1      39.267  35.471  39.103  1.00  0.00     0.200 A 
ATOM     79  F   UNL A   1      40.697  37.086  38.141  1.00  0.00    -0.200 F 
ATOM     80  F   UNL A   1      39.115  36.234  40.193  1.00  0.00    -0.200 F 
ENDBRANCH  46  70
BRANCH  58  81
ATOM     81  C   UNL A   1      43.999  28.792  35.043  1.00  0.00     0.064 A 
ATOM     82  C   UNL A   1      43.860  27.675  35.880  1.00  0.00     0.173 A 
ATOM     83  C   UNL A   1      45.288  29.309  34.845  1.00  0.00     0.173 A 
ATOM     84  F   UNL A   1      42.647  27.152  36.112  1.00  0.00    -0.203 F 
ATOM     85  C   UNL A   1      44.967  27.114  36.513  1.00  0.00     0.198 A 
ATOM     86  C   UNL A   1      46.396  28.727  35.456  1.00  0.00     0.198 A 
ATOM     87  F   UNL A   1      45.476  30.373  34.049  1.00  0.00    -0.203 F 
ATOM     88  F   UNL A   1      44.804  26.076  37.346  1.00  0.00    -0.200 F 
ATOM     89  C   UNL A   1      46.233  27.635  36.294  1.00  0.00     0.200 A 
ATOM     90  F   UNL A   1      47.621  29.224  35.233  1.00  0.00    -0.200 F 
ATOM     91  F   UNL A   1      47.298  27.089  36.899  1.00  0.00    -0.200 F 
ENDBRANCH  58  81
ENDBRANCH  32  33
ENDBRANCH  24  27
ENDBRANCH  22  23
ENDBRANCH   1  22
TORSDOF 13
ENDMDL
