MODEL 1
REMARK VINA RESULT:     -11.8      0.000      0.000
REMARK SMILES CC[C@](C)(Nc1cccc(Cl)c1C(N)=O)C(=O)NCCCNC(=O)c1ccc(-c2c3nc(c(-c4c(F)c(F)c(F)c(F)c4F)c4ccc([nH]4)c(-c4c(F)c(F)c(F)c(F)c4F)c4nc(c(-c5c(F)c(F)c(F)c(F)c5F)c5ccc2[nH]5)C=C4)C=C3)cc1
REMARK SMILES IDX 19 1 18 2 16 3 17 4 3 6 4 7 2 8 1 9 5 10 6 12 7 13 12 14
REMARK SMILES IDX 8 15 10 16 9 17 11 18 13 19 14 20 15 21 20 24 21 25 22 26
REMARK SMILES IDX 23 27 24 29 25 30 26 31 87 32 27 33 86 34 28 35 29 36 30 37
REMARK SMILES IDX 80 38 31 39 85 40 79 41 81 42 32 43 84 44 78 45 77 46 33 48
REMARK SMILES IDX 65 49 45 50 64 51 46 52 49 53 63 54 82 55 47 56 48 57 62 59
REMARK SMILES IDX 83 60 50 61 34 62 35 63 43 64 36 65 37 66 41 67 44 68 38 69
REMARK SMILES IDX 39 70 42 71 40 72 66 73 67 74 75 75 68 76 69 77 73 78 76 79
REMARK SMILES IDX 70 80 71 81 74 82 72 83 51 84 52 85 60 86 53 87 54 88 58 89
REMARK SMILES IDX 61 90 55 91 56 92 59 93 57 94
REMARK H PARENT 18 5 5 11 14 22 14 23 22 28 81 47 49 58
REMARK Flexibility Score: inf
ROOT
ATOM      1  C   UNL A   1      31.469  30.814  26.075  1.00  0.00     0.117 C 
ENDROOT
BRANCH   1   2
ATOM      2  N   UNL A   1      32.716  30.148  26.415  1.00  0.00    -0.354 N 
ATOM      3  C   UNL A   1      33.315  29.003  25.973  1.00  0.00     0.245 C 
ATOM      4  O   UNL A   1      34.386  28.719  26.527  1.00  0.00    -0.272 OA
ATOM      5  H   UNL A   1      33.235  30.620  27.105  1.00  0.00     0.163 HD
BRANCH   3   6
ATOM      6  C   UNL A   1      32.714  28.096  24.858  1.00  0.00     0.113 C 
ATOM      7  C   UNL A   1      32.161  28.953  23.690  1.00  0.00     0.045 C 
BRANCH   6   8
ATOM      8  C   UNL A   1      31.503  27.312  25.456  1.00  0.00     0.035 C 
ATOM      9  C   UNL A   1      30.353  27.080  24.472  1.00  0.00     0.007 C 
ENDBRANCH   6   8
BRANCH   6  10
ATOM     10  N   UNL A   1      33.694  27.137  24.258  1.00  0.00    -0.371 N 
ATOM     11  H   UNL A   1      34.377  27.549  23.682  1.00  0.00     0.161 HD
BRANCH  10  12
ATOM     12  C   UNL A   1      33.791  25.745  24.384  1.00  0.00     0.049 A 
ATOM     13  C   UNL A   1      34.415  25.147  25.492  1.00  0.00     0.026 A 
ATOM     14  C   UNL A   1      33.219  24.850  23.425  1.00  0.00     0.081 A 
ATOM     15  C   UNL A   1      34.267  23.796  25.804  1.00  0.00     0.004 A 
ATOM     16  C   UNL A   1      33.068  23.478  23.748  1.00  0.00     0.055 A 
ATOM     17  C   UNL A   1      33.550  22.973  24.958  1.00  0.00     0.021 A 
ATOM     18  Cl  UNL A   1      32.318  22.290  22.733  1.00  0.00    -0.083 Cl
BRANCH  14  19
ATOM     19  C   UNL A   1      32.864  25.316  22.038  1.00  0.00     0.252 C 
ATOM     20  N   UNL A   1      31.554  25.213  21.656  1.00  0.00    -0.365 N 
ATOM     21  O   UNL A   1      33.653  25.823  21.251  1.00  0.00    -0.269 OA
ATOM     22  H   UNL A   1      30.894  24.811  22.266  1.00  0.00     0.159 HD
ATOM     23  H   UNL A   1      31.272  25.541  20.772  1.00  0.00     0.159 HD
ENDBRANCH  14  19
ENDBRANCH  10  12
ENDBRANCH   6  10
ENDBRANCH   3   6
ENDBRANCH   1   2
BRANCH   1  24
ATOM     24  C   UNL A   1      31.372  32.275  26.509  1.00  0.00     0.042 C 
BRANCH  24  25
ATOM     25  C   UNL A   1      32.599  32.834  27.217  1.00  0.00     0.118 C 
BRANCH  25  26
ATOM     26  N   UNL A   1      32.421  34.216  27.627  1.00  0.00    -0.352 N 
ATOM     27  C   UNL A   1      33.033  34.922  28.633  1.00  0.00     0.251 C 
ATOM     28  H   UNL A   1      31.760  34.724  27.103  1.00  0.00     0.163 HD
ATOM     29  O   UNL A   1      32.594  36.022  28.955  1.00  0.00    -0.269 OA
BRANCH  27  30
ATOM     30  C   UNL A   1      34.203  34.364  29.352  1.00  0.00     0.039 A 
ATOM     31  C   UNL A   1      33.986  33.704  30.565  1.00  0.00     0.014 A 
ATOM     32  C   UNL A   1      35.507  34.523  28.872  1.00  0.00     0.014 A 
ATOM     33  C   UNL A   1      35.065  33.152  31.263  1.00  0.00     0.010 A 
ATOM     34  C   UNL A   1      36.575  33.914  29.533  1.00  0.00     0.010 A 
ATOM     35  C   UNL A   1      36.365  33.221  30.736  1.00  0.00    -0.014 A 
BRANCH  35  36
ATOM     36  C   UNL A   1      37.503  32.556  31.427  1.00  0.00     0.031 A 
ATOM     37  C   UNL A   1      38.205  31.384  30.797  1.00  0.00     0.074 A 
ATOM     38  C   UNL A   1      37.881  32.986  32.646  1.00  0.00     0.049 A 
ATOM     39  N   UNL A   1      39.186  30.654  31.269  1.00  0.00    -0.248 NA
ATOM     40  C   UNL A   1      37.733  30.966  29.469  1.00  0.00     0.031 C 
ATOM     41  C   UNL A   1      37.264  34.092  33.378  1.00  0.00     0.029 A 
ATOM     42  N   UNL A   1      38.868  32.539  33.490  1.00  0.00    -0.354 N 
ATOM     43  C   UNL A   1      39.444  29.692  30.303  1.00  0.00     0.074 A 
ATOM     44  C   UNL A   1      38.485  29.899  29.238  1.00  0.00     0.031 C 
ATOM     45  C   UNL A   1      37.898  34.251  34.550  1.00  0.00     0.029 A 
ATOM     46  C   UNL A   1      38.934  33.231  34.675  1.00  0.00     0.049 A 
ATOM     47  H   UNL A   1      39.472  31.795  33.267  1.00  0.00     0.167 HD
ATOM     48  C   UNL A   1      40.405  28.737  30.295  1.00  0.00     0.037 A 
ATOM     49  C   UNL A   1      39.727  33.052  35.750  1.00  0.00     0.037 A 
ATOM     50  C   UNL A   1      41.364  28.538  31.352  1.00  0.00     0.049 A 
ATOM     51  C   UNL A   1      40.754  31.952  35.734  1.00  0.00     0.074 A 
ATOM     52  C   UNL A   1      42.409  27.631  31.409  1.00  0.00     0.029 A 
ATOM     53  N   UNL A   1      41.388  29.247  32.544  1.00  0.00    -0.354 N 
ATOM     54  N   UNL A   1      41.036  31.095  34.784  1.00  0.00    -0.248 NA
ATOM     55  C   UNL A   1      41.576  31.798  36.943  1.00  0.00     0.031 C 
ATOM     56  C   UNL A   1      43.023  27.748  32.660  1.00  0.00     0.029 A 
ATOM     57  C   UNL A   1      42.405  28.772  33.358  1.00  0.00     0.049 A 
ATOM     58  H   UNL A   1      40.773  29.980  32.778  1.00  0.00     0.167 HD
ATOM     59  C   UNL A   1      42.079  30.317  35.267  1.00  0.00     0.074 A 
ATOM     60  C   UNL A   1      42.396  30.820  36.588  1.00  0.00     0.031 C 
ATOM     61  C   UNL A   1      42.714  29.277  34.673  1.00  0.00     0.037 A 
BRANCH  48  62
ATOM     62  C   UNL A   1      40.468  27.820  29.105  1.00  0.00     0.064 A 
ATOM     63  C   UNL A   1      39.690  26.654  29.029  1.00  0.00     0.173 A 
ATOM     64  C   UNL A   1      41.278  28.138  28.004  1.00  0.00     0.173 A 
ATOM     65  F   UNL A   1      38.903  26.300  30.056  1.00  0.00    -0.203 F 
ATOM     66  C   UNL A   1      39.744  25.827  27.910  1.00  0.00     0.198 A 
ATOM     67  C   UNL A   1      41.305  27.326  26.874  1.00  0.00     0.198 A 
ATOM     68  F   UNL A   1      42.036  29.244  28.018  1.00  0.00    -0.203 F 
ATOM     69  F   UNL A   1      39.029  24.694  27.882  1.00  0.00    -0.200 F 
ATOM     70  C   UNL A   1      40.545  26.167  26.831  1.00  0.00     0.200 A 
ATOM     71  F   UNL A   1      42.068  27.664  25.824  1.00  0.00    -0.200 F 
ATOM     72  F   UNL A   1      40.588  25.374  25.751  1.00  0.00    -0.200 F 
ENDBRANCH  48  62
BRANCH  49  73
ATOM     73  C   UNL A   1      39.581  33.938  36.936  1.00  0.00     0.064 A 
ATOM     74  C   UNL A   1      38.799  33.552  38.034  1.00  0.00     0.173 A 
ATOM     75  C   UNL A   1      40.206  35.193  36.990  1.00  0.00     0.173 A 
ATOM     76  F   UNL A   1      38.163  32.373  38.021  1.00  0.00    -0.203 F 
ATOM     77  C   UNL A   1      38.632  34.396  39.130  1.00  0.00     0.198 A 
ATOM     78  C   UNL A   1      40.064  36.022  38.102  1.00  0.00     0.198 A 
ATOM     79  F   UNL A   1      40.966  35.609  35.967  1.00  0.00    -0.203 F 
ATOM     80  F   UNL A   1      37.837  34.024  40.144  1.00  0.00    -0.200 F 
ATOM     81  C   UNL A   1      39.270  35.626  39.166  1.00  0.00     0.200 A 
ATOM     82  F   UNL A   1      40.696  37.203  38.138  1.00  0.00    -0.200 F 
ATOM     83  F   UNL A   1      39.111  36.435  40.223  1.00  0.00    -0.200 F 
ENDBRANCH  49  73
BRANCH  61  84
ATOM     84  C   UNL A   1      43.834  28.626  35.434  1.00  0.00     0.064 A 
ATOM     85  C   UNL A   1      43.612  27.526  36.277  1.00  0.00     0.173 A 
ATOM     86  C   UNL A   1      45.152  29.085  35.293  1.00  0.00     0.173 A 
ATOM     87  F   UNL A   1      42.369  27.057  36.460  1.00  0.00    -0.203 F 
ATOM     88  C   UNL A   1      44.662  26.932  36.972  1.00  0.00     0.198 A 
ATOM     89  C   UNL A   1      46.205  28.466  35.962  1.00  0.00     0.198 A 
ATOM     90  F   UNL A   1      45.424  30.129  34.494  1.00  0.00    -0.203 F 
ATOM     91  F   UNL A   1      44.416  25.917  37.814  1.00  0.00    -0.200 F 
ATOM     92  C   UNL A   1      45.958  27.396  36.807  1.00  0.00     0.200 A 
ATOM     93  F   UNL A   1      47.459  28.906  35.788  1.00  0.00    -0.200 F 
ATOM     94  F   UNL A   1      46.968  26.817  37.471  1.00  0.00    -0.200 F 
ENDBRANCH  61  84
ENDBRANCH  35  36
ENDBRANCH  27  30
ENDBRANCH  25  26
ENDBRANCH  24  25
ENDBRANCH   1  24
TORSDOF 14
ENDMDL
MODEL 2
REMARK VINA RESULT:     -11.8      1.194      2.219
REMARK SMILES CC[C@](C)(Nc1cccc(Cl)c1C(N)=O)C(=O)NCCCNC(=O)c1ccc(-c2c3nc(c(-c4c(F)c(F)c(F)c(F)c4F)c4ccc([nH]4)c(-c4c(F)c(F)c(F)c(F)c4F)c4nc(c(-c5c(F)c(F)c(F)c(F)c5F)c5ccc2[nH]5)C=C4)C=C3)cc1
REMARK SMILES IDX 19 1 18 2 16 3 17 4 3 6 4 7 2 8 1 9 5 10 6 12 7 13 12 14
REMARK SMILES IDX 8 15 10 16 9 17 11 18 13 19 14 20 15 21 20 24 21 25 22 26
REMARK SMILES IDX 23 27 24 29 25 30 26 31 87 32 27 33 86 34 28 35 29 36 30 37
REMARK SMILES IDX 80 38 31 39 85 40 79 41 81 42 32 43 84 44 78 45 77 46 33 48
REMARK SMILES IDX 65 49 45 50 64 51 46 52 49 53 63 54 82 55 47 56 48 57 62 59
REMARK SMILES IDX 83 60 50 61 34 62 35 63 43 64 36 65 37 66 41 67 44 68 38 69
REMARK SMILES IDX 39 70 42 71 40 72 66 73 67 74 75 75 68 76 69 77 73 78 76 79
REMARK SMILES IDX 70 80 71 81 74 82 72 83 51 84 52 85 60 86 53 87 54 88 58 89
REMARK SMILES IDX 61 90 55 91 56 92 59 93 57 94
REMARK H PARENT 18 5 5 11 14 22 14 23 22 28 81 47 49 58
REMARK Flexibility Score: inf
ROOT
ATOM      1  C   UNL A   1      31.365  30.837  26.512  1.00  0.00     0.117 C 
ENDROOT
BRANCH   1   2
ATOM      2  N   UNL A   1      31.214  30.222  25.203  1.00  0.00    -0.354 N 
ATOM      3  C   UNL A   1      31.645  29.042  24.669  1.00  0.00     0.245 C 
ATOM      4  O   UNL A   1      31.350  28.860  23.480  1.00  0.00    -0.272 OA
ATOM      5  H   UNL A   1      30.693  30.770  24.572  1.00  0.00     0.163 HD
BRANCH   3   6
ATOM      6  C   UNL A   1      32.457  27.982  25.473  1.00  0.00     0.113 C 
ATOM      7  C   UNL A   1      31.901  27.840  26.914  1.00  0.00     0.045 C 
BRANCH   6   8
ATOM      8  C   UNL A   1      33.930  28.483  25.605  1.00  0.00     0.035 C 
ATOM      9  C   UNL A   1      34.369  28.783  27.041  1.00  0.00     0.007 C 
ENDBRANCH   6   8
BRANCH   6  10
ATOM     10  N   UNL A   1      32.438  26.613  24.871  1.00  0.00    -0.371 N 
ATOM     11  H   UNL A   1      31.822  26.503  24.111  1.00  0.00     0.161 HD
BRANCH  10  12
ATOM     12  C   UNL A   1      33.156  25.461  25.218  1.00  0.00     0.049 A 
ATOM     13  C   UNL A   1      34.513  25.310  24.887  1.00  0.00     0.026 A 
ATOM     14  C   UNL A   1      32.570  24.395  25.971  1.00  0.00     0.081 A 
ATOM     15  C   UNL A   1      35.329  24.339  25.467  1.00  0.00     0.004 A 
ATOM     16  C   UNL A   1      33.403  23.411  26.562  1.00  0.00     0.055 A 
ATOM     17  C   UNL A   1      34.784  23.422  26.344  1.00  0.00     0.021 A 
ATOM     18  Cl  UNL A   1      32.855  22.114  27.571  1.00  0.00    -0.083 Cl
BRANCH  14  19
ATOM     19  C   UNL A   1      31.076  24.238  26.069  1.00  0.00     0.252 C 
ATOM     20  N   UNL A   1      30.495  23.255  25.315  1.00  0.00    -0.365 N 
ATOM     21  O   UNL A   1      30.354  24.895  26.809  1.00  0.00    -0.269 OA
ATOM     22  H   UNL A   1      31.047  22.708  24.710  1.00  0.00     0.159 HD
ATOM     23  H   UNL A   1      29.526  23.094  25.378  1.00  0.00     0.159 HD
ENDBRANCH  14  19
ENDBRANCH  10  12
ENDBRANCH   6  10
ENDBRANCH   3   6
ENDBRANCH   1   2
BRANCH   1  24
ATOM     24  C   UNL A   1      31.429  32.362  26.511  1.00  0.00     0.042 C 
BRANCH  24  25
ATOM     25  C   UNL A   1      32.669  32.970  27.152  1.00  0.00     0.118 C 
BRANCH  25  26
ATOM     26  N   UNL A   1      32.438  34.319  27.639  1.00  0.00    -0.352 N 
ATOM     27  C   UNL A   1      33.012  34.984  28.694  1.00  0.00     0.251 C 
ATOM     28  H   UNL A   1      31.768  34.835  27.135  1.00  0.00     0.163 HD
ATOM     29  O   UNL A   1      32.530  36.048  29.073  1.00  0.00    -0.269 OA
BRANCH  27  30
ATOM     30  C   UNL A   1      34.190  34.425  29.398  1.00  0.00     0.039 A 
ATOM     31  C   UNL A   1      33.983  33.723  30.589  1.00  0.00     0.014 A 
ATOM     32  C   UNL A   1      35.492  34.622  28.926  1.00  0.00     0.014 A 
ATOM     33  C   UNL A   1      35.070  33.169  31.271  1.00  0.00     0.010 A 
ATOM     34  C   UNL A   1      36.569  34.012  29.570  1.00  0.00     0.010 A 
ATOM     35  C   UNL A   1      36.369  33.278  30.750  1.00  0.00    -0.014 A 
BRANCH  35  36
ATOM     36  C   UNL A   1      37.519  32.611  31.422  1.00  0.00     0.031 A 
ATOM     37  C   UNL A   1      38.203  31.433  30.785  1.00  0.00     0.074 A 
ATOM     38  C   UNL A   1      37.922  33.046  32.631  1.00  0.00     0.049 A 
ATOM     39  N   UNL A   1      39.189  30.701  31.242  1.00  0.00    -0.248 NA
ATOM     40  C   UNL A   1      37.703  31.010  29.468  1.00  0.00     0.031 C 
ATOM     41  C   UNL A   1      37.324  34.159  33.369  1.00  0.00     0.029 A 
ATOM     42  N   UNL A   1      38.924  32.600  33.458  1.00  0.00    -0.354 N 
ATOM     43  C   UNL A   1      39.424  29.733  30.275  1.00  0.00     0.074 A 
ATOM     44  C   UNL A   1      38.446  29.938  29.228  1.00  0.00     0.031 C 
ATOM     45  C   UNL A   1      37.982  34.322  34.528  1.00  0.00     0.029 A 
ATOM     46  C   UNL A   1      39.015  33.297  34.638  1.00  0.00     0.049 A 
ATOM     47  H   UNL A   1      39.520  31.851  33.227  1.00  0.00     0.167 HD
ATOM     48  C   UNL A   1      40.381  28.773  30.254  1.00  0.00     0.037 A 
ATOM     49  C   UNL A   1      39.828  33.121  35.698  1.00  0.00     0.037 A 
ATOM     50  C   UNL A   1      41.360  28.576  31.293  1.00  0.00     0.049 A 
ATOM     51  C   UNL A   1      40.850  32.016  35.668  1.00  0.00     0.074 A 
ATOM     52  C   UNL A   1      42.402  27.665  31.335  1.00  0.00     0.029 A 
ATOM     53  N   UNL A   1      41.410  29.292  32.481  1.00  0.00    -0.354 N 
ATOM     54  N   UNL A   1      41.110  31.153  34.717  1.00  0.00    -0.248 NA
ATOM     55  C   UNL A   1      41.696  31.865  36.861  1.00  0.00     0.031 C 
ATOM     56  C   UNL A   1      43.041  27.786  32.573  1.00  0.00     0.029 A 
ATOM     57  C   UNL A   1      42.441  28.816  33.278  1.00  0.00     0.049 A 
ATOM     58  H   UNL A   1      40.804  30.029  32.723  1.00  0.00     0.167 HD
ATOM     59  C   UNL A   1      42.159  30.373  35.184  1.00  0.00     0.074 A 
ATOM     60  C   UNL A   1      42.505  30.882  36.495  1.00  0.00     0.031 C 
ATOM     61  C   UNL A   1      42.777  29.327  34.583  1.00  0.00     0.037 A 
BRANCH  48  62
ATOM     62  C   UNL A   1      40.416  27.849  29.068  1.00  0.00     0.064 A 
ATOM     63  C   UNL A   1      41.229  28.108  27.954  1.00  0.00     0.173 A 
ATOM     64  C   UNL A   1      39.665  26.664  29.069  1.00  0.00     0.173 A 
ATOM     65  F   UNL A   1      41.962  29.230  27.899  1.00  0.00    -0.203 F 
ATOM     66  C   UNL A   1      41.265  27.230  26.873  1.00  0.00     0.198 A 
ATOM     67  C   UNL A   1      39.729  25.773  28.001  1.00  0.00     0.198 A 
ATOM     68  F   UNL A   1      38.877  26.362  30.112  1.00  0.00    -0.203 F 
ATOM     69  F   UNL A   1      42.012  27.523  25.800  1.00  0.00    -0.200 F 
ATOM     70  C   UNL A   1      40.522  26.061  26.901  1.00  0.00     0.200 A 
ATOM     71  F   UNL A   1      39.022  24.634  28.037  1.00  0.00    -0.200 F 
ATOM     72  F   UNL A   1      40.566  25.212  25.864  1.00  0.00    -0.200 F 
ENDBRANCH  48  62
BRANCH  49  73
ATOM     73  C   UNL A   1      39.710  34.014  36.881  1.00  0.00     0.064 A 
ATOM     74  C   UNL A   1      40.384  35.242  36.931  1.00  0.00     0.173 A 
ATOM     75  C   UNL A   1      38.932  33.652  37.992  1.00  0.00     0.173 A 
ATOM     76  F   UNL A   1      41.158  35.622  35.904  1.00  0.00    -0.203 F 
ATOM     77  C   UNL A   1      40.303  36.063  38.054  1.00  0.00     0.198 A 
ATOM     78  C   UNL A   1      38.826  34.490  39.101  1.00  0.00     0.198 A 
ATOM     79  F   UNL A   1      38.266  32.489  37.995  1.00  0.00    -0.203 F 
ATOM     80  F   UNL A   1      41.000  37.207  38.095  1.00  0.00    -0.200 F 
ATOM     81  C   UNL A   1      39.519  35.690  39.134  1.00  0.00     0.200 A 
ATOM     82  F   UNL A   1      38.054  34.132  40.136  1.00  0.00    -0.200 F 
ATOM     83  F   UNL A   1      39.439  36.482  40.212  1.00  0.00    -0.200 F 
ENDBRANCH  49  73
BRANCH  61  84
ATOM     84  C   UNL A   1      43.910  28.675  35.325  1.00  0.00     0.064 A 
ATOM     85  C   UNL A   1      43.690  27.632  36.238  1.00  0.00     0.173 A 
ATOM     86  C   UNL A   1      45.235  29.075  35.098  1.00  0.00     0.173 A 
ATOM     87  F   UNL A   1      42.441  27.221  36.505  1.00  0.00    -0.203 F 
ATOM     88  C   UNL A   1      44.751  27.036  36.915  1.00  0.00     0.198 A 
ATOM     89  C   UNL A   1      46.297  28.453  35.750  1.00  0.00     0.198 A 
ATOM     90  F   UNL A   1      45.504  30.064  34.230  1.00  0.00    -0.203 F 
ATOM     91  F   UNL A   1      44.511  26.078  37.822  1.00  0.00    -0.200 F 
ATOM     92  C   UNL A   1      46.053  27.440  36.664  1.00  0.00     0.200 A 
ATOM     93  F   UNL A   1      47.556  28.835  35.492  1.00  0.00    -0.200 F 
ATOM     94  F   UNL A   1      47.074  26.859  37.310  1.00  0.00    -0.200 F 
ENDBRANCH  61  84
ENDBRANCH  35  36
ENDBRANCH  27  30
ENDBRANCH  25  26
ENDBRANCH  24  25
ENDBRANCH   1  24
TORSDOF 14
ENDMDL
MODEL 3
REMARK VINA RESULT:     -11.8      0.643      2.194
REMARK SMILES CC[C@](C)(Nc1cccc(Cl)c1C(N)=O)C(=O)NCCCNC(=O)c1ccc(-c2c3nc(c(-c4c(F)c(F)c(F)c(F)c4F)c4ccc([nH]4)c(-c4c(F)c(F)c(F)c(F)c4F)c4nc(c(-c5c(F)c(F)c(F)c(F)c5F)c5ccc2[nH]5)C=C4)C=C3)cc1
REMARK SMILES IDX 19 1 18 2 16 3 17 4 3 6 4 7 2 8 1 9 5 10 6 12 7 13 12 14
REMARK SMILES IDX 8 15 10 16 9 17 11 18 13 19 14 20 15 21 20 24 21 25 22 26
REMARK SMILES IDX 23 27 24 29 25 30 26 31 87 32 27 33 86 34 28 35 29 36 30 37
REMARK SMILES IDX 80 38 31 39 85 40 79 41 81 42 32 43 84 44 78 45 77 46 33 48
REMARK SMILES IDX 65 49 45 50 64 51 46 52 49 53 63 54 82 55 47 56 48 57 62 59
REMARK SMILES IDX 83 60 50 61 34 62 35 63 43 64 36 65 37 66 41 67 44 68 38 69
REMARK SMILES IDX 39 70 42 71 40 72 66 73 67 74 75 75 68 76 69 77 73 78 76 79
REMARK SMILES IDX 70 80 71 81 74 82 72 83 51 84 52 85 60 86 53 87 54 88 58 89
REMARK SMILES IDX 61 90 55 91 56 92 59 93 57 94
REMARK H PARENT 18 5 5 11 14 22 14 23 22 28 81 47 49 58
REMARK Flexibility Score: inf
ROOT
ATOM      1  C   UNL A   1      31.353  30.787  26.429  1.00  0.00     0.117 C 
ENDROOT
BRANCH   1   2
ATOM      2  N   UNL A   1      31.481  30.229  25.093  1.00  0.00    -0.354 N 
ATOM      3  C   UNL A   1      32.262  29.241  24.563  1.00  0.00     0.245 C 
ATOM      4  O   UNL A   1      32.125  29.054  23.346  1.00  0.00    -0.272 OA
ATOM      5  H   UNL A   1      30.882  30.649  24.435  1.00  0.00     0.163 HD
BRANCH   3   6
ATOM      6  C   UNL A   1      33.267  28.399  25.403  1.00  0.00     0.113 C 
ATOM      7  C   UNL A   1      32.536  27.650  26.547  1.00  0.00     0.045 C 
BRANCH   6   8
ATOM      8  C   UNL A   1      34.286  29.371  26.079  1.00  0.00     0.035 C 
ATOM      9  C   UNL A   1      34.554  29.078  27.557  1.00  0.00     0.007 C 
ENDBRANCH   6   8
BRANCH   6  10
ATOM     10  N   UNL A   1      34.003  27.361  24.615  1.00  0.00    -0.371 N 
ATOM     11  H   UNL A   1      34.660  27.716  23.975  1.00  0.00     0.161 HD
BRANCH  10  12
ATOM     12  C   UNL A   1      33.902  25.964  24.642  1.00  0.00     0.049 A 
ATOM     13  C   UNL A   1      34.493  25.202  25.664  1.00  0.00     0.026 A 
ATOM     14  C   UNL A   1      33.154  25.234  23.665  1.00  0.00     0.081 A 
ATOM     15  C   UNL A   1      34.167  23.866  25.895  1.00  0.00     0.004 A 
ATOM     16  C   UNL A   1      32.822  23.876  23.906  1.00  0.00     0.055 A 
ATOM     17  C   UNL A   1      33.291  23.219  25.046  1.00  0.00     0.021 A 
ATOM     18  Cl  UNL A   1      31.851  22.887  22.865  1.00  0.00    -0.083 Cl
BRANCH  14  19
ATOM     19  C   UNL A   1      32.794  25.848  22.339  1.00  0.00     0.252 C 
ATOM     20  N   UNL A   1      31.485  26.189  22.138  1.00  0.00    -0.365 N 
ATOM     21  O   UNL A   1      33.597  26.106  21.451  1.00  0.00    -0.269 OA
ATOM     22  H   UNL A   1      30.814  25.996  22.832  1.00  0.00     0.159 HD
ATOM     23  H   UNL A   1      31.213  26.629  21.300  1.00  0.00     0.159 HD
ENDBRANCH  14  19
ENDBRANCH  10  12
ENDBRANCH   6  10
ENDBRANCH   3   6
ENDBRANCH   1   2
BRANCH   1  24
ATOM     24  C   UNL A   1      31.382  32.311  26.504  1.00  0.00     0.042 C 
BRANCH  24  25
ATOM     25  C   UNL A   1      32.627  32.914  27.140  1.00  0.00     0.118 C 
BRANCH  25  26
ATOM     26  N   UNL A   1      32.410  34.275  27.602  1.00  0.00    -0.352 N 
ATOM     27  C   UNL A   1      32.998  34.957  28.639  1.00  0.00     0.251 C 
ATOM     28  H   UNL A   1      31.739  34.785  27.094  1.00  0.00     0.163 HD
ATOM     29  O   UNL A   1      32.527  36.032  29.000  1.00  0.00    -0.269 OA
BRANCH  27  30
ATOM     30  C   UNL A   1      34.179  34.403  29.343  1.00  0.00     0.039 A 
ATOM     31  C   UNL A   1      33.983  33.770  30.574  1.00  0.00     0.014 A 
ATOM     32  C   UNL A   1      35.473  34.539  28.831  1.00  0.00     0.014 A 
ATOM     33  C   UNL A   1      35.072  33.223  31.259  1.00  0.00     0.010 A 
ATOM     34  C   UNL A   1      36.549  33.934  29.480  1.00  0.00     0.010 A 
ATOM     35  C   UNL A   1      36.360  33.269  30.702  1.00  0.00    -0.014 A 
BRANCH  35  36
ATOM     36  C   UNL A   1      37.508  32.607  31.381  1.00  0.00     0.031 A 
ATOM     37  C   UNL A   1      38.206  31.437  30.745  1.00  0.00     0.074 A 
ATOM     38  C   UNL A   1      37.898  33.038  32.596  1.00  0.00     0.049 A 
ATOM     39  N   UNL A   1      39.194  30.710  31.207  1.00  0.00    -0.248 NA
ATOM     40  C   UNL A   1      37.722  31.017  29.421  1.00  0.00     0.031 C 
ATOM     41  C   UNL A   1      37.285  34.144  33.334  1.00  0.00     0.029 A 
ATOM     42  N   UNL A   1      38.895  32.595  33.430  1.00  0.00    -0.354 N 
ATOM     43  C   UNL A   1      39.445  29.748  30.238  1.00  0.00     0.074 A 
ATOM     44  C   UNL A   1      38.474  29.952  29.183  1.00  0.00     0.031 C 
ATOM     45  C   UNL A   1      37.931  34.305  34.500  1.00  0.00     0.029 A 
ATOM     46  C   UNL A   1      38.971  33.288  34.614  1.00  0.00     0.049 A 
ATOM     47  H   UNL A   1      39.498  31.852  33.200  1.00  0.00     0.167 HD
ATOM     48  C   UNL A   1      40.409  28.796  30.220  1.00  0.00     0.037 A 
ATOM     49  C   UNL A   1      39.776  33.112  35.680  1.00  0.00     0.037 A 
ATOM     50  C   UNL A   1      41.379  28.600  31.267  1.00  0.00     0.049 A 
ATOM     51  C   UNL A   1      40.806  32.015  35.654  1.00  0.00     0.074 A 
ATOM     52  C   UNL A   1      42.428  27.697  31.313  1.00  0.00     0.029 A 
ATOM     53  N   UNL A   1      41.414  29.310  32.459  1.00  0.00    -0.354 N 
ATOM     54  N   UNL A   1      41.080  31.158  34.701  1.00  0.00    -0.248 NA
ATOM     55  C   UNL A   1      41.641  31.863  36.854  1.00  0.00     0.031 C 
ATOM     56  C   UNL A   1      43.055  27.816  32.558  1.00  0.00     0.029 A 
ATOM     57  C   UNL A   1      42.441  28.838  33.262  1.00  0.00     0.049 A 
ATOM     58  H   UNL A   1      40.800  30.041  32.699  1.00  0.00     0.167 HD
ATOM     59  C   UNL A   1      42.130  30.383  35.174  1.00  0.00     0.074 A 
ATOM     60  C   UNL A   1      42.461  30.888  36.491  1.00  0.00     0.031 C 
ATOM     61  C   UNL A   1      42.762  29.345  34.573  1.00  0.00     0.037 A 
BRANCH  48  62
ATOM     62  C   UNL A   1      40.461  27.878  29.030  1.00  0.00     0.064 A 
ATOM     63  C   UNL A   1      41.281  28.149  27.924  1.00  0.00     0.173 A 
ATOM     64  C   UNL A   1      39.720  26.687  29.018  1.00  0.00     0.173 A 
ATOM     65  F   UNL A   1      42.006  29.277  27.880  1.00  0.00    -0.203 F 
ATOM     66  C   UNL A   1      41.334  27.277  26.839  1.00  0.00     0.198 A 
ATOM     67  C   UNL A   1      39.799  25.802  27.947  1.00  0.00     0.198 A 
ATOM     68  F   UNL A   1      38.926  26.373  30.053  1.00  0.00    -0.203 F 
ATOM     69  F   UNL A   1      42.086  27.582  25.773  1.00  0.00    -0.200 F 
ATOM     70  C   UNL A   1      40.599  26.101  26.854  1.00  0.00     0.200 A 
ATOM     71  F   UNL A   1      39.102  24.657  27.971  1.00  0.00    -0.200 F 
ATOM     72  F   UNL A   1      40.659  25.259  25.814  1.00  0.00    -0.200 F 
ENDBRANCH  48  62
BRANCH  49  73
ATOM     73  C   UNL A   1      39.640  33.998  36.867  1.00  0.00     0.064 A 
ATOM     74  C   UNL A   1      40.303  35.231  36.928  1.00  0.00     0.173 A 
ATOM     75  C   UNL A   1      38.856  33.624  37.970  1.00  0.00     0.173 A 
ATOM     76  F   UNL A   1      41.083  35.623  35.910  1.00  0.00    -0.203 F 
ATOM     77  C   UNL A   1      40.206  36.046  38.055  1.00  0.00     0.198 A 
ATOM     78  C   UNL A   1      38.734  34.456  39.082  1.00  0.00     0.198 A 
ATOM     79  F   UNL A   1      38.199  32.456  37.961  1.00  0.00    -0.203 F 
ATOM     80  F   UNL A   1      40.893  37.195  38.107  1.00  0.00    -0.200 F 
ATOM     81  C   UNL A   1      39.417  35.661  39.127  1.00  0.00     0.200 A 
ATOM     82  F   UNL A   1      37.957  34.086  40.109  1.00  0.00    -0.200 F 
ATOM     83  F   UNL A   1      39.322  36.447  40.208  1.00  0.00    -0.200 F 
ENDBRANCH  49  73
BRANCH  61  84
ATOM     84  C   UNL A   1      43.892  28.697  35.322  1.00  0.00     0.064 A 
ATOM     85  C   UNL A   1      45.222  29.111  35.154  1.00  0.00     0.173 A 
ATOM     86  C   UNL A   1      43.639  27.671  36.245  1.00  0.00     0.173 A 
ATOM     87  F   UNL A   1      45.522  30.077  34.272  1.00  0.00    -0.203 F 
ATOM     88  C   UNL A   1      46.258  28.502  35.858  1.00  0.00     0.198 A 
ATOM     89  C   UNL A   1      44.673  27.088  36.975  1.00  0.00     0.198 A 
ATOM     90  F   UNL A   1      42.385  27.240  36.452  1.00  0.00    -0.203 F 
ATOM     91  F   UNL A   1      47.526  28.878  35.640  1.00  0.00    -0.200 F 
ATOM     92  C   UNL A   1      45.982  27.498  36.774  1.00  0.00     0.200 A 
ATOM     93  F   UNL A   1      44.401  26.130  37.871  1.00  0.00    -0.200 F 
ATOM     94  F   UNL A   1      46.979  26.920  37.457  1.00  0.00    -0.200 F 
ENDBRANCH  61  84
ENDBRANCH  35  36
ENDBRANCH  27  30
ENDBRANCH  25  26
ENDBRANCH  24  25
ENDBRANCH   1  24
TORSDOF 14
ENDMDL
