MODEL 1
REMARK VINA RESULT:     -12.4      0.000      0.000
REMARK SMILES CC[C@H](C)[C@@H](NC(=O)/C=C/c1csc(C)n1)C(=O)NCCCNC(=O)c1ccc(-c2c3nc(c(-c4c(F)c(F)c(F)c(F)c4F)c4ccc([nH]4)c(-c4c(F)c(F)c(F)c(F)c4F)c4nc(c(-c5c(F)c(F)c(F)c(F)c5F)c5ccc2[nH]5)C=C4)C=C3)cc1
REMARK SMILES IDX 20 1 19 2 17 3 18 4 5 6 3 7 4 8 2 9 1 10 6 11 7 12 8 14 9 15
REMARK SMILES IDX 10 16 11 17 12 18 16 19 13 20 14 21 15 22 21 23 22 24 23 25
REMARK SMILES IDX 24 26 25 28 26 29 27 30 88 31 28 32 87 33 29 34 30 35 31 36
REMARK SMILES IDX 81 37 32 38 86 39 80 40 82 41 33 42 85 43 79 44 78 45 34 47
REMARK SMILES IDX 66 48 46 49 65 50 47 51 50 52 64 53 83 54 48 55 49 56 63 58
REMARK SMILES IDX 84 59 51 60 35 61 36 62 44 63 37 64 38 65 42 66 45 67 39 68
REMARK SMILES IDX 40 69 43 70 41 71 67 72 68 73 76 74 69 75 70 76 74 77 77 78
REMARK SMILES IDX 71 79 72 80 75 81 73 82 52 83 53 84 61 85 54 86 55 87 59 88
REMARK SMILES IDX 62 89 56 90 57 91 60 92 58 93
REMARK H PARENT 19 5 6 13 23 27 82 46 50 57
REMARK Flexibility Score: inf
ROOT
ATOM      1  C   UNL A   1      31.780  30.768  26.126  1.00  0.00     0.117 C 
ENDROOT
BRANCH   1   2
ATOM      2  N   UNL A   1      31.671  29.692  27.094  1.00  0.00    -0.354 N 
ATOM      3  C   UNL A   1      31.785  28.352  26.904  1.00  0.00     0.242 C 
ATOM      4  O   UNL A   1      31.622  27.604  27.873  1.00  0.00    -0.273 OA
ATOM      5  H   UNL A   1      31.490  29.974  28.020  1.00  0.00     0.163 HD
BRANCH   3   6
ATOM      6  C   UNL A   1      31.984  27.776  25.494  1.00  0.00     0.174 C 
BRANCH   6   7
ATOM      7  C   UNL A   1      33.504  27.377  25.379  1.00  0.00     0.018 C 
ATOM      8  C   UNL A   1      33.742  25.886  25.631  1.00  0.00     0.010 C 
BRANCH   7   9
ATOM      9  C   UNL A   1      34.083  27.837  24.011  1.00  0.00     0.002 C 
ATOM     10  C   UNL A   1      33.369  29.004  23.347  1.00  0.00     0.004 C 
ENDBRANCH   7   9
ENDBRANCH   6   7
BRANCH   6  11
ATOM     11  N   UNL A   1      31.052  26.675  25.144  1.00  0.00    -0.340 N 
ATOM     12  C   UNL A   1      30.143  26.545  24.124  1.00  0.00     0.244 C 
ATOM     13  H   UNL A   1      31.094  25.902  25.751  1.00  0.00     0.164 HD
ATOM     14  O   UNL A   1      29.772  25.423  23.790  1.00  0.00    -0.270 OA
BRANCH  12  15
ATOM     15  C   UNL A   1      29.414  27.731  23.628  1.00  0.00     0.073 C 
ATOM     16  C   UNL A   1      29.868  28.550  22.669  1.00  0.00     0.035 C 
BRANCH  16  17
ATOM     17  C   UNL A   1      29.374  29.877  22.453  1.00  0.00     0.074 A 
ATOM     18  C   UNL A   1      29.119  30.764  23.476  1.00  0.00     0.095 A 
ATOM     19  N   UNL A   1      28.931  30.273  21.199  1.00  0.00    -0.242 NA
ATOM     20  S   UNL A   1      28.352  32.164  22.858  1.00  0.00    -0.127 S 
ATOM     21  C   UNL A   1      28.396  31.476  21.281  1.00  0.00     0.090 A 
ATOM     22  C   UNL A   1      27.827  32.245  20.136  1.00  0.00     0.079 C 
ENDBRANCH  16  17
ENDBRANCH  12  15
ENDBRANCH   6  11
ENDBRANCH   3   6
ENDBRANCH   1   2
BRANCH   1  23
ATOM     23  C   UNL A   1      31.436  32.098  26.757  1.00  0.00     0.042 C 
BRANCH  23  24
ATOM     24  C   UNL A   1      32.666  32.823  27.272  1.00  0.00     0.118 C 
BRANCH  24  25
ATOM     25  N   UNL A   1      32.392  34.203  27.648  1.00  0.00    -0.352 N 
ATOM     26  C   UNL A   1      32.976  34.953  28.642  1.00  0.00     0.251 C 
ATOM     27  H   UNL A   1      31.697  34.661  27.121  1.00  0.00     0.163 HD
ATOM     28  O   UNL A   1      32.516  36.033  28.970  1.00  0.00    -0.269 OA
BRANCH  26  29
ATOM     29  C   UNL A   1      34.169  34.410  29.321  1.00  0.00     0.039 A 
ATOM     30  C   UNL A   1      34.003  33.642  30.473  1.00  0.00     0.014 A 
ATOM     31  C   UNL A   1      35.443  34.626  28.787  1.00  0.00     0.014 A 
ATOM     32  C   UNL A   1      35.118  33.042  31.056  1.00  0.00     0.010 A 
ATOM     33  C   UNL A   1      36.530  33.935  29.299  1.00  0.00     0.010 A 
ATOM     34  C   UNL A   1      36.383  33.152  30.450  1.00  0.00    -0.014 A 
BRANCH  34  35
ATOM     35  C   UNL A   1      37.560  32.461  31.028  1.00  0.00     0.031 A 
ATOM     36  C   UNL A   1      38.061  32.833  32.396  1.00  0.00     0.074 A 
ATOM     37  C   UNL A   1      38.192  31.519  30.303  1.00  0.00     0.049 A 
ATOM     38  N   UNL A   1      39.050  32.317  33.081  1.00  0.00    -0.248 NA
ATOM     39  C   UNL A   1      37.386  33.951  33.073  1.00  0.00     0.031 C 
ATOM     40  C   UNL A   1      37.846  31.130  28.934  1.00  0.00     0.029 A 
ATOM     41  N   UNL A   1      39.253  30.708  30.618  1.00  0.00    -0.354 N 
ATOM     42  C   UNL A   1      39.112  33.047  34.260  1.00  0.00     0.074 A 
ATOM     43  C   UNL A   1      38.116  34.091  34.167  1.00  0.00     0.031 C 
ATOM     44  C   UNL A   1      38.644  30.124  28.547  1.00  0.00     0.029 A 
ATOM     45  C   UNL A   1      39.579  29.818  29.624  1.00  0.00     0.049 A 
ATOM     46  H   UNL A   1      39.734  30.759  31.476  1.00  0.00     0.167 HD
ATOM     47  C   UNL A   1      39.902  32.843  35.340  1.00  0.00     0.037 A 
ATOM     48  C   UNL A   1      40.520  28.857  29.595  1.00  0.00     0.037 A 
ATOM     49  C   UNL A   1      40.878  31.790  35.433  1.00  0.00     0.049 A 
ATOM     50  C   UNL A   1      41.378  28.642  30.812  1.00  0.00     0.074 A 
ATOM     51  C   UNL A   1      41.692  31.456  36.500  1.00  0.00     0.029 A 
ATOM     52  N   UNL A   1      41.176  30.900  34.410  1.00  0.00    -0.354 N 
ATOM     53  N   UNL A   1      41.366  29.280  31.958  1.00  0.00    -0.248 NA
ATOM     54  C   UNL A   1      42.372  27.564  30.735  1.00  0.00     0.031 C 
ATOM     55  C   UNL A   1      42.519  30.400  36.106  1.00  0.00     0.029 A 
ATOM     56  C   UNL A   1      42.179  30.033  34.813  1.00  0.00     0.049 A 
ATOM     57  H   UNL A   1      40.738  30.886  33.528  1.00  0.00     0.167 HD
ATOM     58  C   UNL A   1      42.330  28.666  32.746  1.00  0.00     0.074 A 
ATOM     59  C   UNL A   1      42.887  27.588  31.955  1.00  0.00     0.031 C 
ATOM     60  C   UNL A   1      42.725  28.970  34.007  1.00  0.00     0.037 A 
BRANCH  47  61
ATOM     61  C   UNL A   1      39.735  33.772  36.509  1.00  0.00     0.064 A 
ATOM     62  C   UNL A   1      40.380  35.018  36.558  1.00  0.00     0.173 A 
ATOM     63  C   UNL A   1      38.897  33.427  37.579  1.00  0.00     0.173 A 
ATOM     64  F   UNL A   1      41.205  35.392  35.568  1.00  0.00    -0.203 F 
ATOM     65  C   UNL A   1      40.218  35.868  37.650  1.00  0.00     0.198 A 
ATOM     66  C   UNL A   1      38.711  34.294  38.654  1.00  0.00     0.198 A 
ATOM     67  F   UNL A   1      38.254  32.250  37.584  1.00  0.00    -0.203 F 
ATOM     68  F   UNL A   1      40.890  37.027  37.700  1.00  0.00    -0.200 F 
ATOM     69  C   UNL A   1      39.377  35.509  38.692  1.00  0.00     0.200 A 
ATOM     70  F   UNL A   1      37.887  33.952  39.654  1.00  0.00    -0.200 F 
ATOM     71  F   UNL A   1      39.216  36.331  39.738  1.00  0.00    -0.200 F 
ENDBRANCH  47  61
BRANCH  48  72
ATOM     72  C   UNL A   1      40.672  28.001  28.389  1.00  0.00     0.064 A 
ATOM     73  C   UNL A   1      40.037  26.754  28.303  1.00  0.00     0.173 A 
ATOM     74  C   UNL A   1      41.456  28.408  27.300  1.00  0.00     0.173 A 
ATOM     75  F   UNL A   1      39.289  26.312  29.325  1.00  0.00    -0.203 F 
ATOM     76  C   UNL A   1      40.203  25.935  27.187  1.00  0.00     0.198 A 
ATOM     77  C   UNL A   1      41.595  27.604  26.171  1.00  0.00     0.198 A 
ATOM     78  F   UNL A   1      42.077  29.597  27.326  1.00  0.00    -0.203 F 
ATOM     79  F   UNL A   1      39.627  24.726  27.155  1.00  0.00    -0.200 F 
ATOM     80  C   UNL A   1      40.977  26.364  26.120  1.00  0.00     0.200 A 
ATOM     81  F   UNL A   1      42.329  28.029  25.134  1.00  0.00    -0.200 F 
ATOM     82  F   UNL A   1      41.132  25.578  25.045  1.00  0.00    -0.200 F 
ENDBRANCH  48  72
BRANCH  60  83
ATOM     83  C   UNL A   1      43.793  28.105  34.613  1.00  0.00     0.064 A 
ATOM     84  C   UNL A   1      45.151  28.452  34.540  1.00  0.00     0.173 A 
ATOM     85  C   UNL A   1      43.453  26.921  35.286  1.00  0.00     0.173 A 
ATOM     86  F   UNL A   1      45.530  29.567  33.897  1.00  0.00    -0.203 F 
ATOM     87  C   UNL A   1      46.132  27.623  35.078  1.00  0.00     0.198 A 
ATOM     88  C   UNL A   1      44.433  26.114  35.856  1.00  0.00     0.198 A 
ATOM     89  F   UNL A   1      42.170  26.549  35.395  1.00  0.00    -0.203 F 
ATOM     90  F   UNL A   1      47.426  27.941  34.936  1.00  0.00    -0.200 F 
ATOM     91  C   UNL A   1      45.772  26.459  35.741  1.00  0.00     0.200 A 
ATOM     92  F   UNL A   1      44.083  24.999  36.509  1.00  0.00    -0.200 F 
ATOM     93  F   UNL A   1      46.717  25.662  36.258  1.00  0.00    -0.200 F 
ENDBRANCH  60  83
ENDBRANCH  34  35
ENDBRANCH  26  29
ENDBRANCH  24  25
ENDBRANCH  23  24
ENDBRANCH   1  23
TORSDOF 15
ENDMDL
MODEL 2
REMARK VINA RESULT:     -12.1      6.541     10.735
REMARK SMILES CC[C@H](C)[C@@H](NC(=O)/C=C/c1csc(C)n1)C(=O)NCCCNC(=O)c1ccc(-c2c3nc(c(-c4c(F)c(F)c(F)c(F)c4F)c4ccc([nH]4)c(-c4c(F)c(F)c(F)c(F)c4F)c4nc(c(-c5c(F)c(F)c(F)c(F)c5F)c5ccc2[nH]5)C=C4)C=C3)cc1
REMARK SMILES IDX 20 1 19 2 17 3 18 4 5 6 3 7 4 8 2 9 1 10 6 11 7 12 8 14 9 15
REMARK SMILES IDX 10 16 11 17 12 18 16 19 13 20 14 21 15 22 21 23 22 24 23 25
REMARK SMILES IDX 24 26 25 28 26 29 27 30 88 31 28 32 87 33 29 34 30 35 31 36
REMARK SMILES IDX 81 37 32 38 86 39 80 40 82 41 33 42 85 43 79 44 78 45 34 47
REMARK SMILES IDX 66 48 46 49 65 50 47 51 50 52 64 53 83 54 48 55 49 56 63 58
REMARK SMILES IDX 84 59 51 60 35 61 36 62 44 63 37 64 38 65 42 66 45 67 39 68
REMARK SMILES IDX 40 69 43 70 41 71 67 72 68 73 76 74 69 75 70 76 74 77 77 78
REMARK SMILES IDX 71 79 72 80 75 81 73 82 52 83 53 84 61 85 54 86 55 87 59 88
REMARK SMILES IDX 62 89 56 90 57 91 60 92 58 93
REMARK H PARENT 19 5 6 13 23 27 82 46 50 57
REMARK Flexibility Score: inf
ROOT
ATOM      1  C   UNL A   1      37.072  20.788  25.144  1.00  0.00     0.117 C 
ENDROOT
BRANCH   1   2
ATOM      2  N   UNL A   1      37.054  21.756  24.063  1.00  0.00    -0.354 N 
ATOM      3  C   UNL A   1      36.083  22.644  23.724  1.00  0.00     0.242 C 
ATOM      4  O   UNL A   1      36.262  23.361  22.735  1.00  0.00    -0.273 OA
ATOM      5  H   UNL A   1      37.858  21.771  23.496  1.00  0.00     0.163 HD
BRANCH   3   6
ATOM      6  C   UNL A   1      34.744  22.664  24.475  1.00  0.00     0.174 C 
BRANCH   6   7
ATOM      7  C   UNL A   1      34.867  23.774  25.587  1.00  0.00     0.018 C 
ATOM      8  C   UNL A   1      34.384  25.145  25.108  1.00  0.00     0.010 C 
BRANCH   7   9
ATOM      9  C   UNL A   1      34.140  23.322  26.886  1.00  0.00     0.002 C 
ATOM     10  C   UNL A   1      34.291  21.854  27.254  1.00  0.00     0.004 C 
ENDBRANCH   7   9
ENDBRANCH   6   7
BRANCH   6  11
ATOM     11  N   UNL A   1      33.553  22.825  23.603  1.00  0.00    -0.340 N 
ATOM     12  C   UNL A   1      32.431  22.052  23.447  1.00  0.00     0.244 C 
ATOM     13  H   UNL A   1      33.573  23.630  23.037  1.00  0.00     0.164 HD
ATOM     14  O   UNL A   1      31.412  22.558  22.984  1.00  0.00    -0.270 OA
BRANCH  12  15
ATOM     15  C   UNL A   1      32.524  20.581  23.567  1.00  0.00     0.073 C 
ATOM     16  C   UNL A   1      32.548  19.919  24.732  1.00  0.00     0.035 C 
BRANCH  16  17
ATOM     17  C   UNL A   1      33.012  18.572  24.875  1.00  0.00     0.074 A 
ATOM     18  C   UNL A   1      34.202  18.124  24.345  1.00  0.00     0.095 A 
ATOM     19  N   UNL A   1      32.182  17.586  25.388  1.00  0.00    -0.242 NA
ATOM     20  S   UNL A   1      34.326  16.427  24.537  1.00  0.00    -0.127 S 
ATOM     21  C   UNL A   1      32.777  16.413  25.289  1.00  0.00     0.090 A 
ATOM     22  C   UNL A   1      32.206  15.116  25.753  1.00  0.00     0.079 C 
ENDBRANCH  16  17
ENDBRANCH  12  15
ENDBRANCH   6  11
ENDBRANCH   3   6
ENDBRANCH   1   2
BRANCH   1  23
ATOM     23  C   UNL A   1      38.243  19.842  25.001  1.00  0.00     0.042 C 
BRANCH  23  24
ATOM     24  C   UNL A   1      39.366  20.170  25.969  1.00  0.00     0.118 C 
BRANCH  24  25
ATOM     25  N   UNL A   1      40.351  19.103  26.075  1.00  0.00    -0.352 N 
ATOM     26  C   UNL A   1      41.719  19.205  26.164  1.00  0.00     0.251 C 
ATOM     27  H   UNL A   1      39.990  18.187  26.084  1.00  0.00     0.163 HD
ATOM     28  O   UNL A   1      42.434  18.223  26.055  1.00  0.00    -0.269 OA
BRANCH  26  29
ATOM     29  C   UNL A   1      42.310  20.541  26.379  1.00  0.00     0.039 A 
ATOM     30  C   UNL A   1      42.817  21.242  25.286  1.00  0.00     0.014 A 
ATOM     31  C   UNL A   1      42.317  21.111  27.656  1.00  0.00     0.014 A 
ATOM     32  C   UNL A   1      43.280  22.543  25.469  1.00  0.00     0.010 A 
ATOM     33  C   UNL A   1      42.668  22.443  27.813  1.00  0.00     0.010 A 
ATOM     34  C   UNL A   1      43.172  23.167  26.726  1.00  0.00    -0.014 A 
BRANCH  34  35
ATOM     35  C   UNL A   1      43.600  24.574  26.912  1.00  0.00     0.031 A 
ATOM     36  C   UNL A   1      42.625  25.603  27.411  1.00  0.00     0.074 A 
ATOM     37  C   UNL A   1      44.863  24.924  26.601  1.00  0.00     0.049 A 
ATOM     38  N   UNL A   1      42.823  26.870  27.671  1.00  0.00    -0.248 NA
ATOM     39  C   UNL A   1      41.236  25.162  27.618  1.00  0.00     0.031 C 
ATOM     40  C   UNL A   1      45.874  24.030  26.034  1.00  0.00     0.029 A 
ATOM     41  N   UNL A   1      45.515  26.124  26.727  1.00  0.00    -0.354 N 
ATOM     42  C   UNL A   1      41.590  27.371  28.066  1.00  0.00     0.074 A 
ATOM     43  C   UNL A   1      40.633  26.295  27.938  1.00  0.00     0.031 C 
ATOM     44  C   UNL A   1      47.031  24.698  25.908  1.00  0.00     0.029 A 
ATOM     45  C   UNL A   1      46.836  26.073  26.353  1.00  0.00     0.049 A 
ATOM     46  H   UNL A   1      45.078  26.944  27.054  1.00  0.00     0.167 HD
ATOM     47  C   UNL A   1      41.289  28.607  28.530  1.00  0.00     0.037 A 
ATOM     48  C   UNL A   1      47.782  27.029  26.380  1.00  0.00     0.037 A 
ATOM     49  C   UNL A   1      42.251  29.667  28.673  1.00  0.00     0.049 A 
ATOM     50  C   UNL A   1      47.426  28.392  26.910  1.00  0.00     0.074 A 
ATOM     51  C   UNL A   1      42.067  30.938  29.186  1.00  0.00     0.029 A 
ATOM     52  N   UNL A   1      43.584  29.578  28.293  1.00  0.00    -0.354 N 
ATOM     53  N   UNL A   1      46.277  28.828  27.369  1.00  0.00    -0.248 NA
ATOM     54  C   UNL A   1      48.503  29.389  26.940  1.00  0.00     0.031 C 
ATOM     55  C   UNL A   1      43.274  31.636  29.067  1.00  0.00     0.029 A 
ATOM     56  C   UNL A   1      44.228  30.780  28.537  1.00  0.00     0.049 A 
ATOM     57  H   UNL A   1      44.009  28.778  27.908  1.00  0.00     0.167 HD
ATOM     58  C   UNL A   1      46.498  30.140  27.763  1.00  0.00     0.074 A 
ATOM     59  C   UNL A   1      47.897  30.417  27.516  1.00  0.00     0.031 C 
ATOM     60  C   UNL A   1      45.621  31.038  28.278  1.00  0.00     0.037 A 
BRANCH  47  61
ATOM     61  C   UNL A   1      39.864  28.872  28.926  1.00  0.00     0.064 A 
ATOM     62  C   UNL A   1      38.917  29.341  28.001  1.00  0.00     0.173 A 
ATOM     63  C   UNL A   1      39.431  28.628  30.237  1.00  0.00     0.173 A 
ATOM     64  F   UNL A   1      39.281  29.605  26.737  1.00  0.00    -0.203 F 
ATOM     65  C   UNL A   1      37.601  29.585  28.382  1.00  0.00     0.198 A 
ATOM     66  C   UNL A   1      38.105  28.841  30.607  1.00  0.00     0.198 A 
ATOM     67  F   UNL A   1      40.292  28.177  31.162  1.00  0.00    -0.203 F 
ATOM     68  F   UNL A   1      36.730  30.086  27.495  1.00  0.00    -0.200 F 
ATOM     69  C   UNL A   1      37.193  29.327  29.682  1.00  0.00     0.200 A 
ATOM     70  F   UNL A   1      37.709  28.579  31.860  1.00  0.00    -0.200 F 
ATOM     71  F   UNL A   1      35.924  29.555  30.046  1.00  0.00    -0.200 F 
ENDBRANCH  47  61
BRANCH  48  72
ATOM     72  C   UNL A   1      49.165  26.721  25.927  1.00  0.00     0.064 A 
ATOM     73  C   UNL A   1      49.582  27.019  24.622  1.00  0.00     0.173 A 
ATOM     74  C   UNL A   1      50.096  26.119  26.786  1.00  0.00     0.173 A 
ATOM     75  F   UNL A   1      48.724  27.581  23.757  1.00  0.00    -0.203 F 
ATOM     76  C   UNL A   1      50.867  26.702  24.185  1.00  0.00     0.198 A 
ATOM     77  C   UNL A   1      51.390  25.833  26.359  1.00  0.00     0.198 A 
ATOM     78  F   UNL A   1      49.752  25.822  28.048  1.00  0.00    -0.203 F 
ATOM     79  F   UNL A   1      51.221  26.952  22.917  1.00  0.00    -0.200 F 
ATOM     80  C   UNL A   1      51.772  26.115  25.056  1.00  0.00     0.200 A 
ATOM     81  F   UNL A   1      52.267  25.282  27.208  1.00  0.00    -0.200 F 
ATOM     82  F   UNL A   1      53.009  25.815  24.637  1.00  0.00    -0.200 F 
ENDBRANCH  48  72
BRANCH  60  83
ATOM     83  C   UNL A   1      46.163  32.394  28.628  1.00  0.00     0.064 A 
ATOM     84  C   UNL A   1      46.690  32.671  29.900  1.00  0.00     0.173 A 
ATOM     85  C   UNL A   1      46.168  33.426  27.677  1.00  0.00     0.173 A 
ATOM     86  F   UNL A   1      46.696  31.723  30.849  1.00  0.00    -0.203 F 
ATOM     87  C   UNL A   1      47.159  33.942  30.219  1.00  0.00     0.198 A 
ATOM     88  C   UNL A   1      46.673  34.685  27.988  1.00  0.00     0.198 A 
ATOM     89  F   UNL A   1      45.688  33.212  26.444  1.00  0.00    -0.203 F 
ATOM     90  F   UNL A   1      47.592  34.201  31.461  1.00  0.00    -0.200 F 
ATOM     91  C   UNL A   1      47.155  34.946  29.263  1.00  0.00     0.200 A 
ATOM     92  F   UNL A   1      46.684  35.649  27.058  1.00  0.00    -0.200 F 
ATOM     93  F   UNL A   1      47.607  36.170  29.571  1.00  0.00    -0.200 F 
ENDBRANCH  60  83
ENDBRANCH  34  35
ENDBRANCH  26  29
ENDBRANCH  24  25
ENDBRANCH  23  24
ENDBRANCH   1  23
TORSDOF 15
ENDMDL
MODEL 3
REMARK VINA RESULT:     -12.1      6.542     10.687
REMARK SMILES CC[C@H](C)[C@@H](NC(=O)/C=C/c1csc(C)n1)C(=O)NCCCNC(=O)c1ccc(-c2c3nc(c(-c4c(F)c(F)c(F)c(F)c4F)c4ccc([nH]4)c(-c4c(F)c(F)c(F)c(F)c4F)c4nc(c(-c5c(F)c(F)c(F)c(F)c5F)c5ccc2[nH]5)C=C4)C=C3)cc1
REMARK SMILES IDX 20 1 19 2 17 3 18 4 5 6 3 7 4 8 2 9 1 10 6 11 7 12 8 14 9 15
REMARK SMILES IDX 10 16 11 17 12 18 16 19 13 20 14 21 15 22 21 23 22 24 23 25
REMARK SMILES IDX 24 26 25 28 26 29 27 30 88 31 28 32 87 33 29 34 30 35 31 36
REMARK SMILES IDX 81 37 32 38 86 39 80 40 82 41 33 42 85 43 79 44 78 45 34 47
REMARK SMILES IDX 66 48 46 49 65 50 47 51 50 52 64 53 83 54 48 55 49 56 63 58
REMARK SMILES IDX 84 59 51 60 35 61 36 62 44 63 37 64 38 65 42 66 45 67 39 68
REMARK SMILES IDX 40 69 43 70 41 71 67 72 68 73 76 74 69 75 70 76 74 77 77 78
REMARK SMILES IDX 71 79 72 80 75 81 73 82 52 83 53 84 61 85 54 86 55 87 59 88
REMARK SMILES IDX 62 89 56 90 57 91 60 92 58 93
REMARK H PARENT 19 5 6 13 23 27 82 46 50 57
REMARK Flexibility Score: inf
ROOT
ATOM      1  C   UNL A   1      36.973  20.693  25.136  1.00  0.00     0.117 C 
ENDROOT
BRANCH   1   2
ATOM      2  N   UNL A   1      37.004  21.672  24.065  1.00  0.00    -0.354 N 
ATOM      3  C   UNL A   1      36.078  22.608  23.732  1.00  0.00     0.242 C 
ATOM      4  O   UNL A   1      36.294  23.326  22.750  1.00  0.00    -0.273 OA
ATOM      5  H   UNL A   1      37.810  21.655  23.500  1.00  0.00     0.163 HD
BRANCH   3   6
ATOM      6  C   UNL A   1      34.739  22.685  24.480  1.00  0.00     0.174 C 
BRANCH   6   7
ATOM      7  C   UNL A   1      34.880  23.839  25.543  1.00  0.00     0.018 C 
ATOM      8  C   UNL A   1      33.873  24.970  25.322  1.00  0.00     0.010 C 
BRANCH   7   9
ATOM      9  C   UNL A   1      34.801  23.261  26.984  1.00  0.00     0.002 C 
ATOM     10  C   UNL A   1      34.061  21.940  27.129  1.00  0.00     0.004 C 
ENDBRANCH   7   9
ENDBRANCH   6   7
BRANCH   6  11
ATOM     11  N   UNL A   1      33.552  22.829  23.600  1.00  0.00    -0.340 N 
ATOM     12  C   UNL A   1      32.439  22.043  23.440  1.00  0.00     0.244 C 
ATOM     13  H   UNL A   1      33.566  23.632  23.030  1.00  0.00     0.164 HD
ATOM     14  O   UNL A   1      31.417  22.536  22.969  1.00  0.00    -0.270 OA
BRANCH  12  15
ATOM     15  C   UNL A   1      32.548  20.574  23.566  1.00  0.00     0.073 C 
ATOM     16  C   UNL A   1      32.521  19.913  24.732  1.00  0.00     0.035 C 
BRANCH  16  17
ATOM     17  C   UNL A   1      32.998  18.572  24.900  1.00  0.00     0.074 A 
ATOM     18  C   UNL A   1      34.217  18.140  24.428  1.00  0.00     0.095 A 
ATOM     19  N   UNL A   1      32.158  17.576  25.377  1.00  0.00    -0.242 NA
ATOM     20  S   UNL A   1      34.356  16.446  24.630  1.00  0.00    -0.127 S 
ATOM     21  C   UNL A   1      32.774  16.411  25.310  1.00  0.00     0.090 A 
ATOM     22  C   UNL A   1      32.201  15.107  25.750  1.00  0.00     0.079 C 
ENDBRANCH  16  17
ENDBRANCH  12  15
ENDBRANCH   6  11
ENDBRANCH   3   6
ENDBRANCH   1   2
BRANCH   1  23
ATOM     23  C   UNL A   1      38.113  19.710  25.001  1.00  0.00     0.042 C 
BRANCH  23  24
ATOM     24  C   UNL A   1      39.351  20.159  25.756  1.00  0.00     0.118 C 
BRANCH  24  25
ATOM     25  N   UNL A   1      40.310  19.084  25.961  1.00  0.00    -0.352 N 
ATOM     26  C   UNL A   1      41.671  19.170  26.134  1.00  0.00     0.251 C 
ATOM     27  H   UNL A   1      39.935  18.173  25.977  1.00  0.00     0.163 HD
ATOM     28  O   UNL A   1      42.376  18.175  26.104  1.00  0.00    -0.269 OA
BRANCH  26  29
ATOM     29  C   UNL A   1      42.269  20.505  26.341  1.00  0.00     0.039 A 
ATOM     30  C   UNL A   1      42.709  21.229  25.234  1.00  0.00     0.014 A 
ATOM     31  C   UNL A   1      42.346  21.049  27.626  1.00  0.00     0.014 A 
ATOM     32  C   UNL A   1      43.176  22.529  25.416  1.00  0.00     0.010 A 
ATOM     33  C   UNL A   1      42.701  22.380  27.789  1.00  0.00     0.010 A 
ATOM     34  C   UNL A   1      43.138  23.127  26.689  1.00  0.00    -0.014 A 
BRANCH  34  35
ATOM     35  C   UNL A   1      43.571  24.532  26.877  1.00  0.00     0.031 A 
ATOM     36  C   UNL A   1      42.600  25.563  27.381  1.00  0.00     0.074 A 
ATOM     37  C   UNL A   1      44.834  24.880  26.564  1.00  0.00     0.049 A 
ATOM     38  N   UNL A   1      42.802  26.829  27.644  1.00  0.00    -0.248 NA
ATOM     39  C   UNL A   1      41.210  25.126  27.591  1.00  0.00     0.031 C 
ATOM     40  C   UNL A   1      45.841  23.985  25.991  1.00  0.00     0.029 A 
ATOM     41  N   UNL A   1      45.490  26.078  26.691  1.00  0.00    -0.354 N 
ATOM     42  C   UNL A   1      41.572  27.332  28.044  1.00  0.00     0.074 A 
ATOM     43  C   UNL A   1      40.611  26.260  27.916  1.00  0.00     0.031 C 
ATOM     44  C   UNL A   1      46.999  24.650  25.864  1.00  0.00     0.029 A 
ATOM     45  C   UNL A   1      46.809  26.025  26.314  1.00  0.00     0.049 A 
ATOM     46  H   UNL A   1      45.056  26.899  27.022  1.00  0.00     0.167 HD
ATOM     47  C   UNL A   1      41.276  28.567  28.512  1.00  0.00     0.037 A 
ATOM     48  C   UNL A   1      47.759  26.978  26.340  1.00  0.00     0.037 A 
ATOM     49  C   UNL A   1      42.241  29.625  28.655  1.00  0.00     0.049 A 
ATOM     50  C   UNL A   1      47.407  28.340  26.876  1.00  0.00     0.074 A 
ATOM     51  C   UNL A   1      42.062  30.895  29.172  1.00  0.00     0.029 A 
ATOM     52  N   UNL A   1      43.572  29.533  28.272  1.00  0.00    -0.354 N 
ATOM     53  N   UNL A   1      46.261  28.778  27.338  1.00  0.00    -0.248 NA
ATOM     54  C   UNL A   1      48.487  29.334  26.905  1.00  0.00     0.031 C 
ATOM     55  C   UNL A   1      43.270  31.590  29.052  1.00  0.00     0.029 A 
ATOM     56  C   UNL A   1      44.220  30.733  28.517  1.00  0.00     0.049 A 
ATOM     57  H   UNL A   1      43.994  28.733  27.883  1.00  0.00     0.167 HD
ATOM     58  C   UNL A   1      46.486  30.088  27.735  1.00  0.00     0.074 A 
ATOM     59  C   UNL A   1      47.886  30.362  27.485  1.00  0.00     0.031 C 
ATOM     60  C   UNL A   1      45.613  30.988  28.255  1.00  0.00     0.037 A 
BRANCH  47  61
ATOM     61  C   UNL A   1      39.852  28.835  28.912  1.00  0.00     0.064 A 
ATOM     62  C   UNL A   1      38.908  29.325  27.995  1.00  0.00     0.173 A 
ATOM     63  C   UNL A   1      39.417  28.573  30.220  1.00  0.00     0.173 A 
ATOM     64  F   UNL A   1      39.274  29.608  26.735  1.00  0.00    -0.203 F 
ATOM     65  C   UNL A   1      37.593  29.572  28.380  1.00  0.00     0.198 A 
ATOM     66  C   UNL A   1      38.093  28.789  30.593  1.00  0.00     0.198 A 
ATOM     67  F   UNL A   1      40.276  28.103  31.137  1.00  0.00    -0.203 F 
ATOM     68  F   UNL A   1      36.726  30.093  27.501  1.00  0.00    -0.200 F 
ATOM     69  C   UNL A   1      37.184  29.296  29.676  1.00  0.00     0.200 A 
ATOM     70  F   UNL A   1      37.696  28.510  31.842  1.00  0.00    -0.200 F 
ATOM     71  F   UNL A   1      35.917  29.527  30.044  1.00  0.00    -0.200 F 
ENDBRANCH  47  61
BRANCH  48  72
ATOM     72  C   UNL A   1      49.139  26.667  25.884  1.00  0.00     0.064 A 
ATOM     73  C   UNL A   1      50.057  26.037  26.735  1.00  0.00     0.173 A 
ATOM     74  C   UNL A   1      49.570  26.994  24.590  1.00  0.00     0.173 A 
ATOM     75  F   UNL A   1      49.699  25.717  27.988  1.00  0.00    -0.203 F 
ATOM     76  C   UNL A   1      51.362  25.772  26.321  1.00  0.00     0.198 A 
ATOM     77  C   UNL A   1      50.864  26.699  24.165  1.00  0.00     0.198 A 
ATOM     78  F   UNL A   1      48.728  27.589  23.731  1.00  0.00    -0.203 F 
ATOM     79  F   UNL A   1      52.233  25.217  27.174  1.00  0.00    -0.200 F 
ATOM     80  C   UNL A   1      51.761  26.098  25.035  1.00  0.00     0.200 A 
ATOM     81  F   UNL A   1      51.241  27.000  22.916  1.00  0.00    -0.200 F 
ATOM     82  F   UNL A   1      53.015  25.839  24.635  1.00  0.00    -0.200 F 
ENDBRANCH  48  72
BRANCH  60  83
ATOM     83  C   UNL A   1      46.160  32.341  28.608  1.00  0.00     0.064 A 
ATOM     84  C   UNL A   1      46.136  33.406  27.694  1.00  0.00     0.173 A 
ATOM     85  C   UNL A   1      46.703  32.579  29.880  1.00  0.00     0.173 A 
ATOM     86  F   UNL A   1      45.641  33.228  26.461  1.00  0.00    -0.203 F 
ATOM     87  C   UNL A   1      46.677  34.646  28.026  1.00  0.00     0.198 A 
ATOM     88  C   UNL A   1      47.208  33.831  30.221  1.00  0.00     0.198 A 
ATOM     89  F   UNL A   1      46.740  31.600  30.794  1.00  0.00    -0.203 F 
ATOM     90  F   UNL A   1      46.706  35.627  27.113  1.00  0.00    -0.200 F 
ATOM     91  C   UNL A   1      47.207  34.859  29.289  1.00  0.00     0.200 A 
ATOM     92  F   UNL A   1      47.704  34.039  31.447  1.00  0.00    -0.200 F 
ATOM     93  F   UNL A   1      47.727  36.052  29.607  1.00  0.00    -0.200 F 
ENDBRANCH  60  83
ENDBRANCH  34  35
ENDBRANCH  26  29
ENDBRANCH  24  25
ENDBRANCH  23  24
ENDBRANCH   1  23
TORSDOF 15
ENDMDL
