MODEL 1
REMARK VINA RESULT:     -13.1      0.000      0.000
REMARK SMILES [NH3+][C@@]1(C(=O)NCCCNC(=O)c2ccc(-c3c4nc(c(-c5c(F)c(F)c(F)c(F)c5F)c5ccc([nH]5)c(-c5c(F)c(F)c(F)c(F)c5F)c5nc(c(-c6c(F)c(F)c(F)c(F)c6F)c6ccc3[nH]6)C=C5)C=C4)cc2)CCC[C@@H](Oc2ccc3c(c2)OCO3)C1
REMARK SMILES IDX 7 1 6 2 5 3 3 4 4 5 2 7 75 8 89 9 76 10 78 11 77 12 1 13
REMARK SMILES IDX 79 17 80 18 81 19 85 20 82 21 84 22 83 23 86 24 88 25 87 26
REMARK SMILES IDX 8 27 9 28 10 29 11 31 12 32 13 33 74 34 14 35 73 36 15 37
REMARK SMILES IDX 16 38 17 39 67 40 18 41 72 42 66 43 68 44 19 45 71 46 65 47
REMARK SMILES IDX 64 48 20 50 52 51 32 52 51 53 33 54 36 55 50 56 69 57 34 58
REMARK SMILES IDX 35 59 49 61 70 62 37 63 21 64 22 65 30 66 23 67 24 68 28 69
REMARK SMILES IDX 31 70 25 71 26 72 29 73 27 74 53 75 54 76 62 77 55 78 56 79
REMARK SMILES IDX 60 80 63 81 57 82 58 83 61 84 59 85 38 86 39 87 47 88 40 89
REMARK SMILES IDX 41 90 45 91 48 92 42 93 43 94 46 95 44 96
REMARK H PARENT 5 6 1 14 1 15 1 16 9 30 68 49 36 60
REMARK Flexibility Score: inf
ROOT
ATOM      1  C   UNL A   1      31.264  32.293  26.485  1.00  0.00     0.042 C 
ENDROOT
BRANCH   1   2
ATOM      2  C   UNL A   1      31.332  30.830  26.030  1.00  0.00     0.118 C 
BRANCH   2   3
ATOM      3  N   UNL A   1      32.302  30.024  26.757  1.00  0.00    -0.351 N 
ATOM      4  C   UNL A   1      32.854  28.793  26.514  1.00  0.00     0.281 C 
ATOM      5  O   UNL A   1      33.750  28.448  27.296  1.00  0.00    -0.268 OA
ATOM      6  H   UNL A   1      32.625  30.446  27.585  1.00  0.00     0.163 HD
BRANCH   4   7
ATOM      7  C   UNL A   1      32.461  27.882  25.291  1.00  0.00     0.177 C 
ATOM      8  C   UNL A   1      33.725  27.143  24.796  1.00  0.00     0.079 C 
ATOM      9  C   UNL A   1      31.883  28.763  24.152  1.00  0.00     0.124 C 
ATOM     10  C   UNL A   1      33.489  26.330  23.522  1.00  0.00     0.011 C 
ATOM     11  C   UNL A   1      31.838  28.157  22.725  1.00  0.00     0.180 C 
ATOM     12  C   UNL A   1      33.004  27.212  22.376  1.00  0.00     0.046 C 
BRANCH   7  13
ATOM     13  N   UNL A   1      31.537  26.840  25.745  1.00  0.00    -0.345 N 
ATOM     14  H   UNL A   1      31.352  26.191  24.980  1.00  0.00     0.345 HD
ATOM     15  H   UNL A   1      30.661  27.270  26.044  1.00  0.00     0.345 HD
ATOM     16  H   UNL A   1      31.952  26.335  26.527  1.00  0.00     0.345 HD
ENDBRANCH   7  13
BRANCH  11  17
ATOM     17  O   UNL A   1      30.521  27.761  22.251  1.00  0.00    -0.490 OA
BRANCH  17  18
ATOM     18  C   UNL A   1      29.546  28.710  22.315  1.00  0.00     0.123 A 
ATOM     19  C   UNL A   1      28.333  28.434  22.969  1.00  0.00     0.050 A 
ATOM     20  C   UNL A   1      29.785  29.958  21.745  1.00  0.00     0.097 A 
ATOM     21  C   UNL A   1      27.452  29.471  23.280  1.00  0.00     0.054 A 
ATOM     22  C   UNL A   1      28.938  30.974  22.129  1.00  0.00     0.169 A 
ATOM     23  C   UNL A   1      27.827  30.743  22.912  1.00  0.00     0.166 A 
ATOM     24  O   UNL A   1      29.197  32.306  21.990  1.00  0.00    -0.453 OA
ATOM     25  O   UNL A   1      27.263  31.901  23.350  1.00  0.00    -0.454 OA
ATOM     26  C   UNL A   1      28.312  32.830  23.005  1.00  0.00     0.468 C 
ENDBRANCH  17  18
ENDBRANCH  11  17
ENDBRANCH   4   7
ENDBRANCH   2   3
ENDBRANCH   1   2
BRANCH   1  27
ATOM     27  C   UNL A   1      32.508  32.817  27.196  1.00  0.00     0.118 C 
BRANCH  27  28
ATOM     28  N   UNL A   1      32.373  34.206  27.603  1.00  0.00    -0.352 N 
ATOM     29  C   UNL A   1      32.991  34.926  28.597  1.00  0.00     0.251 C 
ATOM     30  H   UNL A   1      31.725  34.723  27.071  1.00  0.00     0.163 HD
ATOM     31  O   UNL A   1      32.560  36.048  28.860  1.00  0.00    -0.269 OA
BRANCH  29  32
ATOM     32  C   UNL A   1      34.154  34.406  29.365  1.00  0.00     0.039 A 
ATOM     33  C   UNL A   1      35.436  34.581  28.825  1.00  0.00     0.014 A 
ATOM     34  C   UNL A   1      34.011  33.658  30.536  1.00  0.00     0.014 A 
ATOM     35  C   UNL A   1      36.560  34.038  29.460  1.00  0.00     0.010 A 
ATOM     36  C   UNL A   1      35.139  33.174  31.208  1.00  0.00     0.010 A 
ATOM     37  C   UNL A   1      36.424  33.338  30.667  1.00  0.00    -0.014 A 
BRANCH  37  38
ATOM     38  C   UNL A   1      37.597  32.720  31.346  1.00  0.00     0.031 A 
ATOM     39  C   UNL A   1      38.341  31.591  30.682  1.00  0.00     0.074 A 
ATOM     40  C   UNL A   1      37.967  33.126  32.577  1.00  0.00     0.049 A 
ATOM     41  N   UNL A   1      39.299  30.832  31.155  1.00  0.00    -0.248 NA
ATOM     42  C   UNL A   1      37.935  31.254  29.309  1.00  0.00     0.031 C 
ATOM     43  C   UNL A   1      37.326  34.192  33.344  1.00  0.00     0.029 A 
ATOM     44  N   UNL A   1      38.967  32.674  33.404  1.00  0.00    -0.354 N 
ATOM     45  C   UNL A   1      39.584  29.911  30.154  1.00  0.00     0.074 A 
ATOM     46  C   UNL A   1      38.676  30.184  29.060  1.00  0.00     0.031 C 
ATOM     47  C   UNL A   1      37.950  34.317  34.528  1.00  0.00     0.029 A 
ATOM     48  C   UNL A   1      39.011  33.317  34.618  1.00  0.00     0.049 A 
ATOM     49  H   UNL A   1      39.593  31.957  33.152  1.00  0.00     0.167 HD
ATOM     50  C   UNL A   1      40.527  28.939  30.139  1.00  0.00     0.037 A 
ATOM     51  C   UNL A   1      39.806  33.115  35.686  1.00  0.00     0.037 A 
ATOM     52  C   UNL A   1      41.464  28.693  31.203  1.00  0.00     0.049 A 
ATOM     53  C   UNL A   1      40.860  32.042  35.636  1.00  0.00     0.074 A 
ATOM     54  C   UNL A   1      42.484  27.760  31.260  1.00  0.00     0.029 A 
ATOM     55  N   UNL A   1      41.502  29.399  32.396  1.00  0.00    -0.354 N 
ATOM     56  N   UNL A   1      41.137  31.197  34.673  1.00  0.00    -0.248 NA
ATOM     57  C   UNL A   1      41.720  31.899  36.821  1.00  0.00     0.031 C 
ATOM     58  C   UNL A   1      43.124  27.882  32.498  1.00  0.00     0.029 A 
ATOM     59  C   UNL A   1      42.526  28.918  33.197  1.00  0.00     0.049 A 
ATOM     60  H   UNL A   1      40.893  30.133  32.638  1.00  0.00     0.167 HD
ATOM     61  C   UNL A   1      42.213  30.444  35.122  1.00  0.00     0.074 A 
ATOM     62  C   UNL A   1      42.549  30.938  36.441  1.00  0.00     0.031 C 
ATOM     63  C   UNL A   1      42.862  29.432  34.498  1.00  0.00     0.037 A 
BRANCH  50  64
ATOM     64  C   UNL A   1      40.599  28.060  28.922  1.00  0.00     0.064 A 
ATOM     65  C   UNL A   1      39.845  26.882  28.823  1.00  0.00     0.173 A 
ATOM     66  C   UNL A   1      41.398  28.423  27.828  1.00  0.00     0.173 A 
ATOM     67  F   UNL A   1      39.073  26.486  29.846  1.00  0.00    -0.203 F 
ATOM     68  C   UNL A   1      39.910  26.084  27.683  1.00  0.00     0.198 A 
ATOM     69  C   UNL A   1      41.441  27.637  26.680  1.00  0.00     0.198 A 
ATOM     70  F   UNL A   1      42.133  29.545  27.870  1.00  0.00    -0.203 F 
ATOM     71  F   UNL A   1      39.216  24.939  27.629  1.00  0.00    -0.200 F 
ATOM     72  C   UNL A   1      40.702  26.465  26.611  1.00  0.00     0.200 A 
ATOM     73  F   UNL A   1      42.196  28.013  25.639  1.00  0.00    -0.200 F 
ATOM     74  F   UNL A   1      40.759  25.699  25.513  1.00  0.00    -0.200 F 
ENDBRANCH  50  64
BRANCH  51  75
ATOM     75  C   UNL A   1      39.646  33.959  36.898  1.00  0.00     0.064 A 
ATOM     76  C   UNL A   1      40.277  35.206  36.994  1.00  0.00     0.173 A 
ATOM     77  C   UNL A   1      38.869  33.533  37.986  1.00  0.00     0.173 A 
ATOM     78  F   UNL A   1      41.049  35.643  35.988  1.00  0.00    -0.203 F 
ATOM     79  C   UNL A   1      40.154  35.990  38.140  1.00  0.00     0.198 A 
ATOM     80  C   UNL A   1      38.725  34.329  39.121  1.00  0.00     0.198 A 
ATOM     81  F   UNL A   1      38.243  32.348  37.942  1.00  0.00    -0.203 F 
ATOM     82  F   UNL A   1      40.804  37.157  38.224  1.00  0.00    -0.200 F 
ATOM     83  C   UNL A   1      39.374  35.552  39.200  1.00  0.00     0.200 A 
ATOM     84  F   UNL A   1      37.962  33.909  40.139  1.00  0.00    -0.200 F 
ATOM     85  F   UNL A   1      39.254  36.307  40.301  1.00  0.00    -0.200 F 
ENDBRANCH  51  75
BRANCH  63  86
ATOM     86  C   UNL A   1      44.029  28.817  35.211  1.00  0.00     0.064 A 
ATOM     87  C   UNL A   1      43.863  27.760  36.116  1.00  0.00     0.173 A 
ATOM     88  C   UNL A   1      45.333  29.262  34.949  1.00  0.00     0.173 A 
ATOM     89  F   UNL A   1      42.634  27.309  36.410  1.00  0.00    -0.203 F 
ATOM     90  C   UNL A   1      44.961  27.181  36.749  1.00  0.00     0.198 A 
ATOM     91  C   UNL A   1      46.430  28.666  35.566  1.00  0.00     0.198 A 
ATOM     92  F   UNL A   1      45.544  30.268  34.086  1.00  0.00    -0.203 F 
ATOM     93  F   UNL A   1      44.777  26.196  37.639  1.00  0.00    -0.200 F 
ATOM     94  C   UNL A   1      46.243  27.630  36.468  1.00  0.00     0.200 A 
ATOM     95  F   UNL A   1      47.669  29.094  35.286  1.00  0.00    -0.200 F 
ATOM     96  F   UNL A   1      47.299  27.068  37.073  1.00  0.00    -0.200 F 
ENDBRANCH  63  86
ENDBRANCH  37  38
ENDBRANCH  29  32
ENDBRANCH  27  28
ENDBRANCH   1  27
TORSDOF 13
ENDMDL
MODEL 2
REMARK VINA RESULT:     -13.1      6.792     11.921
REMARK SMILES [NH3+][C@@]1(C(=O)NCCCNC(=O)c2ccc(-c3c4nc(c(-c5c(F)c(F)c(F)c(F)c5F)c5ccc([nH]5)c(-c5c(F)c(F)c(F)c(F)c5F)c5nc(c(-c6c(F)c(F)c(F)c(F)c6F)c6ccc3[nH]6)C=C5)C=C4)cc2)CCC[C@@H](Oc2ccc3c(c2)OCO3)C1
REMARK SMILES IDX 7 1 6 2 5 3 3 4 4 5 2 7 75 8 89 9 76 10 78 11 77 12 1 13
REMARK SMILES IDX 79 17 80 18 81 19 85 20 82 21 84 22 83 23 86 24 88 25 87 26
REMARK SMILES IDX 8 27 9 28 10 29 11 31 12 32 13 33 74 34 14 35 73 36 15 37
REMARK SMILES IDX 16 38 17 39 67 40 18 41 72 42 66 43 68 44 19 45 71 46 65 47
REMARK SMILES IDX 64 48 20 50 52 51 32 52 51 53 33 54 36 55 50 56 69 57 34 58
REMARK SMILES IDX 35 59 49 61 70 62 37 63 21 64 22 65 30 66 23 67 24 68 28 69
REMARK SMILES IDX 31 70 25 71 26 72 29 73 27 74 53 75 54 76 62 77 55 78 56 79
REMARK SMILES IDX 60 80 63 81 57 82 58 83 61 84 59 85 38 86 39 87 47 88 40 89
REMARK SMILES IDX 41 90 45 91 48 92 42 93 43 94 46 95 44 96
REMARK H PARENT 5 6 1 14 1 15 1 16 9 30 68 49 36 60
REMARK Flexibility Score: inf
ROOT
ATOM      1  C   UNL A   1      39.150  21.250  26.233  1.00  0.00     0.042 C 
ENDROOT
BRANCH   1   2
ATOM      2  C   UNL A   1      37.979  22.217  26.015  1.00  0.00     0.118 C 
BRANCH   2   3
ATOM      3  N   UNL A   1      37.776  22.603  24.626  1.00  0.00    -0.351 N 
ATOM      4  C   UNL A   1      36.654  22.917  23.905  1.00  0.00     0.281 C 
ATOM      5  O   UNL A   1      36.857  23.318  22.752  1.00  0.00    -0.268 OA
ATOM      6  H   UNL A   1      38.608  22.648  24.103  1.00  0.00     0.163 HD
BRANCH   4   7
ATOM      7  C   UNL A   1      35.192  22.862  24.490  1.00  0.00     0.177 C 
ATOM      8  C   UNL A   1      35.098  23.840  25.684  1.00  0.00     0.079 C 
ATOM      9  C   UNL A   1      34.875  21.419  24.962  1.00  0.00     0.124 C 
ATOM     10  C   UNL A   1      33.758  23.769  26.418  1.00  0.00     0.011 C 
ATOM     11  C   UNL A   1      33.692  21.226  25.945  1.00  0.00     0.180 C 
ATOM     12  C   UNL A   1      33.487  22.369  26.957  1.00  0.00     0.046 C 
BRANCH   7  13
ATOM     13  N   UNL A   1      34.253  23.365  23.484  1.00  0.00    -0.345 N 
ATOM     14  H   UNL A   1      33.544  22.655  23.296  1.00  0.00     0.345 HD
ATOM     15  H   UNL A   1      34.758  23.576  22.624  1.00  0.00     0.345 HD
ATOM     16  H   UNL A   1      33.803  24.211  23.831  1.00  0.00     0.345 HD
ENDBRANCH   7  13
BRANCH  11  17
ATOM     17  O   UNL A   1      32.487  20.645  25.375  1.00  0.00    -0.490 OA
BRANCH  17  18
ATOM     18  C   UNL A   1      32.604  19.381  24.880  1.00  0.00     0.123 A 
ATOM     19  C   UNL A   1      32.530  19.154  23.495  1.00  0.00     0.050 A 
ATOM     20  C   UNL A   1      32.819  18.329  25.767  1.00  0.00     0.097 A 
ATOM     21  C   UNL A   1      32.920  17.924  22.964  1.00  0.00     0.054 A 
ATOM     22  C   UNL A   1      33.270  17.150  25.216  1.00  0.00     0.169 A 
ATOM     23  C   UNL A   1      33.360  16.969  23.852  1.00  0.00     0.166 A 
ATOM     24  O   UNL A   1      33.877  16.142  25.906  1.00  0.00    -0.453 OA
ATOM     25  O   UNL A   1      34.030  15.828  23.533  1.00  0.00    -0.454 OA
ATOM     26  C   UNL A   1      34.590  15.504  24.823  1.00  0.00     0.468 C 
ENDBRANCH  17  18
ENDBRANCH  11  17
ENDBRANCH   4   7
ENDBRANCH   2   3
ENDBRANCH   1   2
BRANCH   1  27
ATOM     27  C   UNL A   1      39.132  19.993  25.369  1.00  0.00     0.118 C 
BRANCH  27  28
ATOM     28  N   UNL A   1      40.161  19.040  25.751  1.00  0.00    -0.352 N 
ATOM     29  C   UNL A   1      41.479  19.215  26.096  1.00  0.00     0.251 C 
ATOM     30  H   UNL A   1      39.859  18.102  25.766  1.00  0.00     0.163 HD
ATOM     31  O   UNL A   1      42.194  18.219  26.196  1.00  0.00    -0.269 OA
BRANCH  29  32
ATOM     32  C   UNL A   1      42.074  20.554  26.352  1.00  0.00     0.039 A 
ATOM     33  C   UNL A   1      42.247  20.958  27.684  1.00  0.00     0.014 A 
ATOM     34  C   UNL A   1      42.359  21.461  25.329  1.00  0.00     0.014 A 
ATOM     35  C   UNL A   1      42.722  22.241  27.986  1.00  0.00     0.010 A 
ATOM     36  C   UNL A   1      42.898  22.717  25.628  1.00  0.00     0.010 A 
ATOM     37  C   UNL A   1      43.065  23.131  26.959  1.00  0.00    -0.014 A 
BRANCH  37  38
ATOM     38  C   UNL A   1      43.540  24.512  27.250  1.00  0.00     0.031 A 
ATOM     39  C   UNL A   1      42.581  25.535  27.802  1.00  0.00     0.074 A 
ATOM     40  C   UNL A   1      44.808  24.873  26.973  1.00  0.00     0.049 A 
ATOM     41  N   UNL A   1      42.755  26.819  28.000  1.00  0.00    -0.248 NA
ATOM     42  C   UNL A   1      41.237  25.054  28.156  1.00  0.00     0.031 C 
ATOM     43  C   UNL A   1      45.835  23.993  26.419  1.00  0.00     0.029 A 
ATOM     44  N   UNL A   1      45.443  26.084  27.107  1.00  0.00    -0.354 N 
ATOM     45  C   UNL A   1      41.538  27.300  28.466  1.00  0.00     0.074 A 
ATOM     46  C   UNL A   1      40.623  26.178  28.492  1.00  0.00     0.031 C 
ATOM     47  C   UNL A   1      46.974  24.690  26.265  1.00  0.00     0.029 A 
ATOM     48  C   UNL A   1      46.747  26.074  26.675  1.00  0.00     0.049 A 
ATOM     49  H   UNL A   1      45.005  26.884  27.478  1.00  0.00     0.167 HD
ATOM     50  C   UNL A   1      41.215  28.557  28.856  1.00  0.00     0.037 A 
ATOM     51  C   UNL A   1      47.652  27.069  26.603  1.00  0.00     0.037 A 
ATOM     52  C   UNL A   1      42.132  29.666  28.879  1.00  0.00     0.049 A 
ATOM     53  C   UNL A   1      47.276  28.451  27.062  1.00  0.00     0.074 A 
ATOM     54  C   UNL A   1      41.909  30.965  29.299  1.00  0.00     0.029 A 
ATOM     55  N   UNL A   1      43.457  29.599  28.475  1.00  0.00    -0.354 N 
ATOM     56  N   UNL A   1      46.130  28.886  27.526  1.00  0.00    -0.248 NA
ATOM     57  C   UNL A   1      48.323  29.483  26.993  1.00  0.00     0.031 C 
ATOM     58  C   UNL A   1      43.091  31.694  29.125  1.00  0.00     0.029 A 
ATOM     59  C   UNL A   1      44.061  30.837  28.631  1.00  0.00     0.049 A 
ATOM     60  H   UNL A   1      43.903  28.793  28.128  1.00  0.00     0.167 HD
ATOM     61  C   UNL A   1      46.323  30.227  27.828  1.00  0.00     0.074 A 
ATOM     62  C   UNL A   1      47.701  30.535  27.507  1.00  0.00     0.031 C 
ATOM     63  C   UNL A   1      45.438  31.123  28.326  1.00  0.00     0.037 A 
BRANCH  50  64
ATOM     64  C   UNL A   1      39.801  28.806  29.297  1.00  0.00     0.064 A 
ATOM     65  C   UNL A   1      39.412  28.651  30.636  1.00  0.00     0.173 A 
ATOM     66  C   UNL A   1      38.835  29.243  28.378  1.00  0.00     0.173 A 
ATOM     67  F   UNL A   1      40.295  28.225  31.551  1.00  0.00    -0.203 F 
ATOM     68  C   UNL A   1      38.100  28.898  31.033  1.00  0.00     0.198 A 
ATOM     69  C   UNL A   1      37.531  29.515  28.785  1.00  0.00     0.198 A 
ATOM     70  F   UNL A   1      39.157  29.414  27.087  1.00  0.00    -0.203 F 
ATOM     71  F   UNL A   1      37.741  28.699  32.309  1.00  0.00    -0.200 F 
ATOM     72  C   UNL A   1      37.164  29.336  30.110  1.00  0.00     0.200 A 
ATOM     73  F   UNL A   1      36.630  29.951  27.894  1.00  0.00    -0.200 F 
ATOM     74  F   UNL A   1      35.903  29.579  30.496  1.00  0.00    -0.200 F 
ENDBRANCH  50  64
BRANCH  51  75
ATOM     75  C   UNL A   1      49.017  26.792  26.086  1.00  0.00     0.064 A 
ATOM     76  C   UNL A   1      49.332  27.006  24.737  1.00  0.00     0.173 A 
ATOM     77  C   UNL A   1      50.029  26.300  26.924  1.00  0.00     0.173 A 
ATOM     78  F   UNL A   1      48.390  27.452  23.893  1.00  0.00    -0.203 F 
ATOM     79  C   UNL A   1      50.603  26.721  24.240  1.00  0.00     0.198 A 
ATOM     80  C   UNL A   1      51.306  26.040  26.432  1.00  0.00     0.198 A 
ATOM     81  F   UNL A   1      49.778  26.081  28.222  1.00  0.00    -0.203 F 
ATOM     82  F   UNL A   1      50.864  26.892  22.938  1.00  0.00    -0.200 F 
ATOM     83  C   UNL A   1      51.589  26.243  25.089  1.00  0.00     0.200 A 
ATOM     84  F   UNL A   1      52.261  25.589  27.256  1.00  0.00    -0.200 F 
ATOM     85  F   UNL A   1      52.812  25.971  24.611  1.00  0.00    -0.200 F 
ENDBRANCH  51  75
BRANCH  63  86
ATOM     86  C   UNL A   1      45.938  32.511  28.595  1.00  0.00     0.064 A 
ATOM     87  C   UNL A   1      46.521  32.856  29.822  1.00  0.00     0.173 A 
ATOM     88  C   UNL A   1      45.873  33.494  27.596  1.00  0.00     0.173 A 
ATOM     89  F   UNL A   1      46.593  31.955  30.813  1.00  0.00    -0.203 F 
ATOM     90  C   UNL A   1      47.006  34.142  30.047  1.00  0.00     0.198 A 
ATOM     91  C   UNL A   1      46.379  34.772  27.816  1.00  0.00     0.198 A 
ATOM     92  F   UNL A   1      45.328  33.210  26.404  1.00  0.00    -0.203 F 
ATOM     93  F   UNL A   1      47.526  34.462  31.240  1.00  0.00    -0.200 F 
ATOM     94  C   UNL A   1      46.941  35.097  29.041  1.00  0.00     0.200 A 
ATOM     95  F   UNL A   1      46.324  35.689  26.841  1.00  0.00    -0.200 F 
ATOM     96  F   UNL A   1      47.414  36.332  29.257  1.00  0.00    -0.200 F 
ENDBRANCH  63  86
ENDBRANCH  37  38
ENDBRANCH  29  32
ENDBRANCH  27  28
ENDBRANCH   1  27
TORSDOF 13
ENDMDL
MODEL 3
REMARK VINA RESULT:     -13.0      6.577     11.601
REMARK SMILES [NH3+][C@@]1(C(=O)NCCCNC(=O)c2ccc(-c3c4nc(c(-c5c(F)c(F)c(F)c(F)c5F)c5ccc([nH]5)c(-c5c(F)c(F)c(F)c(F)c5F)c5nc(c(-c6c(F)c(F)c(F)c(F)c6F)c6ccc3[nH]6)C=C5)C=C4)cc2)CCC[C@@H](Oc2ccc3c(c2)OCO3)C1
REMARK SMILES IDX 7 1 6 2 5 3 3 4 4 5 2 7 75 8 89 9 76 10 78 11 77 12 1 13
REMARK SMILES IDX 79 17 80 18 81 19 85 20 82 21 84 22 83 23 86 24 88 25 87 26
REMARK SMILES IDX 8 27 9 28 10 29 11 31 12 32 13 33 74 34 14 35 73 36 15 37
REMARK SMILES IDX 16 38 17 39 67 40 18 41 72 42 66 43 68 44 19 45 71 46 65 47
REMARK SMILES IDX 64 48 20 50 52 51 32 52 51 53 33 54 36 55 50 56 69 57 34 58
REMARK SMILES IDX 35 59 49 61 70 62 37 63 21 64 22 65 30 66 23 67 24 68 28 69
REMARK SMILES IDX 31 70 25 71 26 72 29 73 27 74 53 75 54 76 62 77 55 78 56 79
REMARK SMILES IDX 60 80 63 81 57 82 58 83 61 84 59 85 38 86 39 87 47 88 40 89
REMARK SMILES IDX 41 90 45 91 48 92 42 93 43 94 46 95 44 96
REMARK H PARENT 5 6 1 14 1 15 1 16 9 30 68 49 36 60
REMARK Flexibility Score: inf
ROOT
ATOM      1  C   UNL A   1      38.208  19.448  24.978  1.00  0.00     0.042 C 
ENDROOT
BRANCH   1   2
ATOM      2  C   UNL A   1      37.166  20.516  24.625  1.00  0.00     0.118 C 
BRANCH   2   3
ATOM      3  N   UNL A   1      37.397  21.807  25.256  1.00  0.00    -0.351 N 
ATOM      4  C   UNL A   1      36.559  22.836  25.600  1.00  0.00     0.281 C 
ATOM      5  O   UNL A   1      37.083  23.759  26.236  1.00  0.00    -0.268 OA
ATOM      6  H   UNL A   1      38.341  21.973  25.480  1.00  0.00     0.163 HD
BRANCH   4   7
ATOM      7  C   UNL A   1      35.014  22.847  25.294  1.00  0.00     0.177 C 
ATOM      8  C   UNL A   1      34.334  23.888  26.212  1.00  0.00     0.079 C 
ATOM      9  C   UNL A   1      34.421  21.438  25.561  1.00  0.00     0.124 C 
ATOM     10  C   UNL A   1      32.809  23.889  26.097  1.00  0.00     0.011 C 
ATOM     11  C   UNL A   1      32.886  21.326  25.745  1.00  0.00     0.180 C 
ATOM     12  C   UNL A   1      32.220  22.526  26.445  1.00  0.00     0.046 C 
BRANCH   7  13
ATOM     13  N   UNL A   1      34.799  23.317  23.923  1.00  0.00    -0.345 N 
ATOM     14  H   UNL A   1      34.845  24.337  23.902  1.00  0.00     0.345 HD
ATOM     15  H   UNL A   1      33.881  23.013  23.600  1.00  0.00     0.345 HD
ATOM     16  H   UNL A   1      35.520  22.931  23.314  1.00  0.00     0.345 HD
ENDBRANCH   7  13
BRANCH  11  17
ATOM     17  O   UNL A   1      32.158  20.745  24.629  1.00  0.00    -0.490 OA
BRANCH  17  18
ATOM     18  C   UNL A   1      32.409  19.432  24.364  1.00  0.00     0.123 A 
ATOM     19  C   UNL A   1      32.478  18.979  23.035  1.00  0.00     0.050 A 
ATOM     20  C   UNL A   1      32.618  18.560  25.429  1.00  0.00     0.097 A 
ATOM     21  C   UNL A   1      33.002  17.718  22.750  1.00  0.00     0.054 A 
ATOM     22  C   UNL A   1      33.201  17.350  25.121  1.00  0.00     0.169 A 
ATOM     23  C   UNL A   1      33.427  16.960  23.817  1.00  0.00     0.166 A 
ATOM     24  O   UNL A   1      33.813  16.523  26.015  1.00  0.00    -0.453 OA
ATOM     25  O   UNL A   1      34.203  15.844  23.748  1.00  0.00    -0.454 OA
ATOM     26  C   UNL A   1      34.665  15.782  25.114  1.00  0.00     0.468 C 
ENDBRANCH  17  18
ENDBRANCH  11  17
ENDBRANCH   4   7
ENDBRANCH   2   3
ENDBRANCH   1   2
BRANCH   1  27
ATOM     27  C   UNL A   1      39.305  19.895  25.939  1.00  0.00     0.118 C 
BRANCH  27  28
ATOM     28  N   UNL A   1      40.442  18.989  25.946  1.00  0.00    -0.352 N 
ATOM     29  C   UNL A   1      41.790  19.223  26.078  1.00  0.00     0.251 C 
ATOM     30  H   UNL A   1      40.204  18.040  25.838  1.00  0.00     0.163 HD
ATOM     31  O   UNL A   1      42.568  18.295  25.860  1.00  0.00    -0.269 OA
BRANCH  29  32
ATOM     32  C   UNL A   1      42.343  20.547  26.470  1.00  0.00     0.039 A 
ATOM     33  C   UNL A   1      42.219  20.945  27.809  1.00  0.00     0.014 A 
ATOM     34  C   UNL A   1      42.876  21.446  25.545  1.00  0.00     0.014 A 
ATOM     35  C   UNL A   1      42.644  22.216  28.219  1.00  0.00     0.010 A 
ATOM     36  C   UNL A   1      43.364  22.688  25.966  1.00  0.00     0.010 A 
ATOM     37  C   UNL A   1      43.234  23.097  27.303  1.00  0.00    -0.014 A 
BRANCH  37  38
ATOM     38  C   UNL A   1      43.663  24.466  27.703  1.00  0.00     0.031 A 
ATOM     39  C   UNL A   1      42.629  25.504  28.058  1.00  0.00     0.074 A 
ATOM     40  C   UNL A   1      44.967  24.803  27.698  1.00  0.00     0.049 A 
ATOM     41  N   UNL A   1      42.782  26.782  28.303  1.00  0.00    -0.248 NA
ATOM     42  C   UNL A   1      41.233  25.047  28.120  1.00  0.00     0.031 C 
ATOM     43  C   UNL A   1      46.071  23.907  27.358  1.00  0.00     0.029 A 
ATOM     44  N   UNL A   1      45.583  26.000  27.976  1.00  0.00    -0.354 N 
ATOM     45  C   UNL A   1      41.504  27.284  28.514  1.00  0.00     0.074 A 
ATOM     46  C   UNL A   1      40.583  26.182  28.336  1.00  0.00     0.031 C 
ATOM     47  C   UNL A   1      47.229  24.582  27.451  1.00  0.00     0.029 A 
ATOM     48  C   UNL A   1      46.948  25.966  27.822  1.00  0.00     0.049 A 
ATOM     49  H   UNL A   1      45.093  26.806  28.258  1.00  0.00     0.167 HD
ATOM     50  C   UNL A   1      41.131  28.545  28.844  1.00  0.00     0.037 A 
ATOM     51  C   UNL A   1      47.867  26.943  27.951  1.00  0.00     0.037 A 
ATOM     52  C   UNL A   1      42.044  29.634  29.070  1.00  0.00     0.049 A 
ATOM     53  C   UNL A   1      47.429  28.329  28.339  1.00  0.00     0.074 A 
ATOM     54  C   UNL A   1      41.762  30.934  29.451  1.00  0.00     0.029 A 
ATOM     55  N   UNL A   1      43.422  29.543  28.947  1.00  0.00    -0.354 N 
ATOM     56  N   UNL A   1      46.220  28.783  28.562  1.00  0.00    -0.248 NA
ATOM     57  C   UNL A   1      48.486  29.339  28.501  1.00  0.00     0.031 C 
ATOM     58  C   UNL A   1      42.968  31.639  29.534  1.00  0.00     0.029 A 
ATOM     59  C   UNL A   1      44.004  30.767  29.241  1.00  0.00     0.049 A 
ATOM     60  H   UNL A   1      43.915  28.731  28.690  1.00  0.00     0.167 HD
ATOM     61  C   UNL A   1      46.371  30.117  28.915  1.00  0.00     0.074 A 
ATOM     62  C   UNL A   1      47.791  30.400  28.888  1.00  0.00     0.031 C 
ATOM     63  C   UNL A   1      45.419  31.028  29.230  1.00  0.00     0.037 A 
BRANCH  50  64
ATOM     64  C   UNL A   1      39.661  28.818  28.987  1.00  0.00     0.064 A 
ATOM     65  C   UNL A   1      39.001  28.660  30.214  1.00  0.00     0.173 A 
ATOM     66  C   UNL A   1      38.914  29.283  27.894  1.00  0.00     0.173 A 
ATOM     67  F   UNL A   1      39.668  28.208  31.286  1.00  0.00    -0.203 F 
ATOM     68  C   UNL A   1      37.640  28.931  30.335  1.00  0.00     0.198 A 
ATOM     69  C   UNL A   1      37.560  29.579  28.026  1.00  0.00     0.198 A 
ATOM     70  F   UNL A   1      39.500  29.459  26.700  1.00  0.00    -0.203 F 
ATOM     71  F   UNL A   1      37.021  28.729  31.507  1.00  0.00    -0.200 F 
ATOM     72  C   UNL A   1      36.923  29.396  29.244  1.00  0.00     0.200 A 
ATOM     73  F   UNL A   1      36.870  30.041  26.974  1.00  0.00    -0.200 F 
ATOM     74  F   UNL A   1      35.615  29.661  29.364  1.00  0.00    -0.200 F 
ENDBRANCH  50  64
BRANCH  51  75
ATOM     75  C   UNL A   1      49.304  26.642  27.723  1.00  0.00     0.064 A 
ATOM     76  C   UNL A   1      50.150  26.322  28.794  1.00  0.00     0.173 A 
ATOM     77  C   UNL A   1      49.861  26.677  26.437  1.00  0.00     0.173 A 
ATOM     78  F   UNL A   1      49.666  26.300  30.044  1.00  0.00    -0.203 F 
ATOM     79  C   UNL A   1      51.504  26.067  28.590  1.00  0.00     0.198 A 
ATOM     80  C   UNL A   1      51.211  26.397  26.230  1.00  0.00     0.198 A 
ATOM     81  F   UNL A   1      49.093  26.976  25.379  1.00  0.00    -0.203 F 
ATOM     82  F   UNL A   1      52.300  25.808  29.635  1.00  0.00    -0.200 F 
ATOM     83  C   UNL A   1      52.032  26.100  27.308  1.00  0.00     0.200 A 
ATOM     84  F   UNL A   1      51.716  26.418  24.989  1.00  0.00    -0.200 F 
ATOM     85  F   UNL A   1      53.335  25.852  27.112  1.00  0.00    -0.200 F 
ENDBRANCH  51  75
BRANCH  63  86
ATOM     86  C   UNL A   1      45.878  32.403  29.614  1.00  0.00     0.064 A 
ATOM     87  C   UNL A   1      46.005  33.426  28.664  1.00  0.00     0.173 A 
ATOM     88  C   UNL A   1      46.148  32.710  30.956  1.00  0.00     0.173 A 
ATOM     89  F   UNL A   1      45.770  33.177  27.367  1.00  0.00    -0.203 F 
ATOM     90  C   UNL A   1      46.405  34.706  29.042  1.00  0.00     0.198 A 
ATOM     91  C   UNL A   1      46.526  33.995  31.333  1.00  0.00     0.198 A 
ATOM     92  F   UNL A   1      46.036  31.765  31.901  1.00  0.00    -0.203 F 
ATOM     93  F   UNL A   1      46.557  35.660  28.113  1.00  0.00    -0.200 F 
ATOM     94  C   UNL A   1      46.659  34.991  30.376  1.00  0.00     0.200 A 
ATOM     95  F   UNL A   1      46.761  34.272  32.623  1.00  0.00    -0.200 F 
ATOM     96  F   UNL A   1      47.038  36.224  30.739  1.00  0.00    -0.200 F 
ENDBRANCH  63  86
ENDBRANCH  37  38
ENDBRANCH  29  32
ENDBRANCH  27  28
ENDBRANCH   1  27
TORSDOF 13
ENDMDL
