MODEL 1
REMARK VINA RESULT:     -12.4      0.000      0.000
REMARK SMILES O=C(CC1(Nc2nc(C3CC3)ns2)CCC1)NCCCNC(=O)c1ccc(-c2c3nc(c(-c4c(F)c(F)c(F)c(F)c4F)c4ccc([nH]4)c(-c4c(F)c(F)c(F)c(F)c4F)c4nc(c(-c5c(F)c(F)c(F)c(F)c5F)c5ccc2[nH]5)C=C4)C=C3)cc1
REMARK SMILES IDX 18 1 17 2 1 3 2 4 3 6 4 7 14 8 16 9 15 10 5 11 6 13 7 14
REMARK SMILES IDX 13 15 8 16 12 17 9 18 10 19 11 20 19 21 20 22 21 23 22 24
REMARK SMILES IDX 23 26 24 27 25 28 86 29 26 30 85 31 27 32 28 33 29 34 79 35
REMARK SMILES IDX 30 36 84 37 78 38 80 39 31 40 83 41 77 42 76 43 32 45 64 46
REMARK SMILES IDX 44 47 63 48 45 49 48 50 62 51 81 52 46 53 47 54 61 56 82 57
REMARK SMILES IDX 49 58 33 59 34 60 42 61 35 62 36 63 40 64 43 65 37 66 38 67
REMARK SMILES IDX 41 68 39 69 65 70 66 71 74 72 67 73 68 74 72 75 75 76 69 77
REMARK SMILES IDX 70 78 73 79 71 80 50 81 51 82 59 83 52 84 53 85 57 86 60 87
REMARK SMILES IDX 54 88 55 89 58 90 56 91
REMARK H PARENT 17 5 5 12 21 25 80 44 48 55
REMARK Flexibility Score: inf
ROOT
ATOM      1  C   UNL A   1      38.715  21.800  25.857  1.00  0.00     0.117 C 
ENDROOT
BRANCH   1   2
ATOM      2  N   UNL A   1      37.230  22.076  25.251  1.00  0.00    -0.356 N 
ATOM      3  O   UNL A   1      36.624  23.070  22.474  1.00  0.00    -0.275 OA
ATOM      4  C   UNL A   1      36.229  22.667  23.620  1.00  0.00     0.222 C 
ATOM      5  H   UNL A   1      36.572  21.876  25.956  1.00  0.00     0.163 HD
BRANCH   4   6
ATOM      6  C   UNL A   1      34.472  22.643  23.486  1.00  0.00     0.128 C 
BRANCH   6   7
ATOM      7  C   UNL A   1      33.753  21.783  24.548  1.00  0.00     0.048 C 
ATOM      8  C   UNL A   1      32.425  21.117  24.099  1.00  0.00     0.029 C 
ATOM      9  C   UNL A   1      34.251  20.345  24.893  1.00  0.00     0.029 C 
ATOM     10  C   UNL A   1      32.765  19.934  25.027  1.00  0.00     0.005 C 
BRANCH   7  11
ATOM     11  N   UNL A   1      33.595  22.562  25.740  1.00  0.00    -0.354 N 
ATOM     12  H   UNL A   1      33.963  22.337  26.625  1.00  0.00     0.163 HD
BRANCH  11  13
ATOM     13  C   UNL A   1      32.860  23.650  25.451  1.00  0.00     0.203 A 
ATOM     14  N   UNL A   1      33.480  25.238  25.495  1.00  0.00    -0.203 NA
ATOM     15  S   UNL A   1      30.692  23.613  26.323  1.00  0.00     0.004 S 
ATOM     16  C   UNL A   1      32.317  26.544  26.216  1.00  0.00     0.147 A 
ATOM     17  N   UNL A   1      30.799  25.927  26.666  1.00  0.00    -0.174 NA
BRANCH  16  18
ATOM     18  C   UNL A   1      32.641  28.031  26.220  1.00  0.00     0.059 C 
ATOM     19  C   UNL A   1      32.431  28.847  27.477  1.00  0.00     0.012 C 
ATOM     20  C   UNL A   1      33.816  28.532  27.041  1.00  0.00     0.012 C 
ENDBRANCH  16  18
ENDBRANCH  11  13
ENDBRANCH   7  11
ENDBRANCH   6   7
ENDBRANCH   4   6
ENDBRANCH   1   2
BRANCH   1  21
ATOM     21  C   UNL A   1      39.312  20.486  25.356  1.00  0.00     0.042 C 
BRANCH  21  22
ATOM     22  C   UNL A   1      39.930  19.613  26.436  1.00  0.00     0.118 C 
BRANCH  22  23
ATOM     23  N   UNL A   1      41.060  18.828  25.978  1.00  0.00    -0.352 N 
ATOM     24  C   UNL A   1      42.360  19.245  25.841  1.00  0.00     0.251 C 
ATOM     25  H   UNL A   1      40.873  17.891  25.739  1.00  0.00     0.163 HD
ATOM     26  O   UNL A   1      43.208  18.525  25.328  1.00  0.00    -0.269 OA
BRANCH  24  27
ATOM     27  C   UNL A   1      42.714  20.604  26.298  1.00  0.00     0.039 A 
ATOM     28  C   UNL A   1      43.039  21.567  25.345  1.00  0.00     0.014 A 
ATOM     29  C   UNL A   1      42.663  20.931  27.658  1.00  0.00     0.014 A 
ATOM     30  C   UNL A   1      43.297  22.875  25.756  1.00  0.00     0.010 A 
ATOM     31  C   UNL A   1      42.838  22.254  28.055  1.00  0.00     0.010 A 
ATOM     32  C   UNL A   1      43.187  23.233  27.111  1.00  0.00    -0.014 A 
BRANCH  32  33
ATOM     33  C   UNL A   1      43.501  24.618  27.549  1.00  0.00     0.031 A 
ATOM     34  C   UNL A   1      44.933  25.076  27.614  1.00  0.00     0.074 A 
ATOM     35  C   UNL A   1      42.507  25.465  27.883  1.00  0.00     0.049 A 
ATOM     36  N   UNL A   1      45.416  26.247  27.946  1.00  0.00    -0.248 NA
ATOM     37  C   UNL A   1      45.964  24.079  27.281  1.00  0.00     0.031 C 
ATOM     38  C   UNL A   1      41.082  25.132  27.895  1.00  0.00     0.029 A 
ATOM     39  N   UNL A   1      42.545  26.782  28.268  1.00  0.00    -0.354 N 
ATOM     40  C   UNL A   1      46.796  26.123  27.866  1.00  0.00     0.074 A 
ATOM     41  C   UNL A   1      47.080  24.748  27.523  1.00  0.00     0.031 C 
ATOM     42  C   UNL A   1      40.379  26.225  28.234  1.00  0.00     0.029 A 
ATOM     43  C   UNL A   1      41.304  27.324  28.502  1.00  0.00     0.049 A 
ATOM     44  H   UNL A   1      43.381  27.289  28.368  1.00  0.00     0.167 HD
ATOM     45  C   UNL A   1      47.744  27.077  28.031  1.00  0.00     0.037 A 
ATOM     46  C   UNL A   1      40.953  28.566  28.889  1.00  0.00     0.037 A 
ATOM     47  C   UNL A   1      47.459  28.449  28.356  1.00  0.00     0.049 A 
ATOM     48  C   UNL A   1      42.029  29.600  29.099  1.00  0.00     0.074 A 
ATOM     49  C   UNL A   1      48.343  29.503  28.497  1.00  0.00     0.029 A 
ATOM     50  N   UNL A   1      46.190  28.956  28.599  1.00  0.00    -0.354 N 
ATOM     51  N   UNL A   1      43.326  29.491  28.946  1.00  0.00    -0.248 NA
ATOM     52  C   UNL A   1      41.588  30.935  29.528  1.00  0.00     0.031 C 
ATOM     53  C   UNL A   1      47.618  30.632  28.891  1.00  0.00     0.029 A 
ATOM     54  C   UNL A   1      46.273  30.301  28.923  1.00  0.00     0.049 A 
ATOM     55  H   UNL A   1      45.355  28.438  28.549  1.00  0.00     0.167 HD
ATOM     56  C   UNL A   1      43.852  30.745  29.228  1.00  0.00     0.074 A 
ATOM     57  C   UNL A   1      42.732  31.605  29.543  1.00  0.00     0.031 C 
ATOM     58  C   UNL A   1      45.148  31.148  29.226  1.00  0.00     0.037 A 
BRANCH  45  59
ATOM     59  C   UNL A   1      49.180  26.666  27.868  1.00  0.00     0.064 A 
ATOM     60  C   UNL A   1      49.777  26.548  26.603  1.00  0.00     0.173 A 
ATOM     61  C   UNL A   1      49.980  26.417  28.994  1.00  0.00     0.173 A 
ATOM     62  F   UNL A   1      49.055  26.764  25.492  1.00  0.00    -0.203 F 
ATOM     63  C   UNL A   1      51.109  26.164  26.470  1.00  0.00     0.198 A 
ATOM     64  C   UNL A   1      51.322  26.069  28.858  1.00  0.00     0.198 A 
ATOM     65  F   UNL A   1      49.464  26.520  30.228  1.00  0.00    -0.203 F 
ATOM     66  F   UNL A   1      51.639  26.003  25.250  1.00  0.00    -0.200 F 
ATOM     67  C   UNL A   1      51.882  25.934  27.597  1.00  0.00     0.200 A 
ATOM     68  F   UNL A   1      52.071  25.863  29.949  1.00  0.00    -0.200 F 
ATOM     69  F   UNL A   1      53.166  25.573  27.469  1.00  0.00    -0.200 F 
ENDBRANCH  45  59
BRANCH  46  70
ATOM     70  C   UNL A   1      39.520  28.909  29.091  1.00  0.00     0.064 A 
ATOM     71  C   UNL A   1      38.726  29.366  28.029  1.00  0.00     0.173 A 
ATOM     72  C   UNL A   1      38.919  28.808  30.354  1.00  0.00     0.173 A 
ATOM     73  F   UNL A   1      39.259  29.501  26.805  1.00  0.00    -0.203 F 
ATOM     74  C   UNL A   1      37.398  29.736  28.228  1.00  0.00     0.198 A 
ATOM     75  C   UNL A   1      37.580  29.145  30.545  1.00  0.00     0.198 A 
ATOM     76  F   UNL A   1      39.630  28.372  31.404  1.00  0.00    -0.203 F 
ATOM     77  F   UNL A   1      36.679  30.225  27.207  1.00  0.00    -0.200 F 
ATOM     78  C   UNL A   1      36.824  29.619  29.485  1.00  0.00     0.200 A 
ATOM     79  F   UNL A   1      37.026  29.014  31.759  1.00  0.00    -0.200 F 
ATOM     80  F   UNL A   1      35.545  29.973  29.677  1.00  0.00    -0.200 F 
ENDBRANCH  46  70
BRANCH  58  81
ATOM     81  C   UNL A   1      45.425  32.594  29.535  1.00  0.00     0.064 A 
ATOM     82  C   UNL A   1      45.714  33.032  30.835  1.00  0.00     0.173 A 
ATOM     83  C   UNL A   1      45.445  33.545  28.502  1.00  0.00     0.173 A 
ATOM     84  F   UNL A   1      45.697  32.167  31.860  1.00  0.00    -0.203 F 
ATOM     85  C   UNL A   1      45.982  34.374  31.096  1.00  0.00     0.198 A 
ATOM     86  C   UNL A   1      45.751  34.879  28.761  1.00  0.00     0.198 A 
ATOM     87  F   UNL A   1      45.185  33.179  27.239  1.00  0.00    -0.203 F 
ATOM     88  F   UNL A   1      46.201  34.779  32.354  1.00  0.00    -0.200 F 
ATOM     89  C   UNL A   1      46.009  35.293  30.058  1.00  0.00     0.200 A 
ATOM     90  F   UNL A   1      45.795  35.761  27.754  1.00  0.00    -0.200 F 
ATOM     91  F   UNL A   1      46.278  36.582  30.309  1.00  0.00    -0.200 F 
ENDBRANCH  58  81
ENDBRANCH  32  33
ENDBRANCH  24  27
ENDBRANCH  22  23
ENDBRANCH  21  22
ENDBRANCH   1  21
TORSDOF 14
ENDMDL
MODEL 2
REMARK VINA RESULT:     -12.3      5.759     10.927
REMARK SMILES O=C(CC1(Nc2nc(C3CC3)ns2)CCC1)NCCCNC(=O)c1ccc(-c2c3nc(c(-c4c(F)c(F)c(F)c(F)c4F)c4ccc([nH]4)c(-c4c(F)c(F)c(F)c(F)c4F)c4nc(c(-c5c(F)c(F)c(F)c(F)c5F)c5ccc2[nH]5)C=C4)C=C3)cc1
REMARK SMILES IDX 18 1 17 2 1 3 2 4 3 6 4 7 14 8 16 9 15 10 5 11 6 13 7 14
REMARK SMILES IDX 13 15 8 16 12 17 9 18 10 19 11 20 19 21 20 22 21 23 22 24
REMARK SMILES IDX 23 26 24 27 25 28 86 29 26 30 85 31 27 32 28 33 29 34 79 35
REMARK SMILES IDX 30 36 84 37 78 38 80 39 31 40 83 41 77 42 76 43 32 45 64 46
REMARK SMILES IDX 44 47 63 48 45 49 48 50 62 51 81 52 46 53 47 54 61 56 82 57
REMARK SMILES IDX 49 58 33 59 34 60 42 61 35 62 36 63 40 64 43 65 37 66 38 67
REMARK SMILES IDX 41 68 39 69 65 70 66 71 74 72 67 73 68 74 72 75 75 76 69 77
REMARK SMILES IDX 70 78 73 79 71 80 50 81 51 82 59 83 52 84 53 85 57 86 60 87
REMARK SMILES IDX 54 88 55 89 58 90 56 91
REMARK H PARENT 17 5 5 12 21 25 80 44 48 55
REMARK Flexibility Score: inf
ROOT
ATOM      1  C   UNL A   1      31.159  31.496  26.660  1.00  0.00     0.117 C 
ENDROOT
BRANCH   1   2
ATOM      2  N   UNL A   1      31.659  30.544  25.439  1.00  0.00    -0.356 N 
ATOM      3  O   UNL A   1      34.094  28.771  25.479  1.00  0.00    -0.275 OA
ATOM      4  C   UNL A   1      33.058  29.222  24.883  1.00  0.00     0.222 C 
ATOM      5  H   UNL A   1      31.038  30.663  24.685  1.00  0.00     0.163 HD
BRANCH   4   6
ATOM      6  C   UNL A   1      33.019  28.337  23.359  1.00  0.00     0.128 C 
BRANCH   6   7
ATOM      7  C   UNL A   1      32.117  27.083  23.361  1.00  0.00     0.048 C 
ATOM      8  C   UNL A   1      31.713  26.535  21.966  1.00  0.00     0.029 C 
ATOM      9  C   UNL A   1      32.706  25.667  23.645  1.00  0.00     0.029 C 
ATOM     10  C   UNL A   1      31.732  25.119  22.575  1.00  0.00     0.005 C 
BRANCH   7  11
ATOM     11  N   UNL A   1      30.981  27.335  24.196  1.00  0.00    -0.354 N 
ATOM     12  H   UNL A   1      30.926  27.143  25.160  1.00  0.00     0.163 HD
BRANCH  11  13
ATOM     13  C   UNL A   1      30.005  27.875  23.447  1.00  0.00     0.203 A 
ATOM     14  N   UNL A   1      29.831  29.554  23.204  1.00  0.00    -0.203 NA
ATOM     15  S   UNL A   1      27.907  26.888  23.733  1.00  0.00     0.004 S 
ATOM     16  C   UNL A   1      28.053  30.198  23.227  1.00  0.00     0.147 A 
ATOM     17  N   UNL A   1      26.891  28.977  23.441  1.00  0.00    -0.174 NA
BRANCH  16  18
ATOM     18  C   UNL A   1      27.689  31.641  22.902  1.00  0.00     0.059 C 
ATOM     19  C   UNL A   1      28.742  32.724  22.992  1.00  0.00     0.012 C 
ATOM     20  C   UNL A   1      28.265  32.287  21.654  1.00  0.00     0.012 C 
ENDBRANCH  16  18
ENDBRANCH  11  13
ENDBRANCH   7  11
ENDBRANCH   6   7
ENDBRANCH   4   6
ENDBRANCH   1   2
BRANCH   1  21
ATOM     21  C   UNL A   1      31.621  32.942  26.497  1.00  0.00     0.042 C 
BRANCH  21  22
ATOM     22  C   UNL A   1      32.668  33.396  27.501  1.00  0.00     0.118 C 
BRANCH  22  23
ATOM     23  N   UNL A   1      32.451  34.737  28.007  1.00  0.00    -0.352 N 
ATOM     24  C   UNL A   1      33.154  35.376  28.997  1.00  0.00     0.251 C 
ATOM     25  H   UNL A   1      31.717  35.247  27.593  1.00  0.00     0.163 HD
ATOM     26  O   UNL A   1      32.801  36.468  29.425  1.00  0.00    -0.269 OA
BRANCH  24  27
ATOM     27  C   UNL A   1      34.338  34.700  29.566  1.00  0.00     0.039 A 
ATOM     28  C   UNL A   1      34.191  33.973  30.745  1.00  0.00     0.014 A 
ATOM     29  C   UNL A   1      35.567  34.740  28.899  1.00  0.00     0.014 A 
ATOM     30  C   UNL A   1      35.280  33.264  31.251  1.00  0.00     0.010 A 
ATOM     31  C   UNL A   1      36.627  33.965  29.360  1.00  0.00     0.010 A 
ATOM     32  C   UNL A   1      36.503  33.242  30.558  1.00  0.00    -0.014 A 
BRANCH  32  33
ATOM     33  C   UNL A   1      37.673  32.518  31.120  1.00  0.00     0.031 A 
ATOM     34  C   UNL A   1      38.185  32.872  32.490  1.00  0.00     0.074 A 
ATOM     35  C   UNL A   1      38.270  31.542  30.409  1.00  0.00     0.049 A 
ATOM     36  N   UNL A   1      39.173  32.346  33.168  1.00  0.00    -0.248 NA
ATOM     37  C   UNL A   1      37.510  33.982  33.183  1.00  0.00     0.031 C 
ATOM     38  C   UNL A   1      37.891  31.128  29.057  1.00  0.00     0.029 A 
ATOM     39  N   UNL A   1      39.319  30.715  30.729  1.00  0.00    -0.354 N 
ATOM     40  C   UNL A   1      39.239  33.060  34.357  1.00  0.00     0.074 A 
ATOM     41  C   UNL A   1      38.239  34.102  34.282  1.00  0.00     0.031 C 
ATOM     42  C   UNL A   1      38.671  30.102  28.678  1.00  0.00     0.029 A 
ATOM     43  C   UNL A   1      39.631  29.812  29.741  1.00  0.00     0.049 A 
ATOM     44  H   UNL A   1      39.802  30.765  31.584  1.00  0.00     0.167 HD
ATOM     45  C   UNL A   1      40.036  32.848  35.430  1.00  0.00     0.037 A 
ATOM     46  C   UNL A   1      40.583  28.861  29.698  1.00  0.00     0.037 A 
ATOM     47  C   UNL A   1      41.019  31.801  35.510  1.00  0.00     0.049 A 
ATOM     48  C   UNL A   1      41.482  28.667  30.893  1.00  0.00     0.074 A 
ATOM     49  C   UNL A   1      41.844  31.472  36.570  1.00  0.00     0.029 A 
ATOM     50  N   UNL A   1      41.316  30.916  34.483  1.00  0.00    -0.354 N 
ATOM     51  N   UNL A   1      41.483  29.299  32.041  1.00  0.00    -0.248 NA
ATOM     52  C   UNL A   1      42.507  27.620  30.786  1.00  0.00     0.031 C 
ATOM     53  C   UNL A   1      42.686  30.433  36.163  1.00  0.00     0.029 A 
ATOM     54  C   UNL A   1      42.336  30.063  34.874  1.00  0.00     0.049 A 
ATOM     55  H   UNL A   1      40.868  30.897  33.607  1.00  0.00     0.167 HD
ATOM     56  C   UNL A   1      42.482  28.708  32.803  1.00  0.00     0.074 A 
ATOM     57  C   UNL A   1      43.054  27.654  31.993  1.00  0.00     0.031 C 
ATOM     58  C   UNL A   1      42.890  29.012  34.061  1.00  0.00     0.037 A 
BRANCH  45  59
ATOM     59  C   UNL A   1      39.883  33.773  36.604  1.00  0.00     0.064 A 
ATOM     60  C   UNL A   1      38.989  33.499  37.652  1.00  0.00     0.173 A 
ATOM     61  C   UNL A   1      40.663  34.936  36.700  1.00  0.00     0.173 A 
ATOM     62  F   UNL A   1      38.210  32.407  37.606  1.00  0.00    -0.203 F 
ATOM     63  C   UNL A   1      38.858  34.368  38.731  1.00  0.00     0.198 A 
ATOM     64  C   UNL A   1      40.557  35.784  37.800  1.00  0.00     0.198 A 
ATOM     65  F   UNL A   1      41.539  35.246  35.732  1.00  0.00    -0.203 F 
ATOM     66  F   UNL A   1      37.956  34.112  39.689  1.00  0.00    -0.200 F 
ATOM     67  C   UNL A   1      39.648  35.504  38.809  1.00  0.00     0.200 A 
ATOM     68  F   UNL A   1      41.333  36.873  37.881  1.00  0.00    -0.200 F 
ATOM     69  F   UNL A   1      39.528  36.336  39.852  1.00  0.00    -0.200 F 
ENDBRANCH  45  59
BRANCH  46  70
ATOM     70  C   UNL A   1      40.732  28.005  28.490  1.00  0.00     0.064 A 
ATOM     71  C   UNL A   1      40.101  26.757  28.401  1.00  0.00     0.173 A 
ATOM     72  C   UNL A   1      41.525  28.409  27.406  1.00  0.00     0.173 A 
ATOM     73  F   UNL A   1      39.347  26.314  29.420  1.00  0.00    -0.203 F 
ATOM     74  C   UNL A   1      40.280  25.934  27.292  1.00  0.00     0.198 A 
ATOM     75  C   UNL A   1      41.676  27.601  26.281  1.00  0.00     0.198 A 
ATOM     76  F   UNL A   1      42.149  29.596  27.435  1.00  0.00    -0.203 F 
ATOM     77  F   UNL A   1      39.711  24.720  27.260  1.00  0.00    -0.200 F 
ATOM     78  C   UNL A   1      41.063  26.359  26.230  1.00  0.00     0.200 A 
ATOM     79  F   UNL A   1      42.421  28.024  25.250  1.00  0.00    -0.200 F 
ATOM     80  F   UNL A   1      41.235  25.568  25.161  1.00  0.00    -0.200 F 
ENDBRANCH  46  70
BRANCH  58  81
ATOM     81  C   UNL A   1      43.981  28.167  34.659  1.00  0.00     0.064 A 
ATOM     82  C   UNL A   1      43.707  26.960  35.319  1.00  0.00     0.173 A 
ATOM     83  C   UNL A   1      45.325  28.552  34.527  1.00  0.00     0.173 A 
ATOM     84  F   UNL A   1      42.440  26.552  35.483  1.00  0.00    -0.203 F 
ATOM     85  C   UNL A   1      44.735  26.187  35.853  1.00  0.00     0.198 A 
ATOM     86  C   UNL A   1      46.352  27.756  35.028  1.00  0.00     0.198 A 
ATOM     87  F   UNL A   1      45.645  29.691  33.897  1.00  0.00    -0.203 F 
ATOM     88  F   UNL A   1      44.445  25.065  36.528  1.00  0.00    -0.200 F 
ATOM     89  C   UNL A   1      46.055  26.580  35.699  1.00  0.00     0.200 A 
ATOM     90  F   UNL A   1      47.628  28.129  34.862  1.00  0.00    -0.200 F 
ATOM     91  F   UNL A   1      47.044  25.828  36.204  1.00  0.00    -0.200 F 
ENDBRANCH  58  81
ENDBRANCH  32  33
ENDBRANCH  24  27
ENDBRANCH  22  23
ENDBRANCH  21  22
ENDBRANCH   1  21
TORSDOF 14
ENDMDL
MODEL 3
REMARK VINA RESULT:     -12.3      0.732      1.802
REMARK SMILES O=C(CC1(Nc2nc(C3CC3)ns2)CCC1)NCCCNC(=O)c1ccc(-c2c3nc(c(-c4c(F)c(F)c(F)c(F)c4F)c4ccc([nH]4)c(-c4c(F)c(F)c(F)c(F)c4F)c4nc(c(-c5c(F)c(F)c(F)c(F)c5F)c5ccc2[nH]5)C=C4)C=C3)cc1
REMARK SMILES IDX 18 1 17 2 1 3 2 4 3 6 4 7 14 8 16 9 15 10 5 11 6 13 7 14
REMARK SMILES IDX 13 15 8 16 12 17 9 18 10 19 11 20 19 21 20 22 21 23 22 24
REMARK SMILES IDX 23 26 24 27 25 28 86 29 26 30 85 31 27 32 28 33 29 34 79 35
REMARK SMILES IDX 30 36 84 37 78 38 80 39 31 40 83 41 77 42 76 43 32 45 64 46
REMARK SMILES IDX 44 47 63 48 45 49 48 50 62 51 81 52 46 53 47 54 61 56 82 57
REMARK SMILES IDX 49 58 33 59 34 60 42 61 35 62 36 63 40 64 43 65 37 66 38 67
REMARK SMILES IDX 41 68 39 69 65 70 66 71 74 72 67 73 68 74 72 75 75 76 69 77
REMARK SMILES IDX 70 78 73 79 71 80 50 81 51 82 59 83 52 84 53 85 57 86 60 87
REMARK SMILES IDX 54 88 55 89 58 90 56 91
REMARK H PARENT 17 5 5 12 21 25 80 44 48 55
REMARK Flexibility Score: inf
ROOT
ATOM      1  C   UNL A   1      38.733  21.806  25.801  1.00  0.00     0.117 C 
ENDROOT
BRANCH   1   2
ATOM      2  N   UNL A   1      37.239  22.091  25.225  1.00  0.00    -0.356 N 
ATOM      3  O   UNL A   1      36.578  22.976  22.423  1.00  0.00    -0.275 OA
ATOM      4  C   UNL A   1      36.206  22.634  23.596  1.00  0.00     0.222 C 
ATOM      5  H   UNL A   1      36.597  21.939  25.955  1.00  0.00     0.163 HD
BRANCH   4   6
ATOM      6  C   UNL A   1      34.446  22.647  23.511  1.00  0.00     0.128 C 
BRANCH   6   7
ATOM      7  C   UNL A   1      33.744  21.654  24.464  1.00  0.00     0.048 C 
ATOM      8  C   UNL A   1      32.525  20.893  23.875  1.00  0.00     0.029 C 
ATOM      9  C   UNL A   1      34.359  20.252  24.762  1.00  0.00     0.029 C 
ATOM     10  C   UNL A   1      32.917  19.691  24.757  1.00  0.00     0.005 C 
BRANCH   7  11
ATOM     11  N   UNL A   1      33.423  22.335  25.682  1.00  0.00    -0.354 N 
ATOM     12  H   UNL A   1      33.803  22.135  26.567  1.00  0.00     0.163 HD
BRANCH  11  13
ATOM     13  C   UNL A   1      32.516  23.292  25.417  1.00  0.00     0.203 A 
ATOM     14  N   UNL A   1      32.852  24.959  25.536  1.00  0.00    -0.203 NA
ATOM     15  S   UNL A   1      30.373  22.848  26.235  1.00  0.00     0.004 S 
ATOM     16  C   UNL A   1      31.469  26.015  26.278  1.00  0.00     0.147 A 
ATOM     17  N   UNL A   1      30.073  25.129  26.667  1.00  0.00    -0.174 NA
BRANCH  16  18
ATOM     18  C   UNL A   1      31.532  27.535  26.346  1.00  0.00     0.059 C 
ATOM     19  C   UNL A   1      31.585  28.230  27.690  1.00  0.00     0.012 C 
ATOM     20  C   UNL A   1      32.803  28.203  26.839  1.00  0.00     0.012 C 
ENDBRANCH  16  18
ENDBRANCH  11  13
ENDBRANCH   7  11
ENDBRANCH   6   7
ENDBRANCH   4   6
ENDBRANCH   1   2
BRANCH   1  21
ATOM     21  C   UNL A   1      39.263  20.434  25.391  1.00  0.00     0.042 C 
BRANCH  21  22
ATOM     22  C   UNL A   1      39.939  19.650  26.504  1.00  0.00     0.118 C 
BRANCH  22  23
ATOM     23  N   UNL A   1      41.054  18.838  26.055  1.00  0.00    -0.352 N 
ATOM     24  C   UNL A   1      42.353  19.240  25.872  1.00  0.00     0.251 C 
ATOM     25  H   UNL A   1      40.856  17.894  25.860  1.00  0.00     0.163 HD
ATOM     26  O   UNL A   1      43.185  18.493  25.371  1.00  0.00    -0.269 OA
BRANCH  24  27
ATOM     27  C   UNL A   1      42.725  20.615  26.263  1.00  0.00     0.039 A 
ATOM     28  C   UNL A   1      42.944  21.559  25.263  1.00  0.00     0.014 A 
ATOM     29  C   UNL A   1      42.795  20.974  27.614  1.00  0.00     0.014 A 
ATOM     30  C   UNL A   1      43.217  22.880  25.618  1.00  0.00     0.010 A 
ATOM     31  C   UNL A   1      42.985  22.308  27.963  1.00  0.00     0.010 A 
ATOM     32  C   UNL A   1      43.228  23.269  26.969  1.00  0.00    -0.014 A 
BRANCH  32  33
ATOM     33  C   UNL A   1      43.558  24.668  27.345  1.00  0.00     0.031 A 
ATOM     34  C   UNL A   1      44.961  25.181  27.162  1.00  0.00     0.074 A 
ATOM     35  C   UNL A   1      42.604  25.479  27.843  1.00  0.00     0.049 A 
ATOM     36  N   UNL A   1      45.448  26.372  27.405  1.00  0.00    -0.248 NA
ATOM     37  C   UNL A   1      45.958  24.221  26.659  1.00  0.00     0.031 C 
ATOM     38  C   UNL A   1      41.216  25.092  28.101  1.00  0.00     0.029 A 
ATOM     39  N   UNL A   1      42.656  26.800  28.215  1.00  0.00    -0.354 N 
ATOM     40  C   UNL A   1      46.798  26.301  27.090  1.00  0.00     0.074 A 
ATOM     41  C   UNL A   1      47.072  24.935  26.705  1.00  0.00     0.031 C 
ATOM     42  C   UNL A   1      40.540  26.161  28.553  1.00  0.00     0.029 A 
ATOM     43  C   UNL A   1      41.453  27.296  28.657  1.00  0.00     0.049 A 
ATOM     44  H   UNL A   1      43.477  27.340  28.169  1.00  0.00     0.167 HD
ATOM     45  C   UNL A   1      47.722  27.291  27.088  1.00  0.00     0.037 A 
ATOM     46  C   UNL A   1      41.126  28.527  29.097  1.00  0.00     0.037 A 
ATOM     47  C   UNL A   1      47.443  28.654  27.455  1.00  0.00     0.049 A 
ATOM     48  C   UNL A   1      42.181  29.603  29.117  1.00  0.00     0.074 A 
ATOM     49  C   UNL A   1      48.297  29.742  27.441  1.00  0.00     0.029 A 
ATOM     50  N   UNL A   1      46.216  29.114  27.912  1.00  0.00    -0.354 N 
ATOM     51  N   UNL A   1      43.436  29.542  28.745  1.00  0.00    -0.248 NA
ATOM     52  C   UNL A   1      41.769  30.924  29.614  1.00  0.00     0.031 C 
ATOM     53  C   UNL A   1      47.607  30.845  27.952  1.00  0.00     0.029 A 
ATOM     54  C   UNL A   1      46.302  30.464  28.215  1.00  0.00     0.049 A 
ATOM     55  H   UNL A   1      45.406  28.564  28.006  1.00  0.00     0.167 HD
ATOM     56  C   UNL A   1      43.954  30.818  28.930  1.00  0.00     0.074 A 
ATOM     57  C   UNL A   1      42.871  31.637  29.431  1.00  0.00     0.031 C 
ATOM     58  C   UNL A   1      45.213  31.270  28.706  1.00  0.00     0.037 A 
BRANCH  45  59
ATOM     59  C   UNL A   1      49.123  26.934  26.682  1.00  0.00     0.064 A 
ATOM     60  C   UNL A   1      50.075  26.492  27.615  1.00  0.00     0.173 A 
ATOM     61  C   UNL A   1      49.513  27.004  25.335  1.00  0.00     0.173 A 
ATOM     62  F   UNL A   1      49.759  26.417  28.917  1.00  0.00    -0.203 F 
ATOM     63  C   UNL A   1      51.370  26.167  27.221  1.00  0.00     0.198 A 
ATOM     64  C   UNL A   1      50.798  26.642  24.940  1.00  0.00     0.198 A 
ATOM     65  F   UNL A   1      48.644  27.413  24.399  1.00  0.00    -0.203 F 
ATOM     66  F   UNL A   1      52.276  25.804  28.140  1.00  0.00    -0.200 F 
ATOM     67  C   UNL A   1      51.728  26.234  25.884  1.00  0.00     0.200 A 
ATOM     68  F   UNL A   1      51.138  26.692  23.645  1.00  0.00    -0.200 F 
ATOM     69  F   UNL A   1      52.972  25.913  25.505  1.00  0.00    -0.200 F 
ENDBRANCH  45  59
BRANCH  46  70
ATOM     70  C   UNL A   1      39.736  28.817  29.541  1.00  0.00     0.064 A 
ATOM     71  C   UNL A   1      39.322  28.547  30.853  1.00  0.00     0.173 A 
ATOM     72  C   UNL A   1      38.787  29.351  28.657  1.00  0.00     0.173 A 
ATOM     73  F   UNL A   1      40.186  28.016  31.732  1.00  0.00    -0.203 F 
ATOM     74  C   UNL A   1      38.007  28.772  31.255  1.00  0.00     0.198 A 
ATOM     75  C   UNL A   1      37.481  29.608  29.070  1.00  0.00     0.198 A 
ATOM     76  F   UNL A   1      39.130  29.632  27.392  1.00  0.00    -0.203 F 
ATOM     77  F   UNL A   1      37.624  28.450  32.499  1.00  0.00    -0.200 F 
ATOM     78  C   UNL A   1      37.089  29.308  30.364  1.00  0.00     0.200 A 
ATOM     79  F   UNL A   1      36.602  30.142  28.210  1.00  0.00    -0.200 F 
ATOM     80  F   UNL A   1      35.824  29.526  30.751  1.00  0.00    -0.200 F 
ENDBRANCH  46  70
BRANCH  58  81
ATOM     81  C   UNL A   1      45.482  32.727  28.960  1.00  0.00     0.064 A 
ATOM     82  C   UNL A   1      46.001  33.183  30.180  1.00  0.00     0.173 A 
ATOM     83  C   UNL A   1      45.259  33.674  27.947  1.00  0.00     0.173 A 
ATOM     84  F   UNL A   1      46.221  32.323  31.186  1.00  0.00    -0.203 F 
ATOM     85  C   UNL A   1      46.255  34.537  30.389  1.00  0.00     0.198 A 
ATOM     86  C   UNL A   1      45.552  35.021  28.146  1.00  0.00     0.198 A 
ATOM     87  F   UNL A   1      44.774  33.292  26.757  1.00  0.00    -0.203 F 
ATOM     88  F   UNL A   1      46.699  34.957  31.582  1.00  0.00    -0.200 F 
ATOM     89  C   UNL A   1      46.040  35.452  29.370  1.00  0.00     0.200 A 
ATOM     90  F   UNL A   1      45.361  35.900  27.153  1.00  0.00    -0.200 F 
ATOM     91  F   UNL A   1      46.297  36.752  29.569  1.00  0.00    -0.200 F 
ENDBRANCH  58  81
ENDBRANCH  32  33
ENDBRANCH  24  27
ENDBRANCH  22  23
ENDBRANCH  21  22
ENDBRANCH   1  21
TORSDOF 14
ENDMDL
