MODEL 1
REMARK VINA RESULT:     -12.9      0.000      0.000
REMARK SMILES CC(C)(C)NS(=O)(=O)c1csc(C(=O)Nc2ccccc2C(=O)NCCCNC(=O)c2ccc(-c3c4nc(c(-c5c(F)c(F)c(F)c(F)c5F)c5ccc([nH]5)c(-c5c(F)c(F)c(F)c(F)c5F)c5nc(c(-c6c(F)c(F)c(F)c(F)c6F)c6ccc3[nH]6)C=C5)C=C4)cc2)c1
REMARK SMILES IDX 22 1 23 2 24 3 21 5 16 6 17 7 18 8 20 9 19 10 15 11 13 12
REMARK SMILES IDX 14 13 12 15 9 16 10 17 94 18 11 19 6 20 7 21 8 22 5 23 2 25
REMARK SMILES IDX 1 26 3 27 4 28 25 29 26 30 27 31 28 32 29 33 30 35 31 36
REMARK SMILES IDX 32 37 93 38 33 39 92 40 34 41 35 42 36 43 86 44 37 45 91 46
REMARK SMILES IDX 85 47 87 48 38 49 90 50 84 51 83 52 39 54 71 55 51 56 70 57
REMARK SMILES IDX 52 58 55 59 69 60 88 61 53 62 54 63 68 65 89 66 56 67 40 68
REMARK SMILES IDX 41 69 49 70 42 71 43 72 47 73 50 74 44 75 45 76 48 77 46 78
REMARK SMILES IDX 72 79 73 80 81 81 74 82 75 83 79 84 82 85 76 86 77 87 80 88
REMARK SMILES IDX 78 89 57 90 58 91 66 92 59 93 60 94 64 95 67 96 61 97 62 98
REMARK SMILES IDX 65 99 63 100
REMARK H PARENT 24 4 15 14 5 24 28 34 87 53 55 64
REMARK Flexibility Score: inf
ROOT
ATOM      1  C   UNL A   1      33.091  27.681  25.047  1.00  0.00     0.253 C 
ATOM      2  O   UNL A   1      34.014  27.216  24.377  1.00  0.00    -0.269 OA
ATOM      3  N   UNL A   1      33.371  28.024  26.347  1.00  0.00    -0.352 N 
ATOM      4  H   UNL A   1      34.240  27.726  26.701  1.00  0.00     0.163 HD
ENDROOT
BRANCH   1   5
ATOM      5  C   UNL A   1      31.716  27.762  24.441  1.00  0.00     0.063 A 
ATOM      6  C   UNL A   1      30.573  26.962  24.668  1.00  0.00     0.054 A 
ATOM      7  C   UNL A   1      29.481  27.090  23.780  1.00  0.00     0.027 A 
ATOM      8  C   UNL A   1      29.424  28.097  22.819  1.00  0.00     0.002 A 
ATOM      9  C   UNL A   1      31.616  28.802  23.485  1.00  0.00     0.016 A 
ATOM     10  C   UNL A   1      30.477  28.986  22.700  1.00  0.00     0.001 A 
BRANCH   6  11
ATOM     11  N   UNL A   1      30.306  26.024  25.696  1.00  0.00    -0.321 N 
ATOM     12  C   UNL A   1      30.625  24.705  25.963  1.00  0.00     0.265 C 
ATOM     13  O   UNL A   1      29.963  24.201  26.876  1.00  0.00    -0.268 OA
ATOM     14  H   UNL A   1      29.749  26.414  26.407  1.00  0.00     0.170 HD
BRANCH  12  15
ATOM     15  C   UNL A   1      31.714  24.004  25.302  1.00  0.00     0.094 A 
ATOM     16  C   UNL A   1      33.421  22.475  25.136  1.00  0.00     0.093 A 
ATOM     17  C   UNL A   1      32.793  22.241  23.937  1.00  0.00     0.087 A 
ATOM     18  C   UNL A   1      32.968  23.664  25.750  1.00  0.00     0.047 A 
ATOM     19  S   UNL A   1      31.462  23.312  23.740  1.00  0.00    -0.137 S 
BRANCH  16  20
ATOM     20  S   UNL A   1      34.525  21.443  25.963  1.00  0.00     0.241 S 
ATOM     21  O   UNL A   1      34.893  20.429  25.001  1.00  0.00    -0.207 OA
ATOM     22  O   UNL A   1      33.867  21.112  27.203  1.00  0.00    -0.207 OA
BRANCH  20  23
ATOM     23  N   UNL A   1      35.901  22.343  26.369  1.00  0.00    -0.206 NA
ATOM     24  H   UNL A   1      35.544  23.255  26.653  1.00  0.00     0.141 HD
BRANCH  23  25
ATOM     25  C   UNL A   1      37.073  22.642  25.486  1.00  0.00     0.025 C 
ATOM     26  C   UNL A   1      36.647  23.128  24.100  1.00  0.00     0.028 C 
ATOM     27  C   UNL A   1      38.053  21.472  25.383  1.00  0.00     0.028 C 
ATOM     28  C   UNL A   1      37.802  23.838  26.125  1.00  0.00     0.028 C 
ENDBRANCH  23  25
ENDBRANCH  20  23
ENDBRANCH  16  20
ENDBRANCH  12  15
ENDBRANCH   6  11
ENDBRANCH   1   5
BRANCH   3  29
ATOM     29  C   UNL A   1      32.539  28.767  27.245  1.00  0.00     0.118 C 
BRANCH  29  30
ATOM     30  C   UNL A   1      32.143  30.157  26.856  1.00  0.00     0.042 C 
BRANCH  30  31
ATOM     31  C   UNL A   1      33.202  31.188  27.195  1.00  0.00     0.118 C 
BRANCH  31  32
ATOM     32  N   UNL A   1      32.740  32.579  27.314  1.00  0.00    -0.352 N 
ATOM     33  C   UNL A   1      33.275  33.633  28.028  1.00  0.00     0.251 C 
ATOM     34  H   UNL A   1      31.923  32.792  26.807  1.00  0.00     0.163 HD
ATOM     35  O   UNL A   1      32.768  34.749  28.001  1.00  0.00    -0.269 OA
BRANCH  33  36
ATOM     36  C   UNL A   1      34.433  33.374  28.901  1.00  0.00     0.039 A 
ATOM     37  C   UNL A   1      34.229  32.760  30.137  1.00  0.00     0.014 A 
ATOM     38  C   UNL A   1      35.718  33.559  28.403  1.00  0.00     0.014 A 
ATOM     39  C   UNL A   1      35.317  32.195  30.800  1.00  0.00     0.010 A 
ATOM     40  C   UNL A   1      36.753  32.832  28.960  1.00  0.00     0.010 A 
ATOM     41  C   UNL A   1      36.573  32.152  30.174  1.00  0.00    -0.014 A 
BRANCH  41  42
ATOM     42  C   UNL A   1      37.729  31.435  30.769  1.00  0.00     0.031 A 
ATOM     43  C   UNL A   1      38.127  31.739  32.189  1.00  0.00     0.074 A 
ATOM     44  C   UNL A   1      38.463  30.587  30.020  1.00  0.00     0.049 A 
ATOM     45  N   UNL A   1      39.162  31.318  32.868  1.00  0.00    -0.248 NA
ATOM     46  C   UNL A   1      37.276  32.688  32.929  1.00  0.00     0.031 C 
ATOM     47  C   UNL A   1      38.225  30.266  28.611  1.00  0.00     0.029 A 
ATOM     48  N   UNL A   1      39.570  29.840  30.342  1.00  0.00    -0.354 N 
ATOM     49  C   UNL A   1      39.093  31.970  34.092  1.00  0.00     0.074 A 
ATOM     50  C   UNL A   1      37.981  32.885  34.031  1.00  0.00     0.031 C 
ATOM     51  C   UNL A   1      39.123  29.351  28.208  1.00  0.00     0.029 A 
ATOM     52  C   UNL A   1      40.031  29.058  29.311  1.00  0.00     0.049 A 
ATOM     53  H   UNL A   1      39.993  29.862  31.232  1.00  0.00     0.167 HD
ATOM     54  C   UNL A   1      39.857  31.785  35.194  1.00  0.00     0.037 A 
ATOM     55  C   UNL A   1      41.072  28.205  29.266  1.00  0.00     0.037 A 
ATOM     56  C   UNL A   1      40.932  30.836  35.266  1.00  0.00     0.049 A 
ATOM     57  C   UNL A   1      41.909  28.017  30.504  1.00  0.00     0.074 A 
ATOM     58  C   UNL A   1      41.732  30.521  36.348  1.00  0.00     0.029 A 
ATOM     59  N   UNL A   1      41.352  30.043  34.207  1.00  0.00    -0.354 N 
ATOM     60  N   UNL A   1      41.787  28.582  31.681  1.00  0.00    -0.248 NA
ATOM     61  C   UNL A   1      43.028  27.070  30.408  1.00  0.00     0.031 C 
ATOM     62  C   UNL A   1      42.672  29.573  35.930  1.00  0.00     0.029 A 
ATOM     63  C   UNL A   1      42.417  29.253  34.606  1.00  0.00     0.049 A 
ATOM     64  H   UNL A   1      40.953  30.042  33.308  1.00  0.00     0.167 HD
ATOM     65  C   UNL A   1      42.787  28.034  32.474  1.00  0.00     0.074 A 
ATOM     66  C   UNL A   1      43.495  27.078  31.648  1.00  0.00     0.031 C 
ATOM     67  C   UNL A   1      43.095  28.298  33.768  1.00  0.00     0.037 A 
BRANCH  54  68
ATOM     68  C   UNL A   1      39.537  32.612  36.405  1.00  0.00     0.064 A 
ATOM     69  C   UNL A   1      40.243  33.789  36.701  1.00  0.00     0.173 A 
ATOM     70  C   UNL A   1      38.504  32.232  37.274  1.00  0.00     0.173 A 
ATOM     71  F   UNL A   1      41.254  34.188  35.915  1.00  0.00    -0.203 F 
ATOM     72  C   UNL A   1      39.950  34.535  37.840  1.00  0.00     0.198 A 
ATOM     73  C   UNL A   1      38.188  33.002  38.391  1.00  0.00     0.198 A 
ATOM     74  F   UNL A   1      37.797  31.116  37.039  1.00  0.00    -0.203 F 
ATOM     75  F   UNL A   1      40.681  35.619  38.135  1.00  0.00    -0.200 F 
ATOM     76  C   UNL A   1      38.917  34.145  38.679  1.00  0.00     0.200 A 
ATOM     77  F   UNL A   1      37.181  32.631  39.193  1.00  0.00    -0.200 F 
ATOM     78  F   UNL A   1      38.629  34.869  39.769  1.00  0.00    -0.200 F 
ENDBRANCH  54  68
BRANCH  55  79
ATOM     79  C   UNL A   1      41.366  27.437  28.024  1.00  0.00     0.064 A 
ATOM     80  C   UNL A   1      40.930  26.112  27.876  1.00  0.00     0.173 A 
ATOM     81  C   UNL A   1      42.106  27.996  26.972  1.00  0.00     0.173 A 
ATOM     82  F   UNL A   1      40.234  25.523  28.861  1.00  0.00    -0.203 F 
ATOM     83  C   UNL A   1      41.250  25.367  26.743  1.00  0.00     0.198 A 
ATOM     84  C   UNL A   1      42.397  27.261  25.824  1.00  0.00     0.198 A 
ATOM     85  F   UNL A   1      42.544  29.261  27.056  1.00  0.00    -0.203 F 
ATOM     86  F   UNL A   1      40.871  24.084  26.658  1.00  0.00    -0.200 F 
ATOM     87  C   UNL A   1      41.979  25.944  25.715  1.00  0.00     0.200 A 
ATOM     88  F   UNL A   1      43.089  27.828  24.825  1.00  0.00    -0.200 F 
ATOM     89  F   UNL A   1      42.289  25.228  24.626  1.00  0.00    -0.200 F 
ENDBRANCH  55  79
BRANCH  67  90
ATOM     90  C   UNL A   1      44.216  27.512  34.384  1.00  0.00     0.064 A 
ATOM     91  C   UNL A   1      45.529  28.002  34.416  1.00  0.00     0.173 A 
ATOM     92  C   UNL A   1      43.961  26.273  34.991  1.00  0.00     0.173 A 
ATOM     93  F   UNL A   1      45.828  29.176  33.839  1.00  0.00    -0.203 F 
ATOM     94  C   UNL A   1      46.552  27.266  35.010  1.00  0.00     0.198 A 
ATOM     95  C   UNL A   1      44.977  25.558  35.615  1.00  0.00     0.198 A 
ATOM     96  F   UNL A   1      42.719  25.766  34.997  1.00  0.00    -0.203 F 
ATOM     97  F   UNL A   1      47.808  27.729  34.982  1.00  0.00    -0.200 F 
ATOM     98  C   UNL A   1      46.273  26.050  35.616  1.00  0.00     0.200 A 
ATOM     99  F   UNL A   1      44.701  24.393  36.218  1.00  0.00    -0.200 F 
ATOM    100  F   UNL A   1      47.256  25.350  36.196  1.00  0.00    -0.200 F 
ENDBRANCH  67  90
ENDBRANCH  41  42
ENDBRANCH  33  36
ENDBRANCH  31  32
ENDBRANCH  30  31
ENDBRANCH  29  30
ENDBRANCH   3  29
TORSDOF 15
ENDMDL
MODEL 2
REMARK VINA RESULT:     -12.7      4.604     10.412
REMARK SMILES CC(C)(C)NS(=O)(=O)c1csc(C(=O)Nc2ccccc2C(=O)NCCCNC(=O)c2ccc(-c3c4nc(c(-c5c(F)c(F)c(F)c(F)c5F)c5ccc([nH]5)c(-c5c(F)c(F)c(F)c(F)c5F)c5nc(c(-c6c(F)c(F)c(F)c(F)c6F)c6ccc3[nH]6)C=C5)C=C4)cc2)c1
REMARK SMILES IDX 22 1 23 2 24 3 21 5 16 6 17 7 18 8 20 9 19 10 15 11 13 12
REMARK SMILES IDX 14 13 12 15 9 16 10 17 94 18 11 19 6 20 7 21 8 22 5 23 2 25
REMARK SMILES IDX 1 26 3 27 4 28 25 29 26 30 27 31 28 32 29 33 30 35 31 36
REMARK SMILES IDX 32 37 93 38 33 39 92 40 34 41 35 42 36 43 86 44 37 45 91 46
REMARK SMILES IDX 85 47 87 48 38 49 90 50 84 51 83 52 39 54 71 55 51 56 70 57
REMARK SMILES IDX 52 58 55 59 69 60 88 61 53 62 54 63 68 65 89 66 56 67 40 68
REMARK SMILES IDX 41 69 49 70 42 71 43 72 47 73 50 74 44 75 45 76 48 77 46 78
REMARK SMILES IDX 72 79 73 80 81 81 74 82 75 83 79 84 82 85 76 86 77 87 80 88
REMARK SMILES IDX 78 89 57 90 58 91 66 92 59 93 60 94 64 95 67 96 61 97 62 98
REMARK SMILES IDX 65 99 63 100
REMARK H PARENT 24 4 15 14 5 24 28 34 87 53 55 64
REMARK Flexibility Score: inf
ROOT
ATOM      1  C   UNL A   1      34.923  22.950  25.615  1.00  0.00     0.253 C 
ATOM      2  O   UNL A   1      34.412  23.688  26.459  1.00  0.00    -0.269 OA
ATOM      3  N   UNL A   1      36.240  23.181  25.298  1.00  0.00    -0.352 N 
ATOM      4  H   UNL A   1      36.634  24.015  25.643  1.00  0.00     0.163 HD
ENDROOT
BRANCH   1   5
ATOM      5  C   UNL A   1      34.069  21.918  24.931  1.00  0.00     0.063 A 
ATOM      6  C   UNL A   1      33.435  21.954  23.669  1.00  0.00     0.054 A 
ATOM      7  C   UNL A   1      32.480  20.955  23.372  1.00  0.00     0.027 A 
ATOM      8  C   UNL A   1      32.287  19.849  24.197  1.00  0.00     0.002 A 
ATOM      9  C   UNL A   1      33.885  20.764  25.731  1.00  0.00     0.016 A 
ATOM     10  C   UNL A   1      33.026  19.730  25.361  1.00  0.00     0.001 A 
BRANCH   6  11
ATOM     11  N   UNL A   1      33.616  22.846  22.582  1.00  0.00    -0.321 N 
ATOM     12  C   UNL A   1      33.099  24.066  22.185  1.00  0.00     0.265 C 
ATOM     13  O   UNL A   1      33.369  24.371  21.019  1.00  0.00    -0.268 OA
ATOM     14  H   UNL A   1      34.286  22.510  21.945  1.00  0.00     0.170 HD
BRANCH  12  15
ATOM     15  C   UNL A   1      32.391  24.958  23.087  1.00  0.00     0.094 A 
ATOM     16  C   UNL A   1      31.681  26.991  23.888  1.00  0.00     0.093 A 
ATOM     17  C   UNL A   1      30.492  26.303  23.938  1.00  0.00     0.087 A 
ATOM     18  C   UNL A   1      32.784  26.133  23.682  1.00  0.00     0.047 A 
ATOM     19  S   UNL A   1      30.723  24.674  23.437  1.00  0.00    -0.137 S 
BRANCH  16  20
ATOM     20  S   UNL A   1      31.907  28.699  23.905  1.00  0.00     0.241 S 
ATOM     21  O   UNL A   1      30.616  29.252  24.248  1.00  0.00    -0.207 OA
ATOM     22  O   UNL A   1      32.555  29.001  22.652  1.00  0.00    -0.207 OA
BRANCH  20  23
ATOM     23  N   UNL A   1      33.013  29.083  25.127  1.00  0.00    -0.206 NA
ATOM     24  H   UNL A   1      33.708  28.337  25.097  1.00  0.00     0.141 HD
BRANCH  23  25
ATOM     25  C   UNL A   1      32.715  29.275  26.583  1.00  0.00     0.025 C 
ATOM     26  C   UNL A   1      31.744  28.223  27.121  1.00  0.00     0.028 C 
ATOM     27  C   UNL A   1      32.231  30.689  26.908  1.00  0.00     0.028 C 
ATOM     28  C   UNL A   1      34.036  29.023  27.333  1.00  0.00     0.028 C 
ENDBRANCH  23  25
ENDBRANCH  20  23
ENDBRANCH  16  20
ENDBRANCH  12  15
ENDBRANCH   6  11
ENDBRANCH   1   5
BRANCH   3  29
ATOM     29  C   UNL A   1      37.103  22.344  24.521  1.00  0.00     0.118 C 
BRANCH  29  30
ATOM     30  C   UNL A   1      37.564  21.052  25.121  1.00  0.00     0.042 C 
BRANCH  30  31
ATOM     31  C   UNL A   1      38.945  21.150  25.739  1.00  0.00     0.118 C 
BRANCH  31  32
ATOM     32  N   UNL A   1      39.739  19.912  25.756  1.00  0.00    -0.352 N 
ATOM     33  C   UNL A   1      41.064  19.714  26.086  1.00  0.00     0.251 C 
ATOM     34  H   UNL A   1      39.250  19.100  25.489  1.00  0.00     0.163 HD
ATOM     35  O   UNL A   1      41.570  18.597  26.066  1.00  0.00    -0.269 OA
BRANCH  33  36
ATOM     36  C   UNL A   1      41.897  20.891  26.390  1.00  0.00     0.039 A 
ATOM     37  C   UNL A   1      42.333  21.703  25.342  1.00  0.00     0.014 A 
ATOM     38  C   UNL A   1      42.067  21.284  27.712  1.00  0.00     0.014 A 
ATOM     39  C   UNL A   1      42.803  22.984  25.629  1.00  0.00     0.010 A 
ATOM     40  C   UNL A   1      42.343  22.613  27.976  1.00  0.00     0.010 A 
ATOM     41  C   UNL A   1      42.730  23.478  26.941  1.00  0.00    -0.014 A 
BRANCH  41  42
ATOM     42  C   UNL A   1      43.078  24.881  27.277  1.00  0.00     0.031 A 
ATOM     43  C   UNL A   1      44.481  25.368  27.026  1.00  0.00     0.074 A 
ATOM     44  C   UNL A   1      42.175  25.682  27.878  1.00  0.00     0.049 A 
ATOM     45  N   UNL A   1      45.031  26.511  27.344  1.00  0.00    -0.248 NA
ATOM     46  C   UNL A   1      45.406  24.422  26.377  1.00  0.00     0.031 C 
ATOM     47  C   UNL A   1      40.807  25.305  28.243  1.00  0.00     0.029 A 
ATOM     48  N   UNL A   1      42.275  26.987  28.295  1.00  0.00    -0.354 N 
ATOM     49  C   UNL A   1      46.361  26.403  26.957  1.00  0.00     0.074 A 
ATOM     50  C   UNL A   1      46.562  25.058  26.477  1.00  0.00     0.031 C 
ATOM     51  C   UNL A   1      40.183  26.367  28.779  1.00  0.00     0.029 A 
ATOM     52  C   UNL A   1      41.119  27.485  28.845  1.00  0.00     0.049 A 
ATOM     53  H   UNL A   1      43.101  27.517  28.207  1.00  0.00     0.167 HD
ATOM     54  C   UNL A   1      47.321  27.356  26.953  1.00  0.00     0.037 A 
ATOM     55  C   UNL A   1      40.849  28.705  29.345  1.00  0.00     0.037 A 
ATOM     56  C   UNL A   1      47.102  28.708  27.386  1.00  0.00     0.049 A 
ATOM     57  C   UNL A   1      41.934  29.749  29.331  1.00  0.00     0.074 A 
ATOM     58  C   UNL A   1      47.984  29.772  27.367  1.00  0.00     0.029 A 
ATOM     59  N   UNL A   1      45.908  29.180  27.911  1.00  0.00    -0.354 N 
ATOM     60  N   UNL A   1      43.166  29.659  28.891  1.00  0.00    -0.248 NA
ATOM     61  C   UNL A   1      41.590  31.069  29.880  1.00  0.00     0.031 C 
ATOM     62  C   UNL A   1      47.339  30.878  27.931  1.00  0.00     0.029 A 
ATOM     63  C   UNL A   1      46.037  30.518  28.242  1.00  0.00     0.049 A 
ATOM     64  H   UNL A   1      45.091  28.645  28.031  1.00  0.00     0.167 HD
ATOM     65  C   UNL A   1      43.733  30.914  29.077  1.00  0.00     0.074 A 
ATOM     66  C   UNL A   1      42.701  31.753  29.653  1.00  0.00     0.031 C 
ATOM     67  C   UNL A   1      44.991  31.335  28.800  1.00  0.00     0.037 A 
BRANCH  54  68
ATOM     68  C   UNL A   1      48.679  26.969  26.445  1.00  0.00     0.064 A 
ATOM     69  C   UNL A   1      49.664  26.446  27.299  1.00  0.00     0.173 A 
ATOM     70  C   UNL A   1      48.998  27.106  25.087  1.00  0.00     0.173 A 
ATOM     71  F   UNL A   1      49.419  26.311  28.612  1.00  0.00    -0.203 F 
ATOM     72  C   UNL A   1      50.927  26.110  26.819  1.00  0.00     0.198 A 
ATOM     73  C   UNL A   1      50.250  26.733  24.603  1.00  0.00     0.198 A 
ATOM     74  F   UNL A   1      48.095  27.601  24.226  1.00  0.00    -0.203 F 
ATOM     75  F   UNL A   1      51.870  25.675  27.667  1.00  0.00    -0.200 F 
ATOM     76  C   UNL A   1      51.216  26.246  25.470  1.00  0.00     0.200 A 
ATOM     77  F   UNL A   1      50.523  26.853  23.297  1.00  0.00    -0.200 F 
ATOM     78  F   UNL A   1      52.428  25.914  25.007  1.00  0.00    -0.200 F 
ENDBRANCH  54  68
BRANCH  55  79
ATOM     79  C   UNL A   1      39.492  29.025  29.870  1.00  0.00     0.064 A 
ATOM     80  C   UNL A   1      38.549  29.689  29.073  1.00  0.00     0.173 A 
ATOM     81  C   UNL A   1      39.116  28.697  31.181  1.00  0.00     0.173 A 
ATOM     82  F   UNL A   1      38.864  30.041  27.816  1.00  0.00    -0.203 F 
ATOM     83  C   UNL A   1      37.298  30.043  29.573  1.00  0.00     0.198 A 
ATOM     84  C   UNL A   1      37.852  29.022  31.671  1.00  0.00     0.198 A 
ATOM     85  F   UNL A   1      39.975  28.057  31.987  1.00  0.00    -0.203 F 
ATOM     86  F   UNL A   1      36.441  30.731  28.807  1.00  0.00    -0.200 F 
ATOM     87  C   UNL A   1      36.948  29.705  30.872  1.00  0.00     0.200 A 
ATOM     88  F   UNL A   1      37.512  28.679  32.922  1.00  0.00    -0.200 F 
ATOM     89  F   UNL A   1      35.746  30.046  31.355  1.00  0.00    -0.200 F 
ENDBRANCH  55  79
BRANCH  67  90
ATOM     90  C   UNL A   1      45.311  32.776  29.072  1.00  0.00     0.064 A 
ATOM     91  C   UNL A   1      45.064  33.779  28.123  1.00  0.00     0.173 A 
ATOM     92  C   UNL A   1      45.826  33.163  30.319  1.00  0.00     0.173 A 
ATOM     93  F   UNL A   1      44.584  33.460  26.911  1.00  0.00    -0.203 F 
ATOM     94  C   UNL A   1      45.350  35.113  28.402  1.00  0.00     0.198 A 
ATOM     95  C   UNL A   1      46.076  34.500  30.608  1.00  0.00     0.198 A 
ATOM     96  F   UNL A   1      46.069  32.243  31.265  1.00  0.00    -0.203 F 
ATOM     97  F   UNL A   1      45.158  36.047  27.462  1.00  0.00    -0.200 F 
ATOM     98  C   UNL A   1      45.846  35.473  29.647  1.00  0.00     0.200 A 
ATOM     99  F   UNL A   1      46.536  34.848  31.818  1.00  0.00    -0.200 F 
ATOM    100  F   UNL A   1      46.110  36.758  29.917  1.00  0.00    -0.200 F 
ENDBRANCH  67  90
ENDBRANCH  41  42
ENDBRANCH  33  36
ENDBRANCH  31  32
ENDBRANCH  30  31
ENDBRANCH  29  30
ENDBRANCH   3  29
TORSDOF 15
ENDMDL
MODEL 3
REMARK VINA RESULT:     -12.7      4.869      9.303
REMARK SMILES CC(C)(C)NS(=O)(=O)c1csc(C(=O)Nc2ccccc2C(=O)NCCCNC(=O)c2ccc(-c3c4nc(c(-c5c(F)c(F)c(F)c(F)c5F)c5ccc([nH]5)c(-c5c(F)c(F)c(F)c(F)c5F)c5nc(c(-c6c(F)c(F)c(F)c(F)c6F)c6ccc3[nH]6)C=C5)C=C4)cc2)c1
REMARK SMILES IDX 22 1 23 2 24 3 21 5 16 6 17 7 18 8 20 9 19 10 15 11 13 12
REMARK SMILES IDX 14 13 12 15 9 16 10 17 94 18 11 19 6 20 7 21 8 22 5 23 2 25
REMARK SMILES IDX 1 26 3 27 4 28 25 29 26 30 27 31 28 32 29 33 30 35 31 36
REMARK SMILES IDX 32 37 93 38 33 39 92 40 34 41 35 42 36 43 86 44 37 45 91 46
REMARK SMILES IDX 85 47 87 48 38 49 90 50 84 51 83 52 39 54 71 55 51 56 70 57
REMARK SMILES IDX 52 58 55 59 69 60 88 61 53 62 54 63 68 65 89 66 56 67 40 68
REMARK SMILES IDX 41 69 49 70 42 71 43 72 47 73 50 74 44 75 45 76 48 77 46 78
REMARK SMILES IDX 72 79 73 80 81 81 74 82 75 83 79 84 82 85 76 86 77 87 80 88
REMARK SMILES IDX 78 89 57 90 58 91 66 92 59 93 60 94 64 95 67 96 61 97 62 98
REMARK SMILES IDX 65 99 63 100
REMARK H PARENT 24 4 15 14 5 24 28 34 87 53 55 64
REMARK Flexibility Score: inf
ROOT
ATOM      1  C   UNL A   1      35.168  23.225  25.424  1.00  0.00     0.253 C 
ATOM      2  O   UNL A   1      34.669  24.129  26.097  1.00  0.00    -0.269 OA
ATOM      3  N   UNL A   1      36.516  23.304  25.174  1.00  0.00    -0.352 N 
ATOM      4  H   UNL A   1      36.957  24.152  25.409  1.00  0.00     0.163 HD
ENDROOT
BRANCH   1   5
ATOM      5  C   UNL A   1      34.274  22.159  24.853  1.00  0.00     0.063 A 
ATOM      6  C   UNL A   1      33.549  22.133  23.640  1.00  0.00     0.054 A 
ATOM      7  C   UNL A   1      32.583  21.118  23.460  1.00  0.00     0.027 A 
ATOM      8  C   UNL A   1      32.459  20.050  24.347  1.00  0.00     0.002 A 
ATOM      9  C   UNL A   1      34.158  21.042  25.716  1.00  0.00     0.016 A 
ATOM     10  C   UNL A   1      33.282  19.988  25.458  1.00  0.00     0.001 A 
BRANCH   6  11
ATOM     11  N   UNL A   1      33.642  22.975  22.504  1.00  0.00    -0.321 N 
ATOM     12  C   UNL A   1      33.119  24.192  22.107  1.00  0.00     0.265 C 
ATOM     13  O   UNL A   1      33.279  24.443  20.907  1.00  0.00    -0.268 OA
ATOM     14  H   UNL A   1      34.237  22.594  21.818  1.00  0.00     0.170 HD
BRANCH  12  15
ATOM     15  C   UNL A   1      32.527  25.140  23.036  1.00  0.00     0.094 A 
ATOM     16  C   UNL A   1      31.877  27.217  23.774  1.00  0.00     0.093 A 
ATOM     17  C   UNL A   1      30.736  26.509  24.063  1.00  0.00     0.087 A 
ATOM     18  C   UNL A   1      32.965  26.370  23.467  1.00  0.00     0.047 A 
ATOM     19  S   UNL A   1      30.944  24.850  23.662  1.00  0.00    -0.137 S 
BRANCH  16  20
ATOM     20  S   UNL A   1      32.043  28.925  23.620  1.00  0.00     0.241 S 
ATOM     21  O   UNL A   1      30.911  29.349  22.828  1.00  0.00    -0.207 OA
ATOM     22  O   UNL A   1      33.400  29.129  23.177  1.00  0.00    -0.207 OA
BRANCH  20  23
ATOM     23  N   UNL A   1      31.928  29.617  25.161  1.00  0.00    -0.206 NA
ATOM     24  H   UNL A   1      32.212  30.589  25.035  1.00  0.00     0.141 HD
BRANCH  23  25
ATOM     25  C   UNL A   1      32.630  29.166  26.405  1.00  0.00     0.025 C 
ATOM     26  C   UNL A   1      34.020  28.598  26.114  1.00  0.00     0.028 C 
ATOM     27  C   UNL A   1      31.797  28.187  27.235  1.00  0.00     0.028 C 
ATOM     28  C   UNL A   1      32.881  30.432  27.244  1.00  0.00     0.028 C 
ENDBRANCH  23  25
ENDBRANCH  20  23
ENDBRANCH  16  20
ENDBRANCH  12  15
ENDBRANCH   6  11
ENDBRANCH   1   5
BRANCH   3  29
ATOM     29  C   UNL A   1      37.352  22.288  24.608  1.00  0.00     0.118 C 
BRANCH  29  30
ATOM     30  C   UNL A   1      37.772  21.149  25.484  1.00  0.00     0.042 C 
BRANCH  30  31
ATOM     31  C   UNL A   1      39.250  21.181  25.823  1.00  0.00     0.118 C 
BRANCH  31  32
ATOM     32  N   UNL A   1      39.945  19.884  25.822  1.00  0.00    -0.352 N 
ATOM     33  C   UNL A   1      41.257  19.582  26.127  1.00  0.00     0.251 C 
ATOM     34  H   UNL A   1      39.389  19.114  25.564  1.00  0.00     0.163 HD
ATOM     35  O   UNL A   1      41.673  18.429  26.095  1.00  0.00    -0.269 OA
BRANCH  33  36
ATOM     36  C   UNL A   1      42.184  20.689  26.416  1.00  0.00     0.039 A 
ATOM     37  C   UNL A   1      42.787  21.366  25.354  1.00  0.00     0.014 A 
ATOM     38  C   UNL A   1      42.291  21.169  27.716  1.00  0.00     0.014 A 
ATOM     39  C   UNL A   1      43.367  22.612  25.588  1.00  0.00     0.010 A 
ATOM     40  C   UNL A   1      42.687  22.480  27.906  1.00  0.00     0.010 A 
ATOM     41  C   UNL A   1      43.245  23.215  26.850  1.00  0.00    -0.014 A 
BRANCH  41  42
ATOM     42  C   UNL A   1      43.714  24.599  27.113  1.00  0.00     0.031 A 
ATOM     43  C   UNL A   1      42.727  25.624  27.606  1.00  0.00     0.074 A 
ATOM     44  C   UNL A   1      44.984  24.952  26.834  1.00  0.00     0.049 A 
ATOM     45  N   UNL A   1      42.890  26.909  27.793  1.00  0.00    -0.248 NA
ATOM     46  C   UNL A   1      41.356  25.153  27.873  1.00  0.00     0.031 C 
ATOM     47  C   UNL A   1      46.016  24.071  26.282  1.00  0.00     0.029 A 
ATOM     48  N   UNL A   1      45.627  26.159  26.972  1.00  0.00    -0.354 N 
ATOM     49  C   UNL A   1      41.643  27.390  28.171  1.00  0.00     0.074 A 
ATOM     50  C   UNL A   1      40.714  26.289  28.090  1.00  0.00     0.031 C 
ATOM     51  C   UNL A   1      47.171  24.750  26.180  1.00  0.00     0.029 A 
ATOM     52  C   UNL A   1      46.951  26.127  26.608  1.00  0.00     0.049 A 
ATOM     53  H   UNL A   1      45.179  26.972  27.303  1.00  0.00     0.167 HD
ATOM     54  C   UNL A   1      41.308  28.628  28.599  1.00  0.00     0.037 A 
ATOM     55  C   UNL A   1      47.879  27.103  26.617  1.00  0.00     0.037 A 
ATOM     56  C   UNL A   1      42.247  29.708  28.725  1.00  0.00     0.049 A 
ATOM     57  C   UNL A   1      47.482  28.475  27.097  1.00  0.00     0.074 A 
ATOM     58  C   UNL A   1      42.032  30.985  29.206  1.00  0.00     0.029 A 
ATOM     59  N   UNL A   1      43.586  29.628  28.371  1.00  0.00    -0.354 N 
ATOM     60  N   UNL A   1      46.317  28.899  27.525  1.00  0.00    -0.248 NA
ATOM     61  C   UNL A   1      48.531  29.504  27.098  1.00  0.00     0.031 C 
ATOM     62  C   UNL A   1      43.230  31.697  29.094  1.00  0.00     0.029 A 
ATOM     63  C   UNL A   1      44.206  30.844  28.602  1.00  0.00     0.049 A 
ATOM     64  H   UNL A   1      44.029  28.827  28.009  1.00  0.00     0.167 HD
ATOM     65  C   UNL A   1      46.501  30.230  27.879  1.00  0.00     0.074 A 
ATOM     66  C   UNL A   1      47.895  30.536  27.632  1.00  0.00     0.031 C 
ATOM     67  C   UNL A   1      45.599  31.119  28.362  1.00  0.00     0.037 A 
BRANCH  54  68
ATOM     68  C   UNL A   1      39.875  28.866  28.979  1.00  0.00     0.064 A 
ATOM     69  C   UNL A   1      39.415  28.655  30.289  1.00  0.00     0.173 A 
ATOM     70  C   UNL A   1      38.952  29.324  28.028  1.00  0.00     0.173 A 
ATOM     71  F   UNL A   1      40.251  28.199  31.234  1.00  0.00    -0.203 F 
ATOM     72  C   UNL A   1      38.079  28.859  30.622  1.00  0.00     0.198 A 
ATOM     73  C   UNL A   1      37.625  29.564  28.374  1.00  0.00     0.198 A 
ATOM     74  F   UNL A   1      39.338  29.541  26.761  1.00  0.00    -0.203 F 
ATOM     75  F   UNL A   1      37.652  28.588  31.864  1.00  0.00    -0.200 F 
ATOM     76  C   UNL A   1      37.187  29.322  29.667  1.00  0.00     0.200 A 
ATOM     77  F   UNL A   1      36.767  30.023  27.453  1.00  0.00    -0.200 F 
ATOM     78  F   UNL A   1      35.904  29.526  29.991  1.00  0.00    -0.200 F 
ENDBRANCH  54  68
BRANCH  55  79
ATOM     79  C   UNL A   1      49.279  26.820  26.195  1.00  0.00     0.064 A 
ATOM     80  C   UNL A   1      49.686  27.021  24.868  1.00  0.00     0.173 A 
ATOM     81  C   UNL A   1      50.231  26.321  27.096  1.00  0.00     0.173 A 
ATOM     82  F   UNL A   1      48.809  27.480  23.961  1.00  0.00    -0.203 F 
ATOM     83  C   UNL A   1      50.977  26.705  24.451  1.00  0.00     0.198 A 
ATOM     84  C   UNL A   1      51.532  26.036  26.686  1.00  0.00     0.198 A 
ATOM     85  F   UNL A   1      49.899  26.114  28.379  1.00  0.00    -0.203 F 
ATOM     86  F   UNL A   1      51.319  26.851  23.164  1.00  0.00    -0.200 F 
ATOM     87  C   UNL A   1      51.901  26.217  25.362  1.00  0.00     0.200 A 
ATOM     88  F   UNL A   1      52.428  25.579  27.573  1.00  0.00    -0.200 F 
ATOM     89  F   UNL A   1      53.143  25.911  24.961  1.00  0.00    -0.200 F 
ENDBRANCH  55  79
BRANCH  67  90
ATOM     90  C   UNL A   1      46.099  32.494  28.698  1.00  0.00     0.064 A 
ATOM     91  C   UNL A   1      46.067  33.539  27.764  1.00  0.00     0.173 A 
ATOM     92  C   UNL A   1      46.572  32.779  29.988  1.00  0.00     0.173 A 
ATOM     93  F   UNL A   1      45.636  33.316  26.514  1.00  0.00    -0.203 F 
ATOM     94  C   UNL A   1      46.518  34.813  28.102  1.00  0.00     0.198 A 
ATOM     95  C   UNL A   1      46.987  34.060  30.333  1.00  0.00     0.198 A 
ATOM     96  F   UNL A   1      46.613  31.816  30.922  1.00  0.00    -0.203 F 
ATOM     97  F   UNL A   1      46.529  35.783  27.178  1.00  0.00    -0.200 F 
ATOM     98  C   UNL A   1      46.969  35.074  29.387  1.00  0.00     0.200 A 
ATOM     99  F   UNL A   1      47.403  34.315  31.582  1.00  0.00    -0.200 F 
ATOM    100  F   UNL A   1      47.391  36.303  29.713  1.00  0.00    -0.200 F 
ENDBRANCH  67  90
ENDBRANCH  41  42
ENDBRANCH  33  36
ENDBRANCH  31  32
ENDBRANCH  30  31
ENDBRANCH  29  30
ENDBRANCH   3  29
TORSDOF 15
ENDMDL
