MODEL 1
REMARK VINA RESULT:     -12.1      0.000      0.000
REMARK SMILES O=C(NCCCNC(=O)[C@H]1CCC[N@@H+]1Cc1ccccc1[N+](=O)[O-])c1ccc(-c2c3nc(c(-c4c(F)c(F)c(F)c(F)c4F)c4ccc([nH]4)c(-c4c(F)c(F)c(F)c(F)c4F)c4nc(c(-c5c(F)c(F)c(F)c(F)c5F)c5ccc2[nH]5)C=C4)C=C3)cc1
REMARK SMILES IDX 5 1 4 2 3 3 1 4 2 5 25 7 26 8 87 9 27 10 86 11 28 12 29 13
REMARK SMILES IDX 30 14 80 15 31 16 85 17 79 18 81 19 32 20 84 21 78 22 77 23
REMARK SMILES IDX 33 25 65 26 45 27 64 28 46 29 49 30 63 31 82 32 47 33 48 34
REMARK SMILES IDX 62 36 83 37 50 38 34 39 35 40 43 41 36 42 37 43 41 44 44 45
REMARK SMILES IDX 38 46 39 47 42 48 40 49 66 50 67 51 75 52 68 53 69 54 73 55
REMARK SMILES IDX 76 56 70 57 71 58 74 59 72 60 51 61 52 62 60 63 53 64 54 65
REMARK SMILES IDX 58 66 61 67 55 68 56 69 59 70 57 71 6 72 7 73 8 74 9 76
REMARK SMILES IDX 10 77 11 78 14 79 12 80 13 81 15 83 16 84 17 85 21 86 18 87
REMARK SMILES IDX 20 88 19 89 22 90 23 91 24 92
REMARK H PARENT 3 6 81 24 49 35 7 75 14 82
REMARK Flexibility Score: inf
ROOT
ATOM      1  C   UNL A   1      31.236  32.320  26.491  1.00  0.00     0.042 C 
ENDROOT
BRANCH   1   2
ATOM      2  C   UNL A   1      32.513  32.883  27.116  1.00  0.00     0.118 C 
BRANCH   2   3
ATOM      3  N   UNL A   1      32.341  34.216  27.674  1.00  0.00    -0.352 N 
ATOM      4  O   UNL A   1      32.605  35.930  29.109  1.00  0.00    -0.269 OA
ATOM      5  C   UNL A   1      33.010  34.846  28.695  1.00  0.00     0.251 C 
ATOM      6  H   UNL A   1      31.633  34.753  27.251  1.00  0.00     0.163 HD
BRANCH   5   7
ATOM      7  C   UNL A   1      34.197  34.225  29.321  1.00  0.00     0.039 A 
ATOM      8  C   UNL A   1      35.490  34.600  28.950  1.00  0.00     0.014 A 
ATOM      9  C   UNL A   1      34.010  33.278  30.334  1.00  0.00     0.014 A 
ATOM     10  C   UNL A   1      36.588  33.935  29.492  1.00  0.00     0.010 A 
ATOM     11  C   UNL A   1      35.115  32.665  30.932  1.00  0.00     0.010 A 
ATOM     12  C   UNL A   1      36.414  32.966  30.494  1.00  0.00    -0.014 A 
BRANCH  12  13
ATOM     13  C   UNL A   1      37.605  32.316  31.097  1.00  0.00     0.031 A 
ATOM     14  C   UNL A   1      38.067  32.674  32.482  1.00  0.00     0.074 A 
ATOM     15  C   UNL A   1      38.255  31.369  30.393  1.00  0.00     0.049 A 
ATOM     16  N   UNL A   1      39.063  32.178  33.175  1.00  0.00    -0.248 NA
ATOM     17  C   UNL A   1      37.321  33.732  33.181  1.00  0.00     0.031 C 
ATOM     18  C   UNL A   1      37.911  30.950  29.034  1.00  0.00     0.029 A 
ATOM     19  N   UNL A   1      39.324  30.577  30.726  1.00  0.00    -0.354 N 
ATOM     20  C   UNL A   1      39.071  32.868  34.380  1.00  0.00     0.074 A 
ATOM     21  C   UNL A   1      38.002  33.841  34.314  1.00  0.00     0.031 C 
ATOM     22  C   UNL A   1      38.723  29.949  28.665  1.00  0.00     0.029 A 
ATOM     23  C   UNL A   1      39.675  29.690  29.739  1.00  0.00     0.049 A 
ATOM     24  H   UNL A   1      39.796  30.641  31.588  1.00  0.00     0.167 HD
ATOM     25  C   UNL A   1      39.892  32.697  35.445  1.00  0.00     0.037 A 
ATOM     26  C   UNL A   1      40.660  28.773  29.700  1.00  0.00     0.037 A 
ATOM     27  C   UNL A   1      40.946  31.716  35.513  1.00  0.00     0.049 A 
ATOM     28  C   UNL A   1      41.563  28.617  30.890  1.00  0.00     0.074 A 
ATOM     29  C   UNL A   1      41.803  31.440  36.564  1.00  0.00     0.029 A 
ATOM     30  N   UNL A   1      41.288  30.851  34.482  1.00  0.00    -0.354 N 
ATOM     31  N   UNL A   1      41.534  29.248  32.038  1.00  0.00    -0.248 NA
ATOM     32  C   UNL A   1      42.636  27.620  30.777  1.00  0.00     0.031 C 
ATOM     33  C   UNL A   1      42.693  30.441  36.154  1.00  0.00     0.029 A 
ATOM     34  C   UNL A   1      42.358  30.059  34.865  1.00  0.00     0.049 A 
ATOM     35  H   UNL A   1      40.836  30.808  33.609  1.00  0.00     0.167 HD
ATOM     36  C   UNL A   1      42.570  28.715  32.791  1.00  0.00     0.074 A 
ATOM     37  C   UNL A   1      43.197  27.694  31.976  1.00  0.00     0.031 C 
ATOM     38  C   UNL A   1      42.970  29.046  34.043  1.00  0.00     0.037 A 
BRANCH  25  39
ATOM     39  C   UNL A   1      39.693  33.600  36.629  1.00  0.00     0.064 A 
ATOM     40  C   UNL A   1      40.321  34.851  36.716  1.00  0.00     0.173 A 
ATOM     41  C   UNL A   1      38.824  33.229  37.667  1.00  0.00     0.173 A 
ATOM     42  F   UNL A   1      41.168  35.249  35.755  1.00  0.00    -0.203 F 
ATOM     43  C   UNL A   1      40.103  35.688  37.808  1.00  0.00     0.198 A 
ATOM     44  C   UNL A   1      38.588  34.079  38.745  1.00  0.00     0.198 A 
ATOM     45  F   UNL A   1      38.191  32.047  37.630  1.00  0.00    -0.203 F 
ATOM     46  F   UNL A   1      40.745  36.862  37.889  1.00  0.00    -0.200 F 
ATOM     47  C   UNL A   1      39.233  35.305  38.817  1.00  0.00     0.200 A 
ATOM     48  F   UNL A   1      37.737  33.713  39.713  1.00  0.00    -0.200 F 
ATOM     49  F   UNL A   1      39.019  36.115  39.864  1.00  0.00    -0.200 F 
ENDBRANCH  25  39
BRANCH  26  50
ATOM     50  C   UNL A   1      40.832  27.928  28.491  1.00  0.00     0.064 A 
ATOM     51  C   UNL A   1      40.202  26.681  28.387  1.00  0.00     0.173 A 
ATOM     52  C   UNL A   1      41.615  28.357  27.409  1.00  0.00     0.173 A 
ATOM     53  F   UNL A   1      39.457  26.220  29.403  1.00  0.00    -0.203 F 
ATOM     54  C   UNL A   1      40.361  25.888  27.252  1.00  0.00     0.198 A 
ATOM     55  C   UNL A   1      41.750  27.577  26.264  1.00  0.00     0.198 A 
ATOM     56  F   UNL A   1      42.236  29.545  27.459  1.00  0.00    -0.203 F 
ATOM     57  F   UNL A   1      39.780  24.683  27.193  1.00  0.00    -0.200 F 
ATOM     58  C   UNL A   1      41.129  26.339  26.189  1.00  0.00     0.200 A 
ATOM     59  F   UNL A   1      42.481  28.024  25.233  1.00  0.00    -0.200 F 
ATOM     60  F   UNL A   1      41.274  25.581  25.095  1.00  0.00    -0.200 F 
ENDBRANCH  26  50
BRANCH  38  61
ATOM     61  C   UNL A   1      44.124  28.276  34.615  1.00  0.00     0.064 A 
ATOM     62  C   UNL A   1      45.445  28.728  34.485  1.00  0.00     0.173 A 
ATOM     63  C   UNL A   1      43.903  27.082  35.319  1.00  0.00     0.173 A 
ATOM     64  F   UNL A   1      45.709  29.855  33.806  1.00  0.00    -0.203 F 
ATOM     65  C   UNL A   1      46.506  27.998  35.015  1.00  0.00     0.198 A 
ATOM     66  C   UNL A   1      44.963  26.370  35.871  1.00  0.00     0.198 A 
ATOM     67  F   UNL A   1      42.656  26.611  35.474  1.00  0.00    -0.203 F 
ATOM     68  F   UNL A   1      47.765  28.422  34.834  1.00  0.00    -0.200 F 
ATOM     69  C   UNL A   1      46.263  26.825  35.712  1.00  0.00     0.200 A 
ATOM     70  F   UNL A   1      44.727  25.241  36.554  1.00  0.00    -0.200 F 
ATOM     71  F   UNL A   1      47.286  26.123  36.222  1.00  0.00    -0.200 F 
ENDBRANCH  38  61
ENDBRANCH  12  13
ENDBRANCH   5   7
ENDBRANCH   2   3
ENDBRANCH   1   2
BRANCH   1  72
ATOM     72  C   UNL A   1      31.333  30.858  26.056  1.00  0.00     0.118 C 
BRANCH  72  73
ATOM     73  N   UNL A   1      32.646  30.305  26.312  1.00  0.00    -0.351 N 
ATOM     74  C   UNL A   1      33.383  29.415  25.592  1.00  0.00     0.278 C 
ATOM     75  H   UNL A   1      33.074  30.625  27.138  1.00  0.00     0.163 HD
ATOM     76  O   UNL A   1      34.421  29.016  26.129  1.00  0.00    -0.268 OA
BRANCH  74  77
ATOM     77  C   UNL A   1      32.991  29.018  24.143  1.00  0.00     0.274 C 
ATOM     78  C   UNL A   1      34.107  28.172  23.526  1.00  0.00     0.081 C 
ATOM     79  N   UNL A   1      31.810  28.126  24.117  1.00  0.00    -0.321 N 
ATOM     80  C   UNL A   1      33.755  26.738  23.907  1.00  0.00     0.068 C 
ATOM     81  C   UNL A   1      32.317  26.785  24.406  1.00  0.00     0.263 C 
ATOM     82  H   UNL A   1      31.140  28.415  24.830  1.00  0.00     0.349 HD
BRANCH  79  83
ATOM     83  C   UNL A   1      30.942  28.235  22.929  1.00  0.00     0.307 C 
BRANCH  83  84
ATOM     84  C   UNL A   1      29.438  28.136  23.112  1.00  0.00     0.084 A 
ATOM     85  C   UNL A   1      28.901  26.936  23.624  1.00  0.00     0.017 A 
ATOM     86  C   UNL A   1      28.525  29.177  22.853  1.00  0.00     0.278 A 
ATOM     87  C   UNL A   1      27.540  26.816  23.930  1.00  0.00     0.001 A 
ATOM     88  C   UNL A   1      27.162  29.069  23.176  1.00  0.00     0.086 A 
ATOM     89  C   UNL A   1      26.676  27.887  23.727  1.00  0.00     0.007 A 
BRANCH  86  90
ATOM     90  N   UNL A   1      28.939  30.410  22.199  1.00  0.00     0.063 N 
ATOM     91  O   UNL A   1      29.054  30.386  20.967  1.00  0.00    -0.258 OA
ATOM     92  O   UNL A   1      29.179  31.385  22.922  1.00  0.00    -0.258 OA
ENDBRANCH  86  90
ENDBRANCH  83  84
ENDBRANCH  79  83
ENDBRANCH  74  77
ENDBRANCH  72  73
ENDBRANCH   1  72
TORSDOF 13
ENDMDL
MODEL 2
REMARK VINA RESULT:     -12.0      4.207      7.401
REMARK SMILES O=C(NCCCNC(=O)[C@H]1CCC[N@@H+]1Cc1ccccc1[N+](=O)[O-])c1ccc(-c2c3nc(c(-c4c(F)c(F)c(F)c(F)c4F)c4ccc([nH]4)c(-c4c(F)c(F)c(F)c(F)c4F)c4nc(c(-c5c(F)c(F)c(F)c(F)c5F)c5ccc2[nH]5)C=C4)C=C3)cc1
REMARK SMILES IDX 5 1 4 2 3 3 1 4 2 5 25 7 26 8 87 9 27 10 86 11 28 12 29 13
REMARK SMILES IDX 30 14 80 15 31 16 85 17 79 18 81 19 32 20 84 21 78 22 77 23
REMARK SMILES IDX 33 25 65 26 45 27 64 28 46 29 49 30 63 31 82 32 47 33 48 34
REMARK SMILES IDX 62 36 83 37 50 38 34 39 35 40 43 41 36 42 37 43 41 44 44 45
REMARK SMILES IDX 38 46 39 47 42 48 40 49 66 50 67 51 75 52 68 53 69 54 73 55
REMARK SMILES IDX 76 56 70 57 71 58 74 59 72 60 51 61 52 62 60 63 53 64 54 65
REMARK SMILES IDX 58 66 61 67 55 68 56 69 59 70 57 71 6 72 7 73 8 74 9 76
REMARK SMILES IDX 10 77 11 78 14 79 12 80 13 81 15 83 16 84 17 85 21 86 18 87
REMARK SMILES IDX 20 88 19 89 22 90 23 91 24 92
REMARK H PARENT 3 6 81 24 49 35 7 75 14 82
REMARK Flexibility Score: inf
ROOT
ATOM      1  C   UNL A   1      33.832  33.764  27.927  1.00  0.00     0.042 C 
ENDROOT
BRANCH   1   2
ATOM      2  C   UNL A   1      34.604  32.549  28.444  1.00  0.00     0.118 C 
BRANCH   2   3
ATOM      3  N   UNL A   1      33.964  31.282  28.122  1.00  0.00    -0.352 N 
ATOM      4  O   UNL A   1      33.798  29.114  27.541  1.00  0.00    -0.269 OA
ATOM      5  C   UNL A   1      34.503  30.029  27.959  1.00  0.00     0.251 C 
ATOM      6  H   UNL A   1      32.988  31.330  28.003  1.00  0.00     0.163 HD
BRANCH   5   7
ATOM      7  C   UNL A   1      35.929  29.773  28.258  1.00  0.00     0.039 A 
ATOM      8  C   UNL A   1      36.923  30.016  27.308  1.00  0.00     0.014 A 
ATOM      9  C   UNL A   1      36.281  29.322  29.534  1.00  0.00     0.014 A 
ATOM     10  C   UNL A   1      38.246  29.681  27.586  1.00  0.00     0.010 A 
ATOM     11  C   UNL A   1      37.620  29.057  29.839  1.00  0.00     0.010 A 
ATOM     12  C   UNL A   1      38.611  29.205  28.857  1.00  0.00    -0.014 A 
BRANCH  12  13
ATOM     13  C   UNL A   1      40.037  28.913  29.146  1.00  0.00     0.031 A 
ATOM     14  C   UNL A   1      40.867  29.845  29.984  1.00  0.00     0.074 A 
ATOM     15  C   UNL A   1      40.577  27.774  28.669  1.00  0.00     0.049 A 
ATOM     16  N   UNL A   1      42.115  29.725  30.365  1.00  0.00    -0.248 NA
ATOM     17  C   UNL A   1      40.217  31.079  30.451  1.00  0.00     0.031 C 
ATOM     18  C   UNL A   1      39.878  26.801  27.830  1.00  0.00     0.029 A 
ATOM     19  N   UNL A   1      41.827  27.234  28.834  1.00  0.00    -0.354 N 
ATOM     20  C   UNL A   1      42.402  30.866  31.101  1.00  0.00     0.074 A 
ATOM     21  C   UNL A   1      41.208  31.684  31.089  1.00  0.00     0.031 C 
ATOM     22  C   UNL A   1      40.691  25.762  27.591  1.00  0.00     0.029 A 
ATOM     23  C   UNL A   1      41.984  26.019  28.216  1.00  0.00     0.049 A 
ATOM     24  H   UNL A   1      42.543  27.676  29.346  1.00  0.00     0.167 HD
ATOM     25  C   UNL A   1      43.553  31.194  31.736  1.00  0.00     0.037 A 
ATOM     26  C   UNL A   1      43.052  25.203  28.152  1.00  0.00     0.037 A 
ATOM     27  C   UNL A   1      44.735  30.368  31.760  1.00  0.00     0.049 A 
ATOM     28  C   UNL A   1      44.320  25.600  28.853  1.00  0.00     0.074 A 
ATOM     29  C   UNL A   1      45.936  30.597  32.409  1.00  0.00     0.029 A 
ATOM     30  N   UNL A   1      44.864  29.155  31.099  1.00  0.00    -0.354 N 
ATOM     31  N   UNL A   1      44.564  26.663  29.580  1.00  0.00    -0.248 NA
ATOM     32  C   UNL A   1      45.460  24.684  28.724  1.00  0.00     0.031 C 
ATOM     33  C   UNL A   1      46.807  29.545  32.105  1.00  0.00     0.029 A 
ATOM     34  C   UNL A   1      46.132  28.635  31.307  1.00  0.00     0.049 A 
ATOM     35  H   UNL A   1      44.158  28.727  30.563  1.00  0.00     0.167 HD
ATOM     36  C   UNL A   1      45.877  26.537  30.010  1.00  0.00     0.074 A 
ATOM     37  C   UNL A   1      46.371  25.282  29.478  1.00  0.00     0.031 C 
ATOM     38  C   UNL A   1      46.609  27.386  30.772  1.00  0.00     0.037 A 
BRANCH  25  39
ATOM     39  C   UNL A   1      43.601  32.513  32.455  1.00  0.00     0.064 A 
ATOM     40  C   UNL A   1      43.973  33.696  31.800  1.00  0.00     0.173 A 
ATOM     41  C   UNL A   1      43.222  32.601  33.803  1.00  0.00     0.173 A 
ATOM     42  F   UNL A   1      44.352  33.665  30.514  1.00  0.00    -0.203 F 
ATOM     43  C   UNL A   1      43.985  34.915  32.474  1.00  0.00     0.198 A 
ATOM     44  C   UNL A   1      43.210  33.825  34.468  1.00  0.00     0.198 A 
ATOM     45  F   UNL A   1      42.851  31.500  34.476  1.00  0.00    -0.203 F 
ATOM     46  F   UNL A   1      44.382  36.026  31.839  1.00  0.00    -0.200 F 
ATOM     47  C   UNL A   1      43.598  34.979  33.804  1.00  0.00     0.200 A 
ATOM     48  F   UNL A   1      42.824  33.887  35.750  1.00  0.00    -0.200 F 
ATOM     49  F   UNL A   1      43.603  36.155  34.449  1.00  0.00    -0.200 F 
ENDBRANCH  25  39
BRANCH  26  50
ATOM     50  C   UNL A   1      42.960  23.925  27.401  1.00  0.00     0.064 A 
ATOM     51  C   UNL A   1      42.472  22.764  28.012  1.00  0.00     0.173 A 
ATOM     52  C   UNL A   1      43.343  23.844  26.054  1.00  0.00     0.173 A 
ATOM     53  F   UNL A   1      42.111  22.787  29.304  1.00  0.00    -0.203 F 
ATOM     54  C   UNL A   1      42.383  21.564  27.308  1.00  0.00     0.198 A 
ATOM     55  C   UNL A   1      43.226  22.653  25.343  1.00  0.00     0.198 A 
ATOM     56  F   UNL A   1      43.813  24.931  25.423  1.00  0.00    -0.203 F 
ATOM     57  F   UNL A   1      41.950  20.457  27.926  1.00  0.00    -0.200 F 
ATOM     58  C   UNL A   1      42.753  21.512  25.973  1.00  0.00     0.200 A 
ATOM     59  F   UNL A   1      43.571  22.611  24.048  1.00  0.00    -0.200 F 
ATOM     60  F   UNL A   1      42.659  20.361  25.294  1.00  0.00    -0.200 F 
ENDBRANCH  26  50
BRANCH  38  61
ATOM     61  C   UNL A   1      48.014  26.971  31.095  1.00  0.00     0.064 A 
ATOM     62  C   UNL A   1      49.101  27.383  30.311  1.00  0.00     0.173 A 
ATOM     63  C   UNL A   1      48.278  26.168  32.216  1.00  0.00     0.173 A 
ATOM     64  F   UNL A   1      48.898  28.137  29.220  1.00  0.00    -0.203 F 
ATOM     65  C   UNL A   1      50.398  26.983  30.620  1.00  0.00     0.198 A 
ATOM     66  C   UNL A   1      49.578  25.793  32.537  1.00  0.00     0.198 A 
ATOM     67  F   UNL A   1      47.272  25.751  33.000  1.00  0.00    -0.203 F 
ATOM     68  F   UNL A   1      51.416  27.346  29.827  1.00  0.00    -0.200 F 
ATOM     69  C   UNL A   1      50.636  26.194  31.736  1.00  0.00     0.200 A 
ATOM     70  F   UNL A   1      49.808  25.039  33.621  1.00  0.00    -0.200 F 
ATOM     71  F   UNL A   1      51.886  25.811  32.032  1.00  0.00    -0.200 F 
ENDBRANCH  38  61
ENDBRANCH  12  13
ENDBRANCH   5   7
ENDBRANCH   2   3
ENDBRANCH   1   2
BRANCH   1  72
ATOM     72  C   UNL A   1      34.198  35.084  28.604  1.00  0.00     0.118 C 
BRANCH  72  73
ATOM     73  N   UNL A   1      33.336  35.368  29.731  1.00  0.00    -0.351 N 
ATOM     74  C   UNL A   1      33.512  35.128  31.060  1.00  0.00     0.278 C 
ATOM     75  H   UNL A   1      32.485  35.807  29.500  1.00  0.00     0.163 HD
ATOM     76  O   UNL A   1      32.538  35.356  31.783  1.00  0.00    -0.268 OA
BRANCH  74  77
ATOM     77  C   UNL A   1      34.890  34.699  31.632  1.00  0.00     0.274 C 
ATOM     78  C   UNL A   1      35.150  35.440  32.946  1.00  0.00     0.081 C 
ATOM     79  N   UNL A   1      34.905  33.270  32.020  1.00  0.00    -0.321 N 
ATOM     80  C   UNL A   1      34.538  34.545  34.018  1.00  0.00     0.068 C 
ATOM     81  C   UNL A   1      34.276  33.208  33.339  1.00  0.00     0.263 C 
ATOM     82  H   UNL A   1      34.373  32.721  31.344  1.00  0.00     0.349 HD
BRANCH  79  83
ATOM     83  C   UNL A   1      36.204  32.580  31.902  1.00  0.00     0.307 C 
BRANCH  83  84
ATOM     84  C   UNL A   1      37.325  33.261  31.137  1.00  0.00     0.084 A 
ATOM     85  C   UNL A   1      37.306  33.208  29.728  1.00  0.00     0.017 A 
ATOM     86  C   UNL A   1      38.374  33.991  31.729  1.00  0.00     0.278 A 
ATOM     87  C   UNL A   1      38.238  33.912  28.957  1.00  0.00     0.001 A 
ATOM     88  C   UNL A   1      39.302  34.716  30.960  1.00  0.00     0.086 A 
ATOM     89  C   UNL A   1      39.221  34.683  29.572  1.00  0.00     0.007 A 
BRANCH  86  90
ATOM     90  N   UNL A   1      38.578  34.005  33.170  1.00  0.00     0.063 N 
ATOM     91  O   UNL A   1      38.187  35.005  33.787  1.00  0.00    -0.258 OA
ATOM     92  O   UNL A   1      39.155  33.034  33.673  1.00  0.00    -0.258 OA
ENDBRANCH  86  90
ENDBRANCH  83  84
ENDBRANCH  79  83
ENDBRANCH  74  77
ENDBRANCH  72  73
ENDBRANCH   1  72
TORSDOF 13
ENDMDL
MODEL 3
REMARK VINA RESULT:     -12.0      1.834      2.650
REMARK SMILES O=C(NCCCNC(=O)[C@H]1CCC[N@@H+]1Cc1ccccc1[N+](=O)[O-])c1ccc(-c2c3nc(c(-c4c(F)c(F)c(F)c(F)c4F)c4ccc([nH]4)c(-c4c(F)c(F)c(F)c(F)c4F)c4nc(c(-c5c(F)c(F)c(F)c(F)c5F)c5ccc2[nH]5)C=C4)C=C3)cc1
REMARK SMILES IDX 5 1 4 2 3 3 1 4 2 5 25 7 26 8 87 9 27 10 86 11 28 12 29 13
REMARK SMILES IDX 30 14 80 15 31 16 85 17 79 18 81 19 32 20 84 21 78 22 77 23
REMARK SMILES IDX 33 25 65 26 45 27 64 28 46 29 49 30 63 31 82 32 47 33 48 34
REMARK SMILES IDX 62 36 83 37 50 38 34 39 35 40 43 41 36 42 37 43 41 44 44 45
REMARK SMILES IDX 38 46 39 47 42 48 40 49 66 50 67 51 75 52 68 53 69 54 73 55
REMARK SMILES IDX 76 56 70 57 71 58 74 59 72 60 51 61 52 62 60 63 53 64 54 65
REMARK SMILES IDX 58 66 61 67 55 68 56 69 59 70 57 71 6 72 7 73 8 74 9 76
REMARK SMILES IDX 10 77 11 78 14 79 12 80 13 81 15 83 16 84 17 85 21 86 18 87
REMARK SMILES IDX 20 88 19 89 22 90 23 91 24 92
REMARK H PARENT 3 6 81 24 49 35 7 75 14 82
REMARK Flexibility Score: inf
ROOT
ATOM      1  C   UNL A   1      31.353  32.165  26.667  1.00  0.00     0.042 C 
ENDROOT
BRANCH   1   2
ATOM      2  C   UNL A   1      32.651  32.905  26.988  1.00  0.00     0.118 C 
BRANCH   2   3
ATOM      3  N   UNL A   1      32.435  34.203  27.613  1.00  0.00    -0.352 N 
ATOM      4  O   UNL A   1      32.625  35.842  29.143  1.00  0.00    -0.269 OA
ATOM      5  C   UNL A   1      33.065  34.790  28.682  1.00  0.00     0.251 C 
ATOM      6  H   UNL A   1      31.724  34.746  27.202  1.00  0.00     0.163 HD
BRANCH   5   7
ATOM      7  C   UNL A   1      34.252  34.164  29.302  1.00  0.00     0.039 A 
ATOM      8  C   UNL A   1      35.545  34.516  28.911  1.00  0.00     0.014 A 
ATOM      9  C   UNL A   1      34.065  33.235  30.332  1.00  0.00     0.014 A 
ATOM     10  C   UNL A   1      36.640  33.845  29.448  1.00  0.00     0.010 A 
ATOM     11  C   UNL A   1      35.169  32.616  30.926  1.00  0.00     0.010 A 
ATOM     12  C   UNL A   1      36.466  32.893  30.467  1.00  0.00    -0.014 A 
BRANCH  12  13
ATOM     13  C   UNL A   1      37.656  32.237  31.066  1.00  0.00     0.031 A 
ATOM     14  C   UNL A   1      38.117  32.581  32.454  1.00  0.00     0.074 A 
ATOM     15  C   UNL A   1      38.306  31.296  30.354  1.00  0.00     0.049 A 
ATOM     16  N   UNL A   1      39.112  32.078  33.143  1.00  0.00    -0.248 NA
ATOM     17  C   UNL A   1      37.372  33.634  33.162  1.00  0.00     0.031 C 
ATOM     18  C   UNL A   1      37.963  30.889  28.990  1.00  0.00     0.029 A 
ATOM     19  N   UNL A   1      39.374  30.500  30.680  1.00  0.00    -0.354 N 
ATOM     20  C   UNL A   1      39.120  32.758  34.354  1.00  0.00     0.074 A 
ATOM     21  C   UNL A   1      38.052  33.732  34.296  1.00  0.00     0.031 C 
ATOM     22  C   UNL A   1      38.774  29.890  28.613  1.00  0.00     0.029 A 
ATOM     23  C   UNL A   1      39.725  29.621  29.686  1.00  0.00     0.049 A 
ATOM     24  H   UNL A   1      39.845  30.555  31.543  1.00  0.00     0.167 HD
ATOM     25  C   UNL A   1      39.940  32.576  35.418  1.00  0.00     0.037 A 
ATOM     26  C   UNL A   1      40.709  28.703  29.639  1.00  0.00     0.037 A 
ATOM     27  C   UNL A   1      40.993  31.593  35.478  1.00  0.00     0.049 A 
ATOM     28  C   UNL A   1      41.610  28.536  30.828  1.00  0.00     0.074 A 
ATOM     29  C   UNL A   1      41.849  31.307  36.527  1.00  0.00     0.029 A 
ATOM     30  N   UNL A   1      41.334  30.738  34.440  1.00  0.00    -0.354 N 
ATOM     31  N   UNL A   1      41.581  29.156  31.982  1.00  0.00    -0.248 NA
ATOM     32  C   UNL A   1      42.683  27.539  30.707  1.00  0.00     0.031 C 
ATOM     33  C   UNL A   1      42.738  30.311  36.110  1.00  0.00     0.029 A 
ATOM     34  C   UNL A   1      42.404  29.940  34.817  1.00  0.00     0.049 A 
ATOM     35  H   UNL A   1      40.883  30.703  33.566  1.00  0.00     0.167 HD
ATOM     36  C   UNL A   1      42.617  28.616  32.731  1.00  0.00     0.074 A 
ATOM     37  C   UNL A   1      43.243  27.601  31.907  1.00  0.00     0.031 C 
ATOM     38  C   UNL A   1      43.016  28.935  33.987  1.00  0.00     0.037 A 
BRANCH  25  39
ATOM     39  C   UNL A   1      39.741  33.468  36.611  1.00  0.00     0.064 A 
ATOM     40  C   UNL A   1      40.408  34.696  36.732  1.00  0.00     0.173 A 
ATOM     41  C   UNL A   1      38.832  33.113  37.620  1.00  0.00     0.173 A 
ATOM     42  F   UNL A   1      41.294  35.078  35.800  1.00  0.00    -0.203 F 
ATOM     43  C   UNL A   1      40.191  35.524  37.831  1.00  0.00     0.198 A 
ATOM     44  C   UNL A   1      38.598  33.956  38.704  1.00  0.00     0.198 A 
ATOM     45  F   UNL A   1      38.161  31.954  37.549  1.00  0.00    -0.203 F 
ATOM     46  F   UNL A   1      40.870  36.674  37.946  1.00  0.00    -0.200 F 
ATOM     47  C   UNL A   1      39.282  35.157  38.811  1.00  0.00     0.200 A 
ATOM     48  F   UNL A   1      37.709  33.605  39.644  1.00  0.00    -0.200 F 
ATOM     49  F   UNL A   1      39.069  35.959  39.864  1.00  0.00    -0.200 F 
ENDBRANCH  25  39
BRANCH  26  50
ATOM     50  C   UNL A   1      40.881  27.869  28.422  1.00  0.00     0.064 A 
ATOM     51  C   UNL A   1      40.241  26.629  28.302  1.00  0.00     0.173 A 
ATOM     52  C   UNL A   1      41.675  28.302  27.350  1.00  0.00     0.173 A 
ATOM     53  F   UNL A   1      39.486  26.164  29.309  1.00  0.00    -0.203 F 
ATOM     54  C   UNL A   1      40.400  25.846  27.160  1.00  0.00     0.198 A 
ATOM     55  C   UNL A   1      41.810  27.532  26.198  1.00  0.00     0.198 A 
ATOM     56  F   UNL A   1      42.305  29.484  27.416  1.00  0.00    -0.203 F 
ATOM     57  F   UNL A   1      39.809  24.646  27.085  1.00  0.00    -0.200 F 
ATOM     58  C   UNL A   1      41.178  26.301  26.107  1.00  0.00     0.200 A 
ATOM     59  F   UNL A   1      42.551  27.983  25.176  1.00  0.00    -0.200 F 
ATOM     60  F   UNL A   1      41.324  25.552  25.006  1.00  0.00    -0.200 F 
ENDBRANCH  26  50
BRANCH  38  61
ATOM     61  C   UNL A   1      44.168  28.159  34.552  1.00  0.00     0.064 A 
ATOM     62  C   UNL A   1      45.489  28.614  34.434  1.00  0.00     0.173 A 
ATOM     63  C   UNL A   1      43.946  26.955  35.239  1.00  0.00     0.173 A 
ATOM     64  F   UNL A   1      45.754  29.751  33.772  1.00  0.00    -0.203 F 
ATOM     65  C   UNL A   1      46.549  27.879  34.958  1.00  0.00     0.198 A 
ATOM     66  C   UNL A   1      45.005  26.237  35.785  1.00  0.00     0.198 A 
ATOM     67  F   UNL A   1      42.700  26.479  35.382  1.00  0.00    -0.203 F 
ATOM     68  F   UNL A   1      47.808  28.307  34.789  1.00  0.00    -0.200 F 
ATOM     69  C   UNL A   1      46.305  26.695  35.638  1.00  0.00     0.200 A 
ATOM     70  F   UNL A   1      44.768  25.098  36.451  1.00  0.00    -0.200 F 
ATOM     71  F   UNL A   1      47.327  25.988  36.142  1.00  0.00    -0.200 F 
ENDBRANCH  38  61
ENDBRANCH  12  13
ENDBRANCH   5   7
ENDBRANCH   2   3
ENDBRANCH   1   2
BRANCH   1  72
ATOM     72  C   UNL A   1      31.546  30.786  26.039  1.00  0.00     0.118 C 
BRANCH  72  73
ATOM     73  N   UNL A   1      31.787  29.767  27.039  1.00  0.00    -0.351 N 
ATOM     74  C   UNL A   1      31.655  28.414  26.968  1.00  0.00     0.278 C 
ATOM     75  H   UNL A   1      32.096  30.108  27.909  1.00  0.00     0.163 HD
ATOM     76  O   UNL A   1      31.800  27.802  28.031  1.00  0.00    -0.268 OA
BRANCH  74  77
ATOM     77  C   UNL A   1      31.446  27.687  25.612  1.00  0.00     0.274 C 
ATOM     78  C   UNL A   1      32.560  28.085  24.642  1.00  0.00     0.081 C 
ATOM     79  N   UNL A   1      31.596  26.220  25.746  1.00  0.00    -0.321 N 
ATOM     80  C   UNL A   1      33.672  27.074  24.900  1.00  0.00     0.068 C 
ATOM     81  C   UNL A   1      33.036  25.963  25.724  1.00  0.00     0.263 C 
ATOM     82  H   UNL A   1      31.191  25.907  26.628  1.00  0.00     0.349 HD
BRANCH  79  83
ATOM     83  C   UNL A   1      30.790  25.400  24.821  1.00  0.00     0.307 C 
BRANCH  83  84
ATOM     84  C   UNL A   1      31.243  23.983  24.516  1.00  0.00     0.084 A 
ATOM     85  C   UNL A   1      31.691  23.688  23.211  1.00  0.00     0.017 A 
ATOM     86  C   UNL A   1      31.299  22.936  25.456  1.00  0.00     0.278 A 
ATOM     87  C   UNL A   1      32.234  22.438  22.890  1.00  0.00     0.001 A 
ATOM     88  C   UNL A   1      31.861  21.686  25.145  1.00  0.00     0.086 A 
ATOM     89  C   UNL A   1      32.339  21.446  23.861  1.00  0.00     0.007 A 
BRANCH  86  90
ATOM     90  N   UNL A   1      30.741  23.080  26.793  1.00  0.00     0.063 N 
ATOM     91  O   UNL A   1      31.479  23.556  27.666  1.00  0.00    -0.258 OA
ATOM     92  O   UNL A   1      29.582  22.686  26.972  1.00  0.00    -0.258 OA
ENDBRANCH  86  90
ENDBRANCH  83  84
ENDBRANCH  79  83
ENDBRANCH  74  77
ENDBRANCH  72  73
ENDBRANCH   1  72
TORSDOF 13
ENDMDL
