MODEL 1
REMARK VINA RESULT:     -15.1      0.000      0.000
REMARK SMILES Cc1ccccc1[C@@H]1[NH2+][C@@H](C(=O)NCCCNC(=O)c2ccc(-c3c4nc(c(-c5c(F)c(F)c(F)c(F)c5F)c5ccc([nH]5)c(-c5c(F)c(F)c(F)c(F)c5F)c5nc(c(-c6c(F)c(F)c(F)c(F)c6F)c6ccc3[nH]6)C=C5)C=C4)cc2)CC2=c3ccccc3=N[C@@H]21
REMARK SMILES IDX 15 1 14 2 13 3 11 4 12 5 10 7 8 8 9 9 92 10 84 13 91 14
REMARK SMILES IDX 83 15 85 16 90 17 86 18 89 19 87 20 88 21 7 22 1 23 2 24
REMARK SMILES IDX 3 25 4 26 6 27 5 28 16 29 17 30 18 31 19 33 20 34 21 35
REMARK SMILES IDX 82 36 22 37 81 38 23 39 24 40 25 41 75 42 26 43 80 44 74 45
REMARK SMILES IDX 76 46 27 47 79 48 73 49 72 50 28 52 60 53 40 54 59 55 41 56
REMARK SMILES IDX 44 57 58 58 77 59 42 60 43 61 57 63 78 64 45 65 29 66 30 67
REMARK SMILES IDX 38 68 31 69 32 70 36 71 39 72 33 73 34 74 37 75 35 76 61 77
REMARK SMILES IDX 62 78 70 79 63 80 64 81 68 82 71 83 65 84 66 85 69 86 67 87
REMARK SMILES IDX 46 88 47 89 55 90 48 91 49 92 53 93 56 94 50 95 51 96 54 97
REMARK SMILES IDX 52 98
REMARK H PARENT 13 6 9 11 9 12 17 32 76 51 44 62
REMARK Flexibility Score: inf
ROOT
ATOM      1  C   UNL A   1      33.143  30.638  26.899  1.00  0.00     0.042 C 
ENDROOT
BRANCH   1   2
ATOM      2  C   UNL A   1      32.897  29.857  25.582  1.00  0.00     0.118 C 
BRANCH   2   3
ATOM      3  N   UNL A   1      33.911  29.400  24.613  1.00  0.00    -0.351 N 
ATOM      4  C   UNL A   1      33.869  28.391  23.648  1.00  0.00     0.278 C 
ATOM      5  O   UNL A   1      34.472  28.499  22.585  1.00  0.00    -0.268 OA
ATOM      6  H   UNL A   1      34.764  29.890  24.652  1.00  0.00     0.163 HD
BRANCH   4   7
ATOM      7  C   UNL A   1      33.138  27.136  24.084  1.00  0.00     0.277 C 
ATOM      8  C   UNL A   1      30.646  27.218  24.161  1.00  0.00     0.243 C 
ATOM      9  N   UNL A   1      31.873  27.199  23.328  1.00  0.00    -0.327 N 
ATOM     10  C   UNL A   1      30.599  25.751  24.753  1.00  0.00     0.196 C 
ATOM     11  H   UNL A   1      31.885  28.049  22.762  1.00  0.00     0.347 HD
ATOM     12  H   UNL A   1      31.829  26.345  22.772  1.00  0.00     0.347 HD
ATOM     13  C   UNL A   1      32.006  25.454  25.340  1.00  0.00    -0.024 C 
ATOM     14  N   UNL A   1      30.466  24.723  23.662  1.00  0.00    -0.270 NA
ATOM     15  C   UNL A   1      32.918  26.676  25.542  1.00  0.00     0.109 C 
ATOM     16  C   UNL A   1      32.517  24.320  24.832  1.00  0.00     0.002 A 
ATOM     17  C   UNL A   1      31.546  24.002  23.760  1.00  0.00     0.066 A 
ATOM     18  C   UNL A   1      33.887  23.877  24.728  1.00  0.00     0.010 A 
ATOM     19  C   UNL A   1      31.990  23.003  22.752  1.00  0.00     0.028 A 
ATOM     20  C   UNL A   1      34.252  23.088  23.706  1.00  0.00     0.001 A 
ATOM     21  C   UNL A   1      33.279  22.616  22.737  1.00  0.00     0.002 A 
BRANCH   8  22
ATOM     22  C   UNL A   1      29.551  27.948  23.356  1.00  0.00     0.015 A 
ATOM     23  C   UNL A   1      27.586  26.556  24.251  1.00  0.00     0.045 C 
ATOM     24  C   UNL A   1      28.165  27.720  23.501  1.00  0.00    -0.042 A 
ATOM     25  C   UNL A   1      27.239  28.712  23.080  1.00  0.00     0.004 A 
ATOM     26  C   UNL A   1      27.655  29.928  22.554  1.00  0.00     0.000 A 
ATOM     27  C   UNL A   1      29.919  29.162  22.728  1.00  0.00     0.010 A 
ATOM     28  C   UNL A   1      29.003  30.148  22.398  1.00  0.00     0.001 A 
ENDBRANCH   8  22
ENDBRANCH   4   7
ENDBRANCH   2   3
ENDBRANCH   1   2
BRANCH   1  29
ATOM     29  C   UNL A   1      34.029  30.033  28.001  1.00  0.00     0.118 C 
BRANCH  29  30
ATOM     30  N   UNL A   1      34.823  31.083  28.671  1.00  0.00    -0.352 N 
ATOM     31  C   UNL A   1      36.160  31.114  29.023  1.00  0.00     0.251 C 
ATOM     32  H   UNL A   1      34.316  31.894  28.907  1.00  0.00     0.163 HD
ATOM     33  O   UNL A   1      36.674  32.129  29.455  1.00  0.00    -0.269 OA
BRANCH  31  34
ATOM     34  C   UNL A   1      36.974  29.911  28.786  1.00  0.00     0.039 A 
ATOM     35  C   UNL A   1      37.090  28.968  29.813  1.00  0.00     0.014 A 
ATOM     36  C   UNL A   1      37.741  29.818  27.629  1.00  0.00     0.014 A 
ATOM     37  C   UNL A   1      38.160  28.078  29.794  1.00  0.00     0.010 A 
ATOM     38  C   UNL A   1      38.805  28.934  27.613  1.00  0.00     0.010 A 
ATOM     39  C   UNL A   1      39.076  28.148  28.742  1.00  0.00    -0.014 A 
BRANCH  39  40
ATOM     40  C   UNL A   1      40.452  27.676  28.891  1.00  0.00     0.031 A 
ATOM     41  C   UNL A   1      40.945  26.409  28.331  1.00  0.00     0.074 A 
ATOM     42  C   UNL A   1      41.350  28.521  29.446  1.00  0.00     0.049 A 
ATOM     43  N   UNL A   1      42.012  25.817  28.758  1.00  0.00    -0.248 NA
ATOM     44  C   UNL A   1      40.284  25.704  27.245  1.00  0.00     0.031 C 
ATOM     45  C   UNL A   1      42.810  28.444  29.380  1.00  0.00     0.029 A 
ATOM     46  N   UNL A   1      41.106  29.647  30.247  1.00  0.00    -0.354 N 
ATOM     47  C   UNL A   1      42.344  24.850  27.844  1.00  0.00     0.074 A 
ATOM     48  C   UNL A   1      41.191  24.759  26.968  1.00  0.00     0.031 C 
ATOM     49  C   UNL A   1      43.337  29.310  30.257  1.00  0.00     0.029 A 
ATOM     50  C   UNL A   1      42.244  29.801  31.069  1.00  0.00     0.049 A 
ATOM     51  H   UNL A   1      40.301  30.216  30.237  1.00  0.00     0.167 HD
ATOM     52  C   UNL A   1      43.604  24.325  27.839  1.00  0.00     0.037 A 
ATOM     53  C   UNL A   1      42.135  29.616  32.419  1.00  0.00     0.037 A 
ATOM     54  C   UNL A   1      44.473  24.934  28.850  1.00  0.00     0.049 A 
ATOM     55  C   UNL A   1      42.941  28.445  32.954  1.00  0.00     0.074 A 
ATOM     56  C   UNL A   1      45.505  25.859  28.812  1.00  0.00     0.029 A 
ATOM     57  N   UNL A   1      44.149  24.800  30.190  1.00  0.00    -0.354 N 
ATOM     58  N   UNL A   1      43.660  27.644  32.218  1.00  0.00    -0.248 NA
ATOM     59  C   UNL A   1      42.902  28.019  34.353  1.00  0.00     0.031 C 
ATOM     60  C   UNL A   1      45.823  26.242  30.147  1.00  0.00     0.029 A 
ATOM     61  C   UNL A   1      44.975  25.558  30.998  1.00  0.00     0.049 A 
ATOM     62  H   UNL A   1      43.417  24.233  30.526  1.00  0.00     0.167 HD
ATOM     63  C   UNL A   1      44.091  26.589  32.973  1.00  0.00     0.074 A 
ATOM     64  C   UNL A   1      43.599  26.872  34.308  1.00  0.00     0.031 C 
ATOM     65  C   UNL A   1      44.771  25.534  32.437  1.00  0.00     0.037 A 
BRANCH  52  66
ATOM     66  C   UNL A   1      44.108  23.421  26.737  1.00  0.00     0.064 A 
ATOM     67  C   UNL A   1      43.656  22.092  26.602  1.00  0.00     0.173 A 
ATOM     68  C   UNL A   1      45.067  23.818  25.785  1.00  0.00     0.173 A 
ATOM     69  F   UNL A   1      42.657  21.609  27.351  1.00  0.00    -0.203 F 
ATOM     70  C   UNL A   1      44.218  21.199  25.687  1.00  0.00     0.198 A 
ATOM     71  C   UNL A   1      45.672  22.911  24.910  1.00  0.00     0.198 A 
ATOM     72  F   UNL A   1      45.412  25.107  25.650  1.00  0.00    -0.203 F 
ATOM     73  F   UNL A   1      43.754  19.943  25.613  1.00  0.00    -0.200 F 
ATOM     74  C   UNL A   1      45.258  21.595  24.872  1.00  0.00     0.200 A 
ATOM     75  F   UNL A   1      46.662  23.323  24.105  1.00  0.00    -0.200 F 
ATOM     76  F   UNL A   1      45.837  20.723  24.038  1.00  0.00    -0.200 F 
ENDBRANCH  52  66
BRANCH  53  77
ATOM     77  C   UNL A   1      40.803  30.044  32.932  1.00  0.00     0.064 A 
ATOM     78  C   UNL A   1      40.505  31.423  32.946  1.00  0.00     0.173 A 
ATOM     79  C   UNL A   1      39.730  29.149  33.010  1.00  0.00     0.173 A 
ATOM     80  F   UNL A   1      41.494  32.327  32.850  1.00  0.00    -0.203 F 
ATOM     81  C   UNL A   1      39.190  31.879  32.913  1.00  0.00     0.198 A 
ATOM     82  C   UNL A   1      38.415  29.612  33.007  1.00  0.00     0.198 A 
ATOM     83  F   UNL A   1      39.941  27.826  32.970  1.00  0.00    -0.203 F 
ATOM     84  F   UNL A   1      38.941  33.190  32.779  1.00  0.00    -0.200 F 
ATOM     85  C   UNL A   1      38.146  30.971  32.923  1.00  0.00     0.200 A 
ATOM     86  F   UNL A   1      37.402  28.733  32.982  1.00  0.00    -0.200 F 
ATOM     87  F   UNL A   1      36.882  31.400  32.797  1.00  0.00    -0.200 F 
ENDBRANCH  53  77
BRANCH  65  88
ATOM     88  C   UNL A   1      45.278  24.372  33.244  1.00  0.00     0.064 A 
ATOM     89  C   UNL A   1      44.465  23.281  33.587  1.00  0.00     0.173 A 
ATOM     90  C   UNL A   1      46.579  24.369  33.791  1.00  0.00     0.173 A 
ATOM     91  F   UNL A   1      43.181  23.230  33.201  1.00  0.00    -0.203 F 
ATOM     92  C   UNL A   1      44.946  22.219  34.358  1.00  0.00     0.198 A 
ATOM     93  C   UNL A   1      47.039  23.337  34.605  1.00  0.00     0.198 A 
ATOM     94  F   UNL A   1      47.451  25.354  33.537  1.00  0.00    -0.203 F 
ATOM     95  F   UNL A   1      44.156  21.166  34.604  1.00  0.00    -0.200 F 
ATOM     96  C   UNL A   1      46.230  22.251  34.870  1.00  0.00     0.200 A 
ATOM     97  F   UNL A   1      48.275  23.398  35.121  1.00  0.00    -0.200 F 
ATOM     98  F   UNL A   1      46.686  21.239  35.621  1.00  0.00    -0.200 F 
ENDBRANCH  65  88
ENDBRANCH  39  40
ENDBRANCH  31  34
ENDBRANCH  29  30
ENDBRANCH   1  29
TORSDOF 11
ENDMDL
MODEL 2
REMARK VINA RESULT:     -15.0      0.107      1.113
REMARK SMILES Cc1ccccc1[C@@H]1[NH2+][C@@H](C(=O)NCCCNC(=O)c2ccc(-c3c4nc(c(-c5c(F)c(F)c(F)c(F)c5F)c5ccc([nH]5)c(-c5c(F)c(F)c(F)c(F)c5F)c5nc(c(-c6c(F)c(F)c(F)c(F)c6F)c6ccc3[nH]6)C=C5)C=C4)cc2)CC2=c3ccccc3=N[C@@H]21
REMARK SMILES IDX 15 1 14 2 13 3 11 4 12 5 10 7 8 8 9 9 92 10 84 13 91 14
REMARK SMILES IDX 83 15 85 16 90 17 86 18 89 19 87 20 88 21 7 22 1 23 2 24
REMARK SMILES IDX 3 25 4 26 6 27 5 28 16 29 17 30 18 31 19 33 20 34 21 35
REMARK SMILES IDX 82 36 22 37 81 38 23 39 24 40 25 41 75 42 26 43 80 44 74 45
REMARK SMILES IDX 76 46 27 47 79 48 73 49 72 50 28 52 60 53 40 54 59 55 41 56
REMARK SMILES IDX 44 57 58 58 77 59 42 60 43 61 57 63 78 64 45 65 29 66 30 67
REMARK SMILES IDX 38 68 31 69 32 70 36 71 39 72 33 73 34 74 37 75 35 76 61 77
REMARK SMILES IDX 62 78 70 79 63 80 64 81 68 82 71 83 65 84 66 85 69 86 67 87
REMARK SMILES IDX 46 88 47 89 55 90 48 91 49 92 53 93 56 94 50 95 51 96 54 97
REMARK SMILES IDX 52 98
REMARK H PARENT 13 6 9 11 9 12 17 32 76 51 44 62
REMARK Flexibility Score: inf
ROOT
ATOM      1  C   UNL A   1      33.038  30.596  26.929  1.00  0.00     0.042 C 
ENDROOT
BRANCH   1   2
ATOM      2  C   UNL A   1      32.828  29.859  25.581  1.00  0.00     0.118 C 
BRANCH   2   3
ATOM      3  N   UNL A   1      33.870  29.396  24.645  1.00  0.00    -0.351 N 
ATOM      4  C   UNL A   1      33.856  28.383  23.683  1.00  0.00     0.278 C 
ATOM      5  O   UNL A   1      34.492  28.486  22.639  1.00  0.00    -0.268 OA
ATOM      6  H   UNL A   1      34.723  29.886  24.709  1.00  0.00     0.163 HD
BRANCH   4   7
ATOM      7  C   UNL A   1      33.110  27.132  24.101  1.00  0.00     0.277 C 
ATOM      8  C   UNL A   1      30.617  27.218  24.101  1.00  0.00     0.243 C 
ATOM      9  N   UNL A   1      31.870  27.193  23.306  1.00  0.00    -0.327 N 
ATOM     10  C   UNL A   1      30.549  25.753  24.697  1.00  0.00     0.196 C 
ATOM     11  H   UNL A   1      31.900  28.041  22.737  1.00  0.00     0.347 HD
ATOM     12  H   UNL A   1      31.841  26.337  22.752  1.00  0.00     0.347 HD
ATOM     13  C   UNL A   1      31.937  25.457  25.328  1.00  0.00    -0.024 C 
ATOM     14  N   UNL A   1      30.449  24.721  23.606  1.00  0.00    -0.270 NA
ATOM     15  C   UNL A   1      32.845  26.679  25.554  1.00  0.00     0.109 C 
ATOM     16  C   UNL A   1      32.462  24.320  24.841  1.00  0.00     0.002 A 
ATOM     17  C   UNL A   1      31.524  23.999  23.741  1.00  0.00     0.066 A 
ATOM     18  C   UNL A   1      33.833  23.875  24.782  1.00  0.00     0.010 A 
ATOM     19  C   UNL A   1      31.998  22.995  22.751  1.00  0.00     0.028 A 
ATOM     20  C   UNL A   1      34.228  23.080  23.775  1.00  0.00     0.001 A 
ATOM     21  C   UNL A   1      33.286  22.606  22.778  1.00  0.00     0.002 A 
BRANCH   8  22
ATOM     22  C   UNL A   1      29.549  27.946  23.258  1.00  0.00     0.015 A 
ATOM     23  C   UNL A   1      27.531  26.704  24.251  1.00  0.00     0.045 C 
ATOM     24  C   UNL A   1      28.155  27.791  23.427  1.00  0.00    -0.042 A 
ATOM     25  C   UNL A   1      27.271  28.797  22.951  1.00  0.00     0.004 A 
ATOM     26  C   UNL A   1      27.738  29.957  22.348  1.00  0.00     0.000 A 
ATOM     27  C   UNL A   1      29.965  29.100  22.554  1.00  0.00     0.010 A 
ATOM     28  C   UNL A   1      29.093  30.105  22.169  1.00  0.00     0.001 A 
ENDBRANCH   8  22
ENDBRANCH   4   7
ENDBRANCH   2   3
ENDBRANCH   1   2
BRANCH   1  29
ATOM     29  C   UNL A   1      33.990  30.013  27.986  1.00  0.00     0.118 C 
BRANCH  29  30
ATOM     30  N   UNL A   1      34.778  31.085  28.630  1.00  0.00    -0.352 N 
ATOM     31  C   UNL A   1      36.113  31.129  28.989  1.00  0.00     0.251 C 
ATOM     32  H   UNL A   1      34.269  31.902  28.836  1.00  0.00     0.163 HD
ATOM     33  O   UNL A   1      36.623  32.157  29.394  1.00  0.00    -0.269 OA
BRANCH  31  34
ATOM     34  C   UNL A   1      36.930  29.920  28.795  1.00  0.00     0.039 A 
ATOM     35  C   UNL A   1      37.078  29.033  29.867  1.00  0.00     0.014 A 
ATOM     36  C   UNL A   1      37.670  29.771  27.626  1.00  0.00     0.014 A 
ATOM     37  C   UNL A   1      38.154  28.149  29.868  1.00  0.00     0.010 A 
ATOM     38  C   UNL A   1      38.740  28.895  27.630  1.00  0.00     0.010 A 
ATOM     39  C   UNL A   1      39.044  28.170  28.791  1.00  0.00    -0.014 A 
BRANCH  39  40
ATOM     40  C   UNL A   1      40.426  27.715  28.930  1.00  0.00     0.031 A 
ATOM     41  C   UNL A   1      40.930  26.451  28.374  1.00  0.00     0.074 A 
ATOM     42  C   UNL A   1      41.319  28.575  29.473  1.00  0.00     0.049 A 
ATOM     43  N   UNL A   1      42.007  25.873  28.795  1.00  0.00    -0.248 NA
ATOM     44  C   UNL A   1      40.266  25.731  27.298  1.00  0.00     0.031 C 
ATOM     45  C   UNL A   1      42.780  28.513  29.394  1.00  0.00     0.029 A 
ATOM     46  N   UNL A   1      41.069  29.702  30.268  1.00  0.00    -0.354 N 
ATOM     47  C   UNL A   1      42.342  24.905  27.884  1.00  0.00     0.074 A 
ATOM     48  C   UNL A   1      41.183  24.795  27.019  1.00  0.00     0.031 C 
ATOM     49  C   UNL A   1      43.304  29.391  30.261  1.00  0.00     0.029 A 
ATOM     50  C   UNL A   1      42.213  29.875  31.080  1.00  0.00     0.049 A 
ATOM     51  H   UNL A   1      40.258  30.261  30.263  1.00  0.00     0.167 HD
ATOM     52  C   UNL A   1      43.608  24.395  27.870  1.00  0.00     0.037 A 
ATOM     53  C   UNL A   1      42.118  29.696  32.431  1.00  0.00     0.037 A 
ATOM     54  C   UNL A   1      44.478  25.020  28.870  1.00  0.00     0.049 A 
ATOM     55  C   UNL A   1      42.942  28.538  32.966  1.00  0.00     0.074 A 
ATOM     56  C   UNL A   1      45.500  25.958  28.817  1.00  0.00     0.029 A 
ATOM     57  N   UNL A   1      44.168  24.891  30.213  1.00  0.00    -0.354 N 
ATOM     58  N   UNL A   1      43.664  27.742  32.229  1.00  0.00    -0.248 NA
ATOM     59  C   UNL A   1      42.921  28.121  34.369  1.00  0.00     0.031 C 
ATOM     60  C   UNL A   1      45.825  26.352  30.147  1.00  0.00     0.029 A 
ATOM     61  C   UNL A   1      44.993  25.664  31.010  1.00  0.00     0.049 A 
ATOM     62  H   UNL A   1      43.446  24.318  30.560  1.00  0.00     0.167 HD
ATOM     63  C   UNL A   1      44.114  26.696  32.986  1.00  0.00     0.074 A 
ATOM     64  C   UNL A   1      43.631  26.982  34.324  1.00  0.00     0.031 C 
ATOM     65  C   UNL A   1      44.802  25.646  32.450  1.00  0.00     0.037 A 
BRANCH  52  66
ATOM     66  C   UNL A   1      44.113  23.491  26.770  1.00  0.00     0.064 A 
ATOM     67  C   UNL A   1      43.659  22.162  26.634  1.00  0.00     0.173 A 
ATOM     68  C   UNL A   1      45.074  23.886  25.820  1.00  0.00     0.173 A 
ATOM     69  F   UNL A   1      42.657  21.680  27.380  1.00  0.00    -0.203 F 
ATOM     70  C   UNL A   1      44.221  21.268  25.720  1.00  0.00     0.198 A 
ATOM     71  C   UNL A   1      45.680  22.978  24.946  1.00  0.00     0.198 A 
ATOM     72  F   UNL A   1      45.422  25.174  25.686  1.00  0.00    -0.203 F 
ATOM     73  F   UNL A   1      43.754  20.013  25.645  1.00  0.00    -0.200 F 
ATOM     74  C   UNL A   1      45.263  21.663  24.907  1.00  0.00     0.200 A 
ATOM     75  F   UNL A   1      46.672  23.388  24.143  1.00  0.00    -0.200 F 
ATOM     76  F   UNL A   1      45.843  20.789  24.074  1.00  0.00    -0.200 F 
ENDBRANCH  52  66
BRANCH  53  77
ATOM     77  C   UNL A   1      40.786  30.113  32.954  1.00  0.00     0.064 A 
ATOM     78  C   UNL A   1      40.469  31.487  32.957  1.00  0.00     0.173 A 
ATOM     79  C   UNL A   1      39.726  29.204  33.053  1.00  0.00     0.173 A 
ATOM     80  F   UNL A   1      41.445  32.403  32.840  1.00  0.00    -0.203 F 
ATOM     81  C   UNL A   1      39.147  31.925  32.932  1.00  0.00     0.198 A 
ATOM     82  C   UNL A   1      38.404  29.649  33.058  1.00  0.00     0.198 A 
ATOM     83  F   UNL A   1      39.954  27.883  33.025  1.00  0.00    -0.203 F 
ATOM     84  F   UNL A   1      38.879  33.230  32.786  1.00  0.00    -0.200 F 
ATOM     85  C   UNL A   1      38.116  31.003  32.963  1.00  0.00     0.200 A 
ATOM     86  F   UNL A   1      37.404  28.756  33.054  1.00  0.00    -0.200 F 
ATOM     87  F   UNL A   1      36.846  31.414  32.845  1.00  0.00    -0.200 F 
ENDBRANCH  53  77
BRANCH  65  88
ATOM     88  C   UNL A   1      45.329  24.495  33.260  1.00  0.00     0.064 A 
ATOM     89  C   UNL A   1      46.664  24.423  33.687  1.00  0.00     0.173 A 
ATOM     90  C   UNL A   1      44.528  23.369  33.545  1.00  0.00     0.173 A 
ATOM     91  F   UNL A   1      47.538  25.395  33.386  1.00  0.00    -0.203 F 
ATOM     92  C   UNL A   1      47.143  23.334  34.421  1.00  0.00     0.198 A 
ATOM     93  C   UNL A   1      45.022  22.260  34.228  1.00  0.00     0.198 A 
ATOM     94  F   UNL A   1      43.237  23.317  33.190  1.00  0.00    -0.203 F 
ATOM     95  F   UNL A   1      48.406  23.338  34.867  1.00  0.00    -0.200 F 
ATOM     96  C   UNL A   1      46.323  22.252  34.685  1.00  0.00     0.200 A 
ATOM     97  F   UNL A   1      44.224  21.205  34.447  1.00  0.00    -0.200 F 
ATOM     98  F   UNL A   1      46.788  21.202  35.376  1.00  0.00    -0.200 F 
ENDBRANCH  65  88
ENDBRANCH  39  40
ENDBRANCH  31  34
ENDBRANCH  29  30
ENDBRANCH   1  29
TORSDOF 11
ENDMDL
MODEL 3
REMARK VINA RESULT:     -14.9      4.291     10.179
REMARK SMILES Cc1ccccc1[C@@H]1[NH2+][C@@H](C(=O)NCCCNC(=O)c2ccc(-c3c4nc(c(-c5c(F)c(F)c(F)c(F)c5F)c5ccc([nH]5)c(-c5c(F)c(F)c(F)c(F)c5F)c5nc(c(-c6c(F)c(F)c(F)c(F)c6F)c6ccc3[nH]6)C=C5)C=C4)cc2)CC2=c3ccccc3=N[C@@H]21
REMARK SMILES IDX 15 1 14 2 13 3 11 4 12 5 10 7 8 8 9 9 92 10 84 13 91 14
REMARK SMILES IDX 83 15 85 16 90 17 86 18 89 19 87 20 88 21 7 22 1 23 2 24
REMARK SMILES IDX 3 25 4 26 6 27 5 28 16 29 17 30 18 31 19 33 20 34 21 35
REMARK SMILES IDX 82 36 22 37 81 38 23 39 24 40 25 41 75 42 26 43 80 44 74 45
REMARK SMILES IDX 76 46 27 47 79 48 73 49 72 50 28 52 60 53 40 54 59 55 41 56
REMARK SMILES IDX 44 57 58 58 77 59 42 60 43 61 57 63 78 64 45 65 29 66 30 67
REMARK SMILES IDX 38 68 31 69 32 70 36 71 39 72 33 73 34 74 37 75 35 76 61 77
REMARK SMILES IDX 62 78 70 79 63 80 64 81 68 82 71 83 65 84 66 85 69 86 67 87
REMARK SMILES IDX 46 88 47 89 55 90 48 91 49 92 53 93 56 94 50 95 51 96 54 97
REMARK SMILES IDX 52 98
REMARK H PARENT 13 6 9 11 9 12 17 32 76 51 44 62
REMARK Flexibility Score: inf
ROOT
ATOM      1  C   UNL A   1      39.063  21.321  26.124  1.00  0.00     0.042 C 
ENDROOT
BRANCH   1   2
ATOM      2  C   UNL A   1      38.082  21.015  24.961  1.00  0.00     0.118 C 
BRANCH   2   3
ATOM      3  N   UNL A   1      37.412  21.988  24.079  1.00  0.00    -0.351 N 
ATOM      4  C   UNL A   1      36.126  22.531  24.121  1.00  0.00     0.278 C 
ATOM      5  O   UNL A   1      35.906  23.680  23.751  1.00  0.00    -0.268 OA
ATOM      6  H   UNL A   1      37.966  22.311  23.332  1.00  0.00     0.163 HD
BRANCH   4   7
ATOM      7  C   UNL A   1      35.044  21.551  24.530  1.00  0.00     0.277 C 
ATOM      8  C   UNL A   1      32.718  22.424  24.753  1.00  0.00     0.243 C 
ATOM      9  N   UNL A   1      33.841  22.069  23.851  1.00  0.00    -0.327 N 
ATOM     10  C   UNL A   1      32.219  21.012  25.267  1.00  0.00     0.196 C 
ATOM     11  H   UNL A   1      34.107  22.907  23.332  1.00  0.00     0.347 HD
ATOM     12  H   UNL A   1      33.503  21.315  23.254  1.00  0.00     0.347 HD
ATOM     13  C   UNL A   1      33.476  20.239  25.757  1.00  0.00    -0.024 C 
ATOM     14  N   UNL A   1      31.721  20.159  24.132  1.00  0.00    -0.270 NA
ATOM     15  C   UNL A   1      34.741  21.087  25.972  1.00  0.00     0.109 C 
ATOM     16  C   UNL A   1      33.572  19.039  25.161  1.00  0.00     0.002 A 
ATOM     17  C   UNL A   1      32.512  19.124  24.130  1.00  0.00     0.066 A 
ATOM     18  C   UNL A   1      34.720  18.188  24.956  1.00  0.00     0.010 A 
ATOM     19  C   UNL A   1      32.571  18.107  23.046  1.00  0.00     0.028 A 
ATOM     20  C   UNL A   1      34.771  17.396  23.874  1.00  0.00     0.001 A 
ATOM     21  C   UNL A   1      33.664  17.330  22.938  1.00  0.00     0.002 A 
BRANCH   8  22
ATOM     22  C   UNL A   1      31.890  23.520  24.051  1.00  0.00     0.015 A 
ATOM     23  C   UNL A   1      30.535  24.202  26.125  1.00  0.00     0.045 C 
ATOM     24  C   UNL A   1      31.000  24.396  24.711  1.00  0.00    -0.042 A 
ATOM     25  C   UNL A   1      30.640  25.628  24.101  1.00  0.00     0.004 A 
ATOM     26  C   UNL A   1      31.165  26.020  22.877  1.00  0.00     0.000 A 
ATOM     27  C   UNL A   1      32.321  23.925  22.766  1.00  0.00     0.010 A 
ATOM     28  C   UNL A   1      32.021  25.164  22.225  1.00  0.00     0.001 A 
ENDBRANCH   8  22
ENDBRANCH   4   7
ENDBRANCH   2   3
ENDBRANCH   1   2
BRANCH   1  29
ATOM     29  C   UNL A   1      39.278  22.771  26.588  1.00  0.00     0.118 C 
BRANCH  29  30
ATOM     30  N   UNL A   1      40.712  23.040  26.819  1.00  0.00    -0.352 N 
ATOM     31  C   UNL A   1      41.362  24.203  27.188  1.00  0.00     0.251 C 
ATOM     32  H   UNL A   1      41.302  22.263  26.687  1.00  0.00     0.163 HD
ATOM     33  O   UNL A   1      42.548  24.203  27.462  1.00  0.00    -0.269 OA
BRANCH  31  34
ATOM     34  C   UNL A   1      40.568  25.436  27.323  1.00  0.00     0.039 A 
ATOM     35  C   UNL A   1      40.864  26.517  26.486  1.00  0.00     0.014 A 
ATOM     36  C   UNL A   1      39.671  25.562  28.379  1.00  0.00     0.014 A 
ATOM     37  C   UNL A   1      40.457  27.794  26.864  1.00  0.00     0.010 A 
ATOM     38  C   UNL A   1      39.270  26.832  28.754  1.00  0.00     0.010 A 
ATOM     39  C   UNL A   1      39.756  27.950  28.063  1.00  0.00    -0.014 A 
BRANCH  39  40
ATOM     40  C   UNL A   1      39.763  29.215  28.795  1.00  0.00     0.031 A 
ATOM     41  C   UNL A   1      38.687  30.214  28.710  1.00  0.00     0.074 A 
ATOM     42  C   UNL A   1      40.741  29.407  29.710  1.00  0.00     0.049 A 
ATOM     43  N   UNL A   1      38.847  31.454  29.038  1.00  0.00    -0.248 NA
ATOM     44  C   UNL A   1      37.342  29.903  28.251  1.00  0.00     0.031 C 
ATOM     45  C   UNL A   1      40.767  30.386  30.798  1.00  0.00     0.029 A 
ATOM     46  N   UNL A   1      41.974  28.748  29.816  1.00  0.00    -0.354 N 
ATOM     47  C   UNL A   1      37.603  32.024  29.126  1.00  0.00     0.074 A 
ATOM     48  C   UNL A   1      36.706  31.044  28.542  1.00  0.00     0.031 C 
ATOM     49  C   UNL A   1      42.001  30.430  31.320  1.00  0.00     0.029 A 
ATOM     50  C   UNL A   1      42.855  29.656  30.444  1.00  0.00     0.049 A 
ATOM     51  H   UNL A   1      42.183  27.834  29.514  1.00  0.00     0.167 HD
ATOM     52  C   UNL A   1      37.441  33.199  29.802  1.00  0.00     0.037 A 
ATOM     53  C   UNL A   1      43.915  30.164  29.746  1.00  0.00     0.037 A 
ATOM     54  C   UNL A   1      38.690  33.685  30.395  1.00  0.00     0.049 A 
ATOM     55  C   UNL A   1      43.856  31.666  29.529  1.00  0.00     0.074 A 
ATOM     56  C   UNL A   1      39.208  33.710  31.681  1.00  0.00     0.029 A 
ATOM     57  N   UNL A   1      39.749  34.014  29.566  1.00  0.00    -0.354 N 
ATOM     58  N   UNL A   1      42.881  32.433  29.929  1.00  0.00    -0.248 NA
ATOM     59  C   UNL A   1      44.844  32.400  28.738  1.00  0.00     0.031 C 
ATOM     60  C   UNL A   1      40.575  34.102  31.613  1.00  0.00     0.029 A 
ATOM     61  C   UNL A   1      40.895  34.304  30.284  1.00  0.00     0.049 A 
ATOM     62  H   UNL A   1      39.693  34.039  28.583  1.00  0.00     0.167 HD
ATOM     63  C   UNL A   1      43.038  33.687  29.405  1.00  0.00     0.074 A 
ATOM     64  C   UNL A   1      44.288  33.620  28.673  1.00  0.00     0.031 C 
ATOM     65  C   UNL A   1      42.104  34.669  29.566  1.00  0.00     0.037 A 
BRANCH  52  66
ATOM     66  C   UNL A   1      36.081  33.774  30.125  1.00  0.00     0.064 A 
ATOM     67  C   UNL A   1      35.233  34.285  29.120  1.00  0.00     0.173 A 
ATOM     68  C   UNL A   1      35.568  33.865  31.433  1.00  0.00     0.173 A 
ATOM     69  F   UNL A   1      35.525  34.156  27.820  1.00  0.00    -0.203 F 
ATOM     70  C   UNL A   1      34.043  34.954  29.414  1.00  0.00     0.198 A 
ATOM     71  C   UNL A   1      34.408  34.586  31.733  1.00  0.00     0.198 A 
ATOM     72  F   UNL A   1      36.156  33.220  32.451  1.00  0.00    -0.203 F 
ATOM     73  F   UNL A   1      33.283  35.428  28.415  1.00  0.00    -0.200 F 
ATOM     74  C   UNL A   1      33.653  35.145  30.722  1.00  0.00     0.200 A 
ATOM     75  F   UNL A   1      34.030  34.737  33.011  1.00  0.00    -0.200 F 
ATOM     76  F   UNL A   1      32.543  35.840  31.006  1.00  0.00    -0.200 F 
ENDBRANCH  52  66
BRANCH  53  77
ATOM     77  C   UNL A   1      44.460  29.178  28.771  1.00  0.00     0.064 A 
ATOM     78  C   UNL A   1      45.165  28.063  29.270  1.00  0.00     0.173 A 
ATOM     79  C   UNL A   1      43.968  29.100  27.462  1.00  0.00     0.173 A 
ATOM     80  F   UNL A   1      45.638  28.074  30.527  1.00  0.00    -0.203 F 
ATOM     81  C   UNL A   1      45.261  26.882  28.539  1.00  0.00     0.198 A 
ATOM     82  C   UNL A   1      44.094  27.924  26.723  1.00  0.00     0.198 A 
ATOM     83  F   UNL A   1      43.263  30.112  26.937  1.00  0.00    -0.203 F 
ATOM     84  F   UNL A   1      45.808  25.793  29.100  1.00  0.00    -0.200 F 
ATOM     85  C   UNL A   1      44.707  26.807  27.274  1.00  0.00     0.200 A 
ATOM     86  F   UNL A   1      43.528  27.839  25.510  1.00  0.00    -0.200 F 
ATOM     87  F   UNL A   1      44.715  25.646  26.605  1.00  0.00    -0.200 F 
ENDBRANCH  53  77
BRANCH  65  88
ATOM     88  C   UNL A   1      42.259  36.062  29.023  1.00  0.00     0.064 A 
ATOM     89  C   UNL A   1      41.730  36.450  27.782  1.00  0.00     0.173 A 
ATOM     90  C   UNL A   1      43.040  37.029  29.691  1.00  0.00     0.173 A 
ATOM     91  F   UNL A   1      41.053  35.580  27.018  1.00  0.00    -0.203 F 
ATOM     92  C   UNL A   1      41.903  37.744  27.282  1.00  0.00     0.198 A 
ATOM     93  C   UNL A   1      43.258  38.300  29.165  1.00  0.00     0.198 A 
ATOM     94  F   UNL A   1      43.598  36.779  30.884  1.00  0.00    -0.203 F 
ATOM     95  F   UNL A   1      41.323  38.092  26.126  1.00  0.00    -0.200 F 
ATOM     96  C   UNL A   1      42.671  38.665  27.971  1.00  0.00     0.200 A 
ATOM     97  F   UNL A   1      44.031  39.170  29.829  1.00  0.00    -0.200 F 
ATOM     98  F   UNL A   1      42.847  39.901  27.484  1.00  0.00    -0.200 F 
ENDBRANCH  65  88
ENDBRANCH  39  40
ENDBRANCH  31  34
ENDBRANCH  29  30
ENDBRANCH   1  29
TORSDOF 11
ENDMDL
