MODEL 1
REMARK VINA RESULT:     -12.9      0.000      0.000
REMARK SMILES C[C@@H](C(=O)NCCCNC(=O)c1ccc(-c2c3nc(c(-c4c(F)c(F)c(F)c(F)c4F)c4ccc([nH]4)c(-c4c(F)c(F)c(F)c(F)c4F)c4nc(c(-c5c(F)c(F)c(F)c(F)c5F)c5ccc2[nH]5)C=C4)C=C3)cc1)c1ccc(C[C@H]2CCCC2=O)cc1[N+](=O)[O-]
REMARK SMILES IDX 6 1 5 2 3 3 4 4 2 6 1 7 75 8 76 9 87 10 77 11 86 12 78 13
REMARK SMILES IDX 88 14 89 15 90 16 79 17 80 18 81 19 84 20 82 21 83 22 85 23
REMARK SMILES IDX 7 24 8 25 9 26 10 27 11 29 12 30 13 31 74 32 14 33 73 34
REMARK SMILES IDX 15 35 16 36 17 37 67 38 18 39 72 40 66 41 68 42 19 43 71 44
REMARK SMILES IDX 65 45 64 46 20 48 52 49 32 50 51 51 33 52 36 53 50 54 69 55
REMARK SMILES IDX 34 56 35 57 49 59 70 60 37 61 21 62 22 63 30 64 23 65 24 66
REMARK SMILES IDX 28 67 31 68 25 69 26 70 29 71 27 72 53 73 54 74 62 75 55 76
REMARK SMILES IDX 56 77 60 78 63 79 57 80 58 81 61 82 59 83 38 84 39 85 47 86
REMARK SMILES IDX 40 87 41 88 45 89 48 90 42 91 43 92 46 93 44 94
REMARK H PARENT 5 5 9 28 68 47 36 58
REMARK Flexibility Score: inf
ROOT
ATOM      1  C   UNL A   1      31.397  30.652  26.543  1.00  0.00     0.117 C 
ENDROOT
BRANCH   1   2
ATOM      2  N   UNL A   1      31.869  30.092  25.289  1.00  0.00    -0.356 N 
ATOM      3  C   UNL A   1      32.776  29.101  25.046  1.00  0.00     0.227 C 
ATOM      4  O   UNL A   1      33.246  29.067  23.906  1.00  0.00    -0.274 OA
ATOM      5  H   UNL A   1      31.468  30.492  24.484  1.00  0.00     0.163 HD
BRANCH   3   6
ATOM      6  C   UNL A   1      33.147  28.075  26.147  1.00  0.00     0.112 C 
ATOM      7  C   UNL A   1      34.426  28.570  26.821  1.00  0.00     0.023 C 
BRANCH   6   8
ATOM      8  C   UNL A   1      33.160  26.615  25.635  1.00  0.00     0.042 A 
ATOM      9  C   UNL A   1      34.415  26.011  25.398  1.00  0.00     0.012 A 
ATOM     10  C   UNL A   1      32.048  25.810  25.306  1.00  0.00     0.273 A 
ATOM     11  C   UNL A   1      34.546  24.691  24.939  1.00  0.00     0.004 A 
ATOM     12  C   UNL A   1      32.170  24.501  24.795  1.00  0.00     0.089 A 
ATOM     13  C   UNL A   1      33.426  23.931  24.603  1.00  0.00    -0.040 A 
BRANCH  10  14
ATOM     14  N   UNL A   1      30.679  26.262  25.418  1.00  0.00     0.063 N 
ATOM     15  O   UNL A   1      30.198  26.835  24.432  1.00  0.00    -0.258 OA
ATOM     16  O   UNL A   1      30.082  26.003  26.471  1.00  0.00    -0.258 OA
ENDBRANCH  10  14
BRANCH  13  17
ATOM     17  C   UNL A   1      33.556  22.533  24.049  1.00  0.00     0.047 C 
BRANCH  17  18
ATOM     18  C   UNL A   1      33.449  21.381  25.055  1.00  0.00     0.060 C 
ATOM     19  C   UNL A   1      32.221  20.472  24.930  1.00  0.00     0.012 C 
ATOM     20  C   UNL A   1      34.588  20.398  24.928  1.00  0.00     0.136 C 
ATOM     21  C   UNL A   1      32.671  19.240  24.155  1.00  0.00     0.009 C 
ATOM     22  C   UNL A   1      34.131  19.021  24.529  1.00  0.00     0.076 C 
ATOM     23  O   UNL A   1      35.761  20.689  25.128  1.00  0.00    -0.299 OA
ENDBRANCH  17  18
ENDBRANCH  13  17
ENDBRANCH   6   8
ENDBRANCH   3   6
ENDBRANCH   1   2
BRANCH   1  24
ATOM     24  C   UNL A   1      31.442  32.183  26.510  1.00  0.00     0.042 C 
BRANCH  24  25
ATOM     25  C   UNL A   1      32.578  32.793  27.327  1.00  0.00     0.118 C 
BRANCH  25  26
ATOM     26  N   UNL A   1      32.350  34.195  27.633  1.00  0.00    -0.352 N 
ATOM     27  C   UNL A   1      32.956  35.003  28.562  1.00  0.00     0.251 C 
ATOM     28  H   UNL A   1      31.654  34.634  27.090  1.00  0.00     0.163 HD
ATOM     29  O   UNL A   1      32.474  36.105  28.819  1.00  0.00    -0.269 OA
BRANCH  27  30
ATOM     30  C   UNL A   1      34.167  34.549  29.280  1.00  0.00     0.039 A 
ATOM     31  C   UNL A   1      34.023  33.950  30.534  1.00  0.00     0.014 A 
ATOM     32  C   UNL A   1      35.442  34.720  28.732  1.00  0.00     0.014 A 
ATOM     33  C   UNL A   1      35.144  33.446  31.198  1.00  0.00     0.010 A 
ATOM     34  C   UNL A   1      36.550  34.155  29.361  1.00  0.00     0.010 A 
ATOM     35  C   UNL A   1      36.411  33.497  30.593  1.00  0.00    -0.014 A 
BRANCH  35  36
ATOM     36  C   UNL A   1      37.586  32.821  31.201  1.00  0.00     0.031 A 
ATOM     37  C   UNL A   1      38.220  31.637  30.525  1.00  0.00     0.074 A 
ATOM     38  C   UNL A   1      38.021  33.220  32.414  1.00  0.00     0.049 A 
ATOM     39  N   UNL A   1      39.175  30.853  30.958  1.00  0.00    -0.248 NA
ATOM     40  C   UNL A   1      37.703  31.273  29.196  1.00  0.00     0.031 C 
ATOM     41  C   UNL A   1      37.460  34.330  33.188  1.00  0.00     0.029 A 
ATOM     42  N   UNL A   1      39.016  32.726  33.221  1.00  0.00    -0.354 N 
ATOM     43  C   UNL A   1      39.356  29.894  29.970  1.00  0.00     0.074 A 
ATOM     44  C   UNL A   1      38.395  30.175  28.926  1.00  0.00     0.031 C 
ATOM     45  C   UNL A   1      38.118  34.434  34.352  1.00  0.00     0.029 A 
ATOM     46  C   UNL A   1      39.112  33.368  34.433  1.00  0.00     0.049 A 
ATOM     47  H   UNL A   1      39.605  31.983  32.957  1.00  0.00     0.167 HD
ATOM     48  C   UNL A   1      40.252  28.879  29.939  1.00  0.00     0.037 A 
ATOM     49  C   UNL A   1      39.888  33.108  35.503  1.00  0.00     0.037 A 
ATOM     50  C   UNL A   1      41.228  28.626  30.966  1.00  0.00     0.049 A 
ATOM     51  C   UNL A   1      40.852  31.952  35.445  1.00  0.00     0.074 A 
ATOM     52  C   UNL A   1      42.245  27.687  30.974  1.00  0.00     0.029 A 
ATOM     53  N   UNL A   1      41.300  29.303  32.174  1.00  0.00    -0.354 N 
ATOM     54  N   UNL A   1      41.086  31.120  34.460  1.00  0.00    -0.248 NA
ATOM     55  C   UNL A   1      41.658  31.697  36.648  1.00  0.00     0.031 C 
ATOM     56  C   UNL A   1      42.886  27.746  32.213  1.00  0.00     0.029 A 
ATOM     57  C   UNL A   1      42.310  28.765  32.955  1.00  0.00     0.049 A 
ATOM     58  H   UNL A   1      40.720  30.054  32.438  1.00  0.00     0.167 HD
ATOM     59  C   UNL A   1      42.076  30.259  34.917  1.00  0.00     0.074 A 
ATOM     60  C   UNL A   1      42.419  30.686  36.255  1.00  0.00     0.031 C 
ATOM     61  C   UNL A   1      42.645  29.205  34.284  1.00  0.00     0.037 A 
BRANCH  48  62
ATOM     62  C   UNL A   1      40.232  27.946  28.764  1.00  0.00     0.064 A 
ATOM     63  C   UNL A   1      40.936  28.228  27.583  1.00  0.00     0.173 A 
ATOM     64  C   UNL A   1      39.586  26.703  28.862  1.00  0.00     0.173 A 
ATOM     65  F   UNL A   1      41.565  29.403  27.437  1.00  0.00    -0.203 F 
ATOM     66  C   UNL A   1      40.987  27.304  26.544  1.00  0.00     0.198 A 
ATOM     67  C   UNL A   1      39.663  25.771  27.831  1.00  0.00     0.198 A 
ATOM     68  F   UNL A   1      38.907  26.381  29.973  1.00  0.00    -0.203 F 
ATOM     69  F   UNL A   1      41.647  27.603  25.416  1.00  0.00    -0.200 F 
ATOM     70  C   UNL A   1      40.362  26.072  26.672  1.00  0.00     0.200 A 
ATOM     71  F   UNL A   1      39.073  24.575  27.966  1.00  0.00    -0.200 F 
ATOM     72  F   UNL A   1      40.434  25.174  25.680  1.00  0.00    -0.200 F 
ENDBRANCH  48  62
BRANCH  49  73
ATOM     73  C   UNL A   1      39.771  33.931  36.738  1.00  0.00     0.064 A 
ATOM     74  C   UNL A   1      38.939  33.534  37.795  1.00  0.00     0.173 A 
ATOM     75  C   UNL A   1      40.448  35.152  36.869  1.00  0.00     0.173 A 
ATOM     76  F   UNL A   1      38.253  32.385  37.713  1.00  0.00    -0.203 F 
ATOM     77  C   UNL A   1      38.759  34.346  38.914  1.00  0.00     0.198 A 
ATOM     78  C   UNL A   1      40.296  35.946  38.004  1.00  0.00     0.198 A 
ATOM     79  F   UNL A   1      41.261  35.580  35.891  1.00  0.00    -0.203 F 
ATOM     80  F   UNL A   1      37.902  33.975  39.876  1.00  0.00    -0.200 F 
ATOM     81  C   UNL A   1      39.439  35.548  39.019  1.00  0.00     0.200 A 
ATOM     82  F   UNL A   1      40.969  37.099  38.109  1.00  0.00    -0.200 F 
ATOM     83  F   UNL A   1      39.259  36.332  40.092  1.00  0.00    -0.200 F 
ENDBRANCH  49  73
BRANCH  61  84
ATOM     84  C   UNL A   1      43.711  28.447  35.022  1.00  0.00     0.064 A 
ATOM     85  C   UNL A   1      45.053  28.852  34.991  1.00  0.00     0.173 A 
ATOM     86  C   UNL A   1      43.376  27.340  35.818  1.00  0.00     0.173 A 
ATOM     87  F   UNL A   1      45.426  29.893  34.231  1.00  0.00    -0.203 F 
ATOM     88  C   UNL A   1      46.023  28.167  35.716  1.00  0.00     0.198 A 
ATOM     89  C   UNL A   1      44.344  26.678  36.567  1.00  0.00     0.198 A 
ATOM     90  F   UNL A   1      42.106  26.916  35.887  1.00  0.00    -0.203 F 
ATOM     91  F   UNL A   1      47.307  28.546  35.639  1.00  0.00    -0.200 F 
ATOM     92  C   UNL A   1      45.666  27.088  36.512  1.00  0.00     0.200 A 
ATOM     93  F   UNL A   1      43.995  25.647  37.349  1.00  0.00    -0.200 F 
ATOM     94  F   UNL A   1      46.600  26.441  37.224  1.00  0.00    -0.200 F 
ENDBRANCH  61  84
ENDBRANCH  35  36
ENDBRANCH  27  30
ENDBRANCH  25  26
ENDBRANCH  24  25
ENDBRANCH   1  24
TORSDOF 14
ENDMDL
MODEL 2
REMARK VINA RESULT:     -12.6      5.677     11.205
REMARK SMILES C[C@@H](C(=O)NCCCNC(=O)c1ccc(-c2c3nc(c(-c4c(F)c(F)c(F)c(F)c4F)c4ccc([nH]4)c(-c4c(F)c(F)c(F)c(F)c4F)c4nc(c(-c5c(F)c(F)c(F)c(F)c5F)c5ccc2[nH]5)C=C4)C=C3)cc1)c1ccc(C[C@H]2CCCC2=O)cc1[N+](=O)[O-]
REMARK SMILES IDX 6 1 5 2 3 3 4 4 2 6 1 7 75 8 76 9 87 10 77 11 86 12 78 13
REMARK SMILES IDX 88 14 89 15 90 16 79 17 80 18 81 19 84 20 82 21 83 22 85 23
REMARK SMILES IDX 7 24 8 25 9 26 10 27 11 29 12 30 13 31 74 32 14 33 73 34
REMARK SMILES IDX 15 35 16 36 17 37 67 38 18 39 72 40 66 41 68 42 19 43 71 44
REMARK SMILES IDX 65 45 64 46 20 48 52 49 32 50 51 51 33 52 36 53 50 54 69 55
REMARK SMILES IDX 34 56 35 57 49 59 70 60 37 61 21 62 22 63 30 64 23 65 24 66
REMARK SMILES IDX 28 67 31 68 25 69 26 70 29 71 27 72 53 73 54 74 62 75 55 76
REMARK SMILES IDX 56 77 60 78 63 79 57 80 58 81 61 82 59 83 38 84 39 85 47 86
REMARK SMILES IDX 40 87 41 88 45 89 48 90 42 91 43 92 46 93 44 94
REMARK H PARENT 5 5 9 28 68 47 36 58
REMARK Flexibility Score: inf
ROOT
ATOM      1  C   UNL A   1      37.105  20.713  24.555  1.00  0.00     0.117 C 
ENDROOT
BRANCH   1   2
ATOM      2  N   UNL A   1      35.900  20.857  25.352  1.00  0.00    -0.356 N 
ATOM      3  C   UNL A   1      35.282  21.976  25.833  1.00  0.00     0.227 C 
ATOM      4  O   UNL A   1      34.490  21.799  26.760  1.00  0.00    -0.274 OA
ATOM      5  H   UNL A   1      35.456  20.009  25.582  1.00  0.00     0.163 HD
BRANCH   3   6
ATOM      6  C   UNL A   1      35.558  23.367  25.205  1.00  0.00     0.112 C 
ATOM      7  C   UNL A   1      36.690  24.012  26.004  1.00  0.00     0.023 C 
BRANCH   6   8
ATOM      8  C   UNL A   1      34.275  24.213  25.022  1.00  0.00     0.042 A 
ATOM      9  C   UNL A   1      33.984  25.189  26.002  1.00  0.00     0.012 A 
ATOM     10  C   UNL A   1      33.301  24.088  24.009  1.00  0.00     0.273 A 
ATOM     11  C   UNL A   1      32.854  26.017  25.935  1.00  0.00     0.004 A 
ATOM     12  C   UNL A   1      32.134  24.880  23.961  1.00  0.00     0.089 A 
ATOM     13  C   UNL A   1      31.899  25.852  24.930  1.00  0.00    -0.040 A 
BRANCH  10  14
ATOM     14  N   UNL A   1      33.380  23.110  22.947  1.00  0.00     0.063 N 
ATOM     15  O   UNL A   1      33.820  23.503  21.858  1.00  0.00    -0.258 OA
ATOM     16  O   UNL A   1      33.043  21.951  23.219  1.00  0.00    -0.258 OA
ENDBRANCH  10  14
BRANCH  13  17
ATOM     17  C   UNL A   1      30.647  26.693  24.883  1.00  0.00     0.047 C 
BRANCH  17  18
ATOM     18  C   UNL A   1      30.772  28.077  24.235  1.00  0.00     0.060 C 
ATOM     19  C   UNL A   1      31.743  29.060  24.898  1.00  0.00     0.012 C 
ATOM     20  C   UNL A   1      31.302  28.007  22.823  1.00  0.00     0.136 C 
ATOM     21  C   UNL A   1      33.038  28.996  24.096  1.00  0.00     0.009 C 
ATOM     22  C   UNL A   1      32.626  28.702  22.660  1.00  0.00     0.076 C 
ATOM     23  O   UNL A   1      30.717  27.442  21.906  1.00  0.00    -0.299 OA
ENDBRANCH  17  18
ENDBRANCH  13  17
ENDBRANCH   6   8
ENDBRANCH   3   6
ENDBRANCH   1   2
BRANCH   1  24
ATOM     24  C   UNL A   1      37.988  19.584  25.096  1.00  0.00     0.042 C 
BRANCH  24  25
ATOM     25  C   UNL A   1      39.278  20.061  25.758  1.00  0.00     0.118 C 
BRANCH  25  26
ATOM     26  N   UNL A   1      40.276  19.009  25.848  1.00  0.00    -0.352 N 
ATOM     27  C   UNL A   1      41.632  19.098  26.045  1.00  0.00     0.251 C 
ATOM     28  H   UNL A   1      39.927  18.093  25.756  1.00  0.00     0.163 HD
ATOM     29  O   UNL A   1      42.339  18.106  25.874  1.00  0.00    -0.269 OA
BRANCH  27  30
ATOM     30  C   UNL A   1      42.255  20.383  26.431  1.00  0.00     0.039 A 
ATOM     31  C   UNL A   1      42.863  21.161  25.442  1.00  0.00     0.014 A 
ATOM     32  C   UNL A   1      42.257  20.819  27.759  1.00  0.00     0.014 A 
ATOM     33  C   UNL A   1      43.393  22.412  25.768  1.00  0.00     0.010 A 
ATOM     34  C   UNL A   1      42.721  22.095  28.071  1.00  0.00     0.010 A 
ATOM     35  C   UNL A   1      43.280  22.912  27.075  1.00  0.00    -0.014 A 
BRANCH  35  36
ATOM     36  C   UNL A   1      43.682  24.303  27.409  1.00  0.00     0.031 A 
ATOM     37  C   UNL A   1      42.661  25.303  27.875  1.00  0.00     0.074 A 
ATOM     38  C   UNL A   1      44.958  24.687  27.199  1.00  0.00     0.049 A 
ATOM     39  N   UNL A   1      42.805  26.585  28.102  1.00  0.00    -0.248 NA
ATOM     40  C   UNL A   1      41.295  24.805  28.098  1.00  0.00     0.031 C 
ATOM     41  C   UNL A   1      46.031  23.818  26.709  1.00  0.00     0.029 A 
ATOM     42  N   UNL A   1      45.566  25.910  27.344  1.00  0.00    -0.354 N 
ATOM     43  C   UNL A   1      41.548  27.048  28.470  1.00  0.00     0.074 A 
ATOM     44  C   UNL A   1      40.647  25.919  28.412  1.00  0.00     0.031 C 
ATOM     45  C   UNL A   1      47.162  24.532  26.598  1.00  0.00     0.029 A 
ATOM     46  C   UNL A   1      46.886  25.919  26.956  1.00  0.00     0.049 A 
ATOM     47  H   UNL A   1      45.102  26.705  27.693  1.00  0.00     0.167 HD
ATOM     48  C   UNL A   1      41.189  28.302  28.834  1.00  0.00     0.037 A 
ATOM     49  C   UNL A   1      47.765  26.936  26.867  1.00  0.00     0.037 A 
ATOM     50  C   UNL A   1      42.099  29.413  28.922  1.00  0.00     0.049 A 
ATOM     51  C   UNL A   1      47.322  28.324  27.251  1.00  0.00     0.074 A 
ATOM     52  C   UNL A   1      41.849  30.696  29.381  1.00  0.00     0.029 A 
ATOM     53  N   UNL A   1      43.428  29.382  28.531  1.00  0.00    -0.354 N 
ATOM     54  N   UNL A   1      46.158  28.725  27.700  1.00  0.00    -0.248 NA
ATOM     55  C   UNL A   1      48.313  29.401  27.111  1.00  0.00     0.031 C 
ATOM     56  C   UNL A   1      43.004  31.459  29.200  1.00  0.00     0.029 A 
ATOM     57  C   UNL A   1      43.995  30.637  28.688  1.00  0.00     0.049 A 
ATOM     58  H   UNL A   1      43.900  28.587  28.191  1.00  0.00     0.167 HD
ATOM     59  C   UNL A   1      46.284  30.092  27.915  1.00  0.00     0.074 A 
ATOM     60  C   UNL A   1      47.644  30.447  27.574  1.00  0.00     0.031 C 
ATOM     61  C   UNL A   1      45.353  30.974  28.350  1.00  0.00     0.037 A 
BRANCH  48  62
ATOM     62  C   UNL A   1      39.748  28.564  29.162  1.00  0.00     0.064 A 
ATOM     63  C   UNL A   1      39.239  28.380  30.456  1.00  0.00     0.173 A 
ATOM     64  C   UNL A   1      38.892  29.109  28.192  1.00  0.00     0.173 A 
ATOM     65  F   UNL A   1      40.014  27.857  31.418  1.00  0.00    -0.203 F 
ATOM     66  C   UNL A   1      37.926  28.723  30.763  1.00  0.00     0.198 A 
ATOM     67  C   UNL A   1      37.588  29.478  28.510  1.00  0.00     0.198 A 
ATOM     68  F   UNL A   1      39.333  29.313  26.941  1.00  0.00    -0.203 F 
ATOM     69  F   UNL A   1      37.453  28.519  32.001  1.00  0.00    -0.200 F 
ATOM     70  C   UNL A   1      37.105  29.283  29.795  1.00  0.00     0.200 A 
ATOM     71  F   UNL A   1      36.804  30.034  27.577  1.00  0.00    -0.200 F 
ATOM     72  F   UNL A   1      35.850  29.638  30.100  1.00  0.00    -0.200 F 
ENDBRANCH  48  62
BRANCH  49  73
ATOM     73  C   UNL A   1      49.146  26.698  26.364  1.00  0.00     0.064 A 
ATOM     74  C   UNL A   1      49.474  26.920  25.019  1.00  0.00     0.173 A 
ATOM     75  C   UNL A   1      50.152  26.196  27.203  1.00  0.00     0.173 A 
ATOM     76  F   UNL A   1      48.544  27.380  24.169  1.00  0.00    -0.203 F 
ATOM     77  C   UNL A   1      50.742  26.614  24.526  1.00  0.00     0.198 A 
ATOM     78  C   UNL A   1      51.429  25.923  26.718  1.00  0.00     0.198 A 
ATOM     79  F   UNL A   1      49.895  25.967  28.500  1.00  0.00    -0.203 F 
ATOM     80  F   UNL A   1      51.005  26.770  23.222  1.00  0.00    -0.200 F 
ATOM     81  C   UNL A   1      51.718  26.119  25.376  1.00  0.00     0.200 A 
ATOM     82  F   UNL A   1      52.374  25.462  27.546  1.00  0.00    -0.200 F 
ATOM     83  F   UNL A   1      52.934  25.816  24.900  1.00  0.00    -0.200 F 
ENDBRANCH  49  73
BRANCH  61  84
ATOM     84  C   UNL A   1      45.774  32.408  28.500  1.00  0.00     0.064 A 
ATOM     85  C   UNL A   1      45.591  33.337  27.466  1.00  0.00     0.173 A 
ATOM     86  C   UNL A   1      46.308  32.870  29.713  1.00  0.00     0.173 A 
ATOM     87  F   UNL A   1      45.100  32.941  26.282  1.00  0.00    -0.203 F 
ATOM     88  C   UNL A   1      45.944  34.673  27.635  1.00  0.00     0.198 A 
ATOM     89  C   UNL A   1      46.628  34.213  29.889  1.00  0.00     0.198 A 
ATOM     90  F   UNL A   1      46.496  32.023  30.736  1.00  0.00    -0.203 F 
ATOM     91  F   UNL A   1      45.799  35.536  26.619  1.00  0.00    -0.200 F 
ATOM     92  C   UNL A   1      46.451  35.112  28.849  1.00  0.00     0.200 A 
ATOM     93  F   UNL A   1      47.101  34.638  31.068  1.00  0.00    -0.200 F 
ATOM     94  F   UNL A   1      46.772  36.402  29.016  1.00  0.00    -0.200 F 
ENDBRANCH  61  84
ENDBRANCH  35  36
ENDBRANCH  27  30
ENDBRANCH  25  26
ENDBRANCH  24  25
ENDBRANCH   1  24
TORSDOF 14
ENDMDL
MODEL 3
REMARK VINA RESULT:     -12.4      1.177      2.134
REMARK SMILES C[C@@H](C(=O)NCCCNC(=O)c1ccc(-c2c3nc(c(-c4c(F)c(F)c(F)c(F)c4F)c4ccc([nH]4)c(-c4c(F)c(F)c(F)c(F)c4F)c4nc(c(-c5c(F)c(F)c(F)c(F)c5F)c5ccc2[nH]5)C=C4)C=C3)cc1)c1ccc(C[C@H]2CCCC2=O)cc1[N+](=O)[O-]
REMARK SMILES IDX 6 1 5 2 3 3 4 4 2 6 1 7 75 8 76 9 87 10 77 11 86 12 78 13
REMARK SMILES IDX 88 14 89 15 90 16 79 17 80 18 81 19 84 20 82 21 83 22 85 23
REMARK SMILES IDX 7 24 8 25 9 26 10 27 11 29 12 30 13 31 74 32 14 33 73 34
REMARK SMILES IDX 15 35 16 36 17 37 67 38 18 39 72 40 66 41 68 42 19 43 71 44
REMARK SMILES IDX 65 45 64 46 20 48 52 49 32 50 51 51 33 52 36 53 50 54 69 55
REMARK SMILES IDX 34 56 35 57 49 59 70 60 37 61 21 62 22 63 30 64 23 65 24 66
REMARK SMILES IDX 28 67 31 68 25 69 26 70 29 71 27 72 53 73 54 74 62 75 55 76
REMARK SMILES IDX 56 77 60 78 63 79 57 80 58 81 61 82 59 83 38 84 39 85 47 86
REMARK SMILES IDX 40 87 41 88 45 89 48 90 42 91 43 92 46 93 44 94
REMARK H PARENT 5 5 9 28 68 47 36 58
REMARK Flexibility Score: inf
ROOT
ATOM      1  C   UNL A   1      31.840  30.171  26.154  1.00  0.00     0.117 C 
ENDROOT
BRANCH   1   2
ATOM      2  N   UNL A   1      31.285  29.842  24.853  1.00  0.00    -0.356 N 
ATOM      3  C   UNL A   1      31.834  29.173  23.797  1.00  0.00     0.227 C 
ATOM      4  O   UNL A   1      31.284  29.339  22.706  1.00  0.00    -0.274 OA
ATOM      5  H   UNL A   1      30.361  30.151  24.710  1.00  0.00     0.163 HD
BRANCH   3   6
ATOM      6  C   UNL A   1      33.057  28.241  23.996  1.00  0.00     0.112 C 
ATOM      7  C   UNL A   1      34.027  28.506  22.845  1.00  0.00     0.023 C 
BRANCH   6   8
ATOM      8  C   UNL A   1      32.661  26.765  24.236  1.00  0.00     0.042 A 
ATOM      9  C   UNL A   1      32.624  26.300  25.570  1.00  0.00     0.012 A 
ATOM     10  C   UNL A   1      32.384  25.781  23.263  1.00  0.00     0.273 A 
ATOM     11  C   UNL A   1      32.272  24.984  25.905  1.00  0.00     0.004 A 
ATOM     12  C   UNL A   1      32.080  24.442  23.587  1.00  0.00     0.089 A 
ATOM     13  C   UNL A   1      32.026  24.031  24.916  1.00  0.00    -0.040 A 
BRANCH  10  14
ATOM     14  N   UNL A   1      32.428  26.035  21.840  1.00  0.00     0.063 N 
ATOM     15  O   UNL A   1      33.482  25.752  21.254  1.00  0.00    -0.258 OA
ATOM     16  O   UNL A   1      31.398  26.474  21.312  1.00  0.00    -0.258 OA
ENDBRANCH  10  14
BRANCH  13  17
ATOM     17  C   UNL A   1      31.708  22.596  25.262  1.00  0.00     0.047 C 
BRANCH  17  18
ATOM     18  C   UNL A   1      32.902  21.659  25.477  1.00  0.00     0.060 C 
ATOM     19  C   UNL A   1      33.913  21.561  24.329  1.00  0.00     0.012 C 
ATOM     20  C   UNL A   1      33.771  22.089  26.634  1.00  0.00     0.136 C 
ATOM     21  C   UNL A   1      35.070  22.486  24.691  1.00  0.00     0.009 C 
ATOM     22  C   UNL A   1      35.168  22.456  26.211  1.00  0.00     0.076 C 
ATOM     23  O   UNL A   1      33.383  22.137  27.794  1.00  0.00    -0.299 OA
ENDBRANCH  17  18
ENDBRANCH  13  17
ENDBRANCH   6   8
ENDBRANCH   3   6
ENDBRANCH   1   2
BRANCH   1  24
ATOM     24  C   UNL A   1      31.585  31.641  26.501  1.00  0.00     0.042 C 
BRANCH  24  25
ATOM     25  C   UNL A   1      32.750  32.329  27.207  1.00  0.00     0.118 C 
BRANCH  25  26
ATOM     26  N   UNL A   1      32.484  33.732  27.478  1.00  0.00    -0.352 N 
ATOM     27  C   UNL A   1      33.041  34.568  28.414  1.00  0.00     0.251 C 
ATOM     28  H   UNL A   1      31.801  34.146  26.902  1.00  0.00     0.163 HD
ATOM     29  O   UNL A   1      32.529  35.664  28.632  1.00  0.00    -0.269 OA
BRANCH  27  30
ATOM     30  C   UNL A   1      34.234  34.150  29.183  1.00  0.00     0.039 A 
ATOM     31  C   UNL A   1      34.055  33.406  30.352  1.00  0.00     0.014 A 
ATOM     32  C   UNL A   1      35.522  34.498  28.768  1.00  0.00     0.014 A 
ATOM     33  C   UNL A   1      35.167  32.936  31.055  1.00  0.00     0.010 A 
ATOM     34  C   UNL A   1      36.631  33.972  29.429  1.00  0.00     0.010 A 
ATOM     35  C   UNL A   1      36.465  33.171  30.570  1.00  0.00    -0.014 A 
BRANCH  35  36
ATOM     36  C   UNL A   1      37.653  32.543  31.205  1.00  0.00     0.031 A 
ATOM     37  C   UNL A   1      38.338  31.374  30.554  1.00  0.00     0.074 A 
ATOM     38  C   UNL A   1      38.053  32.971  32.420  1.00  0.00     0.049 A 
ATOM     39  N   UNL A   1      39.312  30.628  31.012  1.00  0.00    -0.248 NA
ATOM     40  C   UNL A   1      37.855  30.977  29.222  1.00  0.00     0.031 C 
ATOM     41  C   UNL A   1      37.442  34.070  33.171  1.00  0.00     0.029 A 
ATOM     42  N   UNL A   1      39.051  32.521  33.249  1.00  0.00    -0.354 N 
ATOM     43  C   UNL A   1      39.542  29.664  30.038  1.00  0.00     0.074 A 
ATOM     44  C   UNL A   1      38.589  29.900  28.976  1.00  0.00     0.031 C 
ATOM     45  C   UNL A   1      38.077  34.210  34.344  1.00  0.00     0.029 A 
ATOM     46  C   UNL A   1      39.106  33.180  34.455  1.00  0.00     0.049 A 
ATOM     47  H   UNL A   1      39.670  31.795  33.003  1.00  0.00     0.167 HD
ATOM     48  C   UNL A   1      40.473  28.682  30.034  1.00  0.00     0.037 A 
ATOM     49  C   UNL A   1      39.873  32.960  35.540  1.00  0.00     0.037 A 
ATOM     50  C   UNL A   1      41.440  28.474  31.079  1.00  0.00     0.049 A 
ATOM     51  C   UNL A   1      40.877  31.837  35.511  1.00  0.00     0.074 A 
ATOM     52  C   UNL A   1      42.488  27.570  31.114  1.00  0.00     0.029 A 
ATOM     53  N   UNL A   1      41.469  29.167  32.279  1.00  0.00    -0.354 N 
ATOM     54  N   UNL A   1      41.155  31.001  34.540  1.00  0.00    -0.248 NA
ATOM     55  C   UNL A   1      41.671  31.624  36.730  1.00  0.00     0.031 C 
ATOM     56  C   UNL A   1      43.106  27.666  32.363  1.00  0.00     0.029 A 
ATOM     57  C   UNL A   1      42.484  28.673  33.083  1.00  0.00     0.049 A 
ATOM     58  H   UNL A   1      40.859  29.900  32.525  1.00  0.00     0.167 HD
ATOM     59  C   UNL A   1      42.167  30.181  35.023  1.00  0.00     0.074 A 
ATOM     60  C   UNL A   1      42.473  30.635  36.361  1.00  0.00     0.031 C 
ATOM     61  C   UNL A   1      42.782  29.139  34.412  1.00  0.00     0.037 A 
BRANCH  48  62
ATOM     62  C   UNL A   1      40.504  27.735  28.869  1.00  0.00     0.064 A 
ATOM     63  C   UNL A   1      39.711  26.578  28.835  1.00  0.00     0.173 A 
ATOM     64  C   UNL A   1      41.259  28.047  27.727  1.00  0.00     0.173 A 
ATOM     65  F   UNL A   1      38.976  26.233  29.902  1.00  0.00    -0.203 F 
ATOM     66  C   UNL A   1      39.679  25.767  27.705  1.00  0.00     0.198 A 
ATOM     67  C   UNL A   1      41.202  27.249  26.588  1.00  0.00     0.198 A 
ATOM     68  F   UNL A   1      42.027  29.147  27.706  1.00  0.00    -0.203 F 
ATOM     69  F   UNL A   1      38.930  24.655  27.701  1.00  0.00    -0.200 F 
ATOM     70  C   UNL A   1      40.414  26.108  26.578  1.00  0.00     0.200 A 
ATOM     71  F   UNL A   1      41.899  27.590  25.497  1.00  0.00    -0.200 F 
ATOM     72  F   UNL A   1      40.360  25.340  25.482  1.00  0.00    -0.200 F 
ENDBRANCH  48  62
BRANCH  49  73
ATOM     73  C   UNL A   1      39.708  33.791  36.763  1.00  0.00     0.064 A 
ATOM     74  C   UNL A   1      38.872  33.379  37.811  1.00  0.00     0.173 A 
ATOM     75  C   UNL A   1      40.340  35.037  36.889  1.00  0.00     0.173 A 
ATOM     76  F   UNL A   1      38.226  32.206  37.731  1.00  0.00    -0.203 F 
ATOM     77  C   UNL A   1      38.646  34.197  38.917  1.00  0.00     0.198 A 
ATOM     78  C   UNL A   1      40.142  35.838  38.012  1.00  0.00     0.198 A 
ATOM     79  F   UNL A   1      41.154  35.481  35.919  1.00  0.00    -0.203 F 
ATOM     80  F   UNL A   1      37.786  33.808  39.869  1.00  0.00    -0.200 F 
ATOM     81  C   UNL A   1      39.283  35.423  39.018  1.00  0.00     0.200 A 
ATOM     82  F   UNL A   1      40.773  37.015  38.114  1.00  0.00    -0.200 F 
ATOM     83  F   UNL A   1      39.058  36.212  40.078  1.00  0.00    -0.200 F 
ENDBRANCH  49  73
BRANCH  61  84
ATOM     84  C   UNL A   1      43.861  28.427  35.176  1.00  0.00     0.064 A 
ATOM     85  C   UNL A   1      43.573  27.326  35.996  1.00  0.00     0.173 A 
ATOM     86  C   UNL A   1      45.203  28.811  35.038  1.00  0.00     0.173 A 
ATOM     87  F   UNL A   1      42.303  26.931  36.174  1.00  0.00    -0.203 F 
ATOM     88  C   UNL A   1      44.589  26.647  36.662  1.00  0.00     0.198 A 
ATOM     89  C   UNL A   1      46.219  28.109  35.680  1.00  0.00     0.198 A 
ATOM     90  F   UNL A   1      45.532  29.854  34.261  1.00  0.00    -0.203 F 
ATOM     91  F   UNL A   1      44.287  25.623  37.473  1.00  0.00    -0.200 F 
ATOM     92  C   UNL A   1      45.911  27.032  36.495  1.00  0.00     0.200 A 
ATOM     93  F   UNL A   1      47.497  28.471  35.504  1.00  0.00    -0.200 F 
ATOM     94  F   UNL A   1      46.889  26.364  37.124  1.00  0.00    -0.200 F 
ENDBRANCH  61  84
ENDBRANCH  35  36
ENDBRANCH  27  30
ENDBRANCH  25  26
ENDBRANCH  24  25
ENDBRANCH   1  24
TORSDOF 14
ENDMDL
