MODEL 1
REMARK VINA RESULT:     -11.6      0.000      0.000
REMARK SMILES Nc1ccc(O)c(C(=O)NCCCNC(=O)c2ccc(-c3c4nc(c(-c5c(F)c(F)c(F)c(F)c5F)c5ccc([nH]5)c(-c5c(F)c(F)c(F)c(F)c5F)c5nc(c(-c6c(F)c(F)c(F)c(F)c6F)c6ccc3[nH]6)C=C5)C=C4)cc2)c1
REMARK SMILES IDX 12 1 11 2 10 3 8 4 9 5 7 7 2 8 3 9 80 10 4 11 5 12 1 13 6 16
REMARK SMILES IDX 13 18 14 19 15 20 16 22 17 23 18 24 79 25 19 26 78 27 20 28
REMARK SMILES IDX 21 29 22 30 72 31 23 32 77 33 71 34 73 35 24 36 76 37 70 38
REMARK SMILES IDX 69 39 25 41 57 42 37 43 56 44 38 45 41 46 55 47 74 48 39 49
REMARK SMILES IDX 40 50 54 52 75 53 42 54 26 55 27 56 35 57 28 58 29 59 33 60
REMARK SMILES IDX 36 61 30 62 31 63 34 64 32 65 58 66 59 67 67 68 60 69 61 70
REMARK SMILES IDX 65 71 68 72 62 73 63 74 66 75 64 76 43 77 44 78 52 79 45 80
REMARK SMILES IDX 46 81 50 82 53 83 47 84 48 85 51 86 49 87
REMARK H PARENT 10 6 1 14 1 15 6 17 14 21 73 40 41 51
REMARK Flexibility Score: inf
ROOT
ATOM      1  C   UNL A   1      35.144  33.256  28.006  1.00  0.00     0.042 C 
ENDROOT
BRANCH   1   2
ATOM      2  C   UNL A   1      35.271  34.666  28.578  1.00  0.00     0.118 C 
BRANCH   2   3
ATOM      3  N   UNL A   1      34.000  35.362  28.509  1.00  0.00    -0.352 N 
ATOM      4  C   UNL A   1      33.167  35.899  29.453  1.00  0.00     0.255 C 
ATOM      5  O   UNL A   1      32.145  36.456  29.036  1.00  0.00    -0.269 OA
ATOM      6  H   UNL A   1      33.665  35.470  27.588  1.00  0.00     0.163 HD
BRANCH   4   7
ATOM      7  C   UNL A   1      33.431  35.922  30.920  1.00  0.00     0.083 A 
ATOM      8  C   UNL A   1      34.070  34.877  33.036  1.00  0.00     0.032 A 
ATOM      9  C   UNL A   1      33.997  36.116  33.668  1.00  0.00     0.029 A 
ATOM     10  C   UNL A   1      33.711  34.782  31.685  1.00  0.00     0.043 A 
ATOM     11  C   UNL A   1      33.646  37.257  32.949  1.00  0.00     0.049 A 
ATOM     12  C   UNL A   1      33.376  37.160  31.586  1.00  0.00     0.128 A 
BRANCH   8  13
ATOM     13  N   UNL A   1      34.364  33.734  33.766  1.00  0.00    -0.399 N 
ATOM     14  H   UNL A   1      35.200  33.682  34.282  1.00  0.00     0.156 HD
ATOM     15  H   UNL A   1      33.736  32.977  33.769  1.00  0.00     0.156 HD
ENDBRANCH   8  13
BRANCH  12  16
ATOM     16  O   UNL A   1      33.047  38.339  30.969  1.00  0.00    -0.507 OA
ATOM     17  H   UNL A   1      32.503  38.963  31.408  1.00  0.00     0.293 HD
ENDBRANCH  12  16
ENDBRANCH   4   7
ENDBRANCH   2   3
ENDBRANCH   1   2
BRANCH   1  18
ATOM     18  C   UNL A   1      34.573  32.261  29.015  1.00  0.00     0.118 C 
BRANCH  18  19
ATOM     19  N   UNL A   1      34.040  31.070  28.361  1.00  0.00    -0.352 N 
ATOM     20  C   UNL A   1      34.695  29.964  27.879  1.00  0.00     0.251 C 
ATOM     21  H   UNL A   1      33.063  31.058  28.247  1.00  0.00     0.163 HD
ATOM     22  O   UNL A   1      34.111  29.177  27.143  1.00  0.00    -0.269 OA
BRANCH  20  23
ATOM     23  C   UNL A   1      36.107  29.726  28.241  1.00  0.00     0.039 A 
ATOM     24  C   UNL A   1      36.414  29.279  29.528  1.00  0.00     0.014 A 
ATOM     25  C   UNL A   1      37.126  29.961  27.316  1.00  0.00     0.014 A 
ATOM     26  C   UNL A   1      37.740  28.998  29.866  1.00  0.00     0.010 A 
ATOM     27  C   UNL A   1      38.434  29.609  27.627  1.00  0.00     0.010 A 
ATOM     28  C   UNL A   1      38.754  29.123  28.903  1.00  0.00    -0.014 A 
BRANCH  28  29
ATOM     29  C   UNL A   1      40.159  28.745  29.195  1.00  0.00     0.031 A 
ATOM     30  C   UNL A   1      41.076  29.729  29.866  1.00  0.00     0.074 A 
ATOM     31  C   UNL A   1      40.631  27.558  28.769  1.00  0.00     0.049 A 
ATOM     32  N   UNL A   1      42.364  29.649  30.080  1.00  0.00    -0.248 NA
ATOM     33  C   UNL A   1      40.467  30.985  30.331  1.00  0.00     0.031 C 
ATOM     34  C   UNL A   1      39.847  26.535  28.075  1.00  0.00     0.029 A 
ATOM     35  N   UNL A   1      41.893  27.019  28.836  1.00  0.00    -0.354 N 
ATOM     36  C   UNL A   1      42.721  30.849  30.681  1.00  0.00     0.074 A 
ATOM     37  C   UNL A   1      41.525  31.659  30.753  1.00  0.00     0.031 C 
ATOM     38  C   UNL A   1      40.640  25.490  27.790  1.00  0.00     0.029 A 
ATOM     39  C   UNL A   1      41.997  25.788  28.235  1.00  0.00     0.049 A 
ATOM     40  H   UNL A   1      42.649  27.472  29.273  1.00  0.00     0.167 HD
ATOM     41  C   UNL A   1      43.933  31.229  31.150  1.00  0.00     0.037 A 
ATOM     42  C   UNL A   1      43.072  25.000  28.044  1.00  0.00     0.037 A 
ATOM     43  C   UNL A   1      45.113  30.406  31.092  1.00  0.00     0.049 A 
ATOM     44  C   UNL A   1      44.415  25.457  28.550  1.00  0.00     0.074 A 
ATOM     45  C   UNL A   1      46.375  30.674  31.591  1.00  0.00     0.029 A 
ATOM     46  N   UNL A   1      45.175  29.156  30.494  1.00  0.00    -0.354 N 
ATOM     47  N   UNL A   1      44.729  26.565  29.175  1.00  0.00    -0.248 NA
ATOM     48  C   UNL A   1      45.551  24.554  28.325  1.00  0.00     0.031 C 
ATOM     49  C   UNL A   1      47.216  29.612  31.243  1.00  0.00     0.029 A 
ATOM     50  C   UNL A   1      46.463  28.653  30.586  1.00  0.00     0.049 A 
ATOM     51  H   UNL A   1      44.416  28.695  30.067  1.00  0.00     0.167 HD
ATOM     52  C   UNL A   1      46.087  26.478  29.449  1.00  0.00     0.074 A 
ATOM     53  C   UNL A   1      46.536  25.204  28.930  1.00  0.00     0.031 C 
ATOM     54  C   UNL A   1      46.888  27.373  30.077  1.00  0.00     0.037 A 
BRANCH  41  55
ATOM     55  C   UNL A   1      44.048  32.597  31.762  1.00  0.00     0.064 A 
ATOM     56  C   UNL A   1      43.780  32.823  33.120  1.00  0.00     0.173 A 
ATOM     57  C   UNL A   1      44.469  33.689  30.987  1.00  0.00     0.173 A 
ATOM     58  F   UNL A   1      43.365  31.816  33.904  1.00  0.00    -0.203 F 
ATOM     59  C   UNL A   1      43.897  34.096  33.672  1.00  0.00     0.198 A 
ATOM     60  C   UNL A   1      44.619  34.953  31.551  1.00  0.00     0.198 A 
ATOM     61  F   UNL A   1      44.747  33.529  29.684  1.00  0.00    -0.203 F 
ATOM     62  F   UNL A   1      43.583  34.297  34.959  1.00  0.00    -0.200 F 
ATOM     63  C   UNL A   1      44.324  35.158  32.890  1.00  0.00     0.200 A 
ATOM     64  F   UNL A   1      45.048  35.975  30.797  1.00  0.00    -0.200 F 
ATOM     65  F   UNL A   1      44.446  36.381  33.426  1.00  0.00    -0.200 F 
ENDBRANCH  41  55
BRANCH  42  66
ATOM     66  C   UNL A   1      42.923  23.692  27.351  1.00  0.00     0.064 A 
ATOM     67  C   UNL A   1      43.285  23.546  26.005  1.00  0.00     0.173 A 
ATOM     68  C   UNL A   1      42.412  22.565  28.014  1.00  0.00     0.173 A 
ATOM     69  F   UNL A   1      43.761  24.598  25.323  1.00  0.00    -0.203 F 
ATOM     70  C   UNL A   1      43.120  22.332  25.341  1.00  0.00     0.198 A 
ATOM     71  C   UNL A   1      42.278  21.344  27.358  1.00  0.00     0.198 A 
ATOM     72  F   UNL A   1      42.058  22.648  29.304  1.00  0.00    -0.203 F 
ATOM     73  F   UNL A   1      43.428  22.236  24.041  1.00  0.00    -0.200 F 
ATOM     74  C   UNL A   1      42.622  21.230  26.020  1.00  0.00     0.200 A 
ATOM     75  F   UNL A   1      41.814  20.277  28.022  1.00  0.00    -0.200 F 
ATOM     76  F   UNL A   1      42.469  20.061  25.382  1.00  0.00    -0.200 F 
ENDBRANCH  42  66
BRANCH  54  77
ATOM     77  C   UNL A   1      48.326  26.990  30.286  1.00  0.00     0.064 A 
ATOM     78  C   UNL A   1      48.727  26.177  31.355  1.00  0.00     0.173 A 
ATOM     79  C   UNL A   1      49.304  27.391  29.362  1.00  0.00     0.173 A 
ATOM     80  F   UNL A   1      47.834  25.780  32.275  1.00  0.00    -0.203 F 
ATOM     81  C   UNL A   1      50.057  25.792  31.501  1.00  0.00     0.198 A 
ATOM     82  C   UNL A   1      50.625  26.977  29.493  1.00  0.00     0.198 A 
ATOM     83  F   UNL A   1      48.971  28.164  28.318  1.00  0.00    -0.203 F 
ATOM     84  F   UNL A   1      50.426  25.048  32.553  1.00  0.00    -0.200 F 
ATOM     85  C   UNL A   1      51.003  26.182  30.564  1.00  0.00     0.200 A 
ATOM     86  F   UNL A   1      51.533  27.341  28.576  1.00  0.00    -0.200 F 
ATOM     87  F   UNL A   1      52.279  25.797  30.697  1.00  0.00    -0.200 F 
ENDBRANCH  54  77
ENDBRANCH  28  29
ENDBRANCH  20  23
ENDBRANCH  18  19
ENDBRANCH   1  18
TORSDOF 12
ENDMDL
MODEL 2
REMARK VINA RESULT:     -11.6      4.632     10.019
REMARK SMILES Nc1ccc(O)c(C(=O)NCCCNC(=O)c2ccc(-c3c4nc(c(-c5c(F)c(F)c(F)c(F)c5F)c5ccc([nH]5)c(-c5c(F)c(F)c(F)c(F)c5F)c5nc(c(-c6c(F)c(F)c(F)c(F)c6F)c6ccc3[nH]6)C=C5)C=C4)cc2)c1
REMARK SMILES IDX 12 1 11 2 10 3 8 4 9 5 7 7 2 8 3 9 80 10 4 11 5 12 1 13 6 16
REMARK SMILES IDX 13 18 14 19 15 20 16 22 17 23 18 24 79 25 19 26 78 27 20 28
REMARK SMILES IDX 21 29 22 30 72 31 23 32 77 33 71 34 73 35 24 36 76 37 70 38
REMARK SMILES IDX 69 39 25 41 57 42 37 43 56 44 38 45 41 46 55 47 74 48 39 49
REMARK SMILES IDX 40 50 54 52 75 53 42 54 26 55 27 56 35 57 28 58 29 59 33 60
REMARK SMILES IDX 36 61 30 62 31 63 34 64 32 65 58 66 59 67 67 68 60 69 61 70
REMARK SMILES IDX 65 71 68 72 62 73 63 74 66 75 64 76 43 77 44 78 52 79 45 80
REMARK SMILES IDX 46 81 50 82 53 83 47 84 48 85 51 86 49 87
REMARK H PARENT 10 6 1 14 1 15 6 17 14 21 73 40 41 51
REMARK Flexibility Score: inf
ROOT
ATOM      1  C   UNL A   1      31.540  31.425  26.208  1.00  0.00     0.042 C 
ENDROOT
BRANCH   1   2
ATOM      2  C   UNL A   1      31.708  29.928  25.955  1.00  0.00     0.118 C 
BRANCH   2   3
ATOM      3  N   UNL A   1      32.232  29.692  24.623  1.00  0.00    -0.352 N 
ATOM      4  C   UNL A   1      31.667  29.275  23.448  1.00  0.00     0.255 C 
ATOM      5  O   UNL A   1      32.419  29.201  22.470  1.00  0.00    -0.269 OA
ATOM      6  H   UNL A   1      33.199  29.868  24.549  1.00  0.00     0.163 HD
BRANCH   4   7
ATOM      7  C   UNL A   1      30.221  28.974  23.249  1.00  0.00     0.083 A 
ATOM      8  C   UNL A   1      28.230  27.578  23.501  1.00  0.00     0.032 A 
ATOM      9  C   UNL A   1      27.460  28.568  22.896  1.00  0.00     0.029 A 
ATOM     10  C   UNL A   1      29.616  27.761  23.601  1.00  0.00     0.043 A 
ATOM     11  C   UNL A   1      28.048  29.755  22.464  1.00  0.00     0.049 A 
ATOM     12  C   UNL A   1      29.414  29.958  22.649  1.00  0.00     0.128 A 
BRANCH   8  13
ATOM     13  N   UNL A   1      27.652  26.374  23.879  1.00  0.00    -0.399 N 
ATOM     14  H   UNL A   1      27.542  26.159  24.832  1.00  0.00     0.156 HD
ATOM     15  H   UNL A   1      27.351  25.736  23.192  1.00  0.00     0.156 HD
ENDBRANCH   8  13
BRANCH  12  16
ATOM     16  O   UNL A   1      29.894  31.161  22.198  1.00  0.00    -0.507 OA
ATOM     17  H   UNL A   1      29.438  31.624  21.522  1.00  0.00     0.293 HD
ENDBRANCH  12  16
ENDBRANCH   4   7
ENDBRANCH   2   3
ENDBRANCH   1   2
BRANCH   1  18
ATOM     18  C   UNL A   1      32.684  32.013  27.032  1.00  0.00     0.118 C 
BRANCH  18  19
ATOM     19  N   UNL A   1      32.485  33.434  27.300  1.00  0.00    -0.352 N 
ATOM     20  C   UNL A   1      33.049  34.236  28.262  1.00  0.00     0.251 C 
ATOM     21  H   UNL A   1      31.850  33.886  26.700  1.00  0.00     0.163 HD
ATOM     22  O   UNL A   1      32.579  35.344  28.490  1.00  0.00    -0.269 OA
BRANCH  20  23
ATOM     23  C   UNL A   1      34.217  33.759  29.028  1.00  0.00     0.039 A 
ATOM     24  C   UNL A   1      34.026  32.834  30.057  1.00  0.00     0.014 A 
ATOM     25  C   UNL A   1      35.498  34.238  28.741  1.00  0.00     0.014 A 
ATOM     26  C   UNL A   1      35.129  32.334  30.753  1.00  0.00     0.010 A 
ATOM     27  C   UNL A   1      36.600  33.683  29.380  1.00  0.00     0.010 A 
ATOM     28  C   UNL A   1      36.428  32.725  30.390  1.00  0.00    -0.014 A 
BRANCH  28  29
ATOM     29  C   UNL A   1      37.629  32.146  31.042  1.00  0.00     0.031 A 
ATOM     30  C   UNL A   1      38.427  31.087  30.335  1.00  0.00     0.074 A 
ATOM     31  C   UNL A   1      37.937  32.501  32.304  1.00  0.00     0.049 A 
ATOM     32  N   UNL A   1      39.417  30.357  30.784  1.00  0.00    -0.248 NA
ATOM     33  C   UNL A   1      38.042  30.788  28.947  1.00  0.00     0.031 C 
ATOM     34  C   UNL A   1      37.215  33.490  33.105  1.00  0.00     0.029 A 
ATOM     35  N   UNL A   1      38.927  32.053  33.144  1.00  0.00    -0.354 N 
ATOM     36  C   UNL A   1      39.755  29.502  29.744  1.00  0.00     0.074 A 
ATOM     37  C   UNL A   1      38.834  29.767  28.660  1.00  0.00     0.031 C 
ATOM     38  C   UNL A   1      37.789  33.582  34.314  1.00  0.00     0.029 A 
ATOM     39  C   UNL A   1      38.888  32.625  34.393  1.00  0.00     0.049 A 
ATOM     40  H   UNL A   1      39.599  31.386  32.878  1.00  0.00     0.167 HD
ATOM     41  C   UNL A   1      40.757  28.592  29.693  1.00  0.00     0.037 A 
ATOM     42  C   UNL A   1      39.640  32.387  35.484  1.00  0.00     0.037 A 
ATOM     43  C   UNL A   1      41.681  28.351  30.769  1.00  0.00     0.049 A 
ATOM     44  C   UNL A   1      40.730  31.351  35.410  1.00  0.00     0.074 A 
ATOM     45  C   UNL A   1      42.767  27.494  30.797  1.00  0.00     0.029 A 
ATOM     46  N   UNL A   1      41.623  28.965  32.012  1.00  0.00    -0.354 N 
ATOM     47  N   UNL A   1      41.083  30.593  34.402  1.00  0.00    -0.248 NA
ATOM     48  C   UNL A   1      41.526  31.138  36.626  1.00  0.00     0.031 C 
ATOM     49  C   UNL A   1      43.331  27.545  32.076  1.00  0.00     0.029 A 
ATOM     50  C   UNL A   1      42.637  28.483  32.824  1.00  0.00     0.049 A 
ATOM     51  H   UNL A   1      40.959  29.642  32.278  1.00  0.00     0.167 HD
ATOM     52  C   UNL A   1      42.162  29.841  34.847  1.00  0.00     0.074 A 
ATOM     53  C   UNL A   1      42.412  30.241  36.215  1.00  0.00     0.031 C 
ATOM     54  C   UNL A   1      42.882  28.906  34.181  1.00  0.00     0.037 A 
BRANCH  41  55
ATOM     55  C   UNL A   1      40.904  27.786  28.433  1.00  0.00     0.064 A 
ATOM     56  C   UNL A   1      41.717  28.214  27.373  1.00  0.00     0.173 A 
ATOM     57  C   UNL A   1      40.256  26.548  28.301  1.00  0.00     0.173 A 
ATOM     58  F   UNL A   1      42.352  29.393  27.442  1.00  0.00    -0.203 F 
ATOM     59  C   UNL A   1      41.846  27.452  26.215  1.00  0.00     0.198 A 
ATOM     60  C   UNL A   1      40.416  25.772  27.156  1.00  0.00     0.198 A 
ATOM     61  F   UNL A   1      39.472  26.085  29.287  1.00  0.00    -0.203 F 
ATOM     62  F   UNL A   1      42.584  27.908  25.193  1.00  0.00    -0.200 F 
ATOM     63  C   UNL A   1      41.203  26.228  26.111  1.00  0.00     0.200 A 
ATOM     64  F   UNL A   1      39.806  24.582  27.065  1.00  0.00    -0.200 F 
ATOM     65  F   UNL A   1      41.338  25.491  25.000  1.00  0.00    -0.200 F 
ENDBRANCH  41  55
BRANCH  42  66
ATOM     66  C   UNL A   1      39.395  33.149  36.738  1.00  0.00     0.064 A 
ATOM     67  C   UNL A   1      38.470  32.694  37.687  1.00  0.00     0.173 A 
ATOM     68  C   UNL A   1      40.073  34.347  37.011  1.00  0.00     0.173 A 
ATOM     69  F   UNL A   1      37.783  31.565  37.463  1.00  0.00    -0.203 F 
ATOM     70  C   UNL A   1      38.214  33.419  38.850  1.00  0.00     0.198 A 
ATOM     71  C   UNL A   1      39.840  35.053  38.189  1.00  0.00     0.198 A 
ATOM     72  F   UNL A   1      40.974  34.823  36.140  1.00  0.00    -0.203 F 
ATOM     73  F   UNL A   1      37.288  32.986  39.716  1.00  0.00    -0.200 F 
ATOM     74  C   UNL A   1      38.903  34.595  39.103  1.00  0.00     0.200 A 
ATOM     75  F   UNL A   1      40.522  36.180  38.438  1.00  0.00    -0.200 F 
ATOM     76  F   UNL A   1      38.661  35.289  40.224  1.00  0.00    -0.200 F 
ENDBRANCH  42  66
BRANCH  54  77
ATOM     77  C   UNL A   1      44.043  28.281  34.899  1.00  0.00     0.064 A 
ATOM     78  C   UNL A   1      43.912  27.085  35.617  1.00  0.00     0.173 A 
ATOM     79  C   UNL A   1      45.321  28.858  34.810  1.00  0.00     0.173 A 
ATOM     80  F   UNL A   1      42.710  26.502  35.746  1.00  0.00    -0.203 F 
ATOM     81  C   UNL A   1      45.013  26.496  36.234  1.00  0.00     0.198 A 
ATOM     82  C   UNL A   1      46.424  28.249  35.399  1.00  0.00     0.198 A 
ATOM     83  F   UNL A   1      45.501  29.999  34.129  1.00  0.00    -0.203 F 
ATOM     84  F   UNL A   1      44.858  25.373  36.949  1.00  0.00    -0.200 F 
ATOM     85  C   UNL A   1      46.270  27.072  36.114  1.00  0.00     0.200 A 
ATOM     86  F   UNL A   1      47.640  28.798  35.268  1.00  0.00    -0.200 F 
ATOM     87  F   UNL A   1      47.331  26.495  36.694  1.00  0.00    -0.200 F 
ENDBRANCH  54  77
ENDBRANCH  28  29
ENDBRANCH  20  23
ENDBRANCH  18  19
ENDBRANCH   1  18
TORSDOF 12
ENDMDL
MODEL 3
REMARK VINA RESULT:     -11.6      4.412      9.593
REMARK SMILES Nc1ccc(O)c(C(=O)NCCCNC(=O)c2ccc(-c3c4nc(c(-c5c(F)c(F)c(F)c(F)c5F)c5ccc([nH]5)c(-c5c(F)c(F)c(F)c(F)c5F)c5nc(c(-c6c(F)c(F)c(F)c(F)c6F)c6ccc3[nH]6)C=C5)C=C4)cc2)c1
REMARK SMILES IDX 12 1 11 2 10 3 8 4 9 5 7 7 2 8 3 9 80 10 4 11 5 12 1 13 6 16
REMARK SMILES IDX 13 18 14 19 15 20 16 22 17 23 18 24 79 25 19 26 78 27 20 28
REMARK SMILES IDX 21 29 22 30 72 31 23 32 77 33 71 34 73 35 24 36 76 37 70 38
REMARK SMILES IDX 69 39 25 41 57 42 37 43 56 44 38 45 41 46 55 47 74 48 39 49
REMARK SMILES IDX 40 50 54 52 75 53 42 54 26 55 27 56 35 57 28 58 29 59 33 60
REMARK SMILES IDX 36 61 30 62 31 63 34 64 32 65 58 66 59 67 67 68 60 69 61 70
REMARK SMILES IDX 65 71 68 72 62 73 63 74 66 75 64 76 43 77 44 78 52 79 45 80
REMARK SMILES IDX 46 81 50 82 53 83 47 84 48 85 51 86 49 87
REMARK H PARENT 10 6 1 14 1 15 6 17 14 21 73 40 41 51
REMARK Flexibility Score: inf
ROOT
ATOM      1  C   UNL A   1      32.635  27.962  26.192  1.00  0.00     0.042 C 
ENDROOT
BRANCH   1   2
ATOM      2  C   UNL A   1      31.428  27.409  25.435  1.00  0.00     0.118 C 
BRANCH   2   3
ATOM      3  N   UNL A   1      31.779  27.121  24.058  1.00  0.00    -0.352 N 
ATOM      4  C   UNL A   1      31.207  27.436  22.854  1.00  0.00     0.255 C 
ATOM      5  O   UNL A   1      31.795  27.040  21.843  1.00  0.00    -0.269 OA
ATOM      6  H   UNL A   1      32.602  26.587  23.969  1.00  0.00     0.163 HD
BRANCH   4   7
ATOM      7  C   UNL A   1      29.982  28.267  22.676  1.00  0.00     0.083 A 
ATOM      8  C   UNL A   1      27.597  28.722  22.958  1.00  0.00     0.032 A 
ATOM      9  C   UNL A   1      27.765  29.970  22.363  1.00  0.00     0.029 A 
ATOM     10  C   UNL A   1      28.693  27.853  23.038  1.00  0.00     0.043 A 
ATOM     11  C   UNL A   1      29.022  30.378  21.922  1.00  0.00     0.049 A 
ATOM     12  C   UNL A   1      30.120  29.538  22.088  1.00  0.00     0.128 A 
BRANCH   8  13
ATOM     13  N   UNL A   1      26.334  28.295  23.345  1.00  0.00    -0.399 N 
ATOM     14  H   UNL A   1      25.908  28.679  24.145  1.00  0.00     0.156 HD
ATOM     15  H   UNL A   1      25.864  27.609  22.819  1.00  0.00     0.156 HD
ENDBRANCH   8  13
BRANCH  12  16
ATOM     16  O   UNL A   1      31.313  30.034  21.628  1.00  0.00    -0.507 OA
ATOM     17  H   UNL A   1      32.094  29.926  22.136  1.00  0.00     0.293 HD
ENDBRANCH  12  16
ENDBRANCH   4   7
ENDBRANCH   2   3
ENDBRANCH   1   2
BRANCH   1  18
ATOM     18  C   UNL A   1      33.301  29.128  25.465  1.00  0.00     0.118 C 
BRANCH  18  19
ATOM     19  N   UNL A   1      32.810  30.417  25.943  1.00  0.00    -0.352 N 
ATOM     20  C   UNL A   1      33.250  31.195  26.985  1.00  0.00     0.251 C 
ATOM     21  H   UNL A   1      32.047  30.784  25.442  1.00  0.00     0.163 HD
ATOM     22  O   UNL A   1      32.562  32.125  27.390  1.00  0.00    -0.269 OA
BRANCH  20  23
ATOM     23  C   UNL A   1      34.549  30.906  27.624  1.00  0.00     0.039 A 
ATOM     24  C   UNL A   1      35.500  31.925  27.725  1.00  0.00     0.014 A 
ATOM     25  C   UNL A   1      34.835  29.627  28.106  1.00  0.00     0.014 A 
ATOM     26  C   UNL A   1      36.711  31.679  28.376  1.00  0.00     0.010 A 
ATOM     27  C   UNL A   1      36.006  29.404  28.820  1.00  0.00     0.010 A 
ATOM     28  C   UNL A   1      36.955  30.428  28.964  1.00  0.00    -0.014 A 
BRANCH  28  29
ATOM     29  C   UNL A   1      38.188  30.158  29.744  1.00  0.00     0.031 A 
ATOM     30  C   UNL A   1      39.227  29.217  29.201  1.00  0.00     0.074 A 
ATOM     31  C   UNL A   1      38.323  30.682  30.978  1.00  0.00     0.049 A 
ATOM     32  N   UNL A   1      40.299  28.741  29.782  1.00  0.00    -0.248 NA
ATOM     33  C   UNL A   1      39.016  28.721  27.832  1.00  0.00     0.031 C 
ATOM     34  C   UNL A   1      37.366  31.579  31.625  1.00  0.00     0.029 A 
ATOM     35  N   UNL A   1      39.311  30.516  31.918  1.00  0.00    -0.354 N 
ATOM     36  C   UNL A   1      40.874  27.876  28.861  1.00  0.00     0.074 A 
ATOM     37  C   UNL A   1      40.007  27.854  27.702  1.00  0.00     0.031 C 
ATOM     38  C   UNL A   1      37.815  31.893  32.850  1.00  0.00     0.029 A 
ATOM     39  C   UNL A   1      39.066  31.182  33.094  1.00  0.00     0.049 A 
ATOM     40  H   UNL A   1      40.116  29.973  31.763  1.00  0.00     0.167 HD
ATOM     41  C   UNL A   1      42.030  27.180  28.966  1.00  0.00     0.037 A 
ATOM     42  C   UNL A   1      39.761  31.198  34.247  1.00  0.00     0.037 A 
ATOM     43  C   UNL A   1      42.896  27.226  30.115  1.00  0.00     0.049 A 
ATOM     44  C   UNL A   1      41.030  30.394  34.348  1.00  0.00     0.074 A 
ATOM     45  C   UNL A   1      44.120  26.606  30.297  1.00  0.00     0.029 A 
ATOM     46  N   UNL A   1      42.625  27.928  31.280  1.00  0.00    -0.354 N 
ATOM     47  N   UNL A   1      41.600  29.631  33.448  1.00  0.00    -0.248 NA
ATOM     48  C   UNL A   1      41.755  30.456  35.625  1.00  0.00     0.031 C 
ATOM     49  C   UNL A   1      44.561  26.885  31.595  1.00  0.00     0.029 A 
ATOM     50  C   UNL A   1      43.645  27.733  32.197  1.00  0.00     0.049 A 
ATOM     51  H   UNL A   1      41.825  28.483  31.433  1.00  0.00     0.167 HD
ATOM     52  C   UNL A   1      42.763  29.150  34.033  1.00  0.00     0.074 A 
ATOM     53  C   UNL A   1      42.824  29.716  35.364  1.00  0.00     0.031 C 
ATOM     54  C   UNL A   1      43.697  28.318  33.513  1.00  0.00     0.037 A 
BRANCH  41  55
ATOM     55  C   UNL A   1      42.427  26.306  27.809  1.00  0.00     0.064 A 
ATOM     56  C   UNL A   1      43.334  26.742  26.832  1.00  0.00     0.173 A 
ATOM     57  C   UNL A   1      41.924  25.001  27.700  1.00  0.00     0.173 A 
ATOM     58  F   UNL A   1      43.839  27.983  26.883  1.00  0.00    -0.203 F 
ATOM     59  C   UNL A   1      43.695  25.917  25.769  1.00  0.00     0.198 A 
ATOM     60  C   UNL A   1      42.314  24.166  26.655  1.00  0.00     0.198 A 
ATOM     61  F   UNL A   1      41.059  24.529  28.611  1.00  0.00    -0.203 F 
ATOM     62  F   UNL A   1      44.520  26.374  24.818  1.00  0.00    -0.200 F 
ATOM     63  C   UNL A   1      43.192  24.627  25.687  1.00  0.00     0.200 A 
ATOM     64  F   UNL A   1      41.839  22.915  26.587  1.00  0.00    -0.200 F 
ATOM     65  F   UNL A   1      43.548  23.831  24.669  1.00  0.00    -0.200 F 
ENDBRANCH  41  55
BRANCH  42  66
ATOM     66  C   UNL A   1      39.278  32.010  35.397  1.00  0.00     0.064 A 
ATOM     67  C   UNL A   1      38.481  31.437  36.397  1.00  0.00     0.173 A 
ATOM     68  C   UNL A   1      39.596  33.371  35.517  1.00  0.00     0.173 A 
ATOM     69  F   UNL A   1      38.135  30.144  36.317  1.00  0.00    -0.203 F 
ATOM     70  C   UNL A   1      38.001  32.198  37.461  1.00  0.00     0.198 A 
ATOM     71  C   UNL A   1      39.142  34.123  36.599  1.00  0.00     0.198 A 
ATOM     72  F   UNL A   1      40.362  33.967  34.592  1.00  0.00    -0.203 F 
ATOM     73  F   UNL A   1      37.200  31.636  38.376  1.00  0.00    -0.200 F 
ATOM     74  C   UNL A   1      38.336  33.540  37.564  1.00  0.00     0.200 A 
ATOM     75  F   UNL A   1      39.484  35.415  36.704  1.00  0.00    -0.200 F 
ATOM     76  F   UNL A   1      37.879  34.270  38.590  1.00  0.00    -0.200 F 
ENDBRANCH  42  66
BRANCH  54  77
ATOM     77  C   UNL A   1      44.896  28.003  34.362  1.00  0.00     0.064 A 
ATOM     78  C   UNL A   1      44.944  26.867  35.182  1.00  0.00     0.173 A 
ATOM     79  C   UNL A   1      46.038  28.818  34.299  1.00  0.00     0.173 A 
ATOM     80  F   UNL A   1      43.874  26.065  35.288  1.00  0.00    -0.203 F 
ATOM     81  C   UNL A   1      46.086  26.567  35.921  1.00  0.00     0.198 A 
ATOM     82  C   UNL A   1      47.187  28.497  35.014  1.00  0.00     0.198 A 
ATOM     83  F   UNL A   1      46.046  29.913  33.525  1.00  0.00    -0.203 F 
ATOM     84  F   UNL A   1      46.096  25.498  36.730  1.00  0.00    -0.200 F 
ATOM     85  C   UNL A   1      47.210  27.374  35.828  1.00  0.00     0.200 A 
ATOM     86  F   UNL A   1      48.278  29.269  34.908  1.00  0.00    -0.200 F 
ATOM     87  F   UNL A   1      48.312  27.074  36.526  1.00  0.00    -0.200 F 
ENDBRANCH  54  77
ENDBRANCH  28  29
ENDBRANCH  20  23
ENDBRANCH  18  19
ENDBRANCH   1  18
TORSDOF 12
ENDMDL
