MODEL 1
REMARK VINA RESULT:     -11.8      0.000      0.000
REMARK SMILES O=C(C[N@@H+](Cc1c(F)cccc1Cl)C1CC1)NCCCNC(=O)c1ccc(-c2c3nc(c(-c4c(F)c(F)c(F)c(F)c4F)c4ccc([nH]4)c(-c4c(F)c(F)c(F)c(F)c4F)c4nc(c(-c5c(F)c(F)c(F)c(F)c5F)c5ccc2[nH]5)C=C4)C=C3)cc1
REMARK SMILES IDX 18 1 17 2 1 3 2 4 3 6 4 7 5 9 6 10 7 11 12 12 8 13 9 14
REMARK SMILES IDX 11 15 13 16 10 17 14 18 15 19 16 20 19 21 20 22 21 23 22 24
REMARK SMILES IDX 23 26 24 27 25 28 86 29 26 30 85 31 27 32 28 33 29 34 79 35
REMARK SMILES IDX 30 36 84 37 78 38 80 39 31 40 83 41 77 42 76 43 32 45 64 46
REMARK SMILES IDX 44 47 63 48 45 49 48 50 62 51 81 52 46 53 47 54 61 56 82 57
REMARK SMILES IDX 49 58 33 59 34 60 42 61 35 62 36 63 40 64 43 65 37 66 38 67
REMARK SMILES IDX 41 68 39 69 65 70 66 71 74 72 67 73 68 74 72 75 75 76 69 77
REMARK SMILES IDX 70 78 73 79 71 80 50 81 51 82 59 83 52 84 53 85 57 86 60 87
REMARK SMILES IDX 54 88 55 89 58 90 56 91
REMARK H PARENT 17 5 4 8 21 25 80 44 48 55
REMARK Flexibility Score: inf
ROOT
ATOM      1  C   UNL A   1      31.959  30.279  26.888  1.00  0.00     0.118 C 
ENDROOT
BRANCH   1   2
ATOM      2  N   UNL A   1      32.144  29.661  25.593  1.00  0.00    -0.351 N 
ATOM      3  O   UNL A   1      34.266  28.899  26.002  1.00  0.00    -0.269 OA
ATOM      4  C   UNL A   1      33.241  28.869  25.325  1.00  0.00     0.275 C 
ATOM      5  H   UNL A   1      31.473  29.809  24.888  1.00  0.00     0.163 HD
BRANCH   4   6
ATOM      6  C   UNL A   1      33.102  27.964  24.100  1.00  0.00     0.364 C 
BRANCH   6   7
ATOM      7  N   UNL A   1      31.891  27.104  24.137  1.00  0.00    -0.321 N 
ATOM      8  H   UNL A   1      31.319  27.487  24.889  1.00  0.00     0.349 HD
BRANCH   7   9
ATOM      9  C   UNL A   1      31.144  27.190  22.839  1.00  0.00     0.304 C 
BRANCH   9  10
ATOM     10  C   UNL A   1      29.987  28.176  22.783  1.00  0.00     0.061 A 
ATOM     11  C   UNL A   1      30.205  29.447  22.230  1.00  0.00     0.133 A 
ATOM     12  C   UNL A   1      28.679  27.888  23.208  1.00  0.00     0.052 A 
ATOM     13  F   UNL A   1      31.449  29.821  21.893  1.00  0.00    -0.206 F 
ATOM     14  C   UNL A   1      29.169  30.348  21.993  1.00  0.00     0.040 A 
ATOM     15  C   UNL A   1      27.624  28.776  22.945  1.00  0.00     0.021 A 
ATOM     16  Cl  UNL A   1      28.285  26.468  24.117  1.00  0.00    -0.084 Cl
ATOM     17  C   UNL A   1      27.865  29.998  22.321  1.00  0.00     0.005 A 
ENDBRANCH   9  10
ENDBRANCH   7   9
BRANCH   7  18
ATOM     18  C   UNL A   1      32.114  25.693  24.547  1.00  0.00     0.185 C 
ATOM     19  C   UNL A   1      33.121  25.166  25.526  1.00  0.00     0.071 C 
ATOM     20  C   UNL A   1      31.703  25.351  25.962  1.00  0.00     0.071 C 
ENDBRANCH   7  18
ENDBRANCH   6   7
ENDBRANCH   4   6
ENDBRANCH   1   2
BRANCH   1  21
ATOM     21  C   UNL A   1      31.695  31.771  26.823  1.00  0.00     0.042 C 
BRANCH  21  22
ATOM     22  C   UNL A   1      32.849  32.614  27.343  1.00  0.00     0.118 C 
BRANCH  22  23
ATOM     23  N   UNL A   1      32.470  33.990  27.649  1.00  0.00    -0.352 N 
ATOM     24  C   UNL A   1      32.999  34.865  28.566  1.00  0.00     0.251 C 
ATOM     25  H   UNL A   1      31.721  34.345  27.117  1.00  0.00     0.163 HD
ATOM     26  O   UNL A   1      32.469  35.955  28.763  1.00  0.00    -0.269 OA
BRANCH  24  27
ATOM     27  C   UNL A   1      34.194  34.478  29.346  1.00  0.00     0.039 A 
ATOM     28  C   UNL A   1      34.023  33.874  30.595  1.00  0.00     0.014 A 
ATOM     29  C   UNL A   1      35.476  34.679  28.831  1.00  0.00     0.014 A 
ATOM     30  C   UNL A   1      35.134  33.381  31.282  1.00  0.00     0.010 A 
ATOM     31  C   UNL A   1      36.571  34.118  29.478  1.00  0.00     0.010 A 
ATOM     32  C   UNL A   1      36.411  33.453  30.703  1.00  0.00    -0.014 A 
BRANCH  32  33
ATOM     33  C   UNL A   1      37.599  32.828  31.339  1.00  0.00     0.031 A 
ATOM     34  C   UNL A   1      38.264  31.653  30.684  1.00  0.00     0.074 A 
ATOM     35  C   UNL A   1      38.005  33.245  32.554  1.00  0.00     0.049 A 
ATOM     36  N   UNL A   1      39.196  30.860  31.149  1.00  0.00    -0.248 NA
ATOM     37  C   UNL A   1      37.794  31.300  29.334  1.00  0.00     0.031 C 
ATOM     38  C   UNL A   1      37.417  34.351  33.311  1.00  0.00     0.029 A 
ATOM     39  N   UNL A   1      38.993  32.767  33.380  1.00  0.00    -0.354 N 
ATOM     40  C   UNL A   1      39.405  29.904  30.164  1.00  0.00     0.074 A 
ATOM     41  C   UNL A   1      38.473  30.188  29.094  1.00  0.00     0.031 C 
ATOM     42  C   UNL A   1      38.061  34.474  34.483  1.00  0.00     0.029 A 
ATOM     43  C   UNL A   1      39.072  33.425  34.582  1.00  0.00     0.049 A 
ATOM     44  H   UNL A   1      39.590  32.023  33.132  1.00  0.00     0.167 HD
ATOM     45  C   UNL A   1      40.304  28.892  30.149  1.00  0.00     0.037 A 
ATOM     46  C   UNL A   1      39.854  33.195  35.654  1.00  0.00     0.037 A 
ATOM     47  C   UNL A   1      41.248  28.632  31.204  1.00  0.00     0.049 A 
ATOM     48  C   UNL A   1      40.839  32.058  35.615  1.00  0.00     0.074 A 
ATOM     49  C   UNL A   1      42.237  27.666  31.256  1.00  0.00     0.029 A 
ATOM     50  N   UNL A   1      41.321  29.346  32.391  1.00  0.00    -0.354 N 
ATOM     51  N   UNL A   1      41.064  31.191  34.658  1.00  0.00    -0.248 NA
ATOM     52  C   UNL A   1      41.681  31.867  36.805  1.00  0.00     0.031 C 
ATOM     53  C   UNL A   1      42.881  27.767  32.494  1.00  0.00     0.029 A 
ATOM     54  C   UNL A   1      42.328  28.830  33.190  1.00  0.00     0.049 A 
ATOM     55  H   UNL A   1      40.743  30.107  32.630  1.00  0.00     0.167 HD
ATOM     56  C   UNL A   1      42.094  30.378  35.113  1.00  0.00     0.074 A 
ATOM     57  C   UNL A   1      42.453  30.856  36.432  1.00  0.00     0.031 C 
ATOM     58  C   UNL A   1      42.691  29.334  34.490  1.00  0.00     0.037 A 
BRANCH  45  59
ATOM     59  C   UNL A   1      40.308  27.986  28.953  1.00  0.00     0.064 A 
ATOM     60  C   UNL A   1      41.050  28.291  27.802  1.00  0.00     0.173 A 
ATOM     61  C   UNL A   1      39.595  26.778  28.972  1.00  0.00     0.173 A 
ATOM     62  F   UNL A   1      41.741  29.439  27.728  1.00  0.00    -0.203 F 
ATOM     63  C   UNL A   1      41.052  27.436  26.703  1.00  0.00     0.198 A 
ATOM     64  C   UNL A   1      39.626  25.910  27.884  1.00  0.00     0.198 A 
ATOM     65  F   UNL A   1      38.875  26.434  30.051  1.00  0.00    -0.203 F 
ATOM     66  F   UNL A   1      41.729  27.773  25.596  1.00  0.00    -0.200 F 
ATOM     67  C   UNL A   1      40.347  26.243  26.749  1.00  0.00     0.200 A 
ATOM     68  F   UNL A   1      38.954  24.751  27.935  1.00  0.00    -0.200 F 
ATOM     69  F   UNL A   1      40.358  25.417  25.693  1.00  0.00    -0.200 F 
ENDBRANCH  45  59
BRANCH  46  70
ATOM     70  C   UNL A   1      39.751  34.071  36.851  1.00  0.00     0.064 A 
ATOM     71  C   UNL A   1      38.935  33.714  37.933  1.00  0.00     0.173 A 
ATOM     72  C   UNL A   1      40.460  35.279  36.938  1.00  0.00     0.173 A 
ATOM     73  F   UNL A   1      38.223  32.578  37.886  1.00  0.00    -0.203 F 
ATOM     74  C   UNL A   1      38.816  34.539  39.049  1.00  0.00     0.198 A 
ATOM     75  C   UNL A   1      40.361  36.090  38.067  1.00  0.00     0.198 A 
ATOM     76  F   UNL A   1      41.256  35.665  35.931  1.00  0.00    -0.203 F 
ATOM     77  F   UNL A   1      37.995  34.195  40.049  1.00  0.00    -0.200 F 
ATOM     78  C   UNL A   1      39.534  35.724  39.117  1.00  0.00     0.200 A 
ATOM     79  F   UNL A   1      41.065  37.228  38.135  1.00  0.00    -0.200 F 
ATOM     80  F   UNL A   1      39.420  36.516  40.192  1.00  0.00    -0.200 F 
ENDBRANCH  46  70
BRANCH  58  81
ATOM     81  C   UNL A   1      43.834  28.667  35.194  1.00  0.00     0.064 A 
ATOM     82  C   UNL A   1      45.154  29.115  35.047  1.00  0.00     0.173 A 
ATOM     83  C   UNL A   1      43.593  27.608  36.082  1.00  0.00     0.173 A 
ATOM     84  F   UNL A   1      45.438  30.115  34.199  1.00  0.00    -0.203 F 
ATOM     85  C   UNL A   1      46.195  28.517  35.753  1.00  0.00     0.198 A 
ATOM     86  C   UNL A   1      44.630  27.030  36.809  1.00  0.00     0.198 A 
ATOM     87  F   UNL A   1      42.346  27.148  36.263  1.00  0.00    -0.203 F 
ATOM     88  F   UNL A   1      47.454  28.938  35.573  1.00  0.00    -0.200 F 
ATOM     89  C   UNL A   1      45.931  27.483  36.640  1.00  0.00     0.200 A 
ATOM     90  F   UNL A   1      44.372  26.042  37.674  1.00  0.00    -0.200 F 
ATOM     91  F   UNL A   1      46.931  26.920  37.332  1.00  0.00    -0.200 F 
ENDBRANCH  58  81
ENDBRANCH  32  33
ENDBRANCH  24  27
ENDBRANCH  22  23
ENDBRANCH  21  22
ENDBRANCH   1  21
TORSDOF 14
ENDMDL
MODEL 2
REMARK VINA RESULT:     -11.7      0.360      1.667
REMARK SMILES O=C(C[N@@H+](Cc1c(F)cccc1Cl)C1CC1)NCCCNC(=O)c1ccc(-c2c3nc(c(-c4c(F)c(F)c(F)c(F)c4F)c4ccc([nH]4)c(-c4c(F)c(F)c(F)c(F)c4F)c4nc(c(-c5c(F)c(F)c(F)c(F)c5F)c5ccc2[nH]5)C=C4)C=C3)cc1
REMARK SMILES IDX 18 1 17 2 1 3 2 4 3 6 4 7 5 9 6 10 7 11 12 12 8 13 9 14
REMARK SMILES IDX 11 15 13 16 10 17 14 18 15 19 16 20 19 21 20 22 21 23 22 24
REMARK SMILES IDX 23 26 24 27 25 28 86 29 26 30 85 31 27 32 28 33 29 34 79 35
REMARK SMILES IDX 30 36 84 37 78 38 80 39 31 40 83 41 77 42 76 43 32 45 64 46
REMARK SMILES IDX 44 47 63 48 45 49 48 50 62 51 81 52 46 53 47 54 61 56 82 57
REMARK SMILES IDX 49 58 33 59 34 60 42 61 35 62 36 63 40 64 43 65 37 66 38 67
REMARK SMILES IDX 41 68 39 69 65 70 66 71 74 72 67 73 68 74 72 75 75 76 69 77
REMARK SMILES IDX 70 78 73 79 71 80 50 81 51 82 59 83 52 84 53 85 57 86 60 87
REMARK SMILES IDX 54 88 55 89 58 90 56 91
REMARK H PARENT 17 5 4 8 21 25 80 44 48 55
REMARK Flexibility Score: inf
ROOT
ATOM      1  C   UNL A   1      32.028  30.400  26.863  1.00  0.00     0.118 C 
ENDROOT
BRANCH   1   2
ATOM      2  N   UNL A   1      32.509  29.876  25.603  1.00  0.00    -0.351 N 
ATOM      3  O   UNL A   1      34.324  28.788  26.486  1.00  0.00    -0.269 OA
ATOM      4  C   UNL A   1      33.542  28.963  25.554  1.00  0.00     0.275 C 
ATOM      5  H   UNL A   1      32.092  30.177  24.764  1.00  0.00     0.163 HD
BRANCH   4   6
ATOM      6  C   UNL A   1      33.663  28.195  24.237  1.00  0.00     0.364 C 
BRANCH   6   7
ATOM      7  N   UNL A   1      32.728  27.044  24.136  1.00  0.00    -0.321 N 
ATOM      8  H   UNL A   1      32.099  27.147  24.933  1.00  0.00     0.349 HD
BRANCH   7   9
ATOM      9  C   UNL A   1      31.944  27.113  22.859  1.00  0.00     0.304 C 
BRANCH   9  10
ATOM     10  C   UNL A   1      30.634  27.886  22.904  1.00  0.00     0.061 A 
ATOM     11  C   UNL A   1      30.580  29.161  22.321  1.00  0.00     0.133 A 
ATOM     12  C   UNL A   1      29.440  27.390  23.455  1.00  0.00     0.052 A 
ATOM     13  F   UNL A   1      31.704  29.732  21.864  1.00  0.00    -0.206 F 
ATOM     14  C   UNL A   1      29.386  29.866  22.176  1.00  0.00     0.040 A 
ATOM     15  C   UNL A   1      28.229  28.079  23.285  1.00  0.00     0.021 A 
ATOM     16  Cl  UNL A   1      29.381  25.948  24.411  1.00  0.00    -0.084 Cl
ATOM     17  C   UNL A   1      28.198  29.307  22.629  1.00  0.00     0.005 A 
ENDBRANCH   9  10
ENDBRANCH   7   9
BRANCH   7  18
ATOM     18  C   UNL A   1      33.333  25.702  24.335  1.00  0.00     0.185 C 
ATOM     19  C   UNL A   1      34.335  25.287  25.371  1.00  0.00     0.071 C 
ATOM     20  C   UNL A   1      32.890  24.963  25.579  1.00  0.00     0.071 C 
ENDBRANCH   7  18
ENDBRANCH   6   7
ENDBRANCH   4   6
ENDBRANCH   1   2
BRANCH   1  21
ATOM     21  C   UNL A   1      31.732  31.887  26.834  1.00  0.00     0.042 C 
BRANCH  21  22
ATOM     22  C   UNL A   1      32.883  32.744  27.339  1.00  0.00     0.118 C 
BRANCH  22  23
ATOM     23  N   UNL A   1      32.484  34.106  27.683  1.00  0.00    -0.352 N 
ATOM     24  C   UNL A   1      33.005  34.964  28.620  1.00  0.00     0.251 C 
ATOM     25  H   UNL A   1      31.727  34.463  27.164  1.00  0.00     0.163 HD
ATOM     26  O   UNL A   1      32.459  36.040  28.849  1.00  0.00    -0.269 OA
BRANCH  24  27
ATOM     27  C   UNL A   1      34.210  34.576  29.384  1.00  0.00     0.039 A 
ATOM     28  C   UNL A   1      34.060  34.086  30.684  1.00  0.00     0.014 A 
ATOM     29  C   UNL A   1      35.477  34.661  28.805  1.00  0.00     0.014 A 
ATOM     30  C   UNL A   1      35.172  33.590  31.368  1.00  0.00     0.010 A 
ATOM     31  C   UNL A   1      36.568  34.093  29.454  1.00  0.00     0.010 A 
ATOM     32  C   UNL A   1      36.425  33.541  30.736  1.00  0.00    -0.014 A 
BRANCH  32  33
ATOM     33  C   UNL A   1      37.604  32.905  31.376  1.00  0.00     0.031 A 
ATOM     34  C   UNL A   1      38.272  31.736  30.713  1.00  0.00     0.074 A 
ATOM     35  C   UNL A   1      37.998  33.304  32.601  1.00  0.00     0.049 A 
ATOM     36  N   UNL A   1      39.197  30.934  31.178  1.00  0.00    -0.248 NA
ATOM     37  C   UNL A   1      37.816  31.402  29.354  1.00  0.00     0.031 C 
ATOM     38  C   UNL A   1      37.406  34.403  33.366  1.00  0.00     0.029 A 
ATOM     39  N   UNL A   1      38.977  32.813  33.431  1.00  0.00    -0.354 N 
ATOM     40  C   UNL A   1      39.413  29.990  30.183  1.00  0.00     0.074 A 
ATOM     41  C   UNL A   1      38.494  30.291  29.107  1.00  0.00     0.031 C 
ATOM     42  C   UNL A   1      38.038  34.508  34.547  1.00  0.00     0.029 A 
ATOM     43  C   UNL A   1      39.044  33.455  34.643  1.00  0.00     0.049 A 
ATOM     44  H   UNL A   1      39.573  32.070  33.180  1.00  0.00     0.167 HD
ATOM     45  C   UNL A   1      40.309  28.975  30.165  1.00  0.00     0.037 A 
ATOM     46  C   UNL A   1      39.814  33.209  35.720  1.00  0.00     0.037 A 
ATOM     47  C   UNL A   1      41.241  28.699  31.226  1.00  0.00     0.049 A 
ATOM     48  C   UNL A   1      40.796  32.069  35.677  1.00  0.00     0.074 A 
ATOM     49  C   UNL A   1      42.226  27.729  31.276  1.00  0.00     0.029 A 
ATOM     50  N   UNL A   1      41.303  29.397  32.422  1.00  0.00    -0.354 N 
ATOM     51  N   UNL A   1      41.028  31.214  34.711  1.00  0.00    -0.248 NA
ATOM     52  C   UNL A   1      41.625  31.860  36.873  1.00  0.00     0.031 C 
ATOM     53  C   UNL A   1      42.858  27.812  32.522  1.00  0.00     0.029 A 
ATOM     54  C   UNL A   1      42.300  28.868  33.225  1.00  0.00     0.049 A 
ATOM     55  H   UNL A   1      40.725  30.156  32.665  1.00  0.00     0.167 HD
ATOM     56  C   UNL A   1      42.051  30.392  35.166  1.00  0.00     0.074 A 
ATOM     57  C   UNL A   1      42.397  30.852  36.495  1.00  0.00     0.031 C 
ATOM     58  C   UNL A   1      42.651  29.353  34.536  1.00  0.00     0.037 A 
BRANCH  45  59
ATOM     59  C   UNL A   1      40.324  28.084  28.957  1.00  0.00     0.064 A 
ATOM     60  C   UNL A   1      41.083  28.399  27.820  1.00  0.00     0.173 A 
ATOM     61  C   UNL A   1      39.601  26.882  28.951  1.00  0.00     0.173 A 
ATOM     62  F   UNL A   1      41.782  29.543  27.770  1.00  0.00    -0.203 F 
ATOM     63  C   UNL A   1      41.094  27.558  26.711  1.00  0.00     0.198 A 
ATOM     64  C   UNL A   1      39.641  26.028  27.852  1.00  0.00     0.198 A 
ATOM     65  F   UNL A   1      38.864  26.529  30.015  1.00  0.00    -0.203 F 
ATOM     66  F   UNL A   1      41.787  27.905  25.617  1.00  0.00    -0.200 F 
ATOM     67  C   UNL A   1      40.380  26.370  26.731  1.00  0.00     0.200 A 
ATOM     68  F   UNL A   1      38.960  24.873  27.879  1.00  0.00    -0.200 F 
ATOM     69  F   UNL A   1      40.399  25.558  25.665  1.00  0.00    -0.200 F 
ENDBRANCH  45  59
BRANCH  46  70
ATOM     70  C   UNL A   1      39.702  34.069  36.927  1.00  0.00     0.064 A 
ATOM     71  C   UNL A   1      40.413  35.273  37.018  1.00  0.00     0.173 A 
ATOM     72  C   UNL A   1      38.888  33.708  38.011  1.00  0.00     0.173 A 
ATOM     73  F   UNL A   1      41.220  35.650  36.016  1.00  0.00    -0.203 F 
ATOM     74  C   UNL A   1      40.330  36.074  38.155  1.00  0.00     0.198 A 
ATOM     75  C   UNL A   1      38.784  34.523  39.136  1.00  0.00     0.198 A 
ATOM     76  F   UNL A   1      38.184  32.567  37.972  1.00  0.00    -0.203 F 
ATOM     77  F   UNL A   1      41.055  37.198  38.234  1.00  0.00    -0.200 F 
ATOM     78  C   UNL A   1      39.511  35.701  39.210  1.00  0.00     0.200 A 
ATOM     79  F   UNL A   1      37.983  34.167  40.149  1.00  0.00    -0.200 F 
ATOM     80  F   UNL A   1      39.430  36.474  40.302  1.00  0.00    -0.200 F 
ENDBRANCH  46  70
BRANCH  58  81
ATOM     81  C   UNL A   1      43.785  28.674  35.243  1.00  0.00     0.064 A 
ATOM     82  C   UNL A   1      43.573  27.603  36.121  1.00  0.00     0.173 A 
ATOM     83  C   UNL A   1      45.109  29.059  34.982  1.00  0.00     0.173 A 
ATOM     84  F   UNL A   1      42.326  27.206  36.414  1.00  0.00    -0.203 F 
ATOM     85  C   UNL A   1      44.645  26.950  36.724  1.00  0.00     0.198 A 
ATOM     86  C   UNL A   1      46.180  28.388  35.564  1.00  0.00     0.198 A 
ATOM     87  F   UNL A   1      45.365  30.076  34.143  1.00  0.00    -0.203 F 
ATOM     88  F   UNL A   1      44.419  25.949  37.586  1.00  0.00    -0.200 F 
ATOM     89  C   UNL A   1      45.947  27.335  36.438  1.00  0.00     0.200 A 
ATOM     90  F   UNL A   1      47.436  28.752  35.275  1.00  0.00    -0.200 F 
ATOM     91  F   UNL A   1      46.978  26.695  37.006  1.00  0.00    -0.200 F 
ENDBRANCH  58  81
ENDBRANCH  32  33
ENDBRANCH  24  27
ENDBRANCH  22  23
ENDBRANCH  21  22
ENDBRANCH   1  21
TORSDOF 14
ENDMDL
MODEL 3
REMARK VINA RESULT:     -11.6      6.210     11.506
REMARK SMILES O=C(C[N@@H+](Cc1c(F)cccc1Cl)C1CC1)NCCCNC(=O)c1ccc(-c2c3nc(c(-c4c(F)c(F)c(F)c(F)c4F)c4ccc([nH]4)c(-c4c(F)c(F)c(F)c(F)c4F)c4nc(c(-c5c(F)c(F)c(F)c(F)c5F)c5ccc2[nH]5)C=C4)C=C3)cc1
REMARK SMILES IDX 18 1 17 2 1 3 2 4 3 6 4 7 5 9 6 10 7 11 12 12 8 13 9 14
REMARK SMILES IDX 11 15 13 16 10 17 14 18 15 19 16 20 19 21 20 22 21 23 22 24
REMARK SMILES IDX 23 26 24 27 25 28 86 29 26 30 85 31 27 32 28 33 29 34 79 35
REMARK SMILES IDX 30 36 84 37 78 38 80 39 31 40 83 41 77 42 76 43 32 45 64 46
REMARK SMILES IDX 44 47 63 48 45 49 48 50 62 51 81 52 46 53 47 54 61 56 82 57
REMARK SMILES IDX 49 58 33 59 34 60 42 61 35 62 36 63 40 64 43 65 37 66 38 67
REMARK SMILES IDX 41 68 39 69 65 70 66 71 74 72 67 73 68 74 72 75 75 76 69 77
REMARK SMILES IDX 70 78 73 79 71 80 50 81 51 82 59 83 52 84 53 85 57 86 60 87
REMARK SMILES IDX 54 88 55 89 58 90 56 91
REMARK H PARENT 17 5 4 8 21 25 80 44 48 55
REMARK Flexibility Score: inf
ROOT
ATOM      1  C   UNL A   1      37.227  21.433  24.498  1.00  0.00     0.118 C 
ENDROOT
BRANCH   1   2
ATOM      2  N   UNL A   1      35.923  21.690  25.071  1.00  0.00    -0.351 N 
ATOM      3  O   UNL A   1      36.519  23.632  26.133  1.00  0.00    -0.269 OA
ATOM      4  C   UNL A   1      35.643  22.878  25.713  1.00  0.00     0.275 C 
ATOM      5  H   UNL A   1      35.221  21.003  25.001  1.00  0.00     0.163 HD
BRANCH   4   6
ATOM      6  C   UNL A   1      34.155  23.182  25.891  1.00  0.00     0.364 C 
BRANCH   6   7
ATOM      7  N   UNL A   1      33.353  22.941  24.663  1.00  0.00    -0.321 N 
ATOM      8  H   UNL A   1      34.012  22.547  23.992  1.00  0.00     0.349 HD
BRANCH   7   9
ATOM      9  C   UNL A   1      32.257  21.953  24.937  1.00  0.00     0.304 C 
BRANCH   9  10
ATOM     10  C   UNL A   1      32.513  20.516  24.510  1.00  0.00     0.061 A 
ATOM     11  C   UNL A   1      32.981  19.599  25.464  1.00  0.00     0.133 A 
ATOM     12  C   UNL A   1      32.267  20.016  23.220  1.00  0.00     0.052 A 
ATOM     13  F   UNL A   1      33.327  20.029  26.686  1.00  0.00    -0.206 F 
ATOM     14  C   UNL A   1      33.088  18.235  25.201  1.00  0.00     0.040 A 
ATOM     15  C   UNL A   1      32.342  18.640  22.955  1.00  0.00     0.021 A 
ATOM     16  Cl  UNL A   1      31.913  21.044  21.873  1.00  0.00    -0.084 Cl
ATOM     17  C   UNL A   1      32.733  17.746  23.949  1.00  0.00     0.005 A 
ENDBRANCH   9  10
ENDBRANCH   7   9
BRANCH   7  18
ATOM     18  C   UNL A   1      32.837  24.155  23.981  1.00  0.00     0.185 C 
ATOM     19  C   UNL A   1      33.574  25.426  23.678  1.00  0.00     0.071 C 
ATOM     20  C   UNL A   1      33.389  24.410  22.596  1.00  0.00     0.071 C 
ENDBRANCH   7  18
ENDBRANCH   6   7
ENDBRANCH   4   6
ENDBRANCH   1   2
BRANCH   1  21
ATOM     21  C   UNL A   1      37.888  20.173  25.023  1.00  0.00     0.042 C 
BRANCH  21  22
ATOM     22  C   UNL A   1      39.154  20.441  25.823  1.00  0.00     0.118 C 
BRANCH  22  23
ATOM     23  N   UNL A   1      40.072  19.307  25.852  1.00  0.00    -0.352 N 
ATOM     24  C   UNL A   1      41.429  19.279  26.068  1.00  0.00     0.251 C 
ATOM     25  H   UNL A   1      39.657  18.429  25.692  1.00  0.00     0.163 HD
ATOM     26  O   UNL A   1      42.057  18.232  25.939  1.00  0.00    -0.269 OA
BRANCH  24  27
ATOM     27  C   UNL A   1      42.142  20.525  26.423  1.00  0.00     0.039 A 
ATOM     28  C   UNL A   1      42.641  21.336  25.401  1.00  0.00     0.014 A 
ATOM     29  C   UNL A   1      42.285  20.906  27.758  1.00  0.00     0.014 A 
ATOM     30  C   UNL A   1      43.196  22.579  25.714  1.00  0.00     0.010 A 
ATOM     31  C   UNL A   1      42.764  22.176  28.062  1.00  0.00     0.010 A 
ATOM     32  C   UNL A   1      43.213  23.030  27.043  1.00  0.00    -0.014 A 
BRANCH  32  33
ATOM     33  C   UNL A   1      43.675  24.394  27.404  1.00  0.00     0.031 A 
ATOM     34  C   UNL A   1      42.690  25.403  27.919  1.00  0.00     0.074 A 
ATOM     35  C   UNL A   1      44.950  24.755  27.164  1.00  0.00     0.049 A 
ATOM     36  N   UNL A   1      42.847  26.686  28.128  1.00  0.00    -0.248 NA
ATOM     37  C   UNL A   1      41.333  24.910  28.206  1.00  0.00     0.031 C 
ATOM     38  C   UNL A   1      45.993  23.878  26.630  1.00  0.00     0.029 A 
ATOM     39  N   UNL A   1      45.580  25.967  27.311  1.00  0.00    -0.354 N 
ATOM     40  C   UNL A   1      41.609  27.155  28.544  1.00  0.00     0.074 A 
ATOM     41  C   UNL A   1      40.699  26.031  28.518  1.00  0.00     0.031 C 
ATOM     42  C   UNL A   1      47.134  24.576  26.504  1.00  0.00     0.029 A 
ATOM     43  C   UNL A   1      46.890  25.960  26.900  1.00  0.00     0.049 A 
ATOM     44  H   UNL A   1      45.134  26.765  27.677  1.00  0.00     0.167 HD
ATOM     45  C   UNL A   1      41.268  28.407  28.929  1.00  0.00     0.037 A 
ATOM     46  C   UNL A   1      47.788  26.961  26.828  1.00  0.00     0.037 A 
ATOM     47  C   UNL A   1      42.184  29.516  28.982  1.00  0.00     0.049 A 
ATOM     48  C   UNL A   1      47.381  28.346  27.253  1.00  0.00     0.074 A 
ATOM     49  C   UNL A   1      41.949  30.809  29.412  1.00  0.00     0.029 A 
ATOM     50  N   UNL A   1      43.514  29.458  28.593  1.00  0.00    -0.354 N 
ATOM     51  N   UNL A   1      46.222  28.768  27.695  1.00  0.00    -0.248 NA
ATOM     52  C   UNL A   1      48.409  29.395  27.173  1.00  0.00     0.031 C 
ATOM     53  C   UNL A   1      43.125  31.547  29.244  1.00  0.00     0.029 A 
ATOM     54  C   UNL A   1      44.108  30.699  28.758  1.00  0.00     0.049 A 
ATOM     55  H   UNL A   1      43.970  28.655  28.251  1.00  0.00     0.167 HD
ATOM     56  C   UNL A   1      46.389  30.117  27.979  1.00  0.00     0.074 A 
ATOM     57  C   UNL A   1      47.763  30.444  27.662  1.00  0.00     0.031 C 
ATOM     58  C   UNL A   1      45.485  31.003  28.462  1.00  0.00     0.037 A 
BRANCH  45  59
ATOM     59  C   UNL A   1      39.840  28.648  29.323  1.00  0.00     0.064 A 
ATOM     60  C   UNL A   1      39.399  28.459  30.642  1.00  0.00     0.173 A 
ATOM     61  C   UNL A   1      38.909  29.110  28.381  1.00  0.00     0.173 A 
ATOM     62  F   UNL A   1      40.246  28.007  31.579  1.00  0.00    -0.203 F 
ATOM     63  C   UNL A   1      38.073  28.695  30.995  1.00  0.00     0.198 A 
ATOM     64  C   UNL A   1      37.592  29.376  28.744  1.00  0.00     0.198 A 
ATOM     65  F   UNL A   1      39.280  29.314  27.107  1.00  0.00    -0.203 F 
ATOM     66  F   UNL A   1      37.664  28.461  32.249  1.00  0.00    -0.200 F 
ATOM     67  C   UNL A   1      37.173  29.161  30.048  1.00  0.00     0.200 A 
ATOM     68  F   UNL A   1      36.727  29.839  27.831  1.00  0.00    -0.200 F 
ATOM     69  F   UNL A   1      35.900  29.396  30.392  1.00  0.00    -0.200 F 
ENDBRANCH  45  59
BRANCH  46  70
ATOM     70  C   UNL A   1      49.169  26.688  26.349  1.00  0.00     0.064 A 
ATOM     71  C   UNL A   1      50.155  26.222  27.229  1.00  0.00     0.173 A 
ATOM     72  C   UNL A   1      49.532  26.890  25.009  1.00  0.00     0.173 A 
ATOM     73  F   UNL A   1      49.860  26.035  28.524  1.00  0.00    -0.203 F 
ATOM     74  C   UNL A   1      51.456  25.985  26.793  1.00  0.00     0.198 A 
ATOM     75  C   UNL A   1      50.827  26.626  24.567  1.00  0.00     0.198 A 
ATOM     76  F   UNL A   1      48.625  27.332  24.125  1.00  0.00    -0.203 F 
ATOM     77  F   UNL A   1      52.390  25.583  27.665  1.00  0.00    -0.200 F 
ATOM     78  C   UNL A   1      51.790  26.182  25.461  1.00  0.00     0.200 A 
ATOM     79  F   UNL A   1      51.144  26.805  23.278  1.00  0.00    -0.200 F 
ATOM     80  F   UNL A   1      53.042  25.951  25.041  1.00  0.00    -0.200 F 
ENDBRANCH  46  70
BRANCH  58  81
ATOM     81  C   UNL A   1      45.959  32.398  28.739  1.00  0.00     0.064 A 
ATOM     82  C   UNL A   1      46.529  32.754  29.969  1.00  0.00     0.173 A 
ATOM     83  C   UNL A   1      45.903  33.373  27.732  1.00  0.00     0.173 A 
ATOM     84  F   UNL A   1      46.593  31.862  30.968  1.00  0.00    -0.203 F 
ATOM     85  C   UNL A   1      47.014  34.042  30.185  1.00  0.00     0.198 A 
ATOM     86  C   UNL A   1      46.413  34.651  27.941  1.00  0.00     0.198 A 
ATOM     87  F   UNL A   1      45.372  33.079  26.535  1.00  0.00    -0.203 F 
ATOM     88  F   UNL A   1      47.526  34.371  31.379  1.00  0.00    -0.200 F 
ATOM     89  C   UNL A   1      46.965  34.985  29.169  1.00  0.00     0.200 A 
ATOM     90  F   UNL A   1      46.378  35.556  26.954  1.00  0.00    -0.200 F 
ATOM     91  F   UNL A   1      47.448  36.218  29.374  1.00  0.00    -0.200 F 
ENDBRANCH  58  81
ENDBRANCH  32  33
ENDBRANCH  24  27
ENDBRANCH  22  23
ENDBRANCH  21  22
ENDBRANCH   1  21
TORSDOF 14
ENDMDL
