MODEL 1
REMARK VINA RESULT:     -13.2      0.000      0.000
REMARK SMILES Cn1c(-c2ccccc2)c(C(=O)NCCCNC(=O)c2ccc(-c3c4nc(c(-c5c(F)c(F)c(F)c(F)c5F)c5ccc([nH]5)c(-c5c(F)c(F)c(F)c(F)c5F)c5nc(c(-c6c(F)c(F)c(F)c(F)c6F)c6ccc3[nH]6)C=C5)C=C4)cc2)c2ccccc21
REMARK SMILES IDX 15 1 14 2 13 3 11 4 12 5 10 7 1 8 2 9 3 10 88 11 83 12 87 13
REMARK SMILES IDX 84 14 86 15 85 16 4 17 5 18 9 19 6 20 8 21 7 22 16 23 17 24
REMARK SMILES IDX 18 25 19 27 20 28 21 29 82 30 22 31 81 32 23 33 24 34 25 35
REMARK SMILES IDX 75 36 26 37 80 38 74 39 76 40 27 41 79 42 73 43 72 44 28 46
REMARK SMILES IDX 60 47 40 48 59 49 41 50 44 51 58 52 77 53 42 54 43 55 57 57
REMARK SMILES IDX 78 58 45 59 29 60 30 61 38 62 31 63 32 64 36 65 39 66 33 67
REMARK SMILES IDX 34 68 37 69 35 70 61 71 62 72 70 73 63 74 64 75 68 76 71 77
REMARK SMILES IDX 65 78 66 79 69 80 67 81 46 82 47 83 55 84 48 85 49 86 53 87
REMARK SMILES IDX 56 88 50 89 51 90 54 91 52 92
REMARK H PARENT 13 6 17 26 76 45 44 56
REMARK Flexibility Score: inf
ROOT
ATOM      1  C   UNL A   1      32.460  30.014  25.472  1.00  0.00     0.042 C 
ENDROOT
BRANCH   1   2
ATOM      2  C   UNL A   1      33.728  29.223  25.257  1.00  0.00     0.118 C 
BRANCH   2   3
ATOM      3  N   UNL A   1      34.110  28.904  23.916  1.00  0.00    -0.352 N 
ATOM      4  C   UNL A   1      33.570  27.965  23.065  1.00  0.00     0.254 C 
ATOM      5  O   UNL A   1      34.029  28.008  21.918  1.00  0.00    -0.269 OA
ATOM      6  H   UNL A   1      34.862  29.426  23.553  1.00  0.00     0.163 HD
BRANCH   4   7
ATOM      7  C   UNL A   1      32.580  26.924  23.449  1.00  0.00     0.073 A 
ATOM      8  C   UNL A   1      31.028  23.790  24.566  1.00  0.00     0.150 C 
ATOM      9  N   UNL A   1      31.401  25.115  24.105  1.00  0.00    -0.343 N 
ATOM     10  C   UNL A   1      32.689  25.593  23.908  1.00  0.00     0.062 A 
ATOM     11  C   UNL A   1      30.459  26.075  23.814  1.00  0.00     0.049 A 
ATOM     12  C   UNL A   1      31.152  27.212  23.415  1.00  0.00     0.013 A 
ATOM     13  C   UNL A   1      29.054  26.027  23.875  1.00  0.00     0.027 A 
ATOM     14  C   UNL A   1      30.389  28.353  23.057  1.00  0.00     0.011 A 
ATOM     15  C   UNL A   1      28.333  27.169  23.524  1.00  0.00     0.002 A 
ATOM     16  C   UNL A   1      28.991  28.321  23.119  1.00  0.00     0.001 A 
BRANCH  10  17
ATOM     17  C   UNL A   1      33.844  24.716  24.158  1.00  0.00    -0.001 A 
ATOM     18  C   UNL A   1      34.563  24.779  25.355  1.00  0.00     0.010 A 
ATOM     19  C   UNL A   1      34.303  23.870  23.127  1.00  0.00     0.010 A 
ATOM     20  C   UNL A   1      35.768  24.078  25.483  1.00  0.00     0.001 A 
ATOM     21  C   UNL A   1      35.507  23.177  23.256  1.00  0.00     0.001 A 
ATOM     22  C   UNL A   1      36.249  23.298  24.428  1.00  0.00     0.000 A 
ENDBRANCH  10  17
ENDBRANCH   4   7
ENDBRANCH   2   3
ENDBRANCH   1   2
BRANCH   1  23
ATOM     23  C   UNL A   1      32.260  30.549  26.874  1.00  0.00     0.118 C 
BRANCH  23  24
ATOM     24  N   UNL A   1      32.497  31.984  27.013  1.00  0.00    -0.352 N 
ATOM     25  C   UNL A   1      33.521  32.725  27.563  1.00  0.00     0.251 C 
ATOM     26  H   UNL A   1      31.776  32.536  26.633  1.00  0.00     0.163 HD
ATOM     27  O   UNL A   1      33.400  33.941  27.635  1.00  0.00    -0.269 OA
BRANCH  25  28
ATOM     28  C   UNL A   1      34.741  32.086  28.116  1.00  0.00     0.039 A 
ATOM     29  C   UNL A   1      35.903  32.854  28.271  1.00  0.00     0.014 A 
ATOM     30  C   UNL A   1      34.775  30.742  28.470  1.00  0.00     0.014 A 
ATOM     31  C   UNL A   1      37.039  32.298  28.871  1.00  0.00     0.010 A 
ATOM     32  C   UNL A   1      35.836  30.239  29.211  1.00  0.00     0.010 A 
ATOM     33  C   UNL A   1      36.994  31.002  29.404  1.00  0.00    -0.014 A 
BRANCH  33  34
ATOM     34  C   UNL A   1      38.142  30.402  30.136  1.00  0.00     0.031 A 
ATOM     35  C   UNL A   1      38.415  30.795  31.566  1.00  0.00     0.074 A 
ATOM     36  C   UNL A   1      38.989  29.576  29.491  1.00  0.00     0.049 A 
ATOM     37  N   UNL A   1      39.420  30.470  32.340  1.00  0.00    -0.248 NA
ATOM     38  C   UNL A   1      37.453  31.713  32.199  1.00  0.00     0.031 C 
ATOM     39  C   UNL A   1      38.881  29.174  28.087  1.00  0.00     0.029 A 
ATOM     40  N   UNL A   1      40.119  28.931  29.930  1.00  0.00    -0.354 N 
ATOM     41  C   UNL A   1      39.223  31.166  33.526  1.00  0.00     0.074 A 
ATOM     42  C   UNL A   1      38.050  31.990  33.347  1.00  0.00     0.031 C 
ATOM     43  C   UNL A   1      39.873  28.320  27.793  1.00  0.00     0.029 A 
ATOM     44  C   UNL A   1      40.717  28.150  28.971  1.00  0.00     0.049 A 
ATOM     45  H   UNL A   1      40.468  29.019  30.846  1.00  0.00     0.167 HD
ATOM     46  C   UNL A   1      39.934  31.097  34.678  1.00  0.00     0.037 A 
ATOM     47  C   UNL A   1      41.823  27.385  29.033  1.00  0.00     0.037 A 
ATOM     48  C   UNL A   1      41.073  30.240  34.868  1.00  0.00     0.049 A 
ATOM     49  C   UNL A   1      42.584  27.310  30.330  1.00  0.00     0.074 A 
ATOM     50  C   UNL A   1      41.821  30.040  36.014  1.00  0.00     0.029 A 
ATOM     51  N   UNL A   1      41.625  29.436  33.882  1.00  0.00    -0.354 N 
ATOM     52  N   UNL A   1      42.344  27.915  31.468  1.00  0.00    -0.248 NA
ATOM     53  C   UNL A   1      43.764  26.436  30.353  1.00  0.00     0.031 C 
ATOM     54  C   UNL A   1      42.856  29.151  35.709  1.00  0.00     0.029 A 
ATOM     55  C   UNL A   1      42.719  28.752  34.389  1.00  0.00     0.049 A 
ATOM     56  H   UNL A   1      41.291  29.363  32.959  1.00  0.00     0.167 HD
ATOM     57  C   UNL A   1      43.322  27.473  32.348  1.00  0.00     0.074 A 
ATOM     58  C   UNL A   1      44.147  26.534  31.618  1.00  0.00     0.031 C 
ATOM     59  C   UNL A   1      43.522  27.815  33.647  1.00  0.00     0.037 A 
BRANCH  46  60
ATOM     60  C   UNL A   1      39.484  31.959  35.825  1.00  0.00     0.064 A 
ATOM     61  C   UNL A   1      40.047  33.223  36.064  1.00  0.00     0.173 A 
ATOM     62  C   UNL A   1      38.462  31.527  36.684  1.00  0.00     0.173 A 
ATOM     63  F   UNL A   1      41.037  33.680  35.282  1.00  0.00    -0.203 F 
ATOM     64  C   UNL A   1      39.630  34.004  37.139  1.00  0.00     0.198 A 
ATOM     65  C   UNL A   1      38.022  32.328  37.736  1.00  0.00     0.198 A 
ATOM     66  F   UNL A   1      37.884  30.331  36.501  1.00  0.00    -0.203 F 
ATOM     67  F   UNL A   1      40.227  35.180  37.381  1.00  0.00    -0.200 F 
ATOM     68  C   UNL A   1      38.613  33.560  37.969  1.00  0.00     0.200 A 
ATOM     69  F   UNL A   1      37.028  31.902  38.529  1.00  0.00    -0.200 F 
ATOM     70  F   UNL A   1      38.208  34.316  38.999  1.00  0.00    -0.200 F 
ENDBRANCH  46  60
BRANCH  47  71
ATOM     71  C   UNL A   1      42.255  26.598  27.848  1.00  0.00     0.064 A 
ATOM     72  C   UNL A   1      41.706  25.334  27.586  1.00  0.00     0.173 A 
ATOM     73  C   UNL A   1      43.222  27.085  26.956  1.00  0.00     0.173 A 
ATOM     74  F   UNL A   1      40.791  24.818  28.418  1.00  0.00    -0.203 F 
ATOM     75  C   UNL A   1      42.125  24.579  26.493  1.00  0.00     0.198 A 
ATOM     76  C   UNL A   1      43.618  26.342  25.846  1.00  0.00     0.198 A 
ATOM     77  F   UNL A   1      43.773  28.291  27.155  1.00  0.00    -0.203 F 
ATOM     78  F   UNL A   1      41.620  23.353  26.296  1.00  0.00    -0.200 F 
ATOM     79  C   UNL A   1      43.077  25.085  25.621  1.00  0.00     0.200 A 
ATOM     80  F   UNL A   1      44.525  26.842  24.996  1.00  0.00    -0.200 F 
ATOM     81  F   UNL A   1      43.477  24.360  24.567  1.00  0.00    -0.200 F 
ENDBRANCH  47  71
BRANCH  59  82
ATOM     82  C   UNL A   1      44.652  27.139  34.367  1.00  0.00     0.064 A 
ATOM     83  C   UNL A   1      45.932  27.708  34.431  1.00  0.00     0.173 A 
ATOM     84  C   UNL A   1      44.439  25.920  35.030  1.00  0.00     0.173 A 
ATOM     85  F   UNL A   1      46.190  28.865  33.803  1.00  0.00    -0.203 F 
ATOM     86  C   UNL A   1      46.967  27.064  35.103  1.00  0.00     0.198 A 
ATOM     87  C   UNL A   1      45.468  25.297  35.730  1.00  0.00     0.198 A 
ATOM     88  F   UNL A   1      43.231  25.339  35.007  1.00  0.00    -0.203 F 
ATOM     89  F   UNL A   1      48.198  27.596  35.103  1.00  0.00    -0.200 F 
ATOM     90  C   UNL A   1      46.733  25.864  35.758  1.00  0.00     0.200 A 
ATOM     91  F   UNL A   1      45.235  24.147  36.376  1.00  0.00    -0.200 F 
ATOM     92  F   UNL A   1      47.730  25.249  36.410  1.00  0.00    -0.200 F 
ENDBRANCH  59  82
ENDBRANCH  33  34
ENDBRANCH  25  28
ENDBRANCH  23  24
ENDBRANCH   1  23
TORSDOF 11
ENDMDL
MODEL 2
REMARK VINA RESULT:     -13.1      1.174      3.029
REMARK SMILES Cn1c(-c2ccccc2)c(C(=O)NCCCNC(=O)c2ccc(-c3c4nc(c(-c5c(F)c(F)c(F)c(F)c5F)c5ccc([nH]5)c(-c5c(F)c(F)c(F)c(F)c5F)c5nc(c(-c6c(F)c(F)c(F)c(F)c6F)c6ccc3[nH]6)C=C5)C=C4)cc2)c2ccccc21
REMARK SMILES IDX 15 1 14 2 13 3 11 4 12 5 10 7 1 8 2 9 3 10 88 11 83 12 87 13
REMARK SMILES IDX 84 14 86 15 85 16 4 17 5 18 9 19 6 20 8 21 7 22 16 23 17 24
REMARK SMILES IDX 18 25 19 27 20 28 21 29 82 30 22 31 81 32 23 33 24 34 25 35
REMARK SMILES IDX 75 36 26 37 80 38 74 39 76 40 27 41 79 42 73 43 72 44 28 46
REMARK SMILES IDX 60 47 40 48 59 49 41 50 44 51 58 52 77 53 42 54 43 55 57 57
REMARK SMILES IDX 78 58 45 59 29 60 30 61 38 62 31 63 32 64 36 65 39 66 33 67
REMARK SMILES IDX 34 68 37 69 35 70 61 71 62 72 70 73 63 74 64 75 68 76 71 77
REMARK SMILES IDX 65 78 66 79 69 80 67 81 46 82 47 83 55 84 48 85 49 86 53 87
REMARK SMILES IDX 56 88 50 89 51 90 54 91 52 92
REMARK H PARENT 13 6 17 26 76 45 44 56
REMARK Flexibility Score: inf
ROOT
ATOM      1  C   UNL A   1      31.598  29.025  26.102  1.00  0.00     0.042 C 
ENDROOT
BRANCH   1   2
ATOM      2  C   UNL A   1      31.982  27.786  26.875  1.00  0.00     0.118 C 
BRANCH   2   3
ATOM      3  N   UNL A   1      31.009  26.749  27.023  1.00  0.00    -0.352 N 
ATOM      4  C   UNL A   1      30.755  25.678  26.194  1.00  0.00     0.254 C 
ATOM      5  O   UNL A   1      29.936  24.875  26.653  1.00  0.00    -0.269 OA
ATOM      6  H   UNL A   1      30.443  26.809  27.827  1.00  0.00     0.163 HD
BRANCH   4   7
ATOM      7  C   UNL A   1      31.325  25.490  24.833  1.00  0.00     0.073 A 
ATOM      8  C   UNL A   1      32.064  25.829  21.253  1.00  0.00     0.150 C 
ATOM      9  N   UNL A   1      31.948  25.508  22.665  1.00  0.00    -0.343 N 
ATOM     10  C   UNL A   1      31.117  26.126  23.589  1.00  0.00     0.062 A 
ATOM     11  C   UNL A   1      32.699  24.515  23.248  1.00  0.00     0.049 A 
ATOM     12  C   UNL A   1      32.349  24.482  24.594  1.00  0.00     0.013 A 
ATOM     13  C   UNL A   1      33.659  23.648  22.694  1.00  0.00     0.027 A 
ATOM     14  C   UNL A   1      32.997  23.526  25.416  1.00  0.00     0.011 A 
ATOM     15  C   UNL A   1      34.284  22.725  23.533  1.00  0.00     0.002 A 
ATOM     16  C   UNL A   1      33.959  22.661  24.880  1.00  0.00     0.001 A 
BRANCH  10  17
ATOM     17  C   UNL A   1      30.223  27.214  23.163  1.00  0.00    -0.001 A 
ATOM     18  C   UNL A   1      30.723  28.383  22.582  1.00  0.00     0.010 A 
ATOM     19  C   UNL A   1      28.844  27.124  23.444  1.00  0.00     0.010 A 
ATOM     20  C   UNL A   1      29.873  29.475  22.371  1.00  0.00     0.001 A 
ATOM     21  C   UNL A   1      28.001  28.217  23.238  1.00  0.00     0.001 A 
ATOM     22  C   UNL A   1      28.522  29.400  22.719  1.00  0.00     0.000 A 
ENDBRANCH  10  17
ENDBRANCH   4   7
ENDBRANCH   2   3
ENDBRANCH   1   2
BRANCH   1  23
ATOM     23  C   UNL A   1      32.738  29.965  25.774  1.00  0.00     0.118 C 
BRANCH  23  24
ATOM     24  N   UNL A   1      32.603  31.302  26.346  1.00  0.00    -0.352 N 
ATOM     25  C   UNL A   1      33.347  32.022  27.257  1.00  0.00     0.251 C 
ATOM     26  H   UNL A   1      31.818  31.791  26.010  1.00  0.00     0.163 HD
ATOM     27  O   UNL A   1      32.927  33.106  27.639  1.00  0.00    -0.269 OA
BRANCH  25  28
ATOM     28  C   UNL A   1      34.614  31.496  27.823  1.00  0.00     0.039 A 
ATOM     29  C   UNL A   1      35.685  32.375  28.031  1.00  0.00     0.014 A 
ATOM     30  C   UNL A   1      34.779  30.152  28.139  1.00  0.00     0.014 A 
ATOM     31  C   UNL A   1      36.858  31.922  28.644  1.00  0.00     0.010 A 
ATOM     32  C   UNL A   1      35.870  29.739  28.894  1.00  0.00     0.010 A 
ATOM     33  C   UNL A   1      36.936  30.612  29.139  1.00  0.00    -0.014 A 
BRANCH  33  34
ATOM     34  C   UNL A   1      38.123  30.112  29.884  1.00  0.00     0.031 A 
ATOM     35  C   UNL A   1      38.371  30.562  31.301  1.00  0.00     0.074 A 
ATOM     36  C   UNL A   1      39.024  29.327  29.260  1.00  0.00     0.049 A 
ATOM     37  N   UNL A   1      39.397  30.328  32.081  1.00  0.00    -0.248 NA
ATOM     38  C   UNL A   1      37.350  31.431  31.911  1.00  0.00     0.031 C 
ATOM     39  C   UNL A   1      38.941  28.879  27.868  1.00  0.00     0.029 A 
ATOM     40  N   UNL A   1      40.195  28.772  29.713  1.00  0.00    -0.354 N 
ATOM     41  C   UNL A   1      39.155  31.042  33.248  1.00  0.00     0.074 A 
ATOM     42  C   UNL A   1      37.929  31.780  33.049  1.00  0.00     0.031 C 
ATOM     43  C   UNL A   1      39.988  28.086  27.595  1.00  0.00     0.029 A 
ATOM     44  C   UNL A   1      40.843  28.007  28.774  1.00  0.00     0.049 A 
ATOM     45  H   UNL A   1      40.539  28.910  30.625  1.00  0.00     0.167 HD
ATOM     46  C   UNL A   1      39.870  31.055  34.399  1.00  0.00     0.037 A 
ATOM     47  C   UNL A   1      41.999  27.321  28.855  1.00  0.00     0.037 A 
ATOM     48  C   UNL A   1      41.066  30.283  34.609  1.00  0.00     0.049 A 
ATOM     49  C   UNL A   1      42.764  27.333  30.150  1.00  0.00     0.074 A 
ATOM     50  C   UNL A   1      41.827  30.166  35.758  1.00  0.00     0.029 A 
ATOM     51  N   UNL A   1      41.670  29.490  33.644  1.00  0.00    -0.354 N 
ATOM     52  N   UNL A   1      42.486  27.953  31.272  1.00  0.00    -0.248 NA
ATOM     53  C   UNL A   1      44.002  26.542  30.194  1.00  0.00     0.031 C 
ATOM     54  C   UNL A   1      42.919  29.341  35.475  1.00  0.00     0.029 A 
ATOM     55  C   UNL A   1      42.807  28.896  34.167  1.00  0.00     0.049 A 
ATOM     56  H   UNL A   1      41.340  29.368  32.725  1.00  0.00     0.167 HD
ATOM     57  C   UNL A   1      43.493  27.604  32.161  1.00  0.00     0.074 A 
ATOM     58  C   UNL A   1      44.378  26.702  31.454  1.00  0.00     0.031 C 
ATOM     59  C   UNL A   1      43.671  27.995  33.448  1.00  0.00     0.037 A 
BRANCH  46  60
ATOM     60  C   UNL A   1      39.365  31.916  35.522  1.00  0.00     0.064 A 
ATOM     61  C   UNL A   1      38.496  31.414  36.506  1.00  0.00     0.173 A 
ATOM     62  C   UNL A   1      39.770  33.255  35.632  1.00  0.00     0.173 A 
ATOM     63  F   UNL A   1      38.066  30.146  36.442  1.00  0.00    -0.203 F 
ATOM     64  C   UNL A   1      38.026  32.229  37.532  1.00  0.00     0.198 A 
ATOM     65  C   UNL A   1      39.327  34.056  36.683  1.00  0.00     0.198 A 
ATOM     66  F   UNL A   1      40.603  33.787  34.726  1.00  0.00    -0.203 F 
ATOM     67  F   UNL A   1      37.150  31.741  38.423  1.00  0.00    -0.200 F 
ATOM     68  C   UNL A   1      38.447  33.546  37.625  1.00  0.00     0.200 A 
ATOM     69  F   UNL A   1      39.747  35.326  36.779  1.00  0.00    -0.200 F 
ATOM     70  F   UNL A   1      37.998  34.326  38.618  1.00  0.00    -0.200 F 
ENDBRANCH  46  60
BRANCH  47  71
ATOM     71  C   UNL A   1      42.481  26.531  27.691  1.00  0.00     0.064 A 
ATOM     72  C   UNL A   1      42.013  25.229  27.461  1.00  0.00     0.173 A 
ATOM     73  C   UNL A   1      43.418  27.054  26.787  1.00  0.00     0.173 A 
ATOM     74  F   UNL A   1      41.129  24.679  28.306  1.00  0.00    -0.203 F 
ATOM     75  C   UNL A   1      42.480  24.473  26.388  1.00  0.00     0.198 A 
ATOM     76  C   UNL A   1      43.862  26.308  25.697  1.00  0.00     0.198 A 
ATOM     77  F   UNL A   1      43.893  28.297  26.955  1.00  0.00    -0.203 F 
ATOM     78  F   UNL A   1      42.052  23.214  26.223  1.00  0.00    -0.200 F 
ATOM     79  C   UNL A   1      43.400  25.014  25.505  1.00  0.00     0.200 A 
ATOM     80  F   UNL A   1      44.738  26.841  24.834  1.00  0.00    -0.200 F 
ATOM     81  F   UNL A   1      43.847  24.288  24.470  1.00  0.00    -0.200 F 
ENDBRANCH  47  71
BRANCH  59  82
ATOM     82  C   UNL A   1      44.845  27.417  34.184  1.00  0.00     0.064 A 
ATOM     83  C   UNL A   1      46.085  28.071  34.225  1.00  0.00     0.173 A 
ATOM     84  C   UNL A   1      44.716  26.208  34.884  1.00  0.00     0.173 A 
ATOM     85  F   UNL A   1      46.264  29.223  33.561  1.00  0.00    -0.203 F 
ATOM     86  C   UNL A   1      47.162  27.518  34.912  1.00  0.00     0.198 A 
ATOM     87  C   UNL A   1      45.784  25.676  35.599  1.00  0.00     0.198 A 
ATOM     88  F   UNL A   1      43.548  25.548  34.885  1.00  0.00    -0.203 F 
ATOM     89  F   UNL A   1      48.354  28.131  34.890  1.00  0.00    -0.200 F 
ATOM     90  C   UNL A   1      47.009  26.325  35.603  1.00  0.00     0.200 A 
ATOM     91  F   UNL A   1      45.630  24.533  36.280  1.00  0.00    -0.200 F 
ATOM     92  F   UNL A   1      48.046  25.798  36.269  1.00  0.00    -0.200 F 
ENDBRANCH  59  82
ENDBRANCH  33  34
ENDBRANCH  25  28
ENDBRANCH  23  24
ENDBRANCH   1  23
TORSDOF 11
ENDMDL
MODEL 3
REMARK VINA RESULT:     -13.1      1.873      8.182
REMARK SMILES Cn1c(-c2ccccc2)c(C(=O)NCCCNC(=O)c2ccc(-c3c4nc(c(-c5c(F)c(F)c(F)c(F)c5F)c5ccc([nH]5)c(-c5c(F)c(F)c(F)c(F)c5F)c5nc(c(-c6c(F)c(F)c(F)c(F)c6F)c6ccc3[nH]6)C=C5)C=C4)cc2)c2ccccc21
REMARK SMILES IDX 15 1 14 2 13 3 11 4 12 5 10 7 1 8 2 9 3 10 88 11 83 12 87 13
REMARK SMILES IDX 84 14 86 15 85 16 4 17 5 18 9 19 6 20 8 21 7 22 16 23 17 24
REMARK SMILES IDX 18 25 19 27 20 28 21 29 82 30 22 31 81 32 23 33 24 34 25 35
REMARK SMILES IDX 75 36 26 37 80 38 74 39 76 40 27 41 79 42 73 43 72 44 28 46
REMARK SMILES IDX 60 47 40 48 59 49 41 50 44 51 58 52 77 53 42 54 43 55 57 57
REMARK SMILES IDX 78 58 45 59 29 60 30 61 38 62 31 63 32 64 36 65 39 66 33 67
REMARK SMILES IDX 34 68 37 69 35 70 61 71 62 72 70 73 63 74 64 75 68 76 71 77
REMARK SMILES IDX 65 78 66 79 69 80 67 81 46 82 47 83 55 84 48 85 49 86 53 87
REMARK SMILES IDX 56 88 50 89 51 90 54 91 52 92
REMARK H PARENT 13 6 17 26 76 45 44 56
REMARK Flexibility Score: inf
ROOT
ATOM      1  C   UNL A   1      31.628  31.802  26.449  1.00  0.00     0.042 C 
ENDROOT
BRANCH   1   2
ATOM      2  C   UNL A   1      31.865  30.388  25.977  1.00  0.00     0.118 C 
BRANCH   2   3
ATOM      3  N   UNL A   1      31.481  29.311  26.837  1.00  0.00    -0.352 N 
ATOM      4  C   UNL A   1      31.487  27.958  26.581  1.00  0.00     0.254 C 
ATOM      5  O   UNL A   1      31.220  27.262  27.567  1.00  0.00    -0.269 OA
ATOM      6  H   UNL A   1      31.168  29.574  27.732  1.00  0.00     0.163 HD
BRANCH   4   7
ATOM      7  C   UNL A   1      31.713  27.335  25.248  1.00  0.00     0.073 A 
ATOM      8  C   UNL A   1      31.432  26.410  21.707  1.00  0.00     0.150 C 
ATOM      9  N   UNL A   1      31.744  26.615  23.111  1.00  0.00    -0.343 N 
ATOM     10  C   UNL A   1      31.080  27.457  23.992  1.00  0.00     0.062 A 
ATOM     11  C   UNL A   1      32.788  25.965  23.726  1.00  0.00     0.049 A 
ATOM     12  C   UNL A   1      32.807  26.394  25.048  1.00  0.00     0.013 A 
ATOM     13  C   UNL A   1      33.715  25.037  23.217  1.00  0.00     0.027 A 
ATOM     14  C   UNL A   1      33.808  25.857  25.897  1.00  0.00     0.011 A 
ATOM     15  C   UNL A   1      34.692  24.533  24.077  1.00  0.00     0.002 A 
ATOM     16  C   UNL A   1      34.741  24.937  25.403  1.00  0.00     0.001 A 
BRANCH  10  17
ATOM     17  C   UNL A   1      29.924  28.241  23.531  1.00  0.00    -0.001 A 
ATOM     18  C   UNL A   1      30.043  29.596  23.209  1.00  0.00     0.010 A 
ATOM     19  C   UNL A   1      28.647  27.642  23.514  1.00  0.00     0.010 A 
ATOM     20  C   UNL A   1      28.894  30.359  22.966  1.00  0.00     0.001 A 
ATOM     21  C   UNL A   1      27.503  28.407  23.277  1.00  0.00     0.001 A 
ATOM     22  C   UNL A   1      27.628  29.770  23.022  1.00  0.00     0.000 A 
ENDBRANCH  10  17
ENDBRANCH   4   7
ENDBRANCH   2   3
ENDBRANCH   1   2
BRANCH   1  23
ATOM     23  C   UNL A   1      32.776  32.435  27.205  1.00  0.00     0.118 C 
BRANCH  23  24
ATOM     24  N   UNL A   1      32.539  33.816  27.617  1.00  0.00    -0.352 N 
ATOM     25  C   UNL A   1      33.114  34.631  28.569  1.00  0.00     0.251 C 
ATOM     26  H   UNL A   1      31.820  34.256  27.110  1.00  0.00     0.163 HD
ATOM     27  O   UNL A   1      32.631  35.737  28.772  1.00  0.00    -0.269 OA
BRANCH  25  28
ATOM     28  C   UNL A   1      34.270  34.186  29.387  1.00  0.00     0.039 A 
ATOM     29  C   UNL A   1      34.033  33.498  30.585  1.00  0.00     0.014 A 
ATOM     30  C   UNL A   1      35.583  34.444  29.011  1.00  0.00     0.014 A 
ATOM     31  C   UNL A   1      35.105  32.992  31.328  1.00  0.00     0.010 A 
ATOM     32  C   UNL A   1      36.635  33.804  29.654  1.00  0.00     0.010 A 
ATOM     33  C   UNL A   1      36.415  33.086  30.835  1.00  0.00    -0.014 A 
BRANCH  33  34
ATOM     34  C   UNL A   1      37.576  32.479  31.540  1.00  0.00     0.031 A 
ATOM     35  C   UNL A   1      38.327  31.332  30.911  1.00  0.00     0.074 A 
ATOM     36  C   UNL A   1      37.900  32.897  32.780  1.00  0.00     0.049 A 
ATOM     37  N   UNL A   1      39.293  30.600  31.407  1.00  0.00    -0.248 NA
ATOM     38  C   UNL A   1      37.905  30.922  29.561  1.00  0.00     0.031 C 
ATOM     39  C   UNL A   1      37.208  33.947  33.530  1.00  0.00     0.029 A 
ATOM     40  N   UNL A   1      38.891  32.481  33.634  1.00  0.00    -0.354 N 
ATOM     41  C   UNL A   1      39.565  29.634  30.446  1.00  0.00     0.074 A 
ATOM     42  C   UNL A   1      38.615  29.821  29.374  1.00  0.00     0.031 C 
ATOM     43  C   UNL A   1      37.820  34.123  34.711  1.00  0.00     0.029 A 
ATOM     44  C   UNL A   1      38.917  33.167  34.825  1.00  0.00     0.049 A 
ATOM     45  H   UNL A   1      39.523  31.760  33.415  1.00  0.00     0.167 HD
ATOM     46  C   UNL A   1      40.544  28.698  30.437  1.00  0.00     0.037 A 
ATOM     47  C   UNL A   1      39.732  33.038  35.888  1.00  0.00     0.037 A 
ATOM     48  C   UNL A   1      41.517  28.545  31.486  1.00  0.00     0.049 A 
ATOM     49  C   UNL A   1      40.825  32.004  35.847  1.00  0.00     0.074 A 
ATOM     50  C   UNL A   1      42.593  27.678  31.545  1.00  0.00     0.029 A 
ATOM     51  N   UNL A   1      41.532  29.285  32.659  1.00  0.00    -0.354 N 
ATOM     52  N   UNL A   1      41.119  31.147  34.900  1.00  0.00    -0.248 NA
ATOM     53  C   UNL A   1      41.706  31.927  37.020  1.00  0.00     0.031 C 
ATOM     54  C   UNL A   1      43.232  27.860  32.776  1.00  0.00     0.029 A 
ATOM     55  C   UNL A   1      42.589  28.880  33.458  1.00  0.00     0.049 A 
ATOM     56  H   UNL A   1      40.888  29.993  32.889  1.00  0.00     0.167 HD
ATOM     57  C   UNL A   1      42.234  30.451  35.348  1.00  0.00     0.074 A 
ATOM     58  C   UNL A   1      42.574  31.000  36.644  1.00  0.00     0.031 C 
ATOM     59  C   UNL A   1      42.915  29.446  34.742  1.00  0.00     0.037 A 
BRANCH  46  60
ATOM     60  C   UNL A   1      40.620  27.780  29.249  1.00  0.00     0.064 A 
ATOM     61  C   UNL A   1      39.765  26.674  29.114  1.00  0.00     0.173 A 
ATOM     62  C   UNL A   1      41.542  28.021  28.219  1.00  0.00     0.173 A 
ATOM     63  F   UNL A   1      38.874  26.389  30.075  1.00  0.00    -0.203 F 
ATOM     64  C   UNL A   1      39.856  25.825  28.014  1.00  0.00     0.198 A 
ATOM     65  C   UNL A   1      41.604  27.191  27.102  1.00  0.00     0.198 A 
ATOM     66  F   UNL A   1      42.379  29.066  28.291  1.00  0.00    -0.203 F 
ATOM     67  F   UNL A   1      39.070  24.741  27.940  1.00  0.00    -0.200 F 
ATOM     68  C   UNL A   1      40.769  26.088  27.005  1.00  0.00     0.200 A 
ATOM     69  F   UNL A   1      42.479  27.455  26.121  1.00  0.00    -0.200 F 
ATOM     70  F   UNL A   1      40.851  25.274  25.944  1.00  0.00    -0.200 F 
ENDBRANCH  46  60
BRANCH  47  71
ATOM     71  C   UNL A   1      39.574  33.936  37.063  1.00  0.00     0.064 A 
ATOM     72  C   UNL A   1      38.805  33.544  38.169  1.00  0.00     0.173 A 
ATOM     73  C   UNL A   1      40.180  35.200  37.108  1.00  0.00     0.173 A 
ATOM     74  F   UNL A   1      38.191  32.351  38.167  1.00  0.00    -0.203 F 
ATOM     75  C   UNL A   1      38.630  34.390  39.262  1.00  0.00     0.198 A 
ATOM     76  C   UNL A   1      40.030  36.032  38.215  1.00  0.00     0.198 A 
ATOM     77  F   UNL A   1      40.933  35.621  36.081  1.00  0.00    -0.203 F 
ATOM     78  F   UNL A   1      37.849  34.008  40.283  1.00  0.00    -0.200 F 
ATOM     79  C   UNL A   1      39.246  35.631  39.287  1.00  0.00     0.200 A 
ATOM     80  F   UNL A   1      40.642  37.224  38.243  1.00  0.00    -0.200 F 
ATOM     81  F   UNL A   1      39.081  36.443  40.340  1.00  0.00    -0.200 F 
ENDBRANCH  47  71
BRANCH  59  82
ATOM     82  C   UNL A   1      44.119  28.905  35.458  1.00  0.00     0.064 A 
ATOM     83  C   UNL A   1      44.021  27.843  36.368  1.00  0.00     0.173 A 
ATOM     84  C   UNL A   1      45.392  29.439  35.204  1.00  0.00     0.173 A 
ATOM     85  F   UNL A   1      42.825  27.307  36.655  1.00  0.00    -0.203 F 
ATOM     86  C   UNL A   1      45.149  27.356  37.022  1.00  0.00     0.198 A 
ATOM     87  C   UNL A   1      46.522  28.927  35.834  1.00  0.00     0.198 A 
ATOM     88  F   UNL A   1      45.541  30.450  34.335  1.00  0.00    -0.203 F 
ATOM     89  F   UNL A   1      45.025  26.379  37.931  1.00  0.00    -0.200 F 
ATOM     90  C   UNL A   1      46.399  27.894  36.750  1.00  0.00     0.200 A 
ATOM     91  F   UNL A   1      47.730  29.436  35.557  1.00  0.00    -0.200 F 
ATOM     92  F   UNL A   1      47.484  27.420  37.377  1.00  0.00    -0.200 F 
ENDBRANCH  59  82
ENDBRANCH  33  34
ENDBRANCH  25  28
ENDBRANCH  23  24
ENDBRANCH   1  23
TORSDOF 11
ENDMDL
