MODEL 1
REMARK VINA RESULT:     -12.3      0.000      0.000
REMARK SMILES CCOc1ccccc1N1CCN(c2ncc(N)cc2C(=O)NCCCNC(=O)c2ccc(-c3c4nc(c(-c5c(F)c(F)c(F)c(F)c5F)c5ccc([nH]5)c(-c5c(F)c(F)c(F)c(F)c5F)c5nc(c(-c6c(F)c(F)c(F)c(F)c6F)c6ccc3[nH]6)C=C5)C=C4)cc2)CC1
REMARK SMILES IDX 24 1 23 2 21 3 22 4 20 6 14 7 15 8 16 9 19 10 17 11 13 12
REMARK SMILES IDX 10 13 11 14 94 15 12 16 93 17 9 18 4 19 5 20 6 21 8 22 7 23
REMARK SMILES IDX 3 24 2 25 1 26 18 27 25 30 26 31 27 32 28 33 29 35 30 36
REMARK SMILES IDX 31 37 92 38 32 39 91 40 33 41 34 42 35 43 85 44 36 45 90 46
REMARK SMILES IDX 84 47 86 48 37 49 89 50 83 51 82 52 38 54 70 55 50 56 69 57
REMARK SMILES IDX 51 58 54 59 68 60 87 61 52 62 53 63 67 65 88 66 55 67 39 68
REMARK SMILES IDX 40 69 48 70 41 71 42 72 46 73 49 74 43 75 44 76 47 77 45 78
REMARK SMILES IDX 71 79 72 80 80 81 73 82 74 83 78 84 81 85 75 86 76 87 79 88
REMARK SMILES IDX 77 89 56 90 57 91 65 92 58 93 59 94 63 95 66 96 60 97 61 98
REMARK SMILES IDX 64 99 62 100
REMARK H PARENT 23 5 18 28 18 29 27 34 86 53 54 64
REMARK Flexibility Score: inf
ROOT
ATOM      1  C   UNL A   1      31.819  30.590  26.752  1.00  0.00     0.118 C 
ENDROOT
BRANCH   1   2
ATOM      2  N   UNL A   1      32.465  30.305  25.491  1.00  0.00    -0.352 N 
ATOM      3  C   UNL A   1      32.198  29.520  24.404  1.00  0.00     0.255 C 
ATOM      4  O   UNL A   1      33.209  29.312  23.730  1.00  0.00    -0.269 OA
ATOM      5  H   UNL A   1      33.309  30.801  25.389  1.00  0.00     0.163 HD
BRANCH   3   6
ATOM      6  C   UNL A   1      30.835  29.012  24.016  1.00  0.00     0.084 A 
ATOM      7  C   UNL A   1      30.642  27.628  23.813  1.00  0.00     0.141 A 
ATOM      8  N   UNL A   1      29.499  27.136  23.268  1.00  0.00    -0.236 NA
ATOM      9  C   UNL A   1      28.520  28.003  22.937  1.00  0.00     0.139 A 
ATOM     10  C   UNL A   1      29.752  29.854  23.734  1.00  0.00     0.044 A 
ATOM     11  C   UNL A   1      28.596  29.373  23.122  1.00  0.00     0.051 A 
BRANCH   7  12
ATOM     12  N   UNL A   1      31.593  26.692  24.164  1.00  0.00    -0.352 N 
ATOM     13  N   UNL A   1      33.325  24.532  24.828  1.00  0.00    -0.365 N 
ATOM     14  C   UNL A   1      33.582  25.357  23.635  1.00  0.00     0.138 C 
ATOM     15  C   UNL A   1      32.606  25.228  25.915  1.00  0.00     0.138 C 
ATOM     16  C   UNL A   1      32.263  25.953  23.096  1.00  0.00     0.139 C 
ATOM     17  C   UNL A   1      31.321  25.908  25.386  1.00  0.00     0.139 C 
BRANCH  13  18
ATOM     18  C   UNL A   1      34.221  23.535  25.191  1.00  0.00     0.079 A 
ATOM     19  C   UNL A   1      33.813  22.193  25.331  1.00  0.00     0.142 A 
ATOM     20  C   UNL A   1      34.720  21.180  25.661  1.00  0.00     0.048 A 
ATOM     21  C   UNL A   1      36.066  21.488  25.848  1.00  0.00     0.004 A 
ATOM     22  C   UNL A   1      35.580  23.815  25.406  1.00  0.00     0.030 A 
ATOM     23  C   UNL A   1      36.494  22.807  25.731  1.00  0.00     0.002 A 
BRANCH  19  24
ATOM     24  O   UNL A   1      32.488  21.848  25.194  1.00  0.00    -0.492 OA
BRANCH  24  25
ATOM     25  C   UNL A   1      32.293  20.893  24.144  1.00  0.00     0.226 C 
ATOM     26  C   UNL A   1      32.291  21.591  22.797  1.00  0.00     0.049 C 
ENDBRANCH  24  25
ENDBRANCH  19  24
ENDBRANCH  13  18
ENDBRANCH   7  12
BRANCH  11  27
ATOM     27  N   UNL A   1      27.536  30.221  22.834  1.00  0.00    -0.397 N 
ATOM     28  H   UNL A   1      27.082  30.705  23.560  1.00  0.00     0.156 HD
ATOM     29  H   UNL A   1      27.239  30.337  21.903  1.00  0.00     0.156 HD
ENDBRANCH  11  27
ENDBRANCH   3   6
ENDBRANCH   1   2
BRANCH   1  30
ATOM     30  C   UNL A   1      31.607  32.095  26.907  1.00  0.00     0.042 C 
BRANCH  30  31
ATOM     31  C   UNL A   1      32.920  32.862  27.099  1.00  0.00     0.118 C 
BRANCH  31  32
ATOM     32  N   UNL A   1      32.692  34.210  27.607  1.00  0.00    -0.352 N 
ATOM     33  C   UNL A   1      33.124  34.795  28.768  1.00  0.00     0.251 C 
ATOM     34  H   UNL A   1      32.144  34.788  27.027  1.00  0.00     0.163 HD
ATOM     35  O   UNL A   1      32.563  35.793  29.204  1.00  0.00    -0.269 OA
BRANCH  33  36
ATOM     36  C   UNL A   1      34.276  34.220  29.486  1.00  0.00     0.039 A 
ATOM     37  C   UNL A   1      34.054  33.410  30.601  1.00  0.00     0.014 A 
ATOM     38  C   UNL A   1      35.578  34.525  29.078  1.00  0.00     0.014 A 
ATOM     39  C   UNL A   1      35.143  32.862  31.280  1.00  0.00     0.010 A 
ATOM     40  C   UNL A   1      36.656  33.917  29.705  1.00  0.00     0.010 A 
ATOM     41  C   UNL A   1      36.450  33.090  30.818  1.00  0.00    -0.014 A 
BRANCH  41  42
ATOM     42  C   UNL A   1      37.626  32.492  31.494  1.00  0.00     0.031 A 
ATOM     43  C   UNL A   1      38.341  31.332  30.860  1.00  0.00     0.074 A 
ATOM     44  C   UNL A   1      37.989  32.937  32.711  1.00  0.00     0.049 A 
ATOM     45  N   UNL A   1      39.313  30.596  31.337  1.00  0.00    -0.248 NA
ATOM     46  C   UNL A   1      37.878  30.922  29.524  1.00  0.00     0.031 C 
ATOM     47  C   UNL A   1      37.338  34.025  33.443  1.00  0.00     0.029 A 
ATOM     48  N   UNL A   1      38.986  32.518  33.555  1.00  0.00    -0.354 N 
ATOM     49  C   UNL A   1      39.560  29.629  30.373  1.00  0.00     0.074 A 
ATOM     50  C   UNL A   1      38.603  29.835  29.308  1.00  0.00     0.031 C 
ATOM     51  C   UNL A   1      37.962  34.198  34.619  1.00  0.00     0.029 A 
ATOM     52  C   UNL A   1      39.028  33.208  34.741  1.00  0.00     0.049 A 
ATOM     53  H   UNL A   1      39.611  31.789  33.332  1.00  0.00     0.167 HD
ATOM     54  C   UNL A   1      40.515  28.669  30.367  1.00  0.00     0.037 A 
ATOM     55  C   UNL A   1      39.832  33.051  35.809  1.00  0.00     0.037 A 
ATOM     56  C   UNL A   1      41.482  28.492  31.417  1.00  0.00     0.049 A 
ATOM     57  C   UNL A   1      40.888  31.979  35.776  1.00  0.00     0.074 A 
ATOM     58  C   UNL A   1      42.532  27.593  31.483  1.00  0.00     0.029 A 
ATOM     59  N   UNL A   1      41.516  29.233  32.590  1.00  0.00    -0.354 N 
ATOM     60  N   UNL A   1      41.157  31.111  34.831  1.00  0.00    -0.248 NA
ATOM     61  C   UNL A   1      41.755  31.869  36.957  1.00  0.00     0.031 C 
ATOM     62  C   UNL A   1      43.173  27.760  32.714  1.00  0.00     0.029 A 
ATOM     63  C   UNL A   1      42.556  28.798  33.395  1.00  0.00     0.049 A 
ATOM     64  H   UNL A   1      40.891  29.960  32.817  1.00  0.00     0.167 HD
ATOM     65  C   UNL A   1      42.241  30.375  35.287  1.00  0.00     0.074 A 
ATOM     66  C   UNL A   1      42.588  30.905  36.589  1.00  0.00     0.031 C 
ATOM     67  C   UNL A   1      42.892  29.351  34.682  1.00  0.00     0.037 A 
BRANCH  54  68
ATOM     68  C   UNL A   1      40.563  27.741  29.187  1.00  0.00     0.064 A 
ATOM     69  C   UNL A   1      41.449  27.953  28.119  1.00  0.00     0.173 A 
ATOM     70  C   UNL A   1      39.738  26.608  29.137  1.00  0.00     0.173 A 
ATOM     71  F   UNL A   1      42.253  29.028  28.111  1.00  0.00    -0.203 F 
ATOM     72  C   UNL A   1      41.483  27.085  27.032  1.00  0.00     0.198 A 
ATOM     73  C   UNL A   1      39.797  25.724  28.063  1.00  0.00     0.198 A 
ATOM     74  F   UNL A   1      38.877  26.354  30.134  1.00  0.00    -0.203 F 
ATOM     75  F   UNL A   1      42.300  27.337  26.000  1.00  0.00    -0.200 F 
ATOM     76  C   UNL A   1      40.663  25.967  27.008  1.00  0.00     0.200 A 
ATOM     77  F   UNL A   1      39.014  24.636  28.048  1.00  0.00    -0.200 F 
ATOM     78  F   UNL A   1      40.703  25.127  25.964  1.00  0.00    -0.200 F 
ENDBRANCH  54  68
BRANCH  55  79
ATOM     79  C   UNL A   1      39.687  33.947  36.985  1.00  0.00     0.064 A 
ATOM     80  C   UNL A   1      38.907  33.564  38.086  1.00  0.00     0.173 A 
ATOM     81  C   UNL A   1      40.320  35.197  37.037  1.00  0.00     0.173 A 
ATOM     82  F   UNL A   1      38.267  32.385  38.076  1.00  0.00    -0.203 F 
ATOM     83  C   UNL A   1      38.750  34.407  39.185  1.00  0.00     0.198 A 
ATOM     84  C   UNL A   1      40.185  36.026  38.149  1.00  0.00     0.198 A 
ATOM     85  F   UNL A   1      41.084  35.606  36.015  1.00  0.00    -0.203 F 
ATOM     86  F   UNL A   1      37.962  34.035  40.204  1.00  0.00    -0.200 F 
ATOM     87  C   UNL A   1      39.392  35.635  39.218  1.00  0.00     0.200 A 
ATOM     88  F   UNL A   1      40.822  37.204  38.185  1.00  0.00    -0.200 F 
ATOM     89  F   UNL A   1      39.246  36.442  40.277  1.00  0.00    -0.200 F 
ENDBRANCH  55  79
BRANCH  67  90
ATOM     90  C   UNL A   1      44.071  28.765  35.402  1.00  0.00     0.064 A 
ATOM     91  C   UNL A   1      45.372  29.246  35.200  1.00  0.00     0.173 A 
ATOM     92  C   UNL A   1      43.887  27.741  36.343  1.00  0.00     0.173 A 
ATOM     93  F   UNL A   1      45.603  30.213  34.299  1.00  0.00    -0.203 F 
ATOM     94  C   UNL A   1      46.450  28.706  35.897  1.00  0.00     0.198 A 
ATOM     95  C   UNL A   1      44.961  27.225  37.062  1.00  0.00     0.198 A 
ATOM     96  F   UNL A   1      42.659  27.251  36.579  1.00  0.00    -0.203 F 
ATOM     97  F   UNL A   1      47.691  29.149  35.655  1.00  0.00    -0.200 F 
ATOM     98  C   UNL A   1      46.242  27.703  36.833  1.00  0.00     0.200 A 
ATOM     99  F   UNL A   1      44.756  26.266  37.975  1.00  0.00    -0.200 F 
ATOM    100  F   UNL A   1      47.280  27.192  37.510  1.00  0.00    -0.200 F 
ENDBRANCH  67  90
ENDBRANCH  41  42
ENDBRANCH  33  36
ENDBRANCH  31  32
ENDBRANCH  30  31
ENDBRANCH   1  30
TORSDOF 15
ENDMDL
MODEL 2
REMARK VINA RESULT:     -12.3      3.597      8.530
REMARK SMILES CCOc1ccccc1N1CCN(c2ncc(N)cc2C(=O)NCCCNC(=O)c2ccc(-c3c4nc(c(-c5c(F)c(F)c(F)c(F)c5F)c5ccc([nH]5)c(-c5c(F)c(F)c(F)c(F)c5F)c5nc(c(-c6c(F)c(F)c(F)c(F)c6F)c6ccc3[nH]6)C=C5)C=C4)cc2)CC1
REMARK SMILES IDX 24 1 23 2 21 3 22 4 20 6 14 7 15 8 16 9 19 10 17 11 13 12
REMARK SMILES IDX 10 13 11 14 94 15 12 16 93 17 9 18 4 19 5 20 6 21 8 22 7 23
REMARK SMILES IDX 3 24 2 25 1 26 18 27 25 30 26 31 27 32 28 33 29 35 30 36
REMARK SMILES IDX 31 37 92 38 32 39 91 40 33 41 34 42 35 43 85 44 36 45 90 46
REMARK SMILES IDX 84 47 86 48 37 49 89 50 83 51 82 52 38 54 70 55 50 56 69 57
REMARK SMILES IDX 51 58 54 59 68 60 87 61 52 62 53 63 67 65 88 66 55 67 39 68
REMARK SMILES IDX 40 69 48 70 41 71 42 72 46 73 49 74 43 75 44 76 47 77 45 78
REMARK SMILES IDX 71 79 72 80 80 81 73 82 74 83 78 84 81 85 75 86 76 87 79 88
REMARK SMILES IDX 77 89 56 90 57 91 65 92 58 93 59 94 63 95 66 96 60 97 61 98
REMARK SMILES IDX 64 99 62 100
REMARK H PARENT 23 5 18 28 18 29 27 34 86 53 54 64
REMARK Flexibility Score: inf
ROOT
ATOM      1  C   UNL A   1      33.292  29.580  25.019  1.00  0.00     0.118 C 
ENDROOT
BRANCH   1   2
ATOM      2  N   UNL A   1      33.192  29.170  23.636  1.00  0.00    -0.352 N 
ATOM      3  C   UNL A   1      32.492  28.228  22.937  1.00  0.00     0.255 C 
ATOM      4  O   UNL A   1      33.001  28.000  21.838  1.00  0.00    -0.269 OA
ATOM      5  H   UNL A   1      33.776  29.706  23.050  1.00  0.00     0.163 HD
BRANCH   3   6
ATOM      6  C   UNL A   1      31.215  27.578  23.399  1.00  0.00     0.084 A 
ATOM      7  C   UNL A   1      31.249  26.257  23.897  1.00  0.00     0.141 A 
ATOM      8  N   UNL A   1      30.113  25.551  24.134  1.00  0.00    -0.236 NA
ATOM      9  C   UNL A   1      28.925  26.149  23.908  1.00  0.00     0.139 A 
ATOM     10  C   UNL A   1      29.955  28.175  23.266  1.00  0.00     0.044 A 
ATOM     11  C   UNL A   1      28.781  27.448  23.451  1.00  0.00     0.051 A 
BRANCH   7  12
ATOM     12  N   UNL A   1      32.432  25.606  24.181  1.00  0.00    -0.352 N 
ATOM     13  N   UNL A   1      34.690  23.998  24.831  1.00  0.00    -0.365 N 
ATOM     14  C   UNL A   1      34.480  24.468  23.452  1.00  0.00     0.138 C 
ATOM     15  C   UNL A   1      34.113  24.871  25.874  1.00  0.00     0.138 C 
ATOM     16  C   UNL A   1      32.976  24.691  23.179  1.00  0.00     0.139 C 
ATOM     17  C   UNL A   1      32.626  25.181  25.582  1.00  0.00     0.139 C 
BRANCH  13  18
ATOM     18  C   UNL A   1      35.837  23.286  25.157  1.00  0.00     0.079 A 
ATOM     19  C   UNL A   1      35.953  21.908  24.878  1.00  0.00     0.142 A 
ATOM     20  C   UNL A   1      37.120  21.196  25.172  1.00  0.00     0.048 A 
ATOM     21  C   UNL A   1      38.208  21.851  25.744  1.00  0.00     0.004 A 
ATOM     22  C   UNL A   1      36.943  23.912  25.752  1.00  0.00     0.030 A 
ATOM     23  C   UNL A   1      38.116  23.208  26.044  1.00  0.00     0.002 A 
BRANCH  19  24
ATOM     24  O   UNL A   1      34.891  21.211  24.350  1.00  0.00    -0.492 OA
BRANCH  24  25
ATOM     25  C   UNL A   1      34.055  20.659  25.374  1.00  0.00     0.226 C 
ATOM     26  C   UNL A   1      32.813  20.043  24.758  1.00  0.00     0.049 C 
ENDBRANCH  24  25
ENDBRANCH  19  24
ENDBRANCH  13  18
ENDBRANCH   7  12
BRANCH  11  27
ATOM     27  N   UNL A   1      27.540  28.048  23.299  1.00  0.00    -0.397 N 
ATOM     28  H   UNL A   1      26.980  28.228  24.089  1.00  0.00     0.156 HD
ATOM     29  H   UNL A   1      27.218  28.292  22.402  1.00  0.00     0.156 HD
ENDBRANCH  11  27
ENDBRANCH   3   6
ENDBRANCH   1   2
BRANCH   1  30
ATOM     30  C   UNL A   1      33.979  28.491  25.842  1.00  0.00     0.042 C 
BRANCH  30  31
ATOM     31  C   UNL A   1      33.820  28.701  27.352  1.00  0.00     0.118 C 
BRANCH  31  32
ATOM     32  N   UNL A   1      33.784  30.117  27.703  1.00  0.00    -0.352 N 
ATOM     33  C   UNL A   1      34.643  30.851  28.477  1.00  0.00     0.251 C 
ATOM     34  H   UNL A   1      33.027  30.621  27.326  1.00  0.00     0.163 HD
ATOM     35  O   UNL A   1      34.284  31.921  28.954  1.00  0.00    -0.269 OA
BRANCH  33  36
ATOM     36  C   UNL A   1      36.006  30.348  28.726  1.00  0.00     0.039 A 
ATOM     37  C   UNL A   1      36.973  30.469  27.725  1.00  0.00     0.014 A 
ATOM     38  C   UNL A   1      36.310  29.716  29.934  1.00  0.00     0.014 A 
ATOM     39  C   UNL A   1      38.265  29.997  27.959  1.00  0.00     0.010 A 
ATOM     40  C   UNL A   1      37.614  29.320  30.195  1.00  0.00     0.010 A 
ATOM     41  C   UNL A   1      38.601  29.445  29.206  1.00  0.00    -0.014 A 
BRANCH  41  42
ATOM     42  C   UNL A   1      39.974  28.970  29.500  1.00  0.00     0.031 A 
ATOM     43  C   UNL A   1      40.927  29.858  30.249  1.00  0.00     0.074 A 
ATOM     44  C   UNL A   1      40.382  27.782  29.018  1.00  0.00     0.049 A 
ATOM     45  N   UNL A   1      42.198  29.680  30.506  1.00  0.00    -0.248 NA
ATOM     46  C   UNL A   1      40.387  31.135  30.745  1.00  0.00     0.031 C 
ATOM     47  C   UNL A   1      39.557  26.857  28.238  1.00  0.00     0.029 A 
ATOM     48  N   UNL A   1      41.599  27.154  29.099  1.00  0.00    -0.354 N 
ATOM     49  C   UNL A   1      42.611  30.826  31.171  1.00  0.00     0.074 A 
ATOM     50  C   UNL A   1      41.473  31.717  31.231  1.00  0.00     0.031 C 
ATOM     51  C   UNL A   1      40.287  25.774  27.925  1.00  0.00     0.029 A 
ATOM     52  C   UNL A   1      41.639  25.947  28.447  1.00  0.00     0.049 A 
ATOM     53  H   UNL A   1      42.371  27.535  29.578  1.00  0.00     0.167 HD
ATOM     54  C   UNL A   1      43.825  31.100  31.704  1.00  0.00     0.037 A 
ATOM     55  C   UNL A   1      42.658  25.083  28.282  1.00  0.00     0.037 A 
ATOM     56  C   UNL A   1      44.943  30.195  31.665  1.00  0.00     0.049 A 
ATOM     57  C   UNL A   1      43.997  25.409  28.886  1.00  0.00     0.074 A 
ATOM     58  C   UNL A   1      46.197  30.345  32.228  1.00  0.00     0.029 A 
ATOM     59  N   UNL A   1      44.937  28.964  31.024  1.00  0.00    -0.354 N 
ATOM     60  N   UNL A   1      44.360  26.467  29.571  1.00  0.00    -0.248 NA
ATOM     61  C   UNL A   1      45.066  24.419  28.698  1.00  0.00     0.031 C 
ATOM     62  C   UNL A   1      46.965  29.227  31.890  1.00  0.00     0.029 A 
ATOM     63  C   UNL A   1      46.173  28.354  31.160  1.00  0.00     0.049 A 
ATOM     64  H   UNL A   1      44.167  28.581  30.542  1.00  0.00     0.167 HD
ATOM     65  C   UNL A   1      45.686  26.256  29.923  1.00  0.00     0.074 A 
ATOM     66  C   UNL A   1      46.060  24.964  29.386  1.00  0.00     0.031 C 
ATOM     67  C   UNL A   1      46.519  27.060  30.629  1.00  0.00     0.037 A 
BRANCH  54  68
ATOM     68  C   UNL A   1      44.007  32.430  32.377  1.00  0.00     0.064 A 
ATOM     69  C   UNL A   1      43.742  32.605  33.745  1.00  0.00     0.173 A 
ATOM     70  C   UNL A   1      44.481  33.536  31.656  1.00  0.00     0.173 A 
ATOM     71  F   UNL A   1      43.277  31.583  34.479  1.00  0.00    -0.203 F 
ATOM     72  C   UNL A   1      43.915  33.844  34.356  1.00  0.00     0.198 A 
ATOM     73  C   UNL A   1      44.683  34.766  32.277  1.00  0.00     0.198 A 
ATOM     74  F   UNL A   1      44.755  33.423  30.347  1.00  0.00    -0.203 F 
ATOM     75  F   UNL A   1      43.607  33.999  35.651  1.00  0.00    -0.200 F 
ATOM     76  C   UNL A   1      44.393  34.921  33.624  1.00  0.00     0.200 A 
ATOM     77  F   UNL A   1      45.158  35.801  31.573  1.00  0.00    -0.200 F 
ATOM     78  F   UNL A   1      44.567  36.111  34.217  1.00  0.00    -0.200 F 
ENDBRANCH  54  68
BRANCH  55  79
ATOM     79  C   UNL A   1      42.443  23.816  27.535  1.00  0.00     0.064 A 
ATOM     80  C   UNL A   1      42.841  23.697  26.196  1.00  0.00     0.173 A 
ATOM     81  C   UNL A   1      41.842  22.703  28.138  1.00  0.00     0.173 A 
ATOM     82  F   UNL A   1      43.405  24.741  25.569  1.00  0.00    -0.203 F 
ATOM     83  C   UNL A   1      42.625  22.519  25.483  1.00  0.00     0.198 A 
ATOM     84  C   UNL A   1      41.653  21.516  27.433  1.00  0.00     0.198 A 
ATOM     85  F   UNL A   1      41.451  22.762  29.420  1.00  0.00    -0.203 F 
ATOM     86  F   UNL A   1      42.974  22.449  24.190  1.00  0.00    -0.200 F 
ATOM     87  C   UNL A   1      42.036  21.429  26.103  1.00  0.00     0.200 A 
ATOM     88  F   UNL A   1      41.100  20.458  28.041  1.00  0.00    -0.200 F 
ATOM     89  F   UNL A   1      41.835  20.294  25.419  1.00  0.00    -0.200 F 
ENDBRANCH  55  79
BRANCH  67  90
ATOM     90  C   UNL A   1      47.904  26.548  30.897  1.00  0.00     0.064 A 
ATOM     91  C   UNL A   1      48.194  25.758  32.018  1.00  0.00     0.173 A 
ATOM     92  C   UNL A   1      48.943  26.813  29.991  1.00  0.00     0.173 A 
ATOM     93  F   UNL A   1      47.239  25.490  32.921  1.00  0.00    -0.203 F 
ATOM     94  C   UNL A   1      49.480  25.271  32.235  1.00  0.00     0.198 A 
ATOM     95  C   UNL A   1      50.219  26.299  30.194  1.00  0.00     0.198 A 
ATOM     96  F   UNL A   1      48.714  27.558  28.898  1.00  0.00    -0.203 F 
ATOM     97  F   UNL A   1      49.747  24.557  33.337  1.00  0.00    -0.200 F 
ATOM     98  C   UNL A   1      50.489  25.534  31.319  1.00  0.00     0.200 A 
ATOM     99  F   UNL A   1      51.189  26.543  29.302  1.00  0.00    -0.200 F 
ATOM    100  F   UNL A   1      51.723  25.056  31.526  1.00  0.00    -0.200 F 
ENDBRANCH  67  90
ENDBRANCH  41  42
ENDBRANCH  33  36
ENDBRANCH  31  32
ENDBRANCH  30  31
ENDBRANCH   1  30
TORSDOF 15
ENDMDL
MODEL 3
REMARK VINA RESULT:     -12.2      0.703      2.077
REMARK SMILES CCOc1ccccc1N1CCN(c2ncc(N)cc2C(=O)NCCCNC(=O)c2ccc(-c3c4nc(c(-c5c(F)c(F)c(F)c(F)c5F)c5ccc([nH]5)c(-c5c(F)c(F)c(F)c(F)c5F)c5nc(c(-c6c(F)c(F)c(F)c(F)c6F)c6ccc3[nH]6)C=C5)C=C4)cc2)CC1
REMARK SMILES IDX 24 1 23 2 21 3 22 4 20 6 14 7 15 8 16 9 19 10 17 11 13 12
REMARK SMILES IDX 10 13 11 14 94 15 12 16 93 17 9 18 4 19 5 20 6 21 8 22 7 23
REMARK SMILES IDX 3 24 2 25 1 26 18 27 25 30 26 31 27 32 28 33 29 35 30 36
REMARK SMILES IDX 31 37 92 38 32 39 91 40 33 41 34 42 35 43 85 44 36 45 90 46
REMARK SMILES IDX 84 47 86 48 37 49 89 50 83 51 82 52 38 54 70 55 50 56 69 57
REMARK SMILES IDX 51 58 54 59 68 60 87 61 52 62 53 63 67 65 88 66 55 67 39 68
REMARK SMILES IDX 40 69 48 70 41 71 42 72 46 73 49 74 43 75 44 76 47 77 45 78
REMARK SMILES IDX 71 79 72 80 80 81 73 82 74 83 78 84 81 85 75 86 76 87 79 88
REMARK SMILES IDX 77 89 56 90 57 91 65 92 58 93 59 94 63 95 66 96 60 97 61 98
REMARK SMILES IDX 64 99 62 100
REMARK H PARENT 23 5 18 28 18 29 27 34 86 53 54 64
REMARK Flexibility Score: inf
ROOT
ATOM      1  C   UNL A   1      31.886  30.533  26.876  1.00  0.00     0.118 C 
ENDROOT
BRANCH   1   2
ATOM      2  N   UNL A   1      32.576  30.273  25.634  1.00  0.00    -0.352 N 
ATOM      3  C   UNL A   1      32.343  29.519  24.518  1.00  0.00     0.255 C 
ATOM      4  O   UNL A   1      33.377  29.317  23.877  1.00  0.00    -0.269 OA
ATOM      5  H   UNL A   1      33.429  30.763  25.576  1.00  0.00     0.163 HD
BRANCH   3   6
ATOM      6  C   UNL A   1      30.992  29.036  24.065  1.00  0.00     0.084 A 
ATOM      7  C   UNL A   1      30.817  27.675  23.731  1.00  0.00     0.141 A 
ATOM      8  N   UNL A   1      29.687  27.225  23.126  1.00  0.00    -0.236 NA
ATOM      9  C   UNL A   1      28.701  28.108  22.867  1.00  0.00     0.139 A 
ATOM     10  C   UNL A   1      29.901  29.888  23.851  1.00  0.00     0.044 A 
ATOM     11  C   UNL A   1      28.759  29.455  23.182  1.00  0.00     0.051 A 
BRANCH   7  12
ATOM     12  N   UNL A   1      31.775  26.719  24.003  1.00  0.00    -0.352 N 
ATOM     13  N   UNL A   1      33.513  24.526  24.528  1.00  0.00    -0.365 N 
ATOM     14  C   UNL A   1      33.682  25.340  23.312  1.00  0.00     0.138 C 
ATOM     15  C   UNL A   1      32.906  25.243  25.668  1.00  0.00     0.138 C 
ATOM     16  C   UNL A   1      32.334  25.962  22.885  1.00  0.00     0.139 C 
ATOM     17  C   UNL A   1      31.594  25.948  25.249  1.00  0.00     0.139 C 
BRANCH  13  18
ATOM     18  C   UNL A   1      34.416  23.512  24.818  1.00  0.00     0.079 A 
ATOM     19  C   UNL A   1      34.180  22.180  24.420  1.00  0.00     0.142 A 
ATOM     20  C   UNL A   1      35.105  21.162  24.679  1.00  0.00     0.048 A 
ATOM     21  C   UNL A   1      36.297  21.458  25.335  1.00  0.00     0.004 A 
ATOM     22  C   UNL A   1      35.618  23.773  25.494  1.00  0.00     0.030 A 
ATOM     23  C   UNL A   1      36.549  22.762  25.751  1.00  0.00     0.002 A 
BRANCH  19  24
ATOM     24  O   UNL A   1      32.999  21.833  23.805  1.00  0.00    -0.492 OA
BRANCH  24  25
ATOM     25  C   UNL A   1      32.489  20.588  24.297  1.00  0.00     0.226 C 
ATOM     26  C   UNL A   1      32.153  19.667  23.139  1.00  0.00     0.049 C 
ENDBRANCH  24  25
ENDBRANCH  19  24
ENDBRANCH  13  18
ENDBRANCH   7  12
BRANCH  11  27
ATOM     27  N   UNL A   1      27.693  30.315  22.961  1.00  0.00    -0.397 N 
ATOM     28  H   UNL A   1      26.793  30.075  23.280  1.00  0.00     0.156 HD
ATOM     29  H   UNL A   1      27.837  31.164  22.486  1.00  0.00     0.156 HD
ENDBRANCH  11  27
ENDBRANCH   3   6
ENDBRANCH   1   2
BRANCH   1  30
ATOM     30  C   UNL A   1      31.549  32.019  26.991  1.00  0.00     0.042 C 
BRANCH  30  31
ATOM     31  C   UNL A   1      32.786  32.918  26.888  1.00  0.00     0.118 C 
BRANCH  31  32
ATOM     32  N   UNL A   1      32.582  34.201  27.550  1.00  0.00    -0.352 N 
ATOM     33  C   UNL A   1      33.069  34.659  28.746  1.00  0.00     0.251 C 
ATOM     34  H   UNL A   1      32.007  34.835  27.063  1.00  0.00     0.163 HD
ATOM     35  O   UNL A   1      32.528  35.600  29.313  1.00  0.00    -0.269 OA
BRANCH  33  36
ATOM     36  C   UNL A   1      34.254  34.016  29.341  1.00  0.00     0.039 A 
ATOM     37  C   UNL A   1      35.528  34.453  28.973  1.00  0.00     0.014 A 
ATOM     38  C   UNL A   1      34.099  32.948  30.229  1.00  0.00     0.014 A 
ATOM     39  C   UNL A   1      36.652  33.849  29.538  1.00  0.00     0.010 A 
ATOM     40  C   UNL A   1      35.214  32.402  30.850  1.00  0.00     0.010 A 
ATOM     41  C   UNL A   1      36.500  32.838  30.501  1.00  0.00    -0.014 A 
BRANCH  41  42
ATOM     42  C   UNL A   1      37.672  32.202  31.148  1.00  0.00     0.031 A 
ATOM     43  C   UNL A   1      38.420  31.113  30.431  1.00  0.00     0.074 A 
ATOM     44  C   UNL A   1      38.002  32.544  32.406  1.00  0.00     0.049 A 
ATOM     45  N   UNL A   1      39.395  30.353  30.864  1.00  0.00    -0.248 NA
ATOM     46  C   UNL A   1      37.993  30.814  29.055  1.00  0.00     0.031 C 
ATOM     47  C   UNL A   1      37.318  33.554  33.216  1.00  0.00     0.029 A 
ATOM     48  N   UNL A   1      38.989  32.069  33.233  1.00  0.00    -0.354 N 
ATOM     49  C   UNL A   1      39.678  29.478  29.825  1.00  0.00     0.074 A 
ATOM     50  C   UNL A   1      38.740  29.761  28.762  1.00  0.00     0.031 C 
ATOM     51  C   UNL A   1      37.914  33.633  34.416  1.00  0.00     0.029 A 
ATOM     52  C   UNL A   1      38.994  32.654  34.475  1.00  0.00     0.049 A 
ATOM     53  H   UNL A   1      39.630  31.372  32.961  1.00  0.00     0.167 HD
ATOM     54  C   UNL A   1      40.650  28.537  29.757  1.00  0.00     0.037 A 
ATOM     55  C   UNL A   1      39.779  32.416  35.543  1.00  0.00     0.037 A 
ATOM     56  C   UNL A   1      41.598  28.284  30.809  1.00  0.00     0.049 A 
ATOM     57  C   UNL A   1      40.853  31.368  35.440  1.00  0.00     0.074 A 
ATOM     58  C   UNL A   1      42.662  27.399  30.820  1.00  0.00     0.029 A 
ATOM     59  N   UNL A   1      41.595  28.920  32.043  1.00  0.00    -0.354 N 
ATOM     60  N   UNL A   1      41.157  30.590  34.430  1.00  0.00    -0.248 NA
ATOM     61  C   UNL A   1      41.697  31.168  36.627  1.00  0.00     0.031 C 
ATOM     62  C   UNL A   1      43.274  27.468  32.075  1.00  0.00     0.029 A 
ATOM     63  C   UNL A   1      42.626  28.433  32.829  1.00  0.00     0.049 A 
ATOM     64  H   UNL A   1      40.953  29.615  32.318  1.00  0.00     0.167 HD
ATOM     65  C   UNL A   1      42.244  29.834  34.844  1.00  0.00     0.074 A 
ATOM     66  C   UNL A   1      42.555  30.254  36.194  1.00  0.00     0.031 C 
ATOM     67  C   UNL A   1      42.925  28.877  34.167  1.00  0.00     0.037 A 
BRANCH  54  68
ATOM     68  C   UNL A   1      40.739  27.716  28.503  1.00  0.00     0.064 A 
ATOM     69  C   UNL A   1      40.033  26.511  28.360  1.00  0.00     0.173 A 
ATOM     70  C   UNL A   1      41.513  28.153  27.417  1.00  0.00     0.173 A 
ATOM     71  F   UNL A   1      39.286  26.043  29.371  1.00  0.00    -0.203 F 
ATOM     72  C   UNL A   1      40.124  25.760  27.191  1.00  0.00     0.198 A 
ATOM     73  C   UNL A   1      41.577  27.416  26.238  1.00  0.00     0.198 A 
ATOM     74  F   UNL A   1      42.204  29.301  27.497  1.00  0.00    -0.203 F 
ATOM     75  F   UNL A   1      39.482  24.588  27.098  1.00  0.00    -0.200 F 
ATOM     76  C   UNL A   1      40.890  26.216  26.129  1.00  0.00     0.200 A 
ATOM     77  F   UNL A   1      42.305  27.865  25.207  1.00  0.00    -0.200 F 
ATOM     78  F   UNL A   1      40.969  25.496  25.001  1.00  0.00    -0.200 F 
ENDBRANCH  54  68
BRANCH  55  79
ATOM     79  C   UNL A   1      39.593  33.204  36.789  1.00  0.00     0.064 A 
ATOM     80  C   UNL A   1      40.330  34.375  37.013  1.00  0.00     0.173 A 
ATOM     81  C   UNL A   1      38.680  32.808  37.777  1.00  0.00     0.173 A 
ATOM     82  F   UNL A   1      41.228  34.785  36.106  1.00  0.00    -0.203 F 
ATOM     83  C   UNL A   1      40.176  35.109  38.188  1.00  0.00     0.198 A 
ATOM     84  C   UNL A   1      38.506  33.559  38.938  1.00  0.00     0.198 A 
ATOM     85  F   UNL A   1      37.944  31.700  37.607  1.00  0.00    -0.203 F 
ATOM     86  F   UNL A   1      40.926  36.200  38.396  1.00  0.00    -0.200 F 
ATOM     87  C   UNL A   1      39.261  34.703  39.147  1.00  0.00     0.200 A 
ATOM     88  F   UNL A   1      37.607  33.173  39.854  1.00  0.00    -0.200 F 
ATOM     89  F   UNL A   1      39.108  35.413  40.273  1.00  0.00    -0.200 F 
ENDBRANCH  55  79
BRANCH  67  90
ATOM     90  C   UNL A   1      44.099  28.248  34.859  1.00  0.00     0.064 A 
ATOM     91  C   UNL A   1      43.970  27.069  35.606  1.00  0.00     0.173 A 
ATOM     92  C   UNL A   1      45.379  28.810  34.731  1.00  0.00     0.173 A 
ATOM     93  F   UNL A   1      42.765  26.502  35.771  1.00  0.00    -0.203 F 
ATOM     94  C   UNL A   1      45.077  26.488  36.219  1.00  0.00     0.198 A 
ATOM     95  C   UNL A   1      46.487  28.210  35.318  1.00  0.00     0.198 A 
ATOM     96  F   UNL A   1      45.556  29.935  34.019  1.00  0.00    -0.203 F 
ATOM     97  F   UNL A   1      44.924  25.386  36.967  1.00  0.00    -0.200 F 
ATOM     98  C   UNL A   1      46.335  27.053  36.067  1.00  0.00     0.200 A 
ATOM     99  F   UNL A   1      47.704  28.749  35.159  1.00  0.00    -0.200 F 
ATOM    100  F   UNL A   1      47.399  26.485  36.651  1.00  0.00    -0.200 F 
ENDBRANCH  67  90
ENDBRANCH  41  42
ENDBRANCH  33  36
ENDBRANCH  31  32
ENDBRANCH  30  31
ENDBRANCH   1  30
TORSDOF 15
ENDMDL
