MODEL 1
REMARK VINA RESULT:     -11.5      0.000      0.000
REMARK SMILES [NH3+]CCOCC(=O)Nc1cc(C(=O)NCCCNC(=O)c2ccc(-c3c4nc(c(-c5c(F)c(F)c(F)c(F)c5F)c5ccc([nH]5)c(-c5c(F)c(F)c(F)c(F)c5F)c5nc(c(-c6c(F)c(F)c(F)c(F)c6F)c6ccc3[nH]6)C=C5)C=C4)cc2)ccc1Cl
REMARK SMILES IDX 12 1 13 2 14 3 11 5 9 6 10 7 86 8 85 9 87 10 84 11 8 12 6 13
REMARK SMILES IDX 7 14 5 16 4 17 3 18 2 19 1 20 15 24 16 25 17 26 18 27 19 28
REMARK SMILES IDX 20 30 21 31 22 32 83 33 23 34 82 35 24 36 25 37 26 38 76 39
REMARK SMILES IDX 27 40 81 41 75 42 77 43 28 44 80 45 74 46 73 47 29 49 61 50
REMARK SMILES IDX 41 51 60 52 42 53 45 54 59 55 78 56 43 57 44 58 58 60 79 61
REMARK SMILES IDX 46 62 30 63 31 64 39 65 32 66 33 67 37 68 40 69 34 70 35 71
REMARK SMILES IDX 38 72 36 73 62 74 63 75 71 76 64 77 65 78 69 79 72 80 66 81
REMARK SMILES IDX 67 82 70 83 68 84 47 85 48 86 56 87 49 88 50 89 54 90 57 91
REMARK SMILES IDX 51 92 52 93 55 94 53 95
REMARK H PARENT 14 4 8 15 1 21 1 22 1 23 18 29 77 48 45 59
REMARK Flexibility Score: inf
ROOT
ATOM      1  C   UNL A   1      33.461  28.953  26.967  1.00  0.00     0.251 C 
ATOM      2  O   UNL A   1      34.611  28.884  27.410  1.00  0.00    -0.269 OA
ATOM      3  N   UNL A   1      32.849  30.174  27.051  1.00  0.00    -0.352 N 
ATOM      4  H   UNL A   1      33.380  30.841  27.545  1.00  0.00     0.163 HD
ENDROOT
BRANCH   1   5
ATOM      5  C   UNL A   1      32.838  27.715  26.410  1.00  0.00     0.041 A 
ATOM      6  C   UNL A   1      33.255  25.559  25.342  1.00  0.00     0.060 A 
ATOM      7  C   UNL A   1      33.719  26.785  25.823  1.00  0.00     0.041 A 
ATOM      8  C   UNL A   1      31.925  25.195  25.583  1.00  0.00     0.064 A 
ATOM      9  C   UNL A   1      31.028  26.129  26.084  1.00  0.00     0.023 A 
ATOM     10  Cl  UNL A   1      31.413  23.546  25.579  1.00  0.00    -0.082 Cl
ATOM     11  C   UNL A   1      31.482  27.384  26.488  1.00  0.00     0.015 A 
BRANCH   6  12
ATOM     12  N   UNL A   1      34.160  24.736  24.653  1.00  0.00    -0.323 N 
ATOM     13  C   UNL A   1      34.145  24.472  23.304  1.00  0.00     0.250 C 
ATOM     14  O   UNL A   1      34.923  23.636  22.834  1.00  0.00    -0.272 OA
ATOM     15  H   UNL A   1      34.872  24.310  25.185  1.00  0.00     0.170 HD
BRANCH  13  16
ATOM     16  C   UNL A   1      33.254  25.331  22.372  1.00  0.00     0.260 C 
BRANCH  16  17
ATOM     17  O   UNL A   1      33.781  26.408  21.629  1.00  0.00    -0.366 OA
BRANCH  17  18
ATOM     18  C   UNL A   1      33.658  27.693  22.239  1.00  0.00     0.222 C 
BRANCH  18  19
ATOM     19  C   UNL A   1      32.241  28.043  22.702  1.00  0.00     0.287 C 
BRANCH  19  20
ATOM     20  N   UNL A   1      32.096  29.401  23.224  1.00  0.00    -0.356 N 
ATOM     21  H   UNL A   1      31.744  30.012  22.486  1.00  0.00     0.344 HD
ATOM     22  H   UNL A   1      33.003  29.742  23.544  1.00  0.00     0.344 HD
ATOM     23  H   UNL A   1      31.440  29.398  24.004  1.00  0.00     0.344 HD
ENDBRANCH  19  20
ENDBRANCH  18  19
ENDBRANCH  17  18
ENDBRANCH  16  17
ENDBRANCH  13  16
ENDBRANCH   6  12
ENDBRANCH   1   5
BRANCH   3  24
ATOM     24  C   UNL A   1      31.586  30.692  26.568  1.00  0.00     0.118 C 
BRANCH  24  25
ATOM     25  C   UNL A   1      31.502  32.212  26.711  1.00  0.00     0.042 C 
BRANCH  25  26
ATOM     26  C   UNL A   1      32.777  32.831  27.284  1.00  0.00     0.118 C 
BRANCH  26  27
ATOM     27  N   UNL A   1      32.573  34.223  27.676  1.00  0.00    -0.352 N 
ATOM     28  C   UNL A   1      33.091  34.934  28.724  1.00  0.00     0.251 C 
ATOM     29  H   UNL A   1      31.967  34.732  27.091  1.00  0.00     0.163 HD
ATOM     30  O   UNL A   1      32.570  36.003  29.053  1.00  0.00    -0.269 OA
BRANCH  28  31
ATOM     31  C   UNL A   1      34.267  34.436  29.460  1.00  0.00     0.039 A 
ATOM     32  C   UNL A   1      34.088  33.824  30.704  1.00  0.00     0.014 A 
ATOM     33  C   UNL A   1      35.552  34.610  28.941  1.00  0.00     0.014 A 
ATOM     34  C   UNL A   1      35.192  33.316  31.391  1.00  0.00     0.010 A 
ATOM     35  C   UNL A   1      36.641  34.039  29.588  1.00  0.00     0.010 A 
ATOM     36  C   UNL A   1      36.471  33.380  30.815  1.00  0.00    -0.014 A 
BRANCH  36  37
ATOM     37  C   UNL A   1      37.648  32.746  31.456  1.00  0.00     0.031 A 
ATOM     38  C   UNL A   1      38.329  31.581  30.799  1.00  0.00     0.074 A 
ATOM     39  C   UNL A   1      38.033  33.160  32.679  1.00  0.00     0.049 A 
ATOM     40  N   UNL A   1      39.289  30.817  31.255  1.00  0.00    -0.248 NA
ATOM     41  C   UNL A   1      37.847  31.208  29.461  1.00  0.00     0.031 C 
ATOM     42  C   UNL A   1      37.424  34.260  33.428  1.00  0.00     0.029 A 
ATOM     43  N   UNL A   1      39.017  32.694  33.512  1.00  0.00    -0.354 N 
ATOM     44  C   UNL A   1      39.513  29.865  30.270  1.00  0.00     0.074 A 
ATOM     45  C   UNL A   1      38.552  30.113  29.217  1.00  0.00     0.031 C 
ATOM     46  C   UNL A   1      38.064  34.400  34.599  1.00  0.00     0.029 A 
ATOM     47  C   UNL A   1      39.091  33.369  34.706  1.00  0.00     0.049 A 
ATOM     48  H   UNL A   1      39.613  31.945  33.279  1.00  0.00     0.167 HD
ATOM     49  C   UNL A   1      40.449  28.887  30.239  1.00  0.00     0.037 A 
ATOM     50  C   UNL A   1      39.890  33.170  35.770  1.00  0.00     0.037 A 
ATOM     51  C   UNL A   1      41.406  28.656  31.289  1.00  0.00     0.049 A 
ATOM     52  C   UNL A   1      40.886  32.042  35.734  1.00  0.00     0.074 A 
ATOM     53  C   UNL A   1      42.436  27.732  31.334  1.00  0.00     0.029 A 
ATOM     54  N   UNL A   1      41.443  29.353  32.489  1.00  0.00    -0.354 N 
ATOM     55  N   UNL A   1      41.137  31.190  34.770  1.00  0.00    -0.248 NA
ATOM     56  C   UNL A   1      41.704  31.846  36.938  1.00  0.00     0.031 C 
ATOM     57  C   UNL A   1      43.058  27.832  32.582  1.00  0.00     0.029 A 
ATOM     58  C   UNL A   1      42.455  28.855  33.297  1.00  0.00     0.049 A 
ATOM     59  H   UNL A   1      40.840  30.092  32.732  1.00  0.00     0.167 HD
ATOM     60  C   UNL A   1      42.160  30.378  35.236  1.00  0.00     0.074 A 
ATOM     61  C   UNL A   1      42.491  30.845  36.567  1.00  0.00     0.031 C 
ATOM     62  C   UNL A   1      42.772  29.337  34.618  1.00  0.00     0.037 A 
BRANCH  49  63
ATOM     63  C   UNL A   1      40.471  27.989  29.034  1.00  0.00     0.064 A 
ATOM     64  C   UNL A   1      41.254  28.284  27.907  1.00  0.00     0.173 A 
ATOM     65  C   UNL A   1      39.704  26.813  29.006  1.00  0.00     0.173 A 
ATOM     66  F   UNL A   1      41.998  29.400  27.876  1.00  0.00    -0.203 F 
ATOM     67  C   UNL A   1      41.234  27.462  26.783  1.00  0.00     0.198 A 
ATOM     68  C   UNL A   1      39.714  25.975  27.894  1.00  0.00     0.198 A 
ATOM     69  F   UNL A   1      38.944  26.477  30.059  1.00  0.00    -0.203 F 
ATOM     70  F   UNL A   1      41.938  27.802  25.695  1.00  0.00    -0.200 F 
ATOM     71  C   UNL A   1      40.468  26.307  26.779  1.00  0.00     0.200 A 
ATOM     72  F   UNL A   1      38.985  24.852  27.898  1.00  0.00    -0.200 F 
ATOM     73  F   UNL A   1      40.448  25.518  25.696  1.00  0.00    -0.200 F 
ENDBRANCH  49  63
BRANCH  50  74
ATOM     74  C   UNL A   1      39.800  34.074  36.945  1.00  0.00     0.064 A 
ATOM     75  C   UNL A   1      40.536  35.267  36.982  1.00  0.00     0.173 A 
ATOM     76  C   UNL A   1      38.979  33.779  38.043  1.00  0.00     0.173 A 
ATOM     77  F   UNL A   1      41.349  35.583  35.964  1.00  0.00    -0.203 F 
ATOM     78  C   UNL A   1      40.464  36.123  38.079  1.00  0.00     0.198 A 
ATOM     79  C   UNL A   1      38.886  34.650  39.127  1.00  0.00     0.198 A 
ATOM     80  F   UNL A   1      38.250  32.653  38.054  1.00  0.00    -0.203 F 
ATOM     81  F   UNL A   1      41.206  37.239  38.105  1.00  0.00    -0.200 F 
ATOM     82  C   UNL A   1      39.634  35.818  39.147  1.00  0.00     0.200 A 
ATOM     83  F   UNL A   1      38.070  34.360  40.149  1.00  0.00    -0.200 F 
ATOM     84  F   UNL A   1      39.558  36.646  40.198  1.00  0.00    -0.200 F 
ENDBRANCH  50  74
BRANCH  62  85
ATOM     85  C   UNL A   1      43.883  28.653  35.361  1.00  0.00     0.064 A 
ATOM     86  C   UNL A   1      45.221  29.041  35.205  1.00  0.00     0.173 A 
ATOM     87  C   UNL A   1      43.597  27.630  36.279  1.00  0.00     0.173 A 
ATOM     88  F   UNL A   1      45.547  30.001  34.326  1.00  0.00    -0.203 F 
ATOM     89  C   UNL A   1      46.235  28.419  35.928  1.00  0.00     0.198 A 
ATOM     90  C   UNL A   1      44.609  27.032  37.023  1.00  0.00     0.198 A 
ATOM     91  F   UNL A   1      42.332  27.225  36.468  1.00  0.00    -0.203 F 
ATOM     92  F   UNL A   1      47.511  28.776  35.731  1.00  0.00    -0.200 F 
ATOM     93  C   UNL A   1      45.928  27.422  36.842  1.00  0.00     0.200 A 
ATOM     94  F   UNL A   1      44.309  26.080  37.917  1.00  0.00    -0.200 F 
ATOM     95  F   UNL A   1      46.904  26.834  37.547  1.00  0.00    -0.200 F 
ENDBRANCH  62  85
ENDBRANCH  36  37
ENDBRANCH  28  31
ENDBRANCH  26  27
ENDBRANCH  25  26
ENDBRANCH  24  25
ENDBRANCH   3  24
TORSDOF 16
ENDMDL
MODEL 2
REMARK VINA RESULT:     -11.5      0.932      2.261
REMARK SMILES [NH3+]CCOCC(=O)Nc1cc(C(=O)NCCCNC(=O)c2ccc(-c3c4nc(c(-c5c(F)c(F)c(F)c(F)c5F)c5ccc([nH]5)c(-c5c(F)c(F)c(F)c(F)c5F)c5nc(c(-c6c(F)c(F)c(F)c(F)c6F)c6ccc3[nH]6)C=C5)C=C4)cc2)ccc1Cl
REMARK SMILES IDX 12 1 13 2 14 3 11 5 9 6 10 7 86 8 85 9 87 10 84 11 8 12 6 13
REMARK SMILES IDX 7 14 5 16 4 17 3 18 2 19 1 20 15 24 16 25 17 26 18 27 19 28
REMARK SMILES IDX 20 30 21 31 22 32 83 33 23 34 82 35 24 36 25 37 26 38 76 39
REMARK SMILES IDX 27 40 81 41 75 42 77 43 28 44 80 45 74 46 73 47 29 49 61 50
REMARK SMILES IDX 41 51 60 52 42 53 45 54 59 55 78 56 43 57 44 58 58 60 79 61
REMARK SMILES IDX 46 62 30 63 31 64 39 65 32 66 33 67 37 68 40 69 34 70 35 71
REMARK SMILES IDX 38 72 36 73 62 74 63 75 71 76 64 77 65 78 69 79 72 80 66 81
REMARK SMILES IDX 67 82 70 83 68 84 47 85 48 86 56 87 49 88 50 89 54 90 57 91
REMARK SMILES IDX 51 92 52 93 55 94 53 95
REMARK H PARENT 14 4 8 15 1 21 1 22 1 23 18 29 77 48 45 59
REMARK Flexibility Score: inf
ROOT
ATOM      1  C   UNL A   1      33.704  29.038  26.722  1.00  0.00     0.251 C 
ATOM      2  O   UNL A   1      34.867  29.025  27.131  1.00  0.00    -0.269 OA
ATOM      3  N   UNL A   1      33.010  30.204  26.898  1.00  0.00    -0.352 N 
ATOM      4  H   UNL A   1      33.506  30.877  27.419  1.00  0.00     0.163 HD
ENDROOT
BRANCH   1   5
ATOM      5  C   UNL A   1      33.153  27.795  26.104  1.00  0.00     0.041 A 
ATOM      6  C   UNL A   1      33.208  26.322  24.156  1.00  0.00     0.060 A 
ATOM      7  C   UNL A   1      33.596  27.500  24.798  1.00  0.00     0.041 A 
ATOM      8  C   UNL A   1      32.492  25.360  24.877  1.00  0.00     0.064 A 
ATOM      9  C   UNL A   1      31.979  25.668  26.131  1.00  0.00     0.023 A 
ATOM     10  Cl  UNL A   1      32.477  23.696  24.416  1.00  0.00    -0.082 Cl
ATOM     11  C   UNL A   1      32.304  26.883  26.737  1.00  0.00     0.015 A 
BRANCH   6  12
ATOM     12  N   UNL A   1      33.577  26.153  22.812  1.00  0.00    -0.323 N 
ATOM     13  C   UNL A   1      32.715  26.051  21.745  1.00  0.00     0.250 C 
ATOM     14  O   UNL A   1      33.158  25.783  20.624  1.00  0.00    -0.272 OA
ATOM     15  H   UNL A   1      34.541  26.105  22.616  1.00  0.00     0.170 HD
BRANCH  13  16
ATOM     16  C   UNL A   1      31.222  26.414  21.938  1.00  0.00     0.260 C 
BRANCH  16  17
ATOM     17  O   UNL A   1      30.785  27.755  21.977  1.00  0.00    -0.366 OA
BRANCH  17  18
ATOM     18  C   UNL A   1      29.661  28.009  22.820  1.00  0.00     0.222 C 
BRANCH  18  19
ATOM     19  C   UNL A   1      29.388  26.920  23.860  1.00  0.00     0.287 C 
BRANCH  19  20
ATOM     20  N   UNL A   1      28.052  26.329  23.776  1.00  0.00    -0.356 N 
ATOM     21  H   UNL A   1      27.941  25.637  24.517  1.00  0.00     0.344 HD
ATOM     22  H   UNL A   1      27.936  25.877  22.869  1.00  0.00     0.344 HD
ATOM     23  H   UNL A   1      27.350  27.060  23.884  1.00  0.00     0.344 HD
ENDBRANCH  19  20
ENDBRANCH  18  19
ENDBRANCH  17  18
ENDBRANCH  16  17
ENDBRANCH  13  16
ENDBRANCH   6  12
ENDBRANCH   1   5
BRANCH   3  24
ATOM     24  C   UNL A   1      31.699  30.658  26.479  1.00  0.00     0.118 C 
BRANCH  24  25
ATOM     25  C   UNL A   1      31.500  32.150  26.752  1.00  0.00     0.042 C 
BRANCH  25  26
ATOM     26  C   UNL A   1      32.793  32.866  27.142  1.00  0.00     0.118 C 
BRANCH  26  27
ATOM     27  N   UNL A   1      32.540  34.231  27.596  1.00  0.00    -0.352 N 
ATOM     28  C   UNL A   1      33.023  34.908  28.682  1.00  0.00     0.251 C 
ATOM     29  H   UNL A   1      31.924  34.747  27.027  1.00  0.00     0.163 HD
ATOM     30  O   UNL A   1      32.464  35.944  29.054  1.00  0.00    -0.269 OA
BRANCH  28  31
ATOM     31  C   UNL A   1      34.207  34.415  29.408  1.00  0.00     0.039 A 
ATOM     32  C   UNL A   1      34.041  33.799  30.652  1.00  0.00     0.014 A 
ATOM     33  C   UNL A   1      35.488  34.596  28.879  1.00  0.00     0.014 A 
ATOM     34  C   UNL A   1      35.153  33.295  31.330  1.00  0.00     0.010 A 
ATOM     35  C   UNL A   1      36.584  34.029  29.517  1.00  0.00     0.010 A 
ATOM     36  C   UNL A   1      36.426  33.367  30.744  1.00  0.00    -0.014 A 
BRANCH  36  37
ATOM     37  C   UNL A   1      37.611  32.737  31.375  1.00  0.00     0.031 A 
ATOM     38  C   UNL A   1      38.292  31.576  30.712  1.00  0.00     0.074 A 
ATOM     39  C   UNL A   1      38.005  33.153  32.594  1.00  0.00     0.049 A 
ATOM     40  N   UNL A   1      39.259  30.815  31.159  1.00  0.00    -0.248 NA
ATOM     41  C   UNL A   1      37.800  31.201  29.378  1.00  0.00     0.031 C 
ATOM     42  C   UNL A   1      37.398  34.250  33.350  1.00  0.00     0.029 A 
ATOM     43  N   UNL A   1      38.998  32.690  33.419  1.00  0.00    -0.354 N 
ATOM     44  C   UNL A   1      39.479  29.865  30.172  1.00  0.00     0.074 A 
ATOM     45  C   UNL A   1      38.508  30.109  29.127  1.00  0.00     0.031 C 
ATOM     46  C   UNL A   1      38.047  34.392  34.515  1.00  0.00     0.029 A 
ATOM     47  C   UNL A   1      39.079  33.365  34.613  1.00  0.00     0.049 A 
ATOM     48  H   UNL A   1      39.595  31.944  33.181  1.00  0.00     0.167 HD
ATOM     49  C   UNL A   1      40.418  28.890  30.133  1.00  0.00     0.037 A 
ATOM     50  C   UNL A   1      39.887  33.168  35.670  1.00  0.00     0.037 A 
ATOM     51  C   UNL A   1      41.385  28.663  31.175  1.00  0.00     0.049 A 
ATOM     52  C   UNL A   1      40.888  32.045  35.625  1.00  0.00     0.074 A 
ATOM     53  C   UNL A   1      42.419  27.744  31.210  1.00  0.00     0.029 A 
ATOM     54  N   UNL A   1      41.429  29.360  32.375  1.00  0.00    -0.354 N 
ATOM     55  N   UNL A   1      41.134  31.195  34.659  1.00  0.00    -0.248 NA
ATOM     56  C   UNL A   1      41.717  31.852  36.823  1.00  0.00     0.031 C 
ATOM     57  C   UNL A   1      43.051  27.845  32.454  1.00  0.00     0.029 A 
ATOM     58  C   UNL A   1      42.449  28.866  33.174  1.00  0.00     0.049 A 
ATOM     59  H   UNL A   1      40.825  30.096  32.623  1.00  0.00     0.167 HD
ATOM     60  C   UNL A   1      42.165  30.386  35.116  1.00  0.00     0.074 A 
ATOM     61  C   UNL A   1      42.504  30.855  36.445  1.00  0.00     0.031 C 
ATOM     62  C   UNL A   1      42.775  29.348  34.492  1.00  0.00     0.037 A 
BRANCH  49  63
ATOM     63  C   UNL A   1      40.434  27.993  28.927  1.00  0.00     0.064 A 
ATOM     64  C   UNL A   1      39.700  26.797  28.887  1.00  0.00     0.173 A 
ATOM     65  C   UNL A   1      41.186  28.335  27.793  1.00  0.00     0.173 A 
ATOM     66  F   UNL A   1      38.971  26.416  29.947  1.00  0.00    -0.203 F 
ATOM     67  C   UNL A   1      39.755  25.957  27.777  1.00  0.00     0.198 A 
ATOM     68  C   UNL A   1      41.210  27.511  26.671  1.00  0.00     0.198 A 
ATOM     69  F   UNL A   1      41.899  29.471  27.772  1.00  0.00    -0.203 F 
ATOM     70  F   UNL A   1      39.099  24.789  27.792  1.00  0.00    -0.200 F 
ATOM     71  C   UNL A   1      40.505  26.316  26.670  1.00  0.00     0.200 A 
ATOM     72  F   UNL A   1      41.924  27.867  25.595  1.00  0.00    -0.200 F 
ATOM     73  F   UNL A   1      40.559  25.507  25.603  1.00  0.00    -0.200 F 
ENDBRANCH  49  63
BRANCH  50  74
ATOM     74  C   UNL A   1      39.804  34.072  36.847  1.00  0.00     0.064 A 
ATOM     75  C   UNL A   1      38.977  33.751  37.933  1.00  0.00     0.173 A 
ATOM     76  C   UNL A   1      40.546  35.259  36.919  1.00  0.00     0.173 A 
ATOM     77  F   UNL A   1      38.234  32.635  37.900  1.00  0.00    -0.203 F 
ATOM     78  C   UNL A   1      38.886  34.590  39.041  1.00  0.00     0.198 A 
ATOM     79  C   UNL A   1      40.475  36.084  38.041  1.00  0.00     0.198 A 
ATOM     80  F   UNL A   1      41.356  35.609  35.910  1.00  0.00    -0.203 F 
ATOM     81  F   UNL A   1      38.059  34.278  40.048  1.00  0.00    -0.200 F 
ATOM     82  C   UNL A   1      39.640  35.752  39.098  1.00  0.00     0.200 A 
ATOM     83  F   UNL A   1      41.219  37.197  38.100  1.00  0.00    -0.200 F 
ATOM     84  F   UNL A   1      39.559  36.555  40.168  1.00  0.00    -0.200 F 
ENDBRANCH  50  74
BRANCH  62  85
ATOM     85  C   UNL A   1      43.895  28.668  35.225  1.00  0.00     0.064 A 
ATOM     86  C   UNL A   1      43.660  27.596  36.098  1.00  0.00     0.173 A 
ATOM     87  C   UNL A   1      45.226  29.062  35.011  1.00  0.00     0.173 A 
ATOM     88  F   UNL A   1      42.404  27.194  36.350  1.00  0.00    -0.203 F 
ATOM     89  C   UNL A   1      44.714  26.955  36.743  1.00  0.00     0.198 A 
ATOM     90  C   UNL A   1      46.279  28.398  35.633  1.00  0.00     0.198 A 
ATOM     91  F   UNL A   1      45.505  30.079  34.182  1.00  0.00    -0.203 F 
ATOM     92  F   UNL A   1      44.463  25.961  37.607  1.00  0.00    -0.200 F 
ATOM     93  C   UNL A   1      46.022  27.350  36.504  1.00  0.00     0.200 A 
ATOM     94  F   UNL A   1      47.542  28.772  35.388  1.00  0.00    -0.200 F 
ATOM     95  F   UNL A   1      47.036  26.722  37.115  1.00  0.00    -0.200 F 
ENDBRANCH  62  85
ENDBRANCH  36  37
ENDBRANCH  28  31
ENDBRANCH  26  27
ENDBRANCH  25  26
ENDBRANCH  24  25
ENDBRANCH   3  24
TORSDOF 16
ENDMDL
MODEL 3
REMARK VINA RESULT:     -11.4      6.008     11.367
REMARK SMILES [NH3+]CCOCC(=O)Nc1cc(C(=O)NCCCNC(=O)c2ccc(-c3c4nc(c(-c5c(F)c(F)c(F)c(F)c5F)c5ccc([nH]5)c(-c5c(F)c(F)c(F)c(F)c5F)c5nc(c(-c6c(F)c(F)c(F)c(F)c6F)c6ccc3[nH]6)C=C5)C=C4)cc2)ccc1Cl
REMARK SMILES IDX 12 1 13 2 14 3 11 5 9 6 10 7 86 8 85 9 87 10 84 11 8 12 6 13
REMARK SMILES IDX 7 14 5 16 4 17 3 18 2 19 1 20 15 24 16 25 17 26 18 27 19 28
REMARK SMILES IDX 20 30 21 31 22 32 83 33 23 34 82 35 24 36 25 37 26 38 76 39
REMARK SMILES IDX 27 40 81 41 75 42 77 43 28 44 80 45 74 46 73 47 29 49 61 50
REMARK SMILES IDX 41 51 60 52 42 53 45 54 59 55 78 56 43 57 44 58 58 60 79 61
REMARK SMILES IDX 46 62 30 63 31 64 39 65 32 66 33 67 37 68 40 69 34 70 35 71
REMARK SMILES IDX 38 72 36 73 62 74 63 75 71 76 64 77 65 78 69 79 72 80 66 81
REMARK SMILES IDX 67 82 70 83 68 84 47 85 48 86 56 87 49 88 50 89 54 90 57 91
REMARK SMILES IDX 51 92 52 93 55 94 53 95
REMARK H PARENT 14 4 8 15 1 21 1 22 1 23 18 29 77 48 45 59
REMARK Flexibility Score: inf
ROOT
ATOM      1  C   UNL A   1      36.686  23.140  25.501  1.00  0.00     0.251 C 
ATOM      2  O   UNL A   1      37.267  24.048  26.100  1.00  0.00    -0.269 OA
ATOM      3  N   UNL A   1      37.316  21.926  25.478  1.00  0.00    -0.352 N 
ATOM      4  H   UNL A   1      38.217  21.948  25.876  1.00  0.00     0.163 HD
ENDROOT
BRANCH   1   5
ATOM      5  C   UNL A   1      35.380  23.443  24.843  1.00  0.00     0.041 A 
ATOM      6  C   UNL A   1      33.083  24.199  25.184  1.00  0.00     0.060 A 
ATOM      7  C   UNL A   1      34.324  23.817  25.698  1.00  0.00     0.041 A 
ATOM      8  C   UNL A   1      32.939  24.352  23.800  1.00  0.00     0.064 A 
ATOM      9  C   UNL A   1      33.940  23.911  22.944  1.00  0.00     0.023 A 
ATOM     10  Cl  UNL A   1      31.708  25.349  23.114  1.00  0.00    -0.082 Cl
ATOM     11  C   UNL A   1      35.150  23.453  23.464  1.00  0.00     0.015 A 
BRANCH   6  12
ATOM     12  N   UNL A   1      32.038  24.432  26.092  1.00  0.00    -0.323 N 
ATOM     13  C   UNL A   1      30.957  23.608  26.308  1.00  0.00     0.250 C 
ATOM     14  O   UNL A   1      30.042  23.981  27.047  1.00  0.00    -0.272 OA
ATOM     15  H   UNL A   1      32.083  25.260  26.623  1.00  0.00     0.170 HD
BRANCH  13  16
ATOM     16  C   UNL A   1      30.975  22.168  25.737  1.00  0.00     0.260 C 
BRANCH  16  17
ATOM     17  O   UNL A   1      32.072  21.304  25.940  1.00  0.00    -0.366 OA
BRANCH  17  18
ATOM     18  C   UNL A   1      32.500  20.577  24.787  1.00  0.00     0.222 C 
BRANCH  18  19
ATOM     19  C   UNL A   1      32.947  19.141  25.072  1.00  0.00     0.287 C 
BRANCH  19  20
ATOM     20  N   UNL A   1      32.911  18.769  26.486  1.00  0.00    -0.356 N 
ATOM     21  H   UNL A   1      33.863  18.728  26.851  1.00  0.00     0.344 HD
ATOM     22  H   UNL A   1      32.468  17.855  26.587  1.00  0.00     0.344 HD
ATOM     23  H   UNL A   1      32.377  19.464  27.007  1.00  0.00     0.344 HD
ENDBRANCH  19  20
ENDBRANCH  18  19
ENDBRANCH  17  18
ENDBRANCH  16  17
ENDBRANCH  13  16
ENDBRANCH   6  12
ENDBRANCH   1   5
BRANCH   3  24
ATOM     24  C   UNL A   1      36.939  20.614  24.992  1.00  0.00     0.118 C 
BRANCH  24  25
ATOM     25  C   UNL A   1      38.096  19.619  25.083  1.00  0.00     0.042 C 
BRANCH  25  26
ATOM     26  C   UNL A   1      39.290  20.158  25.870  1.00  0.00     0.118 C 
BRANCH  26  27
ATOM     27  N   UNL A   1      40.353  19.164  25.990  1.00  0.00    -0.352 N 
ATOM     28  C   UNL A   1      41.711  19.320  26.054  1.00  0.00     0.251 C 
ATOM     29  H   UNL A   1      40.042  18.230  26.032  1.00  0.00     0.163 HD
ATOM     30  O   UNL A   1      42.447  18.350  25.855  1.00  0.00    -0.269 OA
BRANCH  28  31
ATOM     31  C   UNL A   1      42.300  20.635  26.364  1.00  0.00     0.039 A 
ATOM     32  C   UNL A   1      42.779  21.435  25.322  1.00  0.00     0.014 A 
ATOM     33  C   UNL A   1      42.418  21.063  27.689  1.00  0.00     0.014 A 
ATOM     34  C   UNL A   1      43.305  22.697  25.603  1.00  0.00     0.010 A 
ATOM     35  C   UNL A   1      42.871  22.348  27.961  1.00  0.00     0.010 A 
ATOM     36  C   UNL A   1      43.312  23.179  26.921  1.00  0.00    -0.014 A 
BRANCH  36  37
ATOM     37  C   UNL A   1      43.749  24.559  27.244  1.00  0.00     0.031 A 
ATOM     38  C   UNL A   1      42.761  25.562  27.763  1.00  0.00     0.074 A 
ATOM     39  C   UNL A   1      45.015  24.928  26.970  1.00  0.00     0.049 A 
ATOM     40  N   UNL A   1      42.918  26.842  27.986  1.00  0.00    -0.248 NA
ATOM     41  C   UNL A   1      41.406  25.064  28.043  1.00  0.00     0.031 C 
ATOM     42  C   UNL A   1      46.054  24.048  26.431  1.00  0.00     0.029 A 
ATOM     43  N   UNL A   1      45.638  26.144  27.090  1.00  0.00    -0.354 N 
ATOM     44  C   UNL A   1      41.682  27.305  28.415  1.00  0.00     0.074 A 
ATOM     45  C   UNL A   1      40.771  26.181  28.368  1.00  0.00     0.031 C 
ATOM     46  C   UNL A   1      47.191  24.746  26.292  1.00  0.00     0.029 A 
ATOM     47  C   UNL A   1      46.949  26.132  26.680  1.00  0.00     0.049 A 
ATOM     48  H   UNL A   1      45.189  26.949  27.436  1.00  0.00     0.167 HD
ATOM     49  C   UNL A   1      41.343  28.549  28.829  1.00  0.00     0.037 A 
ATOM     50  C   UNL A   1      47.849  27.130  26.613  1.00  0.00     0.037 A 
ATOM     51  C   UNL A   1      42.261  29.657  28.881  1.00  0.00     0.049 A 
ATOM     52  C   UNL A   1      47.434  28.516  27.029  1.00  0.00     0.074 A 
ATOM     53  C   UNL A   1      42.039  30.943  29.340  1.00  0.00     0.029 A 
ATOM     54  N   UNL A   1      43.579  29.610  28.446  1.00  0.00    -0.354 N 
ATOM     55  N   UNL A   1      46.282  28.929  27.498  1.00  0.00    -0.248 NA
ATOM     56  C   UNL A   1      48.444  29.574  26.898  1.00  0.00     0.031 C 
ATOM     57  C   UNL A   1      43.204  31.689  29.131  1.00  0.00     0.029 A 
ATOM     58  C   UNL A   1      44.172  30.855  28.592  1.00  0.00     0.049 A 
ATOM     59  H   UNL A   1      44.027  28.811  28.086  1.00  0.00     0.167 HD
ATOM     60  C   UNL A   1      46.436  30.285  27.747  1.00  0.00     0.074 A 
ATOM     61  C   UNL A   1      47.798  30.623  27.387  1.00  0.00     0.031 C 
ATOM     62  C   UNL A   1      45.530  31.171  28.231  1.00  0.00     0.037 A 
BRANCH  49  63
ATOM     63  C   UNL A   1      39.917  28.774  29.247  1.00  0.00     0.064 A 
ATOM     64  C   UNL A   1      39.500  28.598  30.576  1.00  0.00     0.173 A 
ATOM     65  C   UNL A   1      38.954  29.178  28.310  1.00  0.00     0.173 A 
ATOM     66  F   UNL A   1      40.378  28.203  31.512  1.00  0.00    -0.203 F 
ATOM     67  C   UNL A   1      38.168  28.774  30.941  1.00  0.00     0.198 A 
ATOM     68  C   UNL A   1      37.629  29.387  28.685  1.00  0.00     0.198 A 
ATOM     69  F   UNL A   1      39.297  29.370  27.027  1.00  0.00    -0.203 F 
ATOM     70  F   UNL A   1      37.784  28.533  32.202  1.00  0.00    -0.200 F 
ATOM     71  C   UNL A   1      37.235  29.172  29.997  1.00  0.00     0.200 A 
ATOM     72  F   UNL A   1      36.732  29.786  27.774  1.00  0.00    -0.200 F 
ATOM     73  F   UNL A   1      35.953  29.338  30.348  1.00  0.00    -0.200 F 
ENDBRANCH  49  63
BRANCH  50  74
ATOM     74  C   UNL A   1      49.237  26.850  26.163  1.00  0.00     0.064 A 
ATOM     75  C   UNL A   1      50.208  26.420  27.078  1.00  0.00     0.173 A 
ATOM     76  C   UNL A   1      49.620  26.992  24.822  1.00  0.00     0.173 A 
ATOM     77  F   UNL A   1      49.894  26.288  28.374  1.00  0.00    -0.203 F 
ATOM     78  C   UNL A   1      51.514  26.156  26.670  1.00  0.00     0.198 A 
ATOM     79  C   UNL A   1      50.920  26.700  24.410  1.00  0.00     0.198 A 
ATOM     80  F   UNL A   1      48.727  27.393  23.906  1.00  0.00    -0.203 F 
ATOM     81  F   UNL A   1      52.432  25.783  27.572  1.00  0.00    -0.200 F 
ATOM     82  C   UNL A   1      51.867  26.289  25.336  1.00  0.00     0.200 A 
ATOM     83  F   UNL A   1      51.252  26.813  23.117  1.00  0.00    -0.200 F 
ATOM     84  F   UNL A   1      53.121  26.027  24.943  1.00  0.00    -0.200 F 
ENDBRANCH  50  74
BRANCH  62  85
ATOM     85  C   UNL A   1      45.992  32.586  28.430  1.00  0.00     0.064 A 
ATOM     86  C   UNL A   1      46.612  32.998  29.619  1.00  0.00     0.173 A 
ATOM     87  C   UNL A   1      45.860  33.527  27.397  1.00  0.00     0.173 A 
ATOM     88  F   UNL A   1      46.746  32.140  30.643  1.00  0.00    -0.203 F 
ATOM     89  C   UNL A   1      47.066  34.305  29.773  1.00  0.00     0.198 A 
ATOM     90  C   UNL A   1      46.343  34.824  27.543  1.00  0.00     0.198 A 
ATOM     91  F   UNL A   1      45.279  33.182  26.239  1.00  0.00    -0.203 F 
ATOM     92  F   UNL A   1      47.615  34.689  30.934  1.00  0.00    -0.200 F 
ATOM     93  C   UNL A   1      46.939  35.214  28.733  1.00  0.00     0.200 A 
ATOM     94  F   UNL A   1      46.233  35.696  26.532  1.00  0.00    -0.200 F 
ATOM     95  F   UNL A   1      47.388  36.468  28.878  1.00  0.00    -0.200 F 
ENDBRANCH  62  85
ENDBRANCH  36  37
ENDBRANCH  28  31
ENDBRANCH  26  27
ENDBRANCH  25  26
ENDBRANCH  24  25
ENDBRANCH   3  24
TORSDOF 16
ENDMDL
