MODEL 1
REMARK VINA RESULT:     -11.8      0.000      0.000
REMARK SMILES C[N@@H+](CC(C)(C)C(=O)NCCCNC(=O)c1ccc(-c2c3nc(c(-c4c(F)c(F)c(F)c(F)c4F)c4ccc([nH]4)c(-c4c(F)c(F)c(F)c(F)c4F)c4nc(c(-c5c(F)c(F)c(F)c(F)c5F)c5ccc2[nH]5)C=C4)C=C3)cc1)[C@@H]1CCCC[C@@H]1C[NH3+]
REMARK SMILES IDX 7 1 8 2 9 3 4 5 5 6 6 7 3 8 2 9 1 10 79 12 80 13 84 14 81 15
REMARK SMILES IDX 83 16 82 17 85 18 86 19 10 23 11 24 12 25 13 26 14 27 15 29
REMARK SMILES IDX 16 30 17 31 78 32 18 33 77 34 19 35 20 36 21 37 71 38 22 39
REMARK SMILES IDX 76 40 70 41 72 42 23 43 75 44 69 45 68 46 24 48 56 49 36 50
REMARK SMILES IDX 55 51 37 52 40 53 54 54 73 55 38 56 39 57 53 59 74 60 41 61
REMARK SMILES IDX 25 62 26 63 34 64 27 65 28 66 32 67 35 68 29 69 30 70 33 71
REMARK SMILES IDX 31 72 57 73 58 74 66 75 59 76 60 77 64 78 67 79 61 80 62 81
REMARK SMILES IDX 65 82 63 83 42 84 43 85 51 86 44 87 45 88 49 89 52 90 46 91
REMARK SMILES IDX 47 92 50 93 48 94
REMARK H PARENT 9 4 2 11 86 20 86 21 86 22 13 28 72 47 40 58
REMARK Flexibility Score: inf
ROOT
ATOM      1  C   UNL A   1      31.820  28.455  27.050  1.00  0.00     0.231 C 
ATOM      2  O   UNL A   1      31.377  27.923  28.073  1.00  0.00    -0.274 OA
ATOM      3  N   UNL A   1      31.750  29.806  27.054  1.00  0.00    -0.355 N 
ATOM      4  H   UNL A   1      31.741  30.205  27.955  1.00  0.00     0.163 HD
ENDROOT
BRANCH   1   5
ATOM      5  C   UNL A   1      32.314  27.628  25.854  1.00  0.00     0.092 C 
ATOM      6  C   UNL A   1      33.577  28.122  25.115  1.00  0.00     0.027 C 
ATOM      7  C   UNL A   1      31.152  27.654  24.833  1.00  0.00     0.027 C 
BRANCH   5   8
ATOM      8  C   UNL A   1      32.512  26.145  26.343  1.00  0.00     0.278 C 
BRANCH   8   9
ATOM      9  N   UNL A   1      32.052  24.966  25.580  1.00  0.00    -0.334 N 
ATOM     10  C   UNL A   1      30.910  24.280  26.154  1.00  0.00     0.333 C 
ATOM     11  H   UNL A   1      31.656  25.415  24.754  1.00  0.00     0.348 HD
BRANCH   9  12
ATOM     12  C   UNL A   1      33.021  24.182  24.815  1.00  0.00     0.192 C 
ATOM     13  C   UNL A   1      34.477  24.563  25.170  1.00  0.00     0.065 C 
ATOM     14  C   UNL A   1      32.865  24.081  23.264  1.00  0.00     0.102 C 
ATOM     15  C   UNL A   1      35.451  23.509  24.632  1.00  0.00     0.006 C 
ATOM     16  C   UNL A   1      33.814  22.969  22.767  1.00  0.00     0.015 C 
ATOM     17  C   UNL A   1      35.272  23.237  23.141  1.00  0.00     0.001 C 
BRANCH  14  18
ATOM     18  C   UNL A   1      33.089  25.380  22.449  1.00  0.00     0.268 C 
BRANCH  18  19
ATOM     19  N   UNL A   1      32.196  25.478  21.287  1.00  0.00    -0.357 N 
ATOM     20  H   UNL A   1      32.288  24.639  20.714  1.00  0.00     0.344 HD
ATOM     21  H   UNL A   1      32.447  26.297  20.734  1.00  0.00     0.344 HD
ATOM     22  H   UNL A   1      31.231  25.566  21.607  1.00  0.00     0.344 HD
ENDBRANCH  18  19
ENDBRANCH  14  18
ENDBRANCH   9  12
ENDBRANCH   8   9
ENDBRANCH   5   8
ENDBRANCH   1   5
BRANCH   3  23
ATOM     23  C   UNL A   1      31.684  30.773  25.979  1.00  0.00     0.117 C 
BRANCH  23  24
ATOM     24  C   UNL A   1      31.400  32.163  26.532  1.00  0.00     0.042 C 
BRANCH  24  25
ATOM     25  C   UNL A   1      32.554  32.753  27.332  1.00  0.00     0.118 C 
BRANCH  25  26
ATOM     26  N   UNL A   1      32.369  34.167  27.627  1.00  0.00    -0.352 N 
ATOM     27  C   UNL A   1      32.967  34.955  28.580  1.00  0.00     0.251 C 
ATOM     28  H   UNL A   1      31.714  34.630  27.055  1.00  0.00     0.163 HD
ATOM     29  O   UNL A   1      32.522  36.069  28.826  1.00  0.00    -0.269 OA
BRANCH  27  30
ATOM     30  C   UNL A   1      34.134  34.446  29.331  1.00  0.00     0.039 A 
ATOM     31  C   UNL A   1      33.933  33.866  30.586  1.00  0.00     0.014 A 
ATOM     32  C   UNL A   1      35.424  34.543  28.804  1.00  0.00     0.014 A 
ATOM     33  C   UNL A   1      35.016  33.321  31.276  1.00  0.00     0.010 A 
ATOM     34  C   UNL A   1      36.481  33.902  29.440  1.00  0.00     0.010 A 
ATOM     35  C   UNL A   1      36.291  33.295  30.689  1.00  0.00    -0.014 A 
BRANCH  35  36
ATOM     36  C   UNL A   1      37.440  32.644  31.367  1.00  0.00     0.031 A 
ATOM     37  C   UNL A   1      38.143  31.482  30.722  1.00  0.00     0.074 A 
ATOM     38  C   UNL A   1      37.803  33.053  32.598  1.00  0.00     0.049 A 
ATOM     39  N   UNL A   1      39.127  30.750  31.180  1.00  0.00    -0.248 NA
ATOM     40  C   UNL A   1      37.651  31.064  29.400  1.00  0.00     0.031 C 
ATOM     41  C   UNL A   1      37.157  34.125  33.356  1.00  0.00     0.029 A 
ATOM     42  N   UNL A   1      38.798  32.609  33.432  1.00  0.00    -0.354 N 
ATOM     43  C   UNL A   1      39.356  29.779  30.213  1.00  0.00     0.074 A 
ATOM     44  C   UNL A   1      38.366  29.974  29.177  1.00  0.00     0.031 C 
ATOM     45  C   UNL A   1      37.787  34.273  34.532  1.00  0.00     0.029 A 
ATOM     46  C   UNL A   1      38.853  33.281  34.629  1.00  0.00     0.049 A 
ATOM     47  H   UNL A   1      39.413  31.878  33.196  1.00  0.00     0.167 HD
ATOM     48  C   UNL A   1      40.318  28.827  30.183  1.00  0.00     0.037 A 
ATOM     49  C   UNL A   1      39.664  33.110  35.689  1.00  0.00     0.037 A 
ATOM     50  C   UNL A   1      41.312  28.654  31.210  1.00  0.00     0.049 A 
ATOM     51  C   UNL A   1      40.731  32.052  35.632  1.00  0.00     0.074 A 
ATOM     52  C   UNL A   1      42.380  27.775  31.239  1.00  0.00     0.029 A 
ATOM     53  N   UNL A   1      41.350  29.369  32.400  1.00  0.00    -0.354 N 
ATOM     54  N   UNL A   1      40.998  31.197  34.674  1.00  0.00    -0.248 NA
ATOM     55  C   UNL A   1      41.616  31.941  36.799  1.00  0.00     0.031 C 
ATOM     56  C   UNL A   1      43.023  27.911  32.474  1.00  0.00     0.029 A 
ATOM     57  C   UNL A   1      42.402  28.924  33.187  1.00  0.00     0.049 A 
ATOM     58  H   UNL A   1      40.723  30.085  32.650  1.00  0.00     0.167 HD
ATOM     59  C   UNL A   1      42.092  30.463  35.110  1.00  0.00     0.074 A 
ATOM     60  C   UNL A   1      42.450  30.987  36.413  1.00  0.00     0.031 C 
ATOM     61  C   UNL A   1      42.742  29.448  34.487  1.00  0.00     0.037 A 
BRANCH  48  62
ATOM     62  C   UNL A   1      40.331  27.893  29.005  1.00  0.00     0.064 A 
ATOM     63  C   UNL A   1      41.063  28.174  27.840  1.00  0.00     0.173 A 
ATOM     64  C   UNL A   1      39.602  26.693  29.042  1.00  0.00     0.173 A 
ATOM     65  F   UNL A   1      41.770  29.311  27.744  1.00  0.00    -0.203 F 
ATOM     66  C   UNL A   1      41.027  27.317  26.743  1.00  0.00     0.198 A 
ATOM     67  C   UNL A   1      39.601  25.819  27.959  1.00  0.00     0.198 A 
ATOM     68  F   UNL A   1      38.891  26.368  30.131  1.00  0.00    -0.203 F 
ATOM     69  F   UNL A   1      41.678  27.644  25.618  1.00  0.00    -0.200 F 
ATOM     70  C   UNL A   1      40.301  26.138  26.805  1.00  0.00     0.200 A 
ATOM     71  F   UNL A   1      38.912  24.672  28.027  1.00  0.00    -0.200 F 
ATOM     72  F   UNL A   1      40.269  25.312  25.750  1.00  0.00    -0.200 F 
ENDBRANCH  48  62
BRANCH  49  73
ATOM     73  C   UNL A   1      39.506  33.985  36.880  1.00  0.00     0.064 A 
ATOM     74  C   UNL A   1      38.800  33.549  38.009  1.00  0.00     0.173 A 
ATOM     75  C   UNL A   1      40.085  35.262  36.925  1.00  0.00     0.173 A 
ATOM     76  F   UNL A   1      38.213  32.343  38.008  1.00  0.00    -0.203 F 
ATOM     77  C   UNL A   1      38.670  34.361  39.135  1.00  0.00     0.198 A 
ATOM     78  C   UNL A   1      39.980  36.061  38.062  1.00  0.00     0.198 A 
ATOM     79  F   UNL A   1      40.778  35.723  35.874  1.00  0.00    -0.203 F 
ATOM     80  F   UNL A   1      37.960  33.934  40.188  1.00  0.00    -0.200 F 
ATOM     81  C   UNL A   1      39.267  35.613  39.163  1.00  0.00     0.200 A 
ATOM     82  F   UNL A   1      40.575  37.261  38.092  1.00  0.00    -0.200 F 
ATOM     83  F   UNL A   1      39.155  36.386  40.252  1.00  0.00    -0.200 F 
ENDBRANCH  49  73
BRANCH  61  84
ATOM     84  C   UNL A   1      43.924  28.850  35.196  1.00  0.00     0.064 A 
ATOM     85  C   UNL A   1      45.229  29.319  34.981  1.00  0.00     0.173 A 
ATOM     86  C   UNL A   1      43.744  27.821  36.132  1.00  0.00     0.173 A 
ATOM     87  F   UNL A   1      45.459  30.292  34.087  1.00  0.00    -0.203 F 
ATOM     88  C   UNL A   1      46.312  28.758  35.654  1.00  0.00     0.198 A 
ATOM     89  C   UNL A   1      44.824  27.287  36.829  1.00  0.00     0.198 A 
ATOM     90  F   UNL A   1      42.516  27.340  36.382  1.00  0.00    -0.203 F 
ATOM     91  F   UNL A   1      47.555  29.184  35.391  1.00  0.00    -0.200 F 
ATOM     92  C   UNL A   1      46.107  27.748  36.582  1.00  0.00     0.200 A 
ATOM     93  F   UNL A   1      44.622  26.323  37.739  1.00  0.00    -0.200 F 
ATOM     94  F   UNL A   1      47.149  27.215  37.235  1.00  0.00    -0.200 F 
ENDBRANCH  61  84
ENDBRANCH  35  36
ENDBRANCH  27  30
ENDBRANCH  25  26
ENDBRANCH  24  25
ENDBRANCH  23  24
ENDBRANCH   3  23
TORSDOF 15
ENDMDL
MODEL 2
REMARK VINA RESULT:     -11.6      5.932     11.344
REMARK SMILES C[N@@H+](CC(C)(C)C(=O)NCCCNC(=O)c1ccc(-c2c3nc(c(-c4c(F)c(F)c(F)c(F)c4F)c4ccc([nH]4)c(-c4c(F)c(F)c(F)c(F)c4F)c4nc(c(-c5c(F)c(F)c(F)c(F)c5F)c5ccc2[nH]5)C=C4)C=C3)cc1)[C@@H]1CCCC[C@@H]1C[NH3+]
REMARK SMILES IDX 7 1 8 2 9 3 4 5 5 6 6 7 3 8 2 9 1 10 79 12 80 13 84 14 81 15
REMARK SMILES IDX 83 16 82 17 85 18 86 19 10 23 11 24 12 25 13 26 14 27 15 29
REMARK SMILES IDX 16 30 17 31 78 32 18 33 77 34 19 35 20 36 21 37 71 38 22 39
REMARK SMILES IDX 76 40 70 41 72 42 23 43 75 44 69 45 68 46 24 48 56 49 36 50
REMARK SMILES IDX 55 51 37 52 40 53 54 54 73 55 38 56 39 57 53 59 74 60 41 61
REMARK SMILES IDX 25 62 26 63 34 64 27 65 28 66 32 67 35 68 29 69 30 70 33 71
REMARK SMILES IDX 31 72 57 73 58 74 66 75 59 76 60 77 64 78 67 79 61 80 62 81
REMARK SMILES IDX 65 82 63 83 42 84 43 85 51 86 44 87 45 88 49 89 52 90 46 91
REMARK SMILES IDX 47 92 50 93 48 94
REMARK H PARENT 9 4 2 11 86 20 86 21 86 22 13 28 72 47 40 58
REMARK Flexibility Score: inf
ROOT
ATOM      1  C   UNL A   1      36.378  22.614  23.755  1.00  0.00     0.231 C 
ATOM      2  O   UNL A   1      36.650  23.084  22.646  1.00  0.00    -0.274 OA
ATOM      3  N   UNL A   1      37.154  21.567  24.118  1.00  0.00    -0.355 N 
ATOM      4  H   UNL A   1      38.040  21.556  23.689  1.00  0.00     0.163 HD
ENDROOT
BRANCH   1   5
ATOM      5  C   UNL A   1      35.195  23.131  24.586  1.00  0.00     0.092 C 
ATOM      6  C   UNL A   1      35.381  23.222  26.117  1.00  0.00     0.027 C 
ATOM      7  C   UNL A   1      34.046  22.127  24.329  1.00  0.00     0.027 C 
BRANCH   5   8
ATOM      8  C   UNL A   1      34.771  24.530  24.004  1.00  0.00     0.278 C 
BRANCH   8   9
ATOM      9  N   UNL A   1      33.374  24.892  23.685  1.00  0.00    -0.334 N 
ATOM     10  C   UNL A   1      33.060  24.911  22.269  1.00  0.00     0.333 C 
ATOM     11  H   UNL A   1      32.881  24.063  24.017  1.00  0.00     0.348 HD
BRANCH   9  12
ATOM     12  C   UNL A   1      32.648  25.802  24.570  1.00  0.00     0.192 C 
ATOM     13  C   UNL A   1      33.567  26.400  25.660  1.00  0.00     0.065 C 
ATOM     14  C   UNL A   1      31.305  25.331  25.212  1.00  0.00     0.102 C 
ATOM     15  C   UNL A   1      32.885  27.593  26.338  1.00  0.00     0.006 C 
ATOM     16  C   UNL A   1      30.618  26.568  25.830  1.00  0.00     0.015 C 
ATOM     17  C   UNL A   1      31.495  27.260  26.873  1.00  0.00     0.001 C 
BRANCH  14  18
ATOM     18  C   UNL A   1      31.388  24.188  26.256  1.00  0.00     0.268 C 
BRANCH  18  19
ATOM     19  N   UNL A   1      30.300  23.212  26.112  1.00  0.00    -0.357 N 
ATOM     20  H   UNL A   1      30.689  22.270  26.075  1.00  0.00     0.344 HD
ATOM     21  H   UNL A   1      29.785  23.402  25.253  1.00  0.00     0.344 HD
ATOM     22  H   UNL A   1      29.669  23.287  26.911  1.00  0.00     0.344 HD
ENDBRANCH  18  19
ENDBRANCH  14  18
ENDBRANCH   9  12
ENDBRANCH   8   9
ENDBRANCH   5   8
ENDBRANCH   1   5
BRANCH   3  23
ATOM     23  C   UNL A   1      36.921  20.459  25.020  1.00  0.00     0.117 C 
BRANCH  23  24
ATOM     24  C   UNL A   1      38.103  19.500  24.999  1.00  0.00     0.042 C 
BRANCH  24  25
ATOM     25  C   UNL A   1      39.321  20.010  25.758  1.00  0.00     0.118 C 
BRANCH  25  26
ATOM     26  N   UNL A   1      40.340  18.986  25.940  1.00  0.00    -0.352 N 
ATOM     27  C   UNL A   1      41.695  19.113  26.127  1.00  0.00     0.251 C 
ATOM     28  H   UNL A   1      40.006  18.059  25.926  1.00  0.00     0.163 HD
ATOM     29  O   UNL A   1      42.423  18.132  26.038  1.00  0.00    -0.269 OA
BRANCH  27  30
ATOM     30  C   UNL A   1      42.279  20.441  26.410  1.00  0.00     0.039 A 
ATOM     31  C   UNL A   1      42.852  21.166  25.364  1.00  0.00     0.014 A 
ATOM     32  C   UNL A   1      42.265  20.969  27.703  1.00  0.00     0.014 A 
ATOM     33  C   UNL A   1      43.346  22.449  25.603  1.00  0.00     0.010 A 
ATOM     34  C   UNL A   1      42.655  22.286  27.916  1.00  0.00     0.010 A 
ATOM     35  C   UNL A   1      43.211  23.037  26.871  1.00  0.00    -0.014 A 
BRANCH  35  36
ATOM     36  C   UNL A   1      43.651  24.431  27.127  1.00  0.00     0.031 A 
ATOM     37  C   UNL A   1      42.670  25.458  27.617  1.00  0.00     0.074 A 
ATOM     38  C   UNL A   1      44.919  24.789  26.847  1.00  0.00     0.049 A 
ATOM     39  N   UNL A   1      42.850  26.735  27.846  1.00  0.00    -0.248 NA
ATOM     40  C   UNL A   1      41.292  24.998  27.850  1.00  0.00     0.031 C 
ATOM     41  C   UNL A   1      45.947  23.900  26.303  1.00  0.00     0.029 A 
ATOM     42  N   UNL A   1      45.556  25.998  26.970  1.00  0.00    -0.354 N 
ATOM     43  C   UNL A   1      41.609  27.228  28.228  1.00  0.00     0.074 A 
ATOM     44  C   UNL A   1      40.673  26.131  28.136  1.00  0.00     0.031 C 
ATOM     45  C   UNL A   1      47.092  24.586  26.164  1.00  0.00     0.029 A 
ATOM     46  C   UNL A   1      46.870  25.970  26.567  1.00  0.00     0.049 A 
ATOM     47  H   UNL A   1      45.115  26.807  27.313  1.00  0.00     0.167 HD
ATOM     48  C   UNL A   1      41.287  28.478  28.639  1.00  0.00     0.037 A 
ATOM     49  C   UNL A   1      47.788  26.953  26.519  1.00  0.00     0.037 A 
ATOM     50  C   UNL A   1      42.231  29.559  28.746  1.00  0.00     0.049 A 
ATOM     51  C   UNL A   1      47.412  28.331  26.988  1.00  0.00     0.074 A 
ATOM     52  C   UNL A   1      42.027  30.839  29.229  1.00  0.00     0.029 A 
ATOM     53  N   UNL A   1      43.560  29.488  28.350  1.00  0.00    -0.354 N 
ATOM     54  N   UNL A   1      46.257  28.767  27.434  1.00  0.00    -0.248 NA
ATOM     55  C   UNL A   1      48.467  29.352  26.956  1.00  0.00     0.031 C 
ATOM     56  C   UNL A   1      43.212  31.563  29.062  1.00  0.00     0.029 A 
ATOM     57  C   UNL A   1      44.178  30.715  28.542  1.00  0.00     0.049 A 
ATOM     58  H   UNL A   1      43.999  28.687  27.985  1.00  0.00     0.167 HD
ATOM     59  C   UNL A   1      46.451  30.103  27.756  1.00  0.00     0.074 A 
ATOM     60  C   UNL A   1      47.841  30.401  27.470  1.00  0.00     0.031 C 
ATOM     61  C   UNL A   1      45.560  31.001  28.245  1.00  0.00     0.037 A 
BRANCH  48  62
ATOM     62  C   UNL A   1      39.849  28.740  28.991  1.00  0.00     0.064 A 
ATOM     63  C   UNL A   1      38.917  29.178  28.037  1.00  0.00     0.173 A 
ATOM     64  C   UNL A   1      39.393  28.546  30.305  1.00  0.00     0.173 A 
ATOM     65  F   UNL A   1      39.298  29.391  26.768  1.00  0.00    -0.203 F 
ATOM     66  C   UNL A   1      37.599  29.457  28.392  1.00  0.00     0.198 A 
ATOM     67  C   UNL A   1      38.066  28.788  30.648  1.00  0.00     0.198 A 
ATOM     68  F   UNL A   1      40.236  28.121  31.258  1.00  0.00    -0.203 F 
ATOM     69  F   UNL A   1      36.748  29.942  27.477  1.00  0.00    -0.200 F 
ATOM     70  C   UNL A   1      37.173  29.256  29.696  1.00  0.00     0.200 A 
ATOM     71  F   UNL A   1      37.652  28.577  31.905  1.00  0.00    -0.200 F 
ATOM     72  F   UNL A   1      35.905  29.523  30.037  1.00  0.00    -0.200 F 
ENDBRANCH  48  62
BRANCH  49  73
ATOM     73  C   UNL A   1      49.159  26.651  26.031  1.00  0.00     0.064 A 
ATOM     74  C   UNL A   1      50.111  26.057  26.870  1.00  0.00     0.173 A 
ATOM     75  C   UNL A   1      49.534  26.919  24.706  1.00  0.00     0.173 A 
ATOM     76  F   UNL A   1      49.806  25.797  28.151  1.00  0.00    -0.203 F 
ATOM     77  C   UNL A   1      51.390  25.754  26.407  1.00  0.00     0.198 A 
ATOM     78  C   UNL A   1      50.804  26.588  24.236  1.00  0.00     0.198 A 
ATOM     79  F   UNL A   1      48.658  27.479  23.859  1.00  0.00    -0.203 F 
ATOM     80  F   UNL A   1      52.292  25.218  27.241  1.00  0.00    -0.200 F 
ATOM     81  C   UNL A   1      51.733  26.011  25.088  1.00  0.00     0.200 A 
ATOM     82  F   UNL A   1      51.123  26.821  22.955  1.00  0.00    -0.200 F 
ATOM     83  F   UNL A   1      52.957  25.704  24.639  1.00  0.00    -0.200 F 
ENDBRANCH  49  73
BRANCH  61  84
ATOM     84  C   UNL A   1      46.065  32.388  28.527  1.00  0.00     0.064 A 
ATOM     85  C   UNL A   1      46.634  32.730  29.762  1.00  0.00     0.173 A 
ATOM     86  C   UNL A   1      46.013  33.377  27.533  1.00  0.00     0.173 A 
ATOM     87  F   UNL A   1      46.696  31.826  30.752  1.00  0.00    -0.203 F 
ATOM     88  C   UNL A   1      47.105  34.019  30.002  1.00  0.00     0.198 A 
ATOM     89  C   UNL A   1      46.517  34.654  27.764  1.00  0.00     0.198 A 
ATOM     90  F   UNL A   1      45.485  33.101  26.330  1.00  0.00    -0.203 F 
ATOM     91  F   UNL A   1      47.593  34.338  31.209  1.00  0.00    -0.200 F 
ATOM     92  C   UNL A   1      47.052  34.977  29.001  1.00  0.00     0.200 A 
ATOM     93  F   UNL A   1      46.482  35.573  26.789  1.00  0.00    -0.200 F 
ATOM     94  F   UNL A   1      47.512  36.215  29.230  1.00  0.00    -0.200 F 
ENDBRANCH  61  84
ENDBRANCH  35  36
ENDBRANCH  27  30
ENDBRANCH  25  26
ENDBRANCH  24  25
ENDBRANCH  23  24
ENDBRANCH   3  23
TORSDOF 15
ENDMDL
MODEL 3
REMARK VINA RESULT:     -11.6      0.606      7.544
REMARK SMILES C[N@@H+](CC(C)(C)C(=O)NCCCNC(=O)c1ccc(-c2c3nc(c(-c4c(F)c(F)c(F)c(F)c4F)c4ccc([nH]4)c(-c4c(F)c(F)c(F)c(F)c4F)c4nc(c(-c5c(F)c(F)c(F)c(F)c5F)c5ccc2[nH]5)C=C4)C=C3)cc1)[C@@H]1CCCC[C@@H]1C[NH3+]
REMARK SMILES IDX 7 1 8 2 9 3 4 5 5 6 6 7 3 8 2 9 1 10 79 12 80 13 84 14 81 15
REMARK SMILES IDX 83 16 82 17 85 18 86 19 10 23 11 24 12 25 13 26 14 27 15 29
REMARK SMILES IDX 16 30 17 31 78 32 18 33 77 34 19 35 20 36 21 37 71 38 22 39
REMARK SMILES IDX 76 40 70 41 72 42 23 43 75 44 69 45 68 46 24 48 56 49 36 50
REMARK SMILES IDX 55 51 37 52 40 53 54 54 73 55 38 56 39 57 53 59 74 60 41 61
REMARK SMILES IDX 25 62 26 63 34 64 27 65 28 66 32 67 35 68 29 69 30 70 33 71
REMARK SMILES IDX 31 72 57 73 58 74 66 75 59 76 60 77 64 78 67 79 61 80 62 81
REMARK SMILES IDX 65 82 63 83 42 84 43 85 51 86 44 87 45 88 49 89 52 90 46 91
REMARK SMILES IDX 47 92 50 93 48 94
REMARK H PARENT 9 4 2 11 86 20 86 21 86 22 13 28 72 47 40 58
REMARK Flexibility Score: inf
ROOT
ATOM      1  C   UNL A   1      31.814  28.476  27.076  1.00  0.00     0.231 C 
ATOM      2  O   UNL A   1      31.375  27.899  28.076  1.00  0.00    -0.274 OA
ATOM      3  N   UNL A   1      31.702  29.824  27.120  1.00  0.00    -0.355 N 
ATOM      4  H   UNL A   1      31.670  30.194  28.033  1.00  0.00     0.163 HD
ENDROOT
BRANCH   1   5
ATOM      5  C   UNL A   1      32.346  27.702  25.862  1.00  0.00     0.092 C 
ATOM      6  C   UNL A   1      33.618  28.241  25.171  1.00  0.00     0.027 C 
ATOM      7  C   UNL A   1      31.208  27.749  24.816  1.00  0.00     0.027 C 
BRANCH   5   8
ATOM      8  C   UNL A   1      32.557  26.205  26.299  1.00  0.00     0.278 C 
BRANCH   8   9
ATOM      9  N   UNL A   1      32.100  25.049  25.500  1.00  0.00    -0.334 N 
ATOM     10  C   UNL A   1      30.906  24.396  26.005  1.00  0.00     0.333 C 
ATOM     11  H   UNL A   1      31.764  25.519  24.659  1.00  0.00     0.348 HD
BRANCH   9  12
ATOM     12  C   UNL A   1      33.082  24.241  24.779  1.00  0.00     0.192 C 
ATOM     13  C   UNL A   1      34.531  24.633  25.146  1.00  0.00     0.065 C 
ATOM     14  C   UNL A   1      32.953  24.087  23.230  1.00  0.00     0.102 C 
ATOM     15  C   UNL A   1      35.515  23.563  24.661  1.00  0.00     0.006 C 
ATOM     16  C   UNL A   1      33.911  22.959  22.787  1.00  0.00     0.015 C 
ATOM     17  C   UNL A   1      35.362  23.241  23.177  1.00  0.00     0.001 C 
BRANCH  14  18
ATOM     18  C   UNL A   1      33.191  25.358  22.376  1.00  0.00     0.268 C 
BRANCH  18  19
ATOM     19  N   UNL A   1      32.357  25.390  21.167  1.00  0.00    -0.357 N 
ATOM     20  H   UNL A   1      32.941  25.586  20.355  1.00  0.00     0.344 HD
ATOM     21  H   UNL A   1      31.650  26.120  21.262  1.00  0.00     0.344 HD
ATOM     22  H   UNL A   1      31.898  24.487  21.047  1.00  0.00     0.344 HD
ENDBRANCH  18  19
ENDBRANCH  14  18
ENDBRANCH   9  12
ENDBRANCH   8   9
ENDBRANCH   5   8
ENDBRANCH   1   5
BRANCH   3  23
ATOM     23  C   UNL A   1      31.619  30.821  26.075  1.00  0.00     0.117 C 
BRANCH  23  24
ATOM     24  C   UNL A   1      31.404  32.203  26.676  1.00  0.00     0.042 C 
BRANCH  24  25
ATOM     25  C   UNL A   1      32.689  32.875  27.144  1.00  0.00     0.118 C 
BRANCH  25  26
ATOM     26  N   UNL A   1      32.469  34.229  27.634  1.00  0.00    -0.352 N 
ATOM     27  C   UNL A   1      33.034  34.883  28.702  1.00  0.00     0.251 C 
ATOM     28  H   UNL A   1      31.813  34.756  27.122  1.00  0.00     0.163 HD
ATOM     29  O   UNL A   1      32.561  35.943  29.095  1.00  0.00    -0.269 OA
BRANCH  27  30
ATOM     30  C   UNL A   1      34.200  34.295  29.394  1.00  0.00     0.039 A 
ATOM     31  C   UNL A   1      33.994  33.564  30.566  1.00  0.00     0.014 A 
ATOM     32  C   UNL A   1      35.492  34.465  28.894  1.00  0.00     0.014 A 
ATOM     33  C   UNL A   1      35.076  32.945  31.193  1.00  0.00     0.010 A 
ATOM     34  C   UNL A   1      36.550  33.759  29.456  1.00  0.00     0.010 A 
ATOM     35  C   UNL A   1      36.356  33.001  30.619  1.00  0.00    -0.014 A 
BRANCH  35  36
ATOM     36  C   UNL A   1      37.504  32.280  31.222  1.00  0.00     0.031 A 
ATOM     37  C   UNL A   1      38.006  32.659  32.587  1.00  0.00     0.074 A 
ATOM     38  C   UNL A   1      38.142  31.333  30.508  1.00  0.00     0.049 A 
ATOM     39  N   UNL A   1      39.026  32.185  33.257  1.00  0.00    -0.248 NA
ATOM     40  C   UNL A   1      37.285  33.739  33.279  1.00  0.00     0.031 C 
ATOM     41  C   UNL A   1      37.794  30.923  29.147  1.00  0.00     0.029 A 
ATOM     42  N   UNL A   1      39.225  30.551  30.823  1.00  0.00    -0.354 N 
ATOM     43  C   UNL A   1      39.078  32.921  34.434  1.00  0.00     0.074 A 
ATOM     44  C   UNL A   1      38.030  33.914  34.358  1.00  0.00     0.031 C 
ATOM     45  C   UNL A   1      38.629  29.948  28.754  1.00  0.00     0.029 A 
ATOM     46  C   UNL A   1      39.596  29.694  29.816  1.00  0.00     0.049 A 
ATOM     47  H   UNL A   1      39.692  30.600  31.688  1.00  0.00     0.167 HD
ATOM     48  C   UNL A   1      39.910  32.766  35.492  1.00  0.00     0.037 A 
ATOM     49  C   UNL A   1      40.610  28.809  29.752  1.00  0.00     0.037 A 
ATOM     50  C   UNL A   1      40.937  31.761  35.567  1.00  0.00     0.049 A 
ATOM     51  C   UNL A   1      41.517  28.648  30.940  1.00  0.00     0.074 A 
ATOM     52  C   UNL A   1      41.780  31.464  36.623  1.00  0.00     0.029 A 
ATOM     53  N   UNL A   1      41.271  30.894  34.535  1.00  0.00    -0.354 N 
ATOM     54  N   UNL A   1      41.501  29.286  32.085  1.00  0.00    -0.248 NA
ATOM     55  C   UNL A   1      42.576  27.636  30.830  1.00  0.00     0.031 C 
ATOM     56  C   UNL A   1      42.667  30.466  36.208  1.00  0.00     0.029 A 
ATOM     57  C   UNL A   1      42.332  30.088  34.917  1.00  0.00     0.049 A 
ATOM     58  H   UNL A   1      40.821  30.857  33.660  1.00  0.00     0.167 HD
ATOM     59  C   UNL A   1      42.531  28.741  32.841  1.00  0.00     0.074 A 
ATOM     60  C   UNL A   1      43.138  27.706  32.028  1.00  0.00     0.031 C 
ATOM     61  C   UNL A   1      42.934  29.067  34.094  1.00  0.00     0.037 A 
BRANCH  48  62
ATOM     62  C   UNL A   1      39.747  33.717  36.645  1.00  0.00     0.064 A 
ATOM     63  C   UNL A   1      38.930  33.417  37.747  1.00  0.00     0.173 A 
ATOM     64  C   UNL A   1      40.424  34.947  36.652  1.00  0.00     0.173 A 
ATOM     65  F   UNL A   1      38.250  32.261  37.789  1.00  0.00    -0.203 F 
ATOM     66  C   UNL A   1      38.758  34.329  38.785  1.00  0.00     0.198 A 
ATOM     67  C   UNL A   1      40.282  35.839  37.711  1.00  0.00     0.198 A 
ATOM     68  F   UNL A   1      41.225  35.283  35.631  1.00  0.00    -0.203 F 
ATOM     69  F   UNL A   1      37.916  34.048  39.790  1.00  0.00    -0.200 F 
ATOM     70  C   UNL A   1      39.439  35.537  38.769  1.00  0.00     0.200 A 
ATOM     71  F   UNL A   1      40.953  36.999  37.702  1.00  0.00    -0.200 F 
ATOM     72  F   UNL A   1      39.275  36.414  39.769  1.00  0.00    -0.200 F 
ENDBRANCH  48  62
BRANCH  49  73
ATOM     73  C   UNL A   1      40.793  27.995  28.522  1.00  0.00     0.064 A 
ATOM     74  C   UNL A   1      40.161  26.753  28.377  1.00  0.00     0.173 A 
ATOM     75  C   UNL A   1      41.578  28.456  27.456  1.00  0.00     0.173 A 
ATOM     76  F   UNL A   1      39.413  26.261  29.376  1.00  0.00    -0.203 F 
ATOM     77  C   UNL A   1      40.315  25.998  27.215  1.00  0.00     0.198 A 
ATOM     78  C   UNL A   1      41.708  27.714  26.283  1.00  0.00     0.198 A 
ATOM     79  F   UNL A   1      42.199  29.642  27.541  1.00  0.00    -0.203 F 
ATOM     80  F   UNL A   1      39.727  24.798  27.116  1.00  0.00    -0.200 F 
ATOM     81  C   UNL A   1      41.082  26.483  26.166  1.00  0.00     0.200 A 
ATOM     82  F   UNL A   1      42.433  28.197  25.265  1.00  0.00    -0.200 F 
ATOM     83  F   UNL A   1      41.216  25.764  25.043  1.00  0.00    -0.200 F 
ENDBRANCH  49  73
BRANCH  61  84
ATOM     84  C   UNL A   1      44.074  28.280  34.676  1.00  0.00     0.064 A 
ATOM     85  C   UNL A   1      43.865  27.075  35.362  1.00  0.00     0.173 A 
ATOM     86  C   UNL A   1      45.396  28.719  34.511  1.00  0.00     0.173 A 
ATOM     87  F   UNL A   1      42.620  26.616  35.561  1.00  0.00    -0.203 F 
ATOM     88  C   UNL A   1      44.936  26.354  35.888  1.00  0.00     0.198 A 
ATOM     89  C   UNL A   1      46.466  27.978  35.006  1.00  0.00     0.198 A 
ATOM     90  F   UNL A   1      45.654  29.862  33.856  1.00  0.00    -0.203 F 
ATOM     91  F   UNL A   1      44.708  25.234  36.588  1.00  0.00    -0.200 F 
ATOM     92  C   UNL A   1      46.234  26.803  35.703  1.00  0.00     0.200 A 
ATOM     93  F   UNL A   1      47.722  28.404  34.811  1.00  0.00    -0.200 F 
ATOM     94  F   UNL A   1      47.264  26.105  36.202  1.00  0.00    -0.200 F 
ENDBRANCH  61  84
ENDBRANCH  35  36
ENDBRANCH  27  30
ENDBRANCH  25  26
ENDBRANCH  24  25
ENDBRANCH  23  24
ENDBRANCH   3  23
TORSDOF 15
ENDMDL
