MODEL 1
REMARK VINA RESULT:     -12.2      0.000      0.000
REMARK SMILES Cc1nc(CNC(=O)[C@H]2CCO[C@H]2C)sc1C(=O)NCCCNC(=O)c1ccc(-c2c3nc(c(-c4c(F)c(F)c(F)c(F)c4F)c4ccc([nH]4)c(-c4c(F)c(F)c(F)c(F)c4F)c4nc(c(-c5c(F)c(F)c(F)c(F)c5F)c5ccc2[nH]5)C=C4)C=C3)cc1
REMARK SMILES IDX 20 1 19 2 17 3 18 4 16 6 1 7 2 8 3 9 4 10 15 11 5 12 6 13
REMARK SMILES IDX 7 14 8 16 9 17 10 18 13 19 11 20 12 21 14 22 21 23 22 24
REMARK SMILES IDX 23 25 24 26 25 28 26 29 27 30 88 31 28 32 87 33 29 34 30 35
REMARK SMILES IDX 31 36 81 37 32 38 86 39 80 40 82 41 33 42 85 43 79 44 78 45
REMARK SMILES IDX 34 47 66 48 46 49 65 50 47 51 50 52 64 53 83 54 48 55 49 56
REMARK SMILES IDX 63 58 84 59 51 60 35 61 36 62 44 63 37 64 38 65 42 66 45 67
REMARK SMILES IDX 39 68 40 69 43 70 41 71 67 72 68 73 76 74 69 75 70 76 74 77
REMARK SMILES IDX 77 78 71 79 72 80 75 81 73 82 52 83 53 84 61 85 54 86 55 87
REMARK SMILES IDX 59 88 62 89 56 90 57 91 60 92 58 93
REMARK H PARENT 19 5 6 15 23 27 82 46 50 57
REMARK Flexibility Score: inf
ROOT
ATOM      1  C   UNL A   1      31.369  30.877  26.020  1.00  0.00     0.118 C 
ENDROOT
BRANCH   1   2
ATOM      2  N   UNL A   1      30.684  30.697  24.761  1.00  0.00    -0.351 N 
ATOM      3  C   UNL A   1      30.532  29.640  23.902  1.00  0.00     0.263 C 
ATOM      4  O   UNL A   1      29.836  29.920  22.919  1.00  0.00    -0.268 OA
ATOM      5  H   UNL A   1      30.225  31.512  24.453  1.00  0.00     0.163 HD
BRANCH   3   6
ATOM      6  C   UNL A   1      31.085  28.306  24.108  1.00  0.00     0.115 A 
ATOM      7  C   UNL A   1      33.708  28.295  24.277  1.00  0.00     0.068 C 
ATOM      8  C   UNL A   1      32.339  27.723  24.275  1.00  0.00     0.061 A 
ATOM      9  N   UNL A   1      32.331  26.339  24.397  1.00  0.00    -0.244 NA
ATOM     10  C   UNL A   1      31.130  25.848  24.221  1.00  0.00     0.113 A 
ATOM     11  S   UNL A   1      29.903  27.015  24.061  1.00  0.00    -0.111 S 
BRANCH  10  12
ATOM     12  C   UNL A   1      30.829  24.382  24.142  1.00  0.00     0.183 C 
BRANCH  12  13
ATOM     13  N   UNL A   1      30.280  23.946  25.419  1.00  0.00    -0.349 N 
ATOM     14  C   UNL A   1      30.894  23.323  26.463  1.00  0.00     0.226 C 
ATOM     15  H   UNL A   1      29.322  24.129  25.547  1.00  0.00     0.163 HD
ATOM     16  O   UNL A   1      30.201  22.972  27.418  1.00  0.00    -0.275 OA
BRANCH  14  17
ATOM     17  C   UNL A   1      32.394  23.118  26.433  1.00  0.00     0.109 C 
ATOM     18  C   UNL A   1      32.960  22.526  27.710  1.00  0.00     0.044 C 
ATOM     19  C   UNL A   1      32.899  22.125  25.392  1.00  0.00     0.127 C 
ATOM     20  C   UNL A   1      34.317  22.040  27.253  1.00  0.00     0.161 C 
ATOM     21  O   UNL A   1      34.207  21.718  25.858  1.00  0.00    -0.378 OA
ATOM     22  C   UNL A   1      32.071  20.853  25.227  1.00  0.00     0.039 C 
ENDBRANCH  14  17
ENDBRANCH  12  13
ENDBRANCH  10  12
ENDBRANCH   3   6
ENDBRANCH   1   2
BRANCH   1  23
ATOM     23  C   UNL A   1      31.276  32.330  26.480  1.00  0.00     0.042 C 
BRANCH  23  24
ATOM     24  C   UNL A   1      32.576  32.876  27.060  1.00  0.00     0.118 C 
BRANCH  24  25
ATOM     25  N   UNL A   1      32.415  34.223  27.581  1.00  0.00    -0.352 N 
ATOM     26  C   UNL A   1      33.017  34.838  28.651  1.00  0.00     0.251 C 
ATOM     27  H   UNL A   1      31.771  34.784  27.090  1.00  0.00     0.163 HD
ATOM     28  O   UNL A   1      32.564  35.901  29.065  1.00  0.00    -0.269 OA
BRANCH  26  29
ATOM     29  C   UNL A   1      34.199  34.240  29.318  1.00  0.00     0.039 A 
ATOM     30  C   UNL A   1      35.473  34.556  28.834  1.00  0.00     0.014 A 
ATOM     31  C   UNL A   1      34.065  33.322  30.363  1.00  0.00     0.014 A 
ATOM     32  C   UNL A   1      36.608  33.991  29.423  1.00  0.00     0.010 A 
ATOM     33  C   UNL A   1      35.199  32.817  30.999  1.00  0.00     0.010 A 
ATOM     34  C   UNL A   1      36.481  33.136  30.528  1.00  0.00    -0.014 A 
BRANCH  34  35
ATOM     35  C   UNL A   1      37.673  32.546  31.191  1.00  0.00     0.031 A 
ATOM     36  C   UNL A   1      38.436  31.435  30.521  1.00  0.00     0.074 A 
ATOM     37  C   UNL A   1      38.028  32.960  32.421  1.00  0.00     0.049 A 
ATOM     38  N   UNL A   1      39.435  30.722  30.977  1.00  0.00    -0.248 NA
ATOM     39  C   UNL A   1      37.999  31.057  29.168  1.00  0.00     0.031 C 
ATOM     40  C   UNL A   1      37.345  34.000  33.192  1.00  0.00     0.029 A 
ATOM     41  N   UNL A   1      39.042  32.545  33.249  1.00  0.00    -0.354 N 
ATOM     42  C   UNL A   1      39.729  29.801  29.980  1.00  0.00     0.074 A 
ATOM     43  C   UNL A   1      38.776  30.015  28.913  1.00  0.00     0.031 C 
ATOM     44  C   UNL A   1      37.966  34.150  34.373  1.00  0.00     0.029 A 
ATOM     45  C   UNL A   1      39.066  33.194  34.459  1.00  0.00     0.049 A 
ATOM     46  H   UNL A   1      39.691  31.847  32.998  1.00  0.00     0.167 HD
ATOM     47  C   UNL A   1      40.717  28.875  29.949  1.00  0.00     0.037 A 
ATOM     48  C   UNL A   1      39.876  33.028  35.522  1.00  0.00     0.037 A 
ATOM     49  C   UNL A   1      41.685  28.687  30.997  1.00  0.00     0.049 A 
ATOM     50  C   UNL A   1      40.971  31.999  35.459  1.00  0.00     0.074 A 
ATOM     51  C   UNL A   1      42.760  27.816  31.035  1.00  0.00     0.029 A 
ATOM     52  N   UNL A   1      41.695  29.387  32.194  1.00  0.00    -0.354 N 
ATOM     53  N   UNL A   1      41.273  31.172  34.488  1.00  0.00    -0.248 NA
ATOM     54  C   UNL A   1      41.844  31.887  36.636  1.00  0.00     0.031 C 
ATOM     55  C   UNL A   1      43.400  27.963  32.271  1.00  0.00     0.029 A 
ATOM     56  C   UNL A   1      42.750  28.957  32.985  1.00  0.00     0.049 A 
ATOM     57  H   UNL A   1      41.050  30.087  32.446  1.00  0.00     0.167 HD
ATOM     58  C   UNL A   1      42.380  30.458  34.925  1.00  0.00     0.074 A 
ATOM     59  C   UNL A   1      42.707  30.961  36.243  1.00  0.00     0.031 C 
ATOM     60  C   UNL A   1      43.064  29.475  34.291  1.00  0.00     0.037 A 
BRANCH  47  61
ATOM     61  C   UNL A   1      40.805  27.993  28.736  1.00  0.00     0.064 A 
ATOM     62  C   UNL A   1      40.079  26.796  28.644  1.00  0.00     0.173 A 
ATOM     63  C   UNL A   1      41.594  28.368  27.638  1.00  0.00     0.173 A 
ATOM     64  F   UNL A   1      39.319  26.387  29.671  1.00  0.00    -0.203 F 
ATOM     65  C   UNL A   1      40.163  25.992  27.510  1.00  0.00     0.198 A 
ATOM     66  C   UNL A   1      41.653  27.576  26.494  1.00  0.00     0.198 A 
ATOM     67  F   UNL A   1      42.302  29.507  27.671  1.00  0.00    -0.203 F 
ATOM     68  F   UNL A   1      39.499  24.829  27.465  1.00  0.00    -0.200 F 
ATOM     69  C   UNL A   1      40.944  26.386  26.434  1.00  0.00     0.200 A 
ATOM     70  F   UNL A   1      42.398  27.964  25.450  1.00  0.00    -0.200 F 
ATOM     71  F   UNL A   1      41.019  25.614  25.341  1.00  0.00    -0.200 F 
ENDBRANCH  47  61
BRANCH  48  72
ATOM     72  C   UNL A   1      39.691  33.872  36.730  1.00  0.00     0.064 A 
ATOM     73  C   UNL A   1      40.312  35.125  36.832  1.00  0.00     0.173 A 
ATOM     74  C   UNL A   1      38.890  33.452  37.800  1.00  0.00     0.173 A 
ATOM     75  F   UNL A   1      41.106  35.562  35.842  1.00  0.00    -0.203 F 
ATOM     76  C   UNL A   1      40.151  35.918  37.966  1.00  0.00     0.198 A 
ATOM     77  C   UNL A   1      38.708  34.257  38.923  1.00  0.00     0.198 A 
ATOM     78  F   UNL A   1      38.270  32.264  37.748  1.00  0.00    -0.203 F 
ATOM     79  F   UNL A   1      40.788  37.094  38.054  1.00  0.00    -0.200 F 
ATOM     80  C   UNL A   1      39.344  35.487  39.008  1.00  0.00     0.200 A 
ATOM     81  F   UNL A   1      37.917  33.842  39.922  1.00  0.00    -0.200 F 
ATOM     82  F   UNL A   1      39.185  36.251  40.096  1.00  0.00    -0.200 F 
ENDBRANCH  48  72
BRANCH  60  83
ATOM     83  C   UNL A   1      44.254  28.899  35.000  1.00  0.00     0.064 A 
ATOM     84  C   UNL A   1      44.139  27.778  35.834  1.00  0.00     0.173 A 
ATOM     85  C   UNL A   1      45.530  29.449  34.806  1.00  0.00     0.173 A 
ATOM     86  F   UNL A   1      42.938  27.227  36.064  1.00  0.00    -0.203 F 
ATOM     87  C   UNL A   1      45.257  27.241  36.466  1.00  0.00     0.198 A 
ATOM     88  C   UNL A   1      46.650  28.891  35.417  1.00  0.00     0.198 A 
ATOM     89  F   UNL A   1      45.693  30.517  34.011  1.00  0.00    -0.203 F 
ATOM     90  F   UNL A   1      45.121  26.194  37.292  1.00  0.00    -0.200 F 
ATOM     91  C   UNL A   1      46.512  27.792  36.251  1.00  0.00     0.200 A 
ATOM     92  F   UNL A   1      47.862  29.419  35.199  1.00  0.00    -0.200 F 
ATOM     93  F   UNL A   1      47.588  27.269  36.853  1.00  0.00    -0.200 F 
ENDBRANCH  60  83
ENDBRANCH  34  35
ENDBRANCH  26  29
ENDBRANCH  24  25
ENDBRANCH  23  24
ENDBRANCH   1  23
TORSDOF 13
ENDMDL
MODEL 2
REMARK VINA RESULT:     -12.2      5.296     10.992
REMARK SMILES Cc1nc(CNC(=O)[C@H]2CCO[C@H]2C)sc1C(=O)NCCCNC(=O)c1ccc(-c2c3nc(c(-c4c(F)c(F)c(F)c(F)c4F)c4ccc([nH]4)c(-c4c(F)c(F)c(F)c(F)c4F)c4nc(c(-c5c(F)c(F)c(F)c(F)c5F)c5ccc2[nH]5)C=C4)C=C3)cc1
REMARK SMILES IDX 20 1 19 2 17 3 18 4 16 6 1 7 2 8 3 9 4 10 15 11 5 12 6 13
REMARK SMILES IDX 7 14 8 16 9 17 10 18 13 19 11 20 12 21 14 22 21 23 22 24
REMARK SMILES IDX 23 25 24 26 25 28 26 29 27 30 88 31 28 32 87 33 29 34 30 35
REMARK SMILES IDX 31 36 81 37 32 38 86 39 80 40 82 41 33 42 85 43 79 44 78 45
REMARK SMILES IDX 34 47 66 48 46 49 65 50 47 51 50 52 64 53 83 54 48 55 49 56
REMARK SMILES IDX 63 58 84 59 51 60 35 61 36 62 44 63 37 64 38 65 42 66 45 67
REMARK SMILES IDX 39 68 40 69 43 70 41 71 67 72 68 73 76 74 69 75 70 76 74 77
REMARK SMILES IDX 77 78 71 79 72 80 75 81 73 82 52 83 53 84 61 85 54 86 55 87
REMARK SMILES IDX 59 88 62 89 56 90 57 91 60 92 58 93
REMARK H PARENT 19 5 6 15 23 27 82 46 50 57
REMARK Flexibility Score: inf
ROOT
ATOM      1  C   UNL A   1      36.568  20.230  24.999  1.00  0.00     0.118 C 
ENDROOT
BRANCH   1   2
ATOM      2  N   UNL A   1      35.416  19.371  24.857  1.00  0.00    -0.351 N 
ATOM      3  C   UNL A   1      34.062  19.578  24.915  1.00  0.00     0.263 C 
ATOM      4  O   UNL A   1      33.412  18.544  24.716  1.00  0.00    -0.268 OA
ATOM      5  H   UNL A   1      35.654  18.433  24.679  1.00  0.00     0.163 HD
BRANCH   3   6
ATOM      6  C   UNL A   1      33.419  20.867  25.146  1.00  0.00     0.115 A 
ATOM      7  C   UNL A   1      33.870  21.824  27.552  1.00  0.00     0.068 C 
ATOM      8  C   UNL A   1      33.323  21.803  26.173  1.00  0.00     0.061 A 
ATOM      9  N   UNL A   1      32.515  22.898  25.896  1.00  0.00    -0.244 NA
ATOM     10  C   UNL A   1      31.912  22.771  24.741  1.00  0.00     0.113 A 
ATOM     11  S   UNL A   1      32.396  21.413  23.835  1.00  0.00    -0.111 S 
BRANCH  10  12
ATOM     12  C   UNL A   1      30.862  23.713  24.235  1.00  0.00     0.183 C 
BRANCH  12  13
ATOM     13  N   UNL A   1      30.431  24.567  25.333  1.00  0.00    -0.349 N 
ATOM     14  C   UNL A   1      30.695  25.882  25.569  1.00  0.00     0.226 C 
ATOM     15  H   UNL A   1      29.861  24.128  26.005  1.00  0.00     0.163 HD
ATOM     16  O   UNL A   1      30.284  26.377  26.618  1.00  0.00    -0.275 OA
BRANCH  14  17
ATOM     17  C   UNL A   1      31.442  26.691  24.531  1.00  0.00     0.109 C 
ATOM     18  C   UNL A   1      31.340  28.192  24.729  1.00  0.00     0.044 C 
ATOM     19  C   UNL A   1      32.954  26.493  24.509  1.00  0.00     0.127 C 
ATOM     20  C   UNL A   1      32.482  28.697  23.876  1.00  0.00     0.161 C 
ATOM     21  O   UNL A   1      33.482  27.667  23.848  1.00  0.00    -0.378 OA
ATOM     22  C   UNL A   1      33.635  26.408  25.873  1.00  0.00     0.039 C 
ENDBRANCH  14  17
ENDBRANCH  12  13
ENDBRANCH  10  12
ENDBRANCH   3   6
ENDBRANCH   1   2
BRANCH   1  23
ATOM     23  C   UNL A   1      37.857  19.410  24.960  1.00  0.00     0.042 C 
BRANCH  23  24
ATOM     24  C   UNL A   1      39.019  20.056  25.706  1.00  0.00     0.118 C 
BRANCH  24  25
ATOM     25  N   UNL A   1      40.130  19.135  25.882  1.00  0.00    -0.352 N 
ATOM     26  C   UNL A   1      41.467  19.385  26.072  1.00  0.00     0.251 C 
ATOM     27  H   UNL A   1      39.885  18.182  25.861  1.00  0.00     0.163 HD
ATOM     28  O   UNL A   1      42.270  18.463  25.961  1.00  0.00    -0.269 OA
BRANCH  26  29
ATOM     29  C   UNL A   1      41.957  20.744  26.404  1.00  0.00     0.039 A 
ATOM     30  C   UNL A   1      42.215  21.055  27.744  1.00  0.00     0.014 A 
ATOM     31  C   UNL A   1      42.099  21.732  25.427  1.00  0.00     0.014 A 
ATOM     32  C   UNL A   1      42.656  22.334  28.096  1.00  0.00     0.010 A 
ATOM     33  C   UNL A   1      42.609  22.985  25.767  1.00  0.00     0.010 A 
ATOM     34  C   UNL A   1      42.880  23.303  27.106  1.00  0.00    -0.014 A 
BRANCH  34  35
ATOM     35  C   UNL A   1      43.376  24.661  27.450  1.00  0.00     0.031 A 
ATOM     36  C   UNL A   1      42.433  25.687  28.017  1.00  0.00     0.074 A 
ATOM     37  C   UNL A   1      44.655  24.992  27.190  1.00  0.00     0.049 A 
ATOM     38  N   UNL A   1      42.645  26.951  28.286  1.00  0.00    -0.248 NA
ATOM     39  C   UNL A   1      41.060  25.238  28.295  1.00  0.00     0.031 C 
ATOM     40  C   UNL A   1      45.656  24.100  26.604  1.00  0.00     0.029 A 
ATOM     41  N   UNL A   1      45.328  26.175  27.368  1.00  0.00    -0.354 N 
ATOM     42  C   UNL A   1      41.432  27.450  28.740  1.00  0.00     0.074 A 
ATOM     43  C   UNL A   1      40.475  26.367  28.670  1.00  0.00     0.031 C 
ATOM     44  C   UNL A   1      46.817  24.763  26.482  1.00  0.00     0.029 A 
ATOM     45  C   UNL A   1      46.634  26.135  26.946  1.00  0.00     0.049 A 
ATOM     46  H   UNL A   1      44.912  26.977  27.761  1.00  0.00     0.167 HD
ATOM     47  C   UNL A   1      41.146  28.694  29.193  1.00  0.00     0.037 A 
ATOM     48  C   UNL A   1      47.575  27.099  26.926  1.00  0.00     0.037 A 
ATOM     49  C   UNL A   1      42.107  29.761  29.294  1.00  0.00     0.049 A 
ATOM     50  C   UNL A   1      47.234  28.469  27.444  1.00  0.00     0.074 A 
ATOM     51  C   UNL A   1      41.930  31.039  29.795  1.00  0.00     0.029 A 
ATOM     52  N   UNL A   1      43.429  29.670  28.886  1.00  0.00    -0.354 N 
ATOM     53  N   UNL A   1      46.098  28.914  27.921  1.00  0.00    -0.248 NA
ATOM     54  C   UNL A   1      48.311  29.470  27.427  1.00  0.00     0.031 C 
ATOM     55  C   UNL A   1      43.137  31.734  29.657  1.00  0.00     0.029 A 
ATOM     56  C   UNL A   1      44.077  30.875  29.111  1.00  0.00     0.049 A 
ATOM     57  H   UNL A   1      43.847  28.869  28.496  1.00  0.00     0.167 HD
ATOM     58  C   UNL A   1      46.325  30.234  28.282  1.00  0.00     0.074 A 
ATOM     59  C   UNL A   1      47.714  30.515  27.983  1.00  0.00     0.031 C 
ATOM     60  C   UNL A   1      45.462  31.133  28.814  1.00  0.00     0.037 A 
BRANCH  47  61
ATOM     61  C   UNL A   1      39.733  28.970  29.622  1.00  0.00     0.064 A 
ATOM     62  C   UNL A   1      39.322  28.796  30.952  1.00  0.00     0.173 A 
ATOM     63  C   UNL A   1      38.789  29.447  28.701  1.00  0.00     0.173 A 
ATOM     64  F   UNL A   1      40.182  28.330  31.869  1.00  0.00    -0.203 F 
ATOM     65  C   UNL A   1      38.010  29.063  31.337  1.00  0.00     0.198 A 
ATOM     66  C   UNL A   1      37.486  29.741  29.096  1.00  0.00     0.198 A 
ATOM     67  F   UNL A   1      39.131  29.638  27.418  1.00  0.00    -0.203 F 
ATOM     68  F   UNL A   1      37.628  28.843  32.603  1.00  0.00    -0.200 F 
ATOM     69  C   UNL A   1      37.096  29.541  30.412  1.00  0.00     0.200 A 
ATOM     70  F   UNL A   1      36.607  30.215  28.202  1.00  0.00    -0.200 F 
ATOM     71  F   UNL A   1      35.836  29.803  30.785  1.00  0.00    -0.200 F 
ENDBRANCH  47  61
BRANCH  48  72
ATOM     72  C   UNL A   1      48.935  26.793  26.414  1.00  0.00     0.064 A 
ATOM     73  C   UNL A   1      49.919  26.265  27.261  1.00  0.00     0.173 A 
ATOM     74  C   UNL A   1      49.277  27.012  25.073  1.00  0.00     0.173 A 
ATOM     75  F   UNL A   1      49.645  26.057  28.558  1.00  0.00    -0.203 F 
ATOM     76  C   UNL A   1      51.200  25.984  26.790  1.00  0.00     0.198 A 
ATOM     77  C   UNL A   1      50.550  26.708  24.596  1.00  0.00     0.198 A 
ATOM     78  F   UNL A   1      48.369  27.510  24.221  1.00  0.00    -0.203 F 
ATOM     79  F   UNL A   1      52.134  25.518  27.630  1.00  0.00    -0.200 F 
ATOM     80  C   UNL A   1      51.513  26.200  25.456  1.00  0.00     0.200 A 
ATOM     81  F   UNL A   1      50.844  26.905  23.303  1.00  0.00    -0.200 F 
ATOM     82  F   UNL A   1      52.742  25.925  25.002  1.00  0.00    -0.200 F 
ENDBRANCH  48  72
BRANCH  60  83
ATOM     83  C   UNL A   1      46.000  32.496  29.136  1.00  0.00     0.064 A 
ATOM     84  C   UNL A   1      45.933  33.549  28.213  1.00  0.00     0.173 A 
ATOM     85  C   UNL A   1      46.549  32.760  30.399  1.00  0.00     0.173 A 
ATOM     86  F   UNL A   1      45.431  33.341  26.986  1.00  0.00    -0.203 F 
ATOM     87  C   UNL A   1      46.416  34.814  28.536  1.00  0.00     0.198 A 
ATOM     88  C   UNL A   1      47.006  34.034  30.729  1.00  0.00     0.198 A 
ATOM     89  F   UNL A   1      46.631  31.788  31.320  1.00  0.00    -0.203 F 
ATOM     90  F   UNL A   1      46.378  35.797  27.626  1.00  0.00    -0.200 F 
ATOM     91  C   UNL A   1      46.944  35.058  29.796  1.00  0.00     0.200 A 
ATOM     92  F   UNL A   1      47.506  34.269  31.949  1.00  0.00    -0.200 F 
ATOM     93  F   UNL A   1      47.400  36.278  30.108  1.00  0.00    -0.200 F 
ENDBRANCH  60  83
ENDBRANCH  34  35
ENDBRANCH  26  29
ENDBRANCH  24  25
ENDBRANCH  23  24
ENDBRANCH   1  23
TORSDOF 13
ENDMDL
MODEL 3
REMARK VINA RESULT:     -12.2      0.485      1.671
REMARK SMILES Cc1nc(CNC(=O)[C@H]2CCO[C@H]2C)sc1C(=O)NCCCNC(=O)c1ccc(-c2c3nc(c(-c4c(F)c(F)c(F)c(F)c4F)c4ccc([nH]4)c(-c4c(F)c(F)c(F)c(F)c4F)c4nc(c(-c5c(F)c(F)c(F)c(F)c5F)c5ccc2[nH]5)C=C4)C=C3)cc1
REMARK SMILES IDX 20 1 19 2 17 3 18 4 16 6 1 7 2 8 3 9 4 10 15 11 5 12 6 13
REMARK SMILES IDX 7 14 8 16 9 17 10 18 13 19 11 20 12 21 14 22 21 23 22 24
REMARK SMILES IDX 23 25 24 26 25 28 26 29 27 30 88 31 28 32 87 33 29 34 30 35
REMARK SMILES IDX 31 36 81 37 32 38 86 39 80 40 82 41 33 42 85 43 79 44 78 45
REMARK SMILES IDX 34 47 66 48 46 49 65 50 47 51 50 52 64 53 83 54 48 55 49 56
REMARK SMILES IDX 63 58 84 59 51 60 35 61 36 62 44 63 37 64 38 65 42 66 45 67
REMARK SMILES IDX 39 68 40 69 43 70 41 71 67 72 68 73 76 74 69 75 70 76 74 77
REMARK SMILES IDX 77 78 71 79 72 80 75 81 73 82 52 83 53 84 61 85 54 86 55 87
REMARK SMILES IDX 59 88 62 89 56 90 57 91 60 92 58 93
REMARK H PARENT 19 5 6 15 23 27 82 46 50 57
REMARK Flexibility Score: inf
ROOT
ATOM      1  C   UNL A   1      31.396  30.890  25.964  1.00  0.00     0.118 C 
ENDROOT
BRANCH   1   2
ATOM      2  N   UNL A   1      30.653  30.744  24.735  1.00  0.00    -0.351 N 
ATOM      3  C   UNL A   1      30.440  29.703  23.869  1.00  0.00     0.263 C 
ATOM      4  O   UNL A   1      29.708  30.013  22.921  1.00  0.00    -0.268 OA
ATOM      5  H   UNL A   1      30.200  31.573  24.458  1.00  0.00     0.163 HD
BRANCH   3   6
ATOM      6  C   UNL A   1      30.971  28.354  24.033  1.00  0.00     0.115 A 
ATOM      7  C   UNL A   1      33.590  28.297  24.237  1.00  0.00     0.068 C 
ATOM      8  C   UNL A   1      32.213  27.746  24.195  1.00  0.00     0.061 A 
ATOM      9  N   UNL A   1      32.184  26.359  24.265  1.00  0.00    -0.244 NA
ATOM     10  C   UNL A   1      30.979  25.892  24.055  1.00  0.00     0.113 A 
ATOM     11  S   UNL A   1      29.771  27.084  23.921  1.00  0.00    -0.111 S 
BRANCH  10  12
ATOM     12  C   UNL A   1      30.657  24.435  23.917  1.00  0.00     0.183 C 
BRANCH  12  13
ATOM     13  N   UNL A   1      30.280  23.912  25.222  1.00  0.00    -0.349 N 
ATOM     14  C   UNL A   1      31.033  23.255  26.147  1.00  0.00     0.226 C 
ATOM     15  H   UNL A   1      29.339  24.056  25.475  1.00  0.00     0.163 HD
ATOM     16  O   UNL A   1      30.471  22.829  27.157  1.00  0.00    -0.275 OA
BRANCH  14  17
ATOM     17  C   UNL A   1      32.523  23.103  25.926  1.00  0.00     0.109 C 
ATOM     18  C   UNL A   1      33.287  22.665  27.161  1.00  0.00     0.044 C 
ATOM     19  C   UNL A   1      32.931  22.029  24.923  1.00  0.00     0.127 C 
ATOM     20  C   UNL A   1      34.591  22.185  26.566  1.00  0.00     0.161 C 
ATOM     21  O   UNL A   1      34.309  21.720  25.237  1.00  0.00    -0.378 OA
ATOM     22  C   UNL A   1      32.153  20.717  24.998  1.00  0.00     0.039 C 
ENDBRANCH  14  17
ENDBRANCH  12  13
ENDBRANCH  10  12
ENDBRANCH   3   6
ENDBRANCH   1   2
BRANCH   1  23
ATOM     23  C   UNL A   1      31.316  32.328  26.473  1.00  0.00     0.042 C 
BRANCH  23  24
ATOM     24  C   UNL A   1      32.586  32.805  27.169  1.00  0.00     0.118 C 
BRANCH  24  25
ATOM     25  N   UNL A   1      32.471  34.180  27.626  1.00  0.00    -0.352 N 
ATOM     26  C   UNL A   1      33.077  34.818  28.680  1.00  0.00     0.251 C 
ATOM     27  H   UNL A   1      31.861  34.743  27.097  1.00  0.00     0.163 HD
ATOM     28  O   UNL A   1      32.660  35.917  29.036  1.00  0.00    -0.269 OA
BRANCH  26  29
ATOM     29  C   UNL A   1      34.219  34.204  29.398  1.00  0.00     0.039 A 
ATOM     30  C   UNL A   1      35.517  34.470  28.946  1.00  0.00     0.014 A 
ATOM     31  C   UNL A   1      34.027  33.318  30.462  1.00  0.00     0.014 A 
ATOM     32  C   UNL A   1      36.616  33.888  29.584  1.00  0.00     0.010 A 
ATOM     33  C   UNL A   1      35.126  32.797  31.145  1.00  0.00     0.010 A 
ATOM     34  C   UNL A   1      36.431  33.066  30.705  1.00  0.00    -0.014 A 
BRANCH  34  35
ATOM     35  C   UNL A   1      37.584  32.459  31.420  1.00  0.00     0.031 A 
ATOM     36  C   UNL A   1      38.325  31.301  30.808  1.00  0.00     0.074 A 
ATOM     37  C   UNL A   1      37.921  32.904  32.645  1.00  0.00     0.049 A 
ATOM     38  N   UNL A   1      39.287  30.571  31.315  1.00  0.00    -0.248 NA
ATOM     39  C   UNL A   1      37.911  30.892  29.458  1.00  0.00     0.031 C 
ATOM     40  C   UNL A   1      37.255  33.992  33.362  1.00  0.00     0.029 A 
ATOM     41  N   UNL A   1      38.898  32.483  33.513  1.00  0.00    -0.354 N 
ATOM     42  C   UNL A   1      39.574  29.607  30.358  1.00  0.00     0.074 A 
ATOM     43  C   UNL A   1      38.657  29.816  29.258  1.00  0.00     0.031 C 
ATOM     44  C   UNL A   1      37.850  34.161  34.554  1.00  0.00     0.029 A 
ATOM     45  C   UNL A   1      38.913  33.172  34.701  1.00  0.00     0.049 A 
ATOM     46  H   UNL A   1      39.529  31.756  33.303  1.00  0.00     0.167 HD
ATOM     47  C   UNL A   1      40.531  28.648  30.384  1.00  0.00     0.037 A 
ATOM     48  C   UNL A   1      39.689  33.015  35.791  1.00  0.00     0.037 A 
ATOM     49  C   UNL A   1      41.464  28.464  31.464  1.00  0.00     0.049 A 
ATOM     50  C   UNL A   1      40.750  31.949  35.791  1.00  0.00     0.074 A 
ATOM     51  C   UNL A   1      42.507  27.559  31.559  1.00  0.00     0.029 A 
ATOM     52  N   UNL A   1      41.467  29.204  32.637  1.00  0.00    -0.354 N 
ATOM     53  N   UNL A   1      41.048  31.079  34.857  1.00  0.00    -0.248 NA
ATOM     54  C   UNL A   1      41.588  31.848  36.995  1.00  0.00     0.031 C 
ATOM     55  C   UNL A   1      43.119  27.727  32.807  1.00  0.00     0.029 A 
ATOM     56  C   UNL A   1      42.485  28.765  33.469  1.00  0.00     0.049 A 
ATOM     57  H   UNL A   1      40.840  29.933  32.847  1.00  0.00     0.167 HD
ATOM     58  C   UNL A   1      42.118  30.344  35.347  1.00  0.00     0.074 A 
ATOM     59  C   UNL A   1      42.428  30.881  36.656  1.00  0.00     0.031 C 
ATOM     60  C   UNL A   1      42.784  29.317  34.765  1.00  0.00     0.037 A 
BRANCH  47  61
ATOM     61  C   UNL A   1      40.619  27.723  29.204  1.00  0.00     0.064 A 
ATOM     62  C   UNL A   1      39.782  26.603  29.084  1.00  0.00     0.173 A 
ATOM     63  C   UNL A   1      41.524  27.980  28.163  1.00  0.00     0.173 A 
ATOM     64  F   UNL A   1      38.908  26.307  30.057  1.00  0.00    -0.203 F 
ATOM     65  C   UNL A   1      39.870  25.758  27.980  1.00  0.00     0.198 A 
ATOM     66  C   UNL A   1      41.588  27.149  27.047  1.00  0.00     0.198 A 
ATOM     67  F   UNL A   1      42.342  29.042  28.224  1.00  0.00    -0.203 F 
ATOM     68  F   UNL A   1      39.094  24.667  27.912  1.00  0.00    -0.200 F 
ATOM     69  C   UNL A   1      40.767  26.035  26.961  1.00  0.00     0.200 A 
ATOM     70  F   UNL A   1      42.447  27.426  26.056  1.00  0.00    -0.200 F 
ATOM     71  F   UNL A   1      40.845  25.225  25.896  1.00  0.00    -0.200 F 
ENDBRANCH  47  61
BRANCH  48  72
ATOM     72  C   UNL A   1      39.503  33.907  36.964  1.00  0.00     0.064 A 
ATOM     73  C   UNL A   1      38.735  33.496  38.063  1.00  0.00     0.173 A 
ATOM     74  C   UNL A   1      40.090  35.178  37.017  1.00  0.00     0.173 A 
ATOM     75  F   UNL A   1      38.136  32.296  38.049  1.00  0.00    -0.203 F 
ATOM     76  C   UNL A   1      38.548  34.330  39.163  1.00  0.00     0.198 A 
ATOM     77  C   UNL A   1      39.924  36.001  38.129  1.00  0.00     0.198 A 
ATOM     78  F   UNL A   1      40.839  35.615  35.994  1.00  0.00    -0.203 F 
ATOM     79  F   UNL A   1      37.776  33.928  40.182  1.00  0.00    -0.200 F 
ATOM     80  C   UNL A   1      39.148  35.580  39.198  1.00  0.00     0.200 A 
ATOM     81  F   UNL A   1      40.516  37.203  38.164  1.00  0.00    -0.200 F 
ATOM     82  F   UNL A   1      38.972  36.379  40.258  1.00  0.00    -0.200 F 
ENDBRANCH  48  72
BRANCH  60  83
ATOM     83  C   UNL A   1      43.934  28.726  35.525  1.00  0.00     0.064 A 
ATOM     84  C   UNL A   1      45.242  29.203  35.366  1.00  0.00     0.173 A 
ATOM     85  C   UNL A   1      43.715  27.700  36.457  1.00  0.00     0.173 A 
ATOM     86  F   UNL A   1      45.504  30.172  34.476  1.00  0.00    -0.203 F 
ATOM     87  C   UNL A   1      46.295  28.660  36.097  1.00  0.00     0.198 A 
ATOM     88  C   UNL A   1      44.766  27.178  37.207  1.00  0.00     0.198 A 
ATOM     89  F   UNL A   1      42.480  27.213  36.650  1.00  0.00    -0.203 F 
ATOM     90  F   UNL A   1      47.545  29.102  35.901  1.00  0.00    -0.200 F 
ATOM     91  C   UNL A   1      46.055  27.654  37.022  1.00  0.00     0.200 A 
ATOM     92  F   UNL A   1      44.530  26.214  38.107  1.00  0.00    -0.200 F 
ATOM     93  F   UNL A   1      47.068  27.138  37.731  1.00  0.00    -0.200 F 
ENDBRANCH  60  83
ENDBRANCH  34  35
ENDBRANCH  26  29
ENDBRANCH  24  25
ENDBRANCH  23  24
ENDBRANCH   1  23
TORSDOF 13
ENDMDL
