MODEL 1
REMARK VINA RESULT:     -13.5      0.000      0.000
REMARK SMILES Cc1nc(=O)[nH]c(C)c1CC(=O)Nc1sccc1C(=O)NCCCNC(=O)c1ccc(-c2c3nc(c(-c4c(F)c(F)c(F)c(F)c4F)c4ccc([nH]4)c(-c4c(F)c(F)c(F)c(F)c4F)c4nc(c(-c5c(F)c(F)c(F)c(F)c5F)c5ccc2[nH]5)C=C4)C=C3)cc1
REMARK SMILES IDX 22 1 21 2 19 3 20 4 18 6 14 7 15 8 16 9 17 10 13 11 11 12
REMARK SMILES IDX 12 13 10 15 9 16 1 17 2 18 3 19 4 20 7 21 5 22 6 23 8 24
REMARK SMILES IDX 23 26 24 27 25 28 26 29 27 31 28 32 29 33 90 34 30 35 89 36
REMARK SMILES IDX 31 37 32 38 33 39 83 40 34 41 88 42 82 43 84 44 35 45 87 46
REMARK SMILES IDX 81 47 80 48 36 50 68 51 48 52 67 53 49 54 52 55 66 56 85 57
REMARK SMILES IDX 50 58 51 59 65 61 86 62 53 63 37 64 38 65 46 66 39 67 40 68
REMARK SMILES IDX 44 69 47 70 41 71 42 72 45 73 43 74 69 75 70 76 78 77 71 78
REMARK SMILES IDX 72 79 76 80 79 81 73 82 74 83 77 84 75 85 54 86 55 87 63 88
REMARK SMILES IDX 56 89 57 90 61 91 64 92 58 93 59 94 62 95 60 96
REMARK H PARENT 21 5 13 14 6 25 25 30 84 49 52 60
REMARK Flexibility Score: inf
ROOT
ATOM      1  C   UNL A   1      31.784  29.182  25.099  1.00  0.00     0.118 C 
ENDROOT
BRANCH   1   2
ATOM      2  N   UNL A   1      31.408  28.021  25.862  1.00  0.00    -0.352 N 
ATOM      3  C   UNL A   1      31.442  26.693  25.525  1.00  0.00     0.254 C 
ATOM      4  O   UNL A   1      30.960  25.919  26.353  1.00  0.00    -0.269 OA
ATOM      5  H   UNL A   1      31.074  28.210  26.768  1.00  0.00     0.163 HD
BRANCH   3   6
ATOM      6  C   UNL A   1      31.909  26.203  24.221  1.00  0.00     0.074 A 
ATOM      7  C   UNL A   1      33.138  25.740  23.780  1.00  0.00     0.108 A 
ATOM      8  S   UNL A   1      33.244  25.696  22.067  1.00  0.00    -0.126 S 
ATOM      9  C   UNL A   1      31.567  25.906  21.894  1.00  0.00     0.068 A 
ATOM     10  C   UNL A   1      30.977  26.175  23.105  1.00  0.00     0.028 A 
BRANCH   7  11
ATOM     11  N   UNL A   1      34.355  25.404  24.317  1.00  0.00    -0.317 N 
ATOM     12  C   UNL A   1      34.925  24.203  24.598  1.00  0.00     0.229 C 
ATOM     13  O   UNL A   1      35.790  24.193  25.486  1.00  0.00    -0.274 OA
ATOM     14  H   UNL A   1      34.920  26.178  24.543  1.00  0.00     0.170 HD
BRANCH  12  15
ATOM     15  C   UNL A   1      34.734  22.952  23.742  1.00  0.00     0.139 C 
BRANCH  15  16
ATOM     16  C   UNL A   1      34.179  21.705  24.344  1.00  0.00     0.002 A 
ATOM     17  C   UNL A   1      31.785  22.357  23.513  1.00  0.00     0.067 C 
ATOM     18  C   UNL A   1      32.711  21.398  24.236  1.00  0.00     0.049 A 
ATOM     19  N   UNL A   1      32.146  20.323  24.680  1.00  0.00    -0.198 NA
ATOM     20  C   UNL A   1      32.910  19.377  25.301  1.00  0.00     0.345 A 
ATOM     21  C   UNL A   1      34.904  20.700  24.873  1.00  0.00     0.022 A 
ATOM     22  O   UNL A   1      32.450  18.339  25.769  1.00  0.00    -0.246 OA
ATOM     23  N   UNL A   1      34.262  19.588  25.351  1.00  0.00    -0.310 N 
ATOM     24  C   UNL A   1      36.401  20.656  25.009  1.00  0.00     0.065 C 
ATOM     25  H   UNL A   1      34.816  18.885  25.761  1.00  0.00     0.171 HD
ENDBRANCH  15  16
ENDBRANCH  12  15
ENDBRANCH   7  11
ENDBRANCH   3   6
ENDBRANCH   1   2
BRANCH   1  26
ATOM     26  C   UNL A   1      31.541  30.504  25.801  1.00  0.00     0.042 C 
BRANCH  26  27
ATOM     27  C   UNL A   1      32.569  30.833  26.876  1.00  0.00     0.118 C 
BRANCH  27  28
ATOM     28  N   UNL A   1      32.619  32.238  27.275  1.00  0.00    -0.352 N 
ATOM     29  C   UNL A   1      33.687  32.967  27.752  1.00  0.00     0.251 C 
ATOM     30  H   UNL A   1      31.772  32.733  27.190  1.00  0.00     0.163 HD
ATOM     31  O   UNL A   1      33.572  34.160  28.004  1.00  0.00    -0.269 OA
BRANCH  29  32
ATOM     32  C   UNL A   1      34.952  32.266  28.047  1.00  0.00     0.039 A 
ATOM     33  C   UNL A   1      36.109  33.031  28.202  1.00  0.00     0.014 A 
ATOM     34  C   UNL A   1      34.962  30.897  28.318  1.00  0.00     0.014 A 
ATOM     35  C   UNL A   1      37.247  32.443  28.750  1.00  0.00     0.010 A 
ATOM     36  C   UNL A   1      36.060  30.342  28.964  1.00  0.00     0.010 A 
ATOM     37  C   UNL A   1      37.208  31.113  29.201  1.00  0.00    -0.014 A 
BRANCH  37  38
ATOM     38  C   UNL A   1      38.349  30.538  29.960  1.00  0.00     0.031 A 
ATOM     39  C   UNL A   1      38.575  30.917  31.395  1.00  0.00     0.074 A 
ATOM     40  C   UNL A   1      39.211  29.711  29.334  1.00  0.00     0.049 A 
ATOM     41  N   UNL A   1      39.505  30.508  32.221  1.00  0.00    -0.248 NA
ATOM     42  C   UNL A   1      37.660  31.915  31.971  1.00  0.00     0.031 C 
ATOM     43  C   UNL A   1      39.149  29.336  27.919  1.00  0.00     0.029 A 
ATOM     44  N   UNL A   1      40.305  29.030  29.806  1.00  0.00    -0.354 N 
ATOM     45  C   UNL A   1      39.288  31.201  33.405  1.00  0.00     0.074 A 
ATOM     46  C   UNL A   1      38.190  32.112  33.168  1.00  0.00     0.031 C 
ATOM     47  C   UNL A   1      40.128  28.457  27.651  1.00  0.00     0.029 A 
ATOM     48  C   UNL A   1      40.906  28.229  28.864  1.00  0.00     0.049 A 
ATOM     49  H   UNL A   1      40.629  29.108  30.732  1.00  0.00     0.167 HD
ATOM     50  C   UNL A   1      39.921  31.063  34.593  1.00  0.00     0.037 A 
ATOM     51  C   UNL A   1      41.957  27.394  28.973  1.00  0.00     0.037 A 
ATOM     52  C   UNL A   1      40.998  30.137  34.829  1.00  0.00     0.049 A 
ATOM     53  C   UNL A   1      42.630  27.244  30.311  1.00  0.00     0.074 A 
ATOM     54  C   UNL A   1      41.665  29.872  36.011  1.00  0.00     0.029 A 
ATOM     55  N   UNL A   1      41.567  29.328  33.857  1.00  0.00    -0.354 N 
ATOM     56  N   UNL A   1      42.352  27.831  31.449  1.00  0.00    -0.248 NA
ATOM     57  C   UNL A   1      43.756  26.302  30.380  1.00  0.00     0.031 C 
ATOM     58  C   UNL A   1      42.670  28.937  35.744  1.00  0.00     0.029 A 
ATOM     59  C   UNL A   1      42.594  28.578  34.408  1.00  0.00     0.049 A 
ATOM     60  H   UNL A   1      41.283  29.291  32.915  1.00  0.00     0.167 HD
ATOM     61  C   UNL A   1      43.251  27.317  32.373  1.00  0.00     0.074 A 
ATOM     62  C   UNL A   1      44.064  26.347  31.668  1.00  0.00     0.031 C 
ATOM     63  C   UNL A   1      43.396  27.622  33.687  1.00  0.00     0.037 A 
BRANCH  50  64
ATOM     64  C   UNL A   1      39.453  31.926  35.729  1.00  0.00     0.064 A 
ATOM     65  C   UNL A   1      39.989  33.206  35.949  1.00  0.00     0.173 A 
ATOM     66  C   UNL A   1      38.447  31.482  36.598  1.00  0.00     0.173 A 
ATOM     67  F   UNL A   1      40.965  33.674  35.156  1.00  0.00    -0.203 F 
ATOM     68  C   UNL A   1      39.560  33.992  37.014  1.00  0.00     0.198 A 
ATOM     69  C   UNL A   1      37.995  32.283  37.643  1.00  0.00     0.198 A 
ATOM     70  F   UNL A   1      37.898  30.269  36.434  1.00  0.00    -0.203 F 
ATOM     71  F   UNL A   1      40.128  35.184  37.237  1.00  0.00    -0.200 F 
ATOM     72  C   UNL A   1      38.559  33.534  37.856  1.00  0.00     0.200 A 
ATOM     73  F   UNL A   1      37.019  31.845  38.450  1.00  0.00    -0.200 F 
ATOM     74  F   UNL A   1      38.141  34.293  38.878  1.00  0.00    -0.200 F 
ENDBRANCH  50  64
BRANCH  51  75
ATOM     75  C   UNL A   1      42.409  26.602  27.798  1.00  0.00     0.064 A 
ATOM     76  C   UNL A   1      41.850  25.346  27.517  1.00  0.00     0.173 A 
ATOM     77  C   UNL A   1      43.413  27.072  26.940  1.00  0.00     0.173 A 
ATOM     78  F   UNL A   1      40.900  24.843  28.319  1.00  0.00    -0.203 F 
ATOM     79  C   UNL A   1      42.296  24.582  26.440  1.00  0.00     0.198 A 
ATOM     80  C   UNL A   1      43.837  26.321  25.844  1.00  0.00     0.198 A 
ATOM     81  F   UNL A   1      43.977  28.271  27.158  1.00  0.00    -0.203 F 
ATOM     82  F   UNL A   1      41.779  23.364  26.227  1.00  0.00    -0.200 F 
ATOM     83  C   UNL A   1      43.284  25.073  25.602  1.00  0.00     0.200 A 
ATOM     84  F   UNL A   1      44.781  26.806  25.027  1.00  0.00    -0.200 F 
ATOM     85  F   UNL A   1      43.712  24.339  24.564  1.00  0.00    -0.200 F 
ENDBRANCH  51  75
BRANCH  63  86
ATOM     86  C   UNL A   1      44.461  26.884  34.445  1.00  0.00     0.064 A 
ATOM     87  C   UNL A   1      45.761  27.397  34.575  1.00  0.00     0.173 A 
ATOM     88  C   UNL A   1      44.175  25.656  35.061  1.00  0.00     0.173 A 
ATOM     89  F   UNL A   1      46.088  28.560  33.993  1.00  0.00    -0.203 F 
ATOM     90  C   UNL A   1      46.744  26.691  35.262  1.00  0.00     0.198 A 
ATOM     91  C   UNL A   1      45.152  24.968  35.777  1.00  0.00     0.198 A 
ATOM     92  F   UNL A   1      42.947  25.124  34.973  1.00  0.00    -0.203 F 
ATOM     93  F   UNL A   1      47.993  27.170  35.321  1.00  0.00    -0.200 F 
ATOM     94  C   UNL A   1      46.436  25.480  35.867  1.00  0.00     0.200 A 
ATOM     95  F   UNL A   1      44.849  23.807  36.372  1.00  0.00    -0.200 F 
ATOM     96  F   UNL A   1      47.384  24.801  36.529  1.00  0.00    -0.200 F 
ENDBRANCH  63  86
ENDBRANCH  37  38
ENDBRANCH  29  32
ENDBRANCH  27  28
ENDBRANCH  26  27
ENDBRANCH   1  26
TORSDOF 13
ENDMDL
MODEL 2
REMARK VINA RESULT:     -13.3      4.245     10.129
REMARK SMILES Cc1nc(=O)[nH]c(C)c1CC(=O)Nc1sccc1C(=O)NCCCNC(=O)c1ccc(-c2c3nc(c(-c4c(F)c(F)c(F)c(F)c4F)c4ccc([nH]4)c(-c4c(F)c(F)c(F)c(F)c4F)c4nc(c(-c5c(F)c(F)c(F)c(F)c5F)c5ccc2[nH]5)C=C4)C=C3)cc1
REMARK SMILES IDX 22 1 21 2 19 3 20 4 18 6 14 7 15 8 16 9 17 10 13 11 11 12
REMARK SMILES IDX 12 13 10 15 9 16 1 17 2 18 3 19 4 20 7 21 5 22 6 23 8 24
REMARK SMILES IDX 23 26 24 27 25 28 26 29 27 31 28 32 29 33 90 34 30 35 89 36
REMARK SMILES IDX 31 37 32 38 33 39 83 40 34 41 88 42 82 43 84 44 35 45 87 46
REMARK SMILES IDX 81 47 80 48 36 50 68 51 48 52 67 53 49 54 52 55 66 56 85 57
REMARK SMILES IDX 50 58 51 59 65 61 86 62 53 63 37 64 38 65 46 66 39 67 40 68
REMARK SMILES IDX 44 69 47 70 41 71 42 72 45 73 43 74 69 75 70 76 78 77 71 78
REMARK SMILES IDX 72 79 76 80 79 81 73 82 74 83 77 84 75 85 54 86 55 87 63 88
REMARK SMILES IDX 56 89 57 90 61 91 64 92 58 93 59 94 62 95 60 96
REMARK H PARENT 21 5 13 14 6 25 25 30 84 49 52 60
REMARK Flexibility Score: inf
ROOT
ATOM      1  C   UNL A   1      35.980  23.355  24.278  1.00  0.00     0.118 C 
ENDROOT
BRANCH   1   2
ATOM      2  N   UNL A   1      35.061  23.387  23.170  1.00  0.00    -0.352 N 
ATOM      3  C   UNL A   1      33.690  23.370  23.159  1.00  0.00     0.254 C 
ATOM      4  O   UNL A   1      33.166  23.306  22.045  1.00  0.00    -0.269 OA
ATOM      5  H   UNL A   1      35.482  23.427  22.283  1.00  0.00     0.163 HD
BRANCH   3   6
ATOM      6  C   UNL A   1      32.874  23.313  24.378  1.00  0.00     0.074 A 
ATOM      7  C   UNL A   1      32.862  24.076  25.535  1.00  0.00     0.108 A 
ATOM      8  S   UNL A   1      31.998  23.319  26.810  1.00  0.00    -0.126 S 
ATOM      9  C   UNL A   1      31.308  22.182  25.753  1.00  0.00     0.068 A 
ATOM     10  C   UNL A   1      31.860  22.276  24.499  1.00  0.00     0.028 A 
BRANCH   7  11
ATOM     11  N   UNL A   1      33.440  25.230  26.001  1.00  0.00    -0.317 N 
ATOM     12  C   UNL A   1      33.100  26.538  25.866  1.00  0.00     0.229 C 
ATOM     13  O   UNL A   1      34.017  27.365  25.972  1.00  0.00    -0.274 OA
ATOM     14  H   UNL A   1      34.255  25.082  26.534  1.00  0.00     0.170 HD
BRANCH  12  15
ATOM     15  C   UNL A   1      31.657  27.039  25.829  1.00  0.00     0.139 C 
BRANCH  15  16
ATOM     16  C   UNL A   1      31.172  27.856  24.678  1.00  0.00     0.002 A 
ATOM     17  C   UNL A   1      30.160  25.713  23.570  1.00  0.00     0.067 C 
ATOM     18  C   UNL A   1      30.425  27.206  23.546  1.00  0.00     0.049 A 
ATOM     19  N   UNL A   1      29.924  27.835  22.533  1.00  0.00    -0.198 NA
ATOM     20  C   UNL A   1      30.069  29.189  22.453  1.00  0.00     0.345 A 
ATOM     21  C   UNL A   1      31.202  29.202  24.604  1.00  0.00     0.022 A 
ATOM     22  O   UNL A   1      29.642  29.859  21.516  1.00  0.00    -0.246 OA
ATOM     23  N   UNL A   1      30.678  29.825  23.502  1.00  0.00    -0.310 N 
ATOM     24  C   UNL A   1      31.770  30.139  25.634  1.00  0.00     0.065 C 
ATOM     25  H   UNL A   1      30.744  30.806  23.462  1.00  0.00     0.171 HD
ENDBRANCH  15  16
ENDBRANCH  12  15
ENDBRANCH   7  11
ENDBRANCH   3   6
ENDBRANCH   1   2
BRANCH   1  26
ATOM     26  C   UNL A   1      36.958  22.196  24.253  1.00  0.00     0.042 C 
BRANCH  26  27
ATOM     27  C   UNL A   1      37.375  21.710  25.635  1.00  0.00     0.118 C 
BRANCH  27  28
ATOM     28  N   UNL A   1      38.562  20.857  25.657  1.00  0.00    -0.352 N 
ATOM     29  C   UNL A   1      39.779  21.080  26.265  1.00  0.00     0.251 C 
ATOM     30  H   UNL A   1      38.481  20.004  25.171  1.00  0.00     0.163 HD
ATOM     31  O   UNL A   1      40.667  20.237  26.224  1.00  0.00    -0.269 OA
BRANCH  29  32
ATOM     32  C   UNL A   1      40.034  22.393  26.888  1.00  0.00     0.039 A 
ATOM     33  C   UNL A   1      41.071  22.492  27.816  1.00  0.00     0.014 A 
ATOM     34  C   UNL A   1      39.361  23.533  26.447  1.00  0.00     0.014 A 
ATOM     35  C   UNL A   1      41.517  23.754  28.208  1.00  0.00     0.010 A 
ATOM     36  C   UNL A   1      39.878  24.786  26.753  1.00  0.00     0.010 A 
ATOM     37  C   UNL A   1      40.971  24.910  27.625  1.00  0.00    -0.014 A 
BRANCH  37  38
ATOM     38  C   UNL A   1      41.568  26.244  27.889  1.00  0.00     0.031 A 
ATOM     39  C   UNL A   1      42.944  26.573  27.387  1.00  0.00     0.074 A 
ATOM     40  C   UNL A   1      40.884  27.140  28.629  1.00  0.00     0.049 A 
ATOM     41  N   UNL A   1      43.623  27.687  27.506  1.00  0.00    -0.248 NA
ATOM     42  C   UNL A   1      43.672  25.502  26.690  1.00  0.00     0.031 C 
ATOM     43  C   UNL A   1      39.577  26.907  29.248  1.00  0.00     0.029 A 
ATOM     44  N   UNL A   1      41.188  28.431  28.983  1.00  0.00    -0.354 N 
ATOM     45  C   UNL A   1      44.851  27.445  26.907  1.00  0.00     0.074 A 
ATOM     46  C   UNL A   1      44.856  26.060  26.493  1.00  0.00     0.031 C 
ATOM     47  C   UNL A   1      39.170  28.031  29.861  1.00  0.00     0.029 A 
ATOM     48  C   UNL A   1      40.199  29.053  29.707  1.00  0.00     0.049 A 
ATOM     49  H   UNL A   1      42.036  28.870  28.741  1.00  0.00     0.167 HD
ATOM     50  C   UNL A   1      45.868  28.310  26.685  1.00  0.00     0.037 A 
ATOM     51  C   UNL A   1      40.126  30.312  30.180  1.00  0.00     0.037 A 
ATOM     52  C   UNL A   1      45.848  29.695  27.078  1.00  0.00     0.049 A 
ATOM     53  C   UNL A   1      41.262  31.260  29.902  1.00  0.00     0.074 A 
ATOM     54  C   UNL A   1      46.798  30.673  26.845  1.00  0.00     0.029 A 
ATOM     55  N   UNL A   1      44.821  30.295  27.792  1.00  0.00    -0.354 N 
ATOM     56  N   UNL A   1      42.377  31.047  29.247  1.00  0.00    -0.248 NA
ATOM     57  C   UNL A   1      41.121  32.628  30.420  1.00  0.00     0.031 C 
ATOM     58  C   UNL A   1      46.368  31.854  27.459  1.00  0.00     0.029 A 
ATOM     59  C   UNL A   1      45.125  31.627  28.028  1.00  0.00     0.049 A 
ATOM     60  H   UNL A   1      43.998  29.843  28.087  1.00  0.00     0.167 HD
ATOM     61  C   UNL A   1      43.060  32.256  29.254  1.00  0.00     0.074 A 
ATOM     62  C   UNL A   1      42.219  33.205  29.954  1.00  0.00     0.031 C 
ATOM     63  C   UNL A   1      44.277  32.554  28.733  1.00  0.00     0.037 A 
BRANCH  50  64
ATOM     64  C   UNL A   1      47.082  27.782  25.975  1.00  0.00     0.064 A 
ATOM     65  C   UNL A   1      48.189  27.286  26.682  1.00  0.00     0.173 A 
ATOM     66  C   UNL A   1      47.135  27.753  24.574  1.00  0.00     0.173 A 
ATOM     67  F   UNL A   1      48.197  27.304  28.024  1.00  0.00    -0.203 F 
ATOM     68  C   UNL A   1      49.315  26.813  26.015  1.00  0.00     0.198 A 
ATOM     69  C   UNL A   1      48.249  27.249  23.909  1.00  0.00     0.198 A 
ATOM     70  F   UNL A   1      46.105  28.214  23.848  1.00  0.00    -0.203 F 
ATOM     71  F   UNL A   1      50.381  26.400  26.712  1.00  0.00    -0.200 F 
ATOM     72  C   UNL A   1      49.342  26.789  24.629  1.00  0.00     0.200 A 
ATOM     73  F   UNL A   1      48.269  27.214  22.569  1.00  0.00    -0.200 F 
ATOM     74  F   UNL A   1      50.423  26.328  23.986  1.00  0.00    -0.200 F 
ENDBRANCH  50  64
BRANCH  51  75
ATOM     75  C   UNL A   1      38.919  30.765  30.923  1.00  0.00     0.064 A 
ATOM     76  C   UNL A   1      38.854  30.666  32.321  1.00  0.00     0.173 A 
ATOM     77  C   UNL A   1      37.804  31.291  30.256  1.00  0.00     0.173 A 
ATOM     78  F   UNL A   1      39.887  30.151  33.003  1.00  0.00    -0.203 F 
ATOM     79  C   UNL A   1      37.711  31.053  33.019  1.00  0.00     0.198 A 
ATOM     80  C   UNL A   1      36.673  31.707  30.958  1.00  0.00     0.198 A 
ATOM     81  F   UNL A   1      37.816  31.415  28.920  1.00  0.00    -0.203 F 
ATOM     82  F   UNL A   1      37.659  30.899  34.349  1.00  0.00    -0.200 F 
ATOM     83  C   UNL A   1      36.625  31.578  32.338  1.00  0.00     0.200 A 
ATOM     84  F   UNL A   1      35.631  32.229  30.297  1.00  0.00    -0.200 F 
ATOM     85  F   UNL A   1      35.527  31.952  33.010  1.00  0.00    -0.200 F 
ENDBRANCH  51  75
BRANCH  63  86
ATOM     86  C   UNL A   1      44.756  33.968  28.887  1.00  0.00     0.064 A 
ATOM     87  C   UNL A   1      45.536  34.365  29.984  1.00  0.00     0.173 A 
ATOM     88  C   UNL A   1      44.444  34.935  27.918  1.00  0.00     0.173 A 
ATOM     89  F   UNL A   1      45.849  33.482  30.943  1.00  0.00    -0.203 F 
ATOM     90  C   UNL A   1      45.955  35.686  30.124  1.00  0.00     0.198 A 
ATOM     91  C   UNL A   1      44.894  36.247  28.045  1.00  0.00     0.198 A 
ATOM     92  F   UNL A   1      43.707  34.607  26.847  1.00  0.00    -0.203 F 
ATOM     93  F   UNL A   1      46.646  36.055  31.211  1.00  0.00    -0.200 F 
ATOM     94  C   UNL A   1      45.637  36.623  29.152  1.00  0.00     0.200 A 
ATOM     95  F   UNL A   1      44.599  37.148  27.097  1.00  0.00    -0.200 F 
ATOM     96  F   UNL A   1      46.042  37.894  29.288  1.00  0.00    -0.200 F 
ENDBRANCH  63  86
ENDBRANCH  37  38
ENDBRANCH  29  32
ENDBRANCH  27  28
ENDBRANCH  26  27
ENDBRANCH   1  26
TORSDOF 13
ENDMDL
MODEL 3
REMARK VINA RESULT:     -13.2      4.697      9.955
REMARK SMILES Cc1nc(=O)[nH]c(C)c1CC(=O)Nc1sccc1C(=O)NCCCNC(=O)c1ccc(-c2c3nc(c(-c4c(F)c(F)c(F)c(F)c4F)c4ccc([nH]4)c(-c4c(F)c(F)c(F)c(F)c4F)c4nc(c(-c5c(F)c(F)c(F)c(F)c5F)c5ccc2[nH]5)C=C4)C=C3)cc1
REMARK SMILES IDX 22 1 21 2 19 3 20 4 18 6 14 7 15 8 16 9 17 10 13 11 11 12
REMARK SMILES IDX 12 13 10 15 9 16 1 17 2 18 3 19 4 20 7 21 5 22 6 23 8 24
REMARK SMILES IDX 23 26 24 27 25 28 26 29 27 31 28 32 29 33 90 34 30 35 89 36
REMARK SMILES IDX 31 37 32 38 33 39 83 40 34 41 88 42 82 43 84 44 35 45 87 46
REMARK SMILES IDX 81 47 80 48 36 50 68 51 48 52 67 53 49 54 52 55 66 56 85 57
REMARK SMILES IDX 50 58 51 59 65 61 86 62 53 63 37 64 38 65 46 66 39 67 40 68
REMARK SMILES IDX 44 69 47 70 41 71 42 72 45 73 43 74 69 75 70 76 78 77 71 78
REMARK SMILES IDX 72 79 76 80 79 81 73 82 74 83 77 84 75 85 54 86 55 87 63 88
REMARK SMILES IDX 56 89 57 90 61 91 64 92 58 93 59 94 62 95 60 96
REMARK H PARENT 21 5 13 14 6 25 25 30 84 49 52 60
REMARK Flexibility Score: inf
ROOT
ATOM      1  C   UNL A   1      36.999  22.291  25.341  1.00  0.00     0.118 C 
ENDROOT
BRANCH   1   2
ATOM      2  N   UNL A   1      36.474  22.982  24.193  1.00  0.00    -0.352 N 
ATOM      3  C   UNL A   1      35.181  23.300  23.868  1.00  0.00     0.254 C 
ATOM      4  O   UNL A   1      35.019  23.813  22.760  1.00  0.00    -0.269 OA
ATOM      5  H   UNL A   1      37.149  23.271  23.538  1.00  0.00     0.163 HD
BRANCH   3   6
ATOM      6  C   UNL A   1      34.030  22.959  24.713  1.00  0.00     0.074 A 
ATOM      7  C   UNL A   1      33.408  23.619  25.761  1.00  0.00     0.108 A 
ATOM      8  S   UNL A   1      32.377  22.587  26.666  1.00  0.00    -0.126 S 
ATOM      9  C   UNL A   1      32.431  21.380  25.471  1.00  0.00     0.068 A 
ATOM     10  C   UNL A   1      33.348  21.692  24.497  1.00  0.00     0.028 A 
BRANCH   7  11
ATOM     11  N   UNL A   1      33.458  24.850  26.364  1.00  0.00    -0.317 N 
ATOM     12  C   UNL A   1      33.184  26.100  25.908  1.00  0.00     0.229 C 
ATOM     13  O   UNL A   1      33.751  27.039  26.484  1.00  0.00    -0.274 OA
ATOM     14  H   UNL A   1      33.749  24.823  27.305  1.00  0.00     0.170 HD
BRANCH  12  15
ATOM     15  C   UNL A   1      32.069  26.413  24.911  1.00  0.00     0.139 C 
BRANCH  15  16
ATOM     16  C   UNL A   1      32.246  26.107  23.462  1.00  0.00     0.002 A 
ATOM     17  C   UNL A   1      34.070  27.974  23.279  1.00  0.00     0.067 C 
ATOM     18  C   UNL A   1      33.241  26.878  22.638  1.00  0.00     0.049 A 
ATOM     19  N   UNL A   1      33.500  26.654  21.391  1.00  0.00    -0.198 NA
ATOM     20  C   UNL A   1      32.838  25.652  20.744  1.00  0.00     0.345 A 
ATOM     21  C   UNL A   1      31.693  25.067  22.807  1.00  0.00     0.022 A 
ATOM     22  O   UNL A   1      33.010  25.387  19.557  1.00  0.00    -0.246 OA
ATOM     23  N   UNL A   1      31.980  24.879  21.481  1.00  0.00    -0.310 N 
ATOM     24  C   UNL A   1      30.755  24.045  23.388  1.00  0.00     0.065 C 
ATOM     25  H   UNL A   1      31.536  24.130  21.022  1.00  0.00     0.171 HD
ENDBRANCH  15  16
ENDBRANCH  12  15
ENDBRANCH   7  11
ENDBRANCH   3   6
ENDBRANCH   1   2
BRANCH   1  26
ATOM     26  C   UNL A   1      37.918  21.130  25.014  1.00  0.00     0.042 C 
BRANCH  26  27
ATOM     27  C   UNL A   1      39.054  20.939  26.011  1.00  0.00     0.118 C 
BRANCH  27  28
ATOM     28  N   UNL A   1      39.888  19.762  25.780  1.00  0.00    -0.352 N 
ATOM     29  C   UNL A   1      41.235  19.594  26.016  1.00  0.00     0.251 C 
ATOM     30  H   UNL A   1      39.423  18.980  25.404  1.00  0.00     0.163 HD
ATOM     31  O   UNL A   1      41.783  18.518  25.804  1.00  0.00    -0.269 OA
BRANCH  29  32
ATOM     32  C   UNL A   1      42.035  20.759  26.440  1.00  0.00     0.039 A 
ATOM     33  C   UNL A   1      42.447  21.667  25.463  1.00  0.00     0.014 A 
ATOM     34  C   UNL A   1      42.240  21.029  27.794  1.00  0.00     0.014 A 
ATOM     35  C   UNL A   1      42.954  22.905  25.853  1.00  0.00     0.010 A 
ATOM     36  C   UNL A   1      42.641  22.303  28.178  1.00  0.00     0.010 A 
ATOM     37  C   UNL A   1      42.987  23.260  27.212  1.00  0.00    -0.014 A 
BRANCH  37  38
ATOM     38  C   UNL A   1      43.342  24.642  27.625  1.00  0.00     0.031 A 
ATOM     39  C   UNL A   1      44.777  25.082  27.652  1.00  0.00     0.074 A 
ATOM     40  C   UNL A   1      42.367  25.484  28.025  1.00  0.00     0.049 A 
ATOM     41  N   UNL A   1      45.277  26.250  27.968  1.00  0.00    -0.248 NA
ATOM     42  C   UNL A   1      45.789  24.070  27.314  1.00  0.00     0.031 C 
ATOM     43  C   UNL A   1      40.945  25.146  28.129  1.00  0.00     0.029 A 
ATOM     44  N   UNL A   1      42.421  26.799  28.415  1.00  0.00    -0.354 N 
ATOM     45  C   UNL A   1      46.655  26.108  27.872  1.00  0.00     0.074 A 
ATOM     46  C   UNL A   1      46.917  24.724  27.544  1.00  0.00     0.031 C 
ATOM     47  C   UNL A   1      40.258  26.237  28.505  1.00  0.00     0.029 A 
ATOM     48  C   UNL A   1      41.191  27.341  28.700  1.00  0.00     0.049 A 
ATOM     49  H   UNL A   1      43.262  27.305  28.485  1.00  0.00     0.167 HD
ATOM     50  C   UNL A   1      47.614  27.054  28.006  1.00  0.00     0.037 A 
ATOM     51  C   UNL A   1      40.854  28.594  29.063  1.00  0.00     0.037 A 
ATOM     52  C   UNL A   1      47.346  28.435  28.309  1.00  0.00     0.049 A 
ATOM     53  C   UNL A   1      41.937  29.631  29.185  1.00  0.00     0.074 A 
ATOM     54  C   UNL A   1      48.238  29.487  28.404  1.00  0.00     0.029 A 
ATOM     55  N   UNL A   1      46.085  28.953  28.571  1.00  0.00    -0.354 N 
ATOM     56  N   UNL A   1      43.228  29.508  28.995  1.00  0.00    -0.248 NA
ATOM     57  C   UNL A   1      41.512  30.987  29.561  1.00  0.00     0.031 C 
ATOM     58  C   UNL A   1      47.524  30.633  28.770  1.00  0.00     0.029 A 
ATOM     59  C   UNL A   1      46.179  30.307  28.851  1.00  0.00     0.049 A 
ATOM     60  H   UNL A   1      45.249  28.435  28.561  1.00  0.00     0.167 HD
ATOM     61  C   UNL A   1      43.766  30.770  29.205  1.00  0.00     0.074 A 
ATOM     62  C   UNL A   1      42.657  31.651  29.509  1.00  0.00     0.031 C 
ATOM     63  C   UNL A   1      45.063  31.165  29.157  1.00  0.00     0.037 A 
BRANCH  50  64
ATOM     64  C   UNL A   1      49.040  26.624  27.814  1.00  0.00     0.064 A 
ATOM     65  C   UNL A   1      49.600  26.489  26.533  1.00  0.00     0.173 A 
ATOM     66  C   UNL A   1      49.864  26.362  28.917  1.00  0.00     0.173 A 
ATOM     67  F   UNL A   1      48.852  26.713  25.441  1.00  0.00    -0.203 F 
ATOM     68  C   UNL A   1      50.918  26.075  26.365  1.00  0.00     0.198 A 
ATOM     69  C   UNL A   1      51.192  25.981  28.748  1.00  0.00     0.198 A 
ATOM     70  F   UNL A   1      49.381  26.477  30.164  1.00  0.00    -0.203 F 
ATOM     71  F   UNL A   1      51.411  25.898  25.132  1.00  0.00    -0.200 F 
ATOM     72  C   UNL A   1      51.715  25.828  27.472  1.00  0.00     0.200 A 
ATOM     73  F   UNL A   1      51.966  25.754  29.818  1.00  0.00    -0.200 F 
ATOM     74  F   UNL A   1      52.986  25.436  27.310  1.00  0.00    -0.200 F 
ENDBRANCH  50  64
BRANCH  51  75
ATOM     75  C   UNL A   1      39.427  28.949  29.292  1.00  0.00     0.064 A 
ATOM     76  C   UNL A   1      38.621  29.408  28.239  1.00  0.00     0.173 A 
ATOM     77  C   UNL A   1      38.843  28.851  30.562  1.00  0.00     0.173 A 
ATOM     78  F   UNL A   1      39.139  29.538  27.009  1.00  0.00    -0.203 F 
ATOM     79  C   UNL A   1      37.294  29.779  28.454  1.00  0.00     0.198 A 
ATOM     80  C   UNL A   1      37.507  29.192  30.771  1.00  0.00     0.198 A 
ATOM     81  F   UNL A   1      39.566  28.410  31.603  1.00  0.00    -0.203 F 
ATOM     82  F   UNL A   1      36.564  30.262  27.440  1.00  0.00    -0.200 F 
ATOM     83  C   UNL A   1      36.738  29.665  29.718  1.00  0.00     0.200 A 
ATOM     84  F   UNL A   1      36.967  29.066  31.990  1.00  0.00    -0.200 F 
ATOM     85  F   UNL A   1      35.461  30.019  29.925  1.00  0.00    -0.200 F 
ENDBRANCH  51  75
BRANCH  63  86
ATOM     86  C   UNL A   1      45.344  32.616  29.421  1.00  0.00     0.064 A 
ATOM     87  C   UNL A   1      45.325  33.569  28.390  1.00  0.00     0.173 A 
ATOM     88  C   UNL A   1      45.621  33.062  30.722  1.00  0.00     0.173 A 
ATOM     89  F   UNL A   1      45.079  33.190  27.127  1.00  0.00    -0.203 F 
ATOM     90  C   UNL A   1      45.609  34.907  28.646  1.00  0.00     0.198 A 
ATOM     91  C   UNL A   1      45.871  34.408  30.980  1.00  0.00     0.198 A 
ATOM     92  F   UNL A   1      45.645  32.195  31.745  1.00  0.00    -0.203 F 
ATOM     93  F   UNL A   1      45.646  35.787  27.637  1.00  0.00    -0.200 F 
ATOM     94  C   UNL A   1      45.876  35.326  29.942  1.00  0.00     0.200 A 
ATOM     95  F   UNL A   1      46.114  34.813  32.234  1.00  0.00    -0.200 F 
ATOM     96  F   UNL A   1      46.149  36.615  30.188  1.00  0.00    -0.200 F 
ENDBRANCH  63  86
ENDBRANCH  37  38
ENDBRANCH  29  32
ENDBRANCH  27  28
ENDBRANCH  26  27
ENDBRANCH   1  26
TORSDOF 13
ENDMDL
