MODEL 1
REMARK VINA RESULT:     -12.8      0.000      0.000
REMARK SMILES C[C@H]1CC[C@@H]([C@@H](Cc2ccccc2)C(=O)NCCCNC(=O)c2ccc(-c3c4nc(c(-c5c(F)c(F)c(F)c(F)c5F)c5ccc([nH]5)c(-c5c(F)c(F)c(F)c(F)c5F)c5nc(c(-c6c(F)c(F)c(F)c(F)c6F)c6ccc3[nH]6)C=C5)C=C4)cc2)C[C@@H]1C
REMARK SMILES IDX 18 1 17 2 16 3 14 4 15 5 6 7 5 8 1 9 2 10 3 11 87 12 4 13
REMARK SMILES IDX 86 14 88 15 7 16 8 17 9 18 13 19 10 20 12 21 11 22 19 23
REMARK SMILES IDX 20 24 21 25 22 27 23 28 24 29 85 30 25 31 84 32 26 33 27 34
REMARK SMILES IDX 28 35 78 36 29 37 83 38 77 39 79 40 30 41 82 42 76 43 75 44
REMARK SMILES IDX 31 46 63 47 43 48 62 49 44 50 47 51 61 52 80 53 45 54 46 55
REMARK SMILES IDX 60 57 81 58 48 59 32 60 33 61 41 62 34 63 35 64 39 65 42 66
REMARK SMILES IDX 36 67 37 68 40 69 38 70 64 71 65 72 73 73 66 74 67 75 71 76
REMARK SMILES IDX 74 77 68 78 69 79 72 80 70 81 49 82 50 83 58 84 51 85 52 86
REMARK SMILES IDX 56 87 59 88 53 89 54 90 57 91 55 92
REMARK H PARENT 16 6 20 26 79 45 47 56
REMARK Flexibility Score: inf
ROOT
ATOM      1  C   UNL A   1      32.983  29.191  23.713  1.00  0.00     0.042 C 
ENDROOT
BRANCH   1   2
ATOM      2  C   UNL A   1      31.671  28.742  23.113  1.00  0.00     0.117 C 
BRANCH   2   3
ATOM      3  N   UNL A   1      31.800  27.814  22.034  1.00  0.00    -0.356 N 
ATOM      4  C   UNL A   1      31.954  26.471  22.130  1.00  0.00     0.223 C 
ATOM      5  O   UNL A   1      31.843  25.827  21.081  1.00  0.00    -0.275 OA
ATOM      6  H   UNL A   1      31.773  28.190  21.125  1.00  0.00     0.163 HD
BRANCH   4   7
ATOM      7  C   UNL A   1      32.318  25.757  23.456  1.00  0.00     0.086 C 
BRANCH   7   8
ATOM      8  C   UNL A   1      31.128  24.894  24.003  1.00  0.00     0.002 C 
ATOM      9  C   UNL A   1      32.738  22.603  27.366  1.00  0.00     0.008 C 
ATOM     10  C   UNL A   1      31.677  23.084  26.366  1.00  0.00    -0.011 C 
ATOM     11  C   UNL A   1      31.531  24.609  26.520  1.00  0.00     0.004 C 
ATOM     12  C   UNL A   1      32.068  22.707  24.925  1.00  0.00    -0.011 C 
ATOM     13  C   UNL A   1      30.685  25.255  25.432  1.00  0.00     0.005 C 
ATOM     14  C   UNL A   1      31.186  23.374  23.874  1.00  0.00     0.008 C 
ATOM     15  C   UNL A   1      32.150  21.204  24.663  1.00  0.00     0.008 C 
ENDBRANCH   7   8
BRANCH   7  16
ATOM     16  C   UNL A   1      33.842  25.575  23.774  1.00  0.00     0.049 C 
BRANCH  16  17
ATOM     17  C   UNL A   1      34.811  24.432  24.095  1.00  0.00    -0.047 A 
ATOM     18  C   UNL A   1      35.326  24.454  25.413  1.00  0.00     0.004 A 
ATOM     19  C   UNL A   1      35.288  23.392  23.289  1.00  0.00     0.004 A 
ATOM     20  C   UNL A   1      36.232  23.497  25.889  1.00  0.00     0.000 A 
ATOM     21  C   UNL A   1      36.197  22.430  23.755  1.00  0.00     0.000 A 
ATOM     22  C   UNL A   1      36.668  22.480  25.056  1.00  0.00     0.000 A 
ENDBRANCH  16  17
ENDBRANCH   7  16
ENDBRANCH   4   7
ENDBRANCH   2   3
ENDBRANCH   1   2
BRANCH   1  23
ATOM     23  C   UNL A   1      33.018  29.109  25.229  1.00  0.00     0.118 C 
BRANCH  23  24
ATOM     24  N   UNL A   1      32.531  30.283  25.946  1.00  0.00    -0.352 N 
ATOM     25  C   UNL A   1      33.131  31.109  26.871  1.00  0.00     0.251 C 
ATOM     26  H   UNL A   1      31.604  30.533  25.727  1.00  0.00     0.163 HD
ATOM     27  O   UNL A   1      32.508  32.085  27.287  1.00  0.00    -0.269 OA
BRANCH  25  28
ATOM     28  C   UNL A   1      34.471  30.816  27.435  1.00  0.00     0.039 A 
ATOM     29  C   UNL A   1      35.345  31.882  27.681  1.00  0.00     0.014 A 
ATOM     30  C   UNL A   1      34.876  29.526  27.757  1.00  0.00     0.014 A 
ATOM     31  C   UNL A   1      36.555  31.661  28.347  1.00  0.00     0.010 A 
ATOM     32  C   UNL A   1      35.992  29.329  28.559  1.00  0.00     0.010 A 
ATOM     33  C   UNL A   1      36.857  30.390  28.856  1.00  0.00    -0.014 A 
BRANCH  33  34
ATOM     34  C   UNL A   1      38.069  30.120  29.676  1.00  0.00     0.031 A 
ATOM     35  C   UNL A   1      39.135  29.193  29.149  1.00  0.00     0.074 A 
ATOM     36  C   UNL A   1      38.160  30.604  30.930  1.00  0.00     0.049 A 
ATOM     37  N   UNL A   1      40.163  28.670  29.767  1.00  0.00    -0.248 NA
ATOM     38  C   UNL A   1      38.993  28.748  27.752  1.00  0.00     0.031 C 
ATOM     39  C   UNL A   1      37.170  31.459  31.589  1.00  0.00     0.029 A 
ATOM     40  N   UNL A   1      39.131  30.431  31.887  1.00  0.00    -0.354 N 
ATOM     41  C   UNL A   1      40.751  27.803  28.855  1.00  0.00     0.074 A 
ATOM     42  C   UNL A   1      39.929  27.817  27.665  1.00  0.00     0.031 C 
ATOM     43  C   UNL A   1      37.598  31.762  32.824  1.00  0.00     0.029 A 
ATOM     44  C   UNL A   1      38.865  31.082  33.067  1.00  0.00     0.049 A 
ATOM     45  H   UNL A   1      39.940  29.890  31.741  1.00  0.00     0.167 HD
ATOM     46  C   UNL A   1      41.891  27.083  28.981  1.00  0.00     0.037 A 
ATOM     47  C   UNL A   1      39.561  31.118  34.220  1.00  0.00     0.037 A 
ATOM     48  C   UNL A   1      42.744  27.129  30.137  1.00  0.00     0.049 A 
ATOM     49  C   UNL A   1      40.849  30.346  34.321  1.00  0.00     0.074 A 
ATOM     50  C   UNL A   1      43.968  26.512  30.333  1.00  0.00     0.029 A 
ATOM     51  N   UNL A   1      42.469  27.850  31.290  1.00  0.00    -0.354 N 
ATOM     52  N   UNL A   1      41.424  29.576  33.430  1.00  0.00    -0.248 NA
ATOM     53  C   UNL A   1      41.586  30.452  35.588  1.00  0.00     0.031 C 
ATOM     54  C   UNL A   1      44.413  26.828  31.620  1.00  0.00     0.029 A 
ATOM     55  C   UNL A   1      43.493  27.681  32.208  1.00  0.00     0.049 A 
ATOM     56  H   UNL A   1      41.665  28.398  31.435  1.00  0.00     0.167 HD
ATOM     57  C   UNL A   1      42.600  29.129  34.015  1.00  0.00     0.074 A 
ATOM     58  C   UNL A   1      42.665  29.726  35.333  1.00  0.00     0.031 C 
ATOM     59  C   UNL A   1      43.543  28.296  33.508  1.00  0.00     0.037 A 
BRANCH  46  60
ATOM     60  C   UNL A   1      42.289  26.201  27.830  1.00  0.00     0.064 A 
ATOM     61  C   UNL A   1      41.729  24.927  27.647  1.00  0.00     0.173 A 
ATOM     62  C   UNL A   1      43.229  26.643  26.887  1.00  0.00     0.173 A 
ATOM     63  F   UNL A   1      40.834  24.450  28.527  1.00  0.00    -0.203 F 
ATOM     64  C   UNL A   1      42.122  24.115  26.587  1.00  0.00     0.198 A 
ATOM     65  C   UNL A   1      43.594  25.842  25.808  1.00  0.00     0.198 A 
ATOM     66  F   UNL A   1      43.793  27.855  27.009  1.00  0.00    -0.203 F 
ATOM     67  F   UNL A   1      41.620  22.877  26.472  1.00  0.00    -0.200 F 
ATOM     68  C   UNL A   1      43.050  24.575  25.666  1.00  0.00     0.200 A 
ATOM     69  F   UNL A   1      44.481  26.294  24.910  1.00  0.00    -0.200 F 
ATOM     70  F   UNL A   1      43.425  23.793  24.644  1.00  0.00    -0.200 F 
ENDBRANCH  46  60
BRANCH  47  71
ATOM     71  C   UNL A   1      39.073  31.940  35.358  1.00  0.00     0.064 A 
ATOM     72  C   UNL A   1      39.364  33.310  35.426  1.00  0.00     0.173 A 
ATOM     73  C   UNL A   1      38.310  31.383  36.394  1.00  0.00     0.173 A 
ATOM     74  F   UNL A   1      40.107  33.884  34.469  1.00  0.00    -0.203 F 
ATOM     75  C   UNL A   1      38.929  34.087  36.498  1.00  0.00     0.198 A 
ATOM     76  C   UNL A   1      37.851  32.168  37.451  1.00  0.00     0.198 A 
ATOM     77  F   UNL A   1      37.998  30.080  36.373  1.00  0.00    -0.203 F 
ATOM     78  F   UNL A   1      39.260  35.385  36.559  1.00  0.00    -0.200 F 
ATOM     79  C   UNL A   1      38.167  33.517  37.506  1.00  0.00     0.200 A 
ATOM     80  F   UNL A   1      37.103  31.616  38.416  1.00  0.00    -0.200 F 
ATOM     81  F   UNL A   1      37.745  34.265  38.534  1.00  0.00    -0.200 F 
ENDBRANCH  47  71
BRANCH  59  82
ATOM     82  C   UNL A   1      44.742  28.014  34.365  1.00  0.00     0.064 A 
ATOM     83  C   UNL A   1      44.787  26.910  35.228  1.00  0.00     0.173 A 
ATOM     84  C   UNL A   1      45.878  28.833  34.282  1.00  0.00     0.173 A 
ATOM     85  F   UNL A   1      43.720  26.106  35.352  1.00  0.00    -0.203 F 
ATOM     86  C   UNL A   1      45.918  26.652  35.998  1.00  0.00     0.198 A 
ATOM     87  C   UNL A   1      47.018  28.554  35.030  1.00  0.00     0.198 A 
ATOM     88  F   UNL A   1      45.889  29.897  33.464  1.00  0.00    -0.203 F 
ATOM     89  F   UNL A   1      45.922  25.619  36.851  1.00  0.00    -0.200 F 
ATOM     90  C   UNL A   1      47.034  27.468  35.892  1.00  0.00     0.200 A 
ATOM     91  F   UNL A   1      48.102  29.335  34.916  1.00  0.00    -0.200 F 
ATOM     92  F   UNL A   1      48.125  27.212  36.627  1.00  0.00    -0.200 F 
ENDBRANCH  59  82
ENDBRANCH  33  34
ENDBRANCH  25  28
ENDBRANCH  23  24
ENDBRANCH   1  23
TORSDOF 13
ENDMDL
MODEL 2
REMARK VINA RESULT:     -12.7      0.183      1.690
REMARK SMILES C[C@H]1CC[C@@H]([C@@H](Cc2ccccc2)C(=O)NCCCNC(=O)c2ccc(-c3c4nc(c(-c5c(F)c(F)c(F)c(F)c5F)c5ccc([nH]5)c(-c5c(F)c(F)c(F)c(F)c5F)c5nc(c(-c6c(F)c(F)c(F)c(F)c6F)c6ccc3[nH]6)C=C5)C=C4)cc2)C[C@@H]1C
REMARK SMILES IDX 18 1 17 2 16 3 14 4 15 5 6 7 5 8 1 9 2 10 3 11 87 12 4 13
REMARK SMILES IDX 86 14 88 15 7 16 8 17 9 18 13 19 10 20 12 21 11 22 19 23
REMARK SMILES IDX 20 24 21 25 22 27 23 28 24 29 85 30 25 31 84 32 26 33 27 34
REMARK SMILES IDX 28 35 78 36 29 37 83 38 77 39 79 40 30 41 82 42 76 43 75 44
REMARK SMILES IDX 31 46 63 47 43 48 62 49 44 50 47 51 61 52 80 53 45 54 46 55
REMARK SMILES IDX 60 57 81 58 48 59 32 60 33 61 41 62 34 63 35 64 39 65 42 66
REMARK SMILES IDX 36 67 37 68 40 69 38 70 64 71 65 72 73 73 66 74 67 75 71 76
REMARK SMILES IDX 74 77 68 78 69 79 72 80 70 81 49 82 50 83 58 84 51 85 52 86
REMARK SMILES IDX 56 87 59 88 53 89 54 90 57 91 55 92
REMARK H PARENT 16 6 20 26 79 45 47 56
REMARK Flexibility Score: inf
ROOT
ATOM      1  C   UNL A   1      32.799  29.078  23.866  1.00  0.00     0.042 C 
ENDROOT
BRANCH   1   2
ATOM      2  C   UNL A   1      31.538  28.404  23.380  1.00  0.00     0.117 C 
BRANCH   2   3
ATOM      3  N   UNL A   1      31.674  27.715  22.137  1.00  0.00    -0.356 N 
ATOM      4  C   UNL A   1      31.904  26.390  21.962  1.00  0.00     0.223 C 
ATOM      5  O   UNL A   1      31.787  25.959  20.809  1.00  0.00    -0.275 OA
ATOM      6  H   UNL A   1      31.592  28.259  21.321  1.00  0.00     0.163 HD
BRANCH   4   7
ATOM      7  C   UNL A   1      32.355  25.454  23.110  1.00  0.00     0.086 C 
BRANCH   7   8
ATOM      8  C   UNL A   1      31.159  24.626  23.696  1.00  0.00     0.002 C 
ATOM      9  C   UNL A   1      32.716  22.597  27.248  1.00  0.00     0.008 C 
ATOM     10  C   UNL A   1      31.672  22.998  26.195  1.00  0.00    -0.011 C 
ATOM     11  C   UNL A   1      31.516  24.529  26.235  1.00  0.00     0.004 C 
ATOM     12  C   UNL A   1      32.091  22.518  24.794  1.00  0.00    -0.011 C 
ATOM     13  C   UNL A   1      30.688  25.088  25.086  1.00  0.00     0.005 C 
ATOM     14  C   UNL A   1      31.226  23.102  23.681  1.00  0.00     0.008 C 
ATOM     15  C   UNL A   1      32.185  21.000  24.644  1.00  0.00     0.008 C 
ENDBRANCH   7   8
BRANCH   7  16
ATOM     16  C   UNL A   1      33.879  25.091  23.177  1.00  0.00     0.049 C 
BRANCH  16  17
ATOM     17  C   UNL A   1      34.817  24.269  24.067  1.00  0.00    -0.047 A 
ATOM     18  C   UNL A   1      35.346  23.111  23.447  1.00  0.00     0.004 A 
ATOM     19  C   UNL A   1      35.210  24.462  25.396  1.00  0.00     0.004 A 
ATOM     20  C   UNL A   1      36.215  22.229  24.104  1.00  0.00     0.000 A 
ATOM     21  C   UNL A   1      36.077  23.583  26.064  1.00  0.00     0.000 A 
ATOM     22  C   UNL A   1      36.582  22.468  25.418  1.00  0.00     0.000 A 
ENDBRANCH  16  17
ENDBRANCH   7  16
ENDBRANCH   4   7
ENDBRANCH   2   3
ENDBRANCH   1   2
BRANCH   1  23
ATOM     23  C   UNL A   1      32.944  29.083  25.378  1.00  0.00     0.118 C 
BRANCH  23  24
ATOM     24  N   UNL A   1      32.492  30.292  26.060  1.00  0.00    -0.352 N 
ATOM     25  C   UNL A   1      33.125  31.138  26.945  1.00  0.00     0.251 C 
ATOM     26  H   UNL A   1      31.567  30.551  25.848  1.00  0.00     0.163 HD
ATOM     27  O   UNL A   1      32.527  32.140  27.336  1.00  0.00    -0.269 OA
BRANCH  25  28
ATOM     28  C   UNL A   1      34.468  30.839  27.496  1.00  0.00     0.039 A 
ATOM     29  C   UNL A   1      35.367  31.895  27.687  1.00  0.00     0.014 A 
ATOM     30  C   UNL A   1      34.855  29.553  27.858  1.00  0.00     0.014 A 
ATOM     31  C   UNL A   1      36.585  31.674  28.339  1.00  0.00     0.010 A 
ATOM     32  C   UNL A   1      35.981  29.363  28.647  1.00  0.00     0.010 A 
ATOM     33  C   UNL A   1      36.871  30.417  28.889  1.00  0.00    -0.014 A 
BRANCH  33  34
ATOM     34  C   UNL A   1      38.093  30.152  29.697  1.00  0.00     0.031 A 
ATOM     35  C   UNL A   1      39.158  29.231  29.160  1.00  0.00     0.074 A 
ATOM     36  C   UNL A   1      38.193  30.637  30.950  1.00  0.00     0.049 A 
ATOM     37  N   UNL A   1      40.194  28.712  29.768  1.00  0.00    -0.248 NA
ATOM     38  C   UNL A   1      39.004  28.785  27.764  1.00  0.00     0.031 C 
ATOM     39  C   UNL A   1      37.206  31.487  31.619  1.00  0.00     0.029 A 
ATOM     40  N   UNL A   1      39.174  30.468  31.898  1.00  0.00    -0.354 N 
ATOM     41  C   UNL A   1      40.778  27.848  28.849  1.00  0.00     0.074 A 
ATOM     42  C   UNL A   1      39.944  27.858  27.668  1.00  0.00     0.031 C 
ATOM     43  C   UNL A   1      37.645  31.792  32.849  1.00  0.00     0.029 A 
ATOM     44  C   UNL A   1      38.918  31.118  33.081  1.00  0.00     0.049 A 
ATOM     45  H   UNL A   1      39.985  29.931  31.743  1.00  0.00     0.167 HD
ATOM     46  C   UNL A   1      41.922  27.133  28.964  1.00  0.00     0.037 A 
ATOM     47  C   UNL A   1      39.624  31.158  34.226  1.00  0.00     0.037 A 
ATOM     48  C   UNL A   1      42.786  27.184  30.112  1.00  0.00     0.049 A 
ATOM     49  C   UNL A   1      40.917  30.392  34.315  1.00  0.00     0.074 A 
ATOM     50  C   UNL A   1      44.014  26.573  30.296  1.00  0.00     0.029 A 
ATOM     51  N   UNL A   1      42.519  27.903  31.268  1.00  0.00    -0.354 N 
ATOM     52  N   UNL A   1      41.487  29.624  33.418  1.00  0.00    -0.248 NA
ATOM     53  C   UNL A   1      41.665  30.501  35.574  1.00  0.00     0.031 C 
ATOM     54  C   UNL A   1      44.471  26.891  31.578  1.00  0.00     0.029 A 
ATOM     55  C   UNL A   1      43.553  27.739  32.175  1.00  0.00     0.049 A 
ATOM     56  H   UNL A   1      41.714  28.447  31.421  1.00  0.00     0.167 HD
ATOM     57  C   UNL A   1      42.671  29.182  33.991  1.00  0.00     0.074 A 
ATOM     58  C   UNL A   1      42.746  29.780  35.309  1.00  0.00     0.031 C 
ATOM     59  C   UNL A   1      43.613  28.355  33.475  1.00  0.00     0.037 A 
BRANCH  46  60
ATOM     60  C   UNL A   1      42.313  26.254  27.810  1.00  0.00     0.064 A 
ATOM     61  C   UNL A   1      43.247  26.668  26.848  1.00  0.00     0.173 A 
ATOM     62  C   UNL A   1      41.760  24.971  27.675  1.00  0.00     0.173 A 
ATOM     63  F   UNL A   1      43.797  27.890  26.923  1.00  0.00    -0.203 F 
ATOM     64  C   UNL A   1      43.583  25.849  25.774  1.00  0.00     0.198 A 
ATOM     65  C   UNL A   1      42.126  24.140  26.618  1.00  0.00     0.198 A 
ATOM     66  F   UNL A   1      40.867  24.520  28.568  1.00  0.00    -0.203 F 
ATOM     67  F   UNL A   1      44.429  26.294  24.833  1.00  0.00    -0.200 F 
ATOM     68  C   UNL A   1      43.028  24.584  25.664  1.00  0.00     0.200 A 
ATOM     69  F   UNL A   1      41.598  22.912  26.520  1.00  0.00    -0.200 F 
ATOM     70  F   UNL A   1      43.355  23.794  24.631  1.00  0.00    -0.200 F 
ENDBRANCH  46  60
BRANCH  47  71
ATOM     71  C   UNL A   1      39.143  31.977  35.369  1.00  0.00     0.064 A 
ATOM     72  C   UNL A   1      39.458  33.341  35.452  1.00  0.00     0.173 A 
ATOM     73  C   UNL A   1      38.364  31.424  36.396  1.00  0.00     0.173 A 
ATOM     74  F   UNL A   1      40.218  33.911  34.505  1.00  0.00    -0.203 F 
ATOM     75  C   UNL A   1      39.030  34.115  36.529  1.00  0.00     0.198 A 
ATOM     76  C   UNL A   1      37.912  32.207  37.457  1.00  0.00     0.198 A 
ATOM     77  F   UNL A   1      38.029  30.127  36.360  1.00  0.00    -0.203 F 
ATOM     78  F   UNL A   1      39.384  35.406  36.605  1.00  0.00    -0.200 F 
ATOM     79  C   UNL A   1      38.252  33.549  37.527  1.00  0.00     0.200 A 
ATOM     80  F   UNL A   1      37.149  31.659  38.412  1.00  0.00    -0.200 F 
ATOM     81  F   UNL A   1      37.836  34.295  38.559  1.00  0.00    -0.200 F 
ENDBRANCH  47  71
BRANCH  59  82
ATOM     82  C   UNL A   1      44.822  28.078  34.320  1.00  0.00     0.064 A 
ATOM     83  C   UNL A   1      45.949  28.910  34.287  1.00  0.00     0.173 A 
ATOM     84  C   UNL A   1      44.829  26.991  35.208  1.00  0.00     0.173 A 
ATOM     85  F   UNL A   1      45.995  29.952  33.443  1.00  0.00    -0.203 F 
ATOM     86  C   UNL A   1      47.052  28.649  35.095  1.00  0.00     0.198 A 
ATOM     87  C   UNL A   1      45.921  26.752  36.038  1.00  0.00     0.198 A 
ATOM     88  F   UNL A   1      43.770  26.170  35.284  1.00  0.00    -0.203 F 
ATOM     89  F   UNL A   1      48.138  29.430  35.014  1.00  0.00    -0.200 F 
ATOM     90  C   UNL A   1      47.034  27.577  35.975  1.00  0.00     0.200 A 
ATOM     91  F   UNL A   1      45.896  25.724  36.897  1.00  0.00    -0.200 F 
ATOM     92  F   UNL A   1      48.093  27.334  36.759  1.00  0.00    -0.200 F 
ENDBRANCH  59  82
ENDBRANCH  33  34
ENDBRANCH  25  28
ENDBRANCH  23  24
ENDBRANCH   1  23
TORSDOF 13
ENDMDL
MODEL 3
REMARK VINA RESULT:     -12.5      0.947      7.547
REMARK SMILES C[C@H]1CC[C@@H]([C@@H](Cc2ccccc2)C(=O)NCCCNC(=O)c2ccc(-c3c4nc(c(-c5c(F)c(F)c(F)c(F)c5F)c5ccc([nH]5)c(-c5c(F)c(F)c(F)c(F)c5F)c5nc(c(-c6c(F)c(F)c(F)c(F)c6F)c6ccc3[nH]6)C=C5)C=C4)cc2)C[C@@H]1C
REMARK SMILES IDX 18 1 17 2 16 3 14 4 15 5 6 7 5 8 1 9 2 10 3 11 87 12 4 13
REMARK SMILES IDX 86 14 88 15 7 16 8 17 9 18 13 19 10 20 12 21 11 22 19 23
REMARK SMILES IDX 20 24 21 25 22 27 23 28 24 29 85 30 25 31 84 32 26 33 27 34
REMARK SMILES IDX 28 35 78 36 29 37 83 38 77 39 79 40 30 41 82 42 76 43 75 44
REMARK SMILES IDX 31 46 63 47 43 48 62 49 44 50 47 51 61 52 80 53 45 54 46 55
REMARK SMILES IDX 60 57 81 58 48 59 32 60 33 61 41 62 34 63 35 64 39 65 42 66
REMARK SMILES IDX 36 67 37 68 40 69 38 70 64 71 65 72 73 73 66 74 67 75 71 76
REMARK SMILES IDX 74 77 68 78 69 79 72 80 70 81 49 82 50 83 58 84 51 85 52 86
REMARK SMILES IDX 56 87 59 88 53 89 54 90 57 91 55 92
REMARK H PARENT 16 6 20 26 79 45 47 56
REMARK Flexibility Score: inf
ROOT
ATOM      1  C   UNL A   1      31.771  28.997  27.241  1.00  0.00     0.042 C 
ENDROOT
BRANCH   1   2
ATOM      2  C   UNL A   1      31.557  27.642  26.609  1.00  0.00     0.117 C 
BRANCH   2   3
ATOM      3  N   UNL A   1      31.219  27.681  25.222  1.00  0.00    -0.356 N 
ATOM      4  C   UNL A   1      31.291  26.657  24.337  1.00  0.00     0.223 C 
ATOM      5  O   UNL A   1      30.763  26.842  23.235  1.00  0.00    -0.275 OA
ATOM      6  H   UNL A   1      30.899  28.543  24.871  1.00  0.00     0.163 HD
BRANCH   4   7
ATOM      7  C   UNL A   1      32.046  25.337  24.636  1.00  0.00     0.086 C 
BRANCH   7   8
ATOM      8  C   UNL A   1      31.073  24.110  24.716  1.00  0.00     0.002 C 
ATOM      9  C   UNL A   1      33.618  20.564  25.032  1.00  0.00     0.008 C 
ATOM     10  C   UNL A   1      32.305  21.355  24.947  1.00  0.00    -0.011 C 
ATOM     11  C   UNL A   1      32.258  22.332  26.137  1.00  0.00     0.004 C 
ATOM     12  C   UNL A   1      32.200  22.106  23.607  1.00  0.00    -0.011 C 
ATOM     13  C   UNL A   1      31.124  23.344  26.050  1.00  0.00     0.005 C 
ATOM     14  C   UNL A   1      31.045  23.101  23.571  1.00  0.00     0.008 C 
ATOM     15  C   UNL A   1      32.153  21.202  22.376  1.00  0.00     0.008 C 
ENDBRANCH   7   8
BRANCH   7  16
ATOM     16  C   UNL A   1      33.582  25.307  24.322  1.00  0.00     0.049 C 
BRANCH  16  17
ATOM     17  C   UNL A   1      34.778  24.382  24.569  1.00  0.00    -0.047 A 
ATOM     18  C   UNL A   1      35.242  23.704  23.416  1.00  0.00     0.004 A 
ATOM     19  C   UNL A   1      35.464  24.080  25.751  1.00  0.00     0.004 A 
ATOM     20  C   UNL A   1      36.319  22.809  23.445  1.00  0.00     0.000 A 
ATOM     21  C   UNL A   1      36.543  23.183  25.791  1.00  0.00     0.000 A 
ATOM     22  C   UNL A   1      36.973  22.549  24.639  1.00  0.00     0.000 A 
ENDBRANCH  16  17
ENDBRANCH   7  16
ENDBRANCH   4   7
ENDBRANCH   2   3
ENDBRANCH   1   2
BRANCH   1  23
ATOM     23  C   UNL A   1      32.493  29.983  26.338  1.00  0.00     0.118 C 
BRANCH  23  24
ATOM     24  N   UNL A   1      32.509  31.371  26.789  1.00  0.00    -0.352 N 
ATOM     25  C   UNL A   1      33.470  32.115  27.436  1.00  0.00     0.251 C 
ATOM     26  H   UNL A   1      31.682  31.867  26.592  1.00  0.00     0.163 HD
ATOM     27  O   UNL A   1      33.250  33.306  27.654  1.00  0.00    -0.269 OA
BRANCH  25  28
ATOM     28  C   UNL A   1      34.725  31.510  27.943  1.00  0.00     0.039 A 
ATOM     29  C   UNL A   1      35.833  32.339  28.159  1.00  0.00     0.014 A 
ATOM     30  C   UNL A   1      34.830  30.156  28.241  1.00  0.00     0.014 A 
ATOM     31  C   UNL A   1      36.983  31.832  28.773  1.00  0.00     0.010 A 
ATOM     32  C   UNL A   1      35.899  29.692  28.996  1.00  0.00     0.010 A 
ATOM     33  C   UNL A   1      36.999  30.518  29.263  1.00  0.00    -0.014 A 
BRANCH  33  34
ATOM     34  C   UNL A   1      38.145  29.960  30.030  1.00  0.00     0.031 A 
ATOM     35  C   UNL A   1      38.373  30.397  31.455  1.00  0.00     0.074 A 
ATOM     36  C   UNL A   1      39.043  29.162  29.421  1.00  0.00     0.049 A 
ATOM     37  N   UNL A   1      39.405  30.193  32.233  1.00  0.00    -0.248 NA
ATOM     38  C   UNL A   1      37.321  31.226  32.068  1.00  0.00     0.031 C 
ATOM     39  C   UNL A   1      38.980  28.714  28.028  1.00  0.00     0.029 A 
ATOM     40  N   UNL A   1      40.202  28.595  29.894  1.00  0.00    -0.354 N 
ATOM     41  C   UNL A   1      39.147  30.907  33.397  1.00  0.00     0.074 A 
ATOM     42  C   UNL A   1      37.896  31.604  33.199  1.00  0.00     0.031 C 
ATOM     43  C   UNL A   1      40.029  27.918  27.771  1.00  0.00     0.029 A 
ATOM     44  C   UNL A   1      40.869  27.840  28.961  1.00  0.00     0.049 A 
ATOM     45  H   UNL A   1      40.524  28.719  30.817  1.00  0.00     0.167 HD
ATOM     46  C   UNL A   1      39.869  30.954  34.542  1.00  0.00     0.037 A 
ATOM     47  C   UNL A   1      42.034  27.169  29.051  1.00  0.00     0.037 A 
ATOM     48  C   UNL A   1      41.074  30.201  34.761  1.00  0.00     0.049 A 
ATOM     49  C   UNL A   1      42.796  27.199  30.348  1.00  0.00     0.074 A 
ATOM     50  C   UNL A   1      41.834  30.104  35.913  1.00  0.00     0.029 A 
ATOM     51  N   UNL A   1      41.685  29.400  33.807  1.00  0.00    -0.354 N 
ATOM     52  N   UNL A   1      42.511  27.831  31.461  1.00  0.00    -0.248 NA
ATOM     53  C   UNL A   1      44.039  26.418  30.403  1.00  0.00     0.031 C 
ATOM     54  C   UNL A   1      42.927  29.274  35.645  1.00  0.00     0.029 A 
ATOM     55  C   UNL A   1      42.823  28.816  34.342  1.00  0.00     0.049 A 
ATOM     56  H   UNL A   1      41.361  29.267  32.888  1.00  0.00     0.167 HD
ATOM     57  C   UNL A   1      43.522  27.504  32.354  1.00  0.00     0.074 A 
ATOM     58  C   UNL A   1      44.419  26.604  31.659  1.00  0.00     0.031 C 
ATOM     59  C   UNL A   1      43.693  27.913  33.636  1.00  0.00     0.037 A 
BRANCH  46  60
ATOM     60  C   UNL A   1      39.362  31.834  35.649  1.00  0.00     0.064 A 
ATOM     61  C   UNL A   1      39.778  33.168  35.784  1.00  0.00     0.173 A 
ATOM     62  C   UNL A   1      38.431  31.343  36.579  1.00  0.00     0.173 A 
ATOM     63  F   UNL A   1      40.676  33.684  34.931  1.00  0.00    -0.203 F 
ATOM     64  C   UNL A   1      39.314  33.964  36.827  1.00  0.00     0.198 A 
ATOM     65  C   UNL A   1      37.941  32.153  37.600  1.00  0.00     0.198 A 
ATOM     66  F   UNL A   1      37.993  30.078  36.494  1.00  0.00    -0.203 F 
ATOM     67  F   UNL A   1      39.776  35.214  36.971  1.00  0.00    -0.200 F 
ATOM     68  C   UNL A   1      38.391  33.458  37.730  1.00  0.00     0.200 A 
ATOM     69  F   UNL A   1      37.039  31.668  38.464  1.00  0.00    -0.200 F 
ATOM     70  F   UNL A   1      37.942  34.227  38.732  1.00  0.00    -0.200 F 
ENDBRANCH  46  60
BRANCH  47  71
ATOM     71  C   UNL A   1      42.532  26.384  27.891  1.00  0.00     0.064 A 
ATOM     72  C   UNL A   1      43.439  26.950  26.983  1.00  0.00     0.173 A 
ATOM     73  C   UNL A   1      42.120  25.064  27.664  1.00  0.00     0.173 A 
ATOM     74  F   UNL A   1      43.846  28.217  27.147  1.00  0.00    -0.203 F 
ATOM     75  C   UNL A   1      43.898  26.232  25.881  1.00  0.00     0.198 A 
ATOM     76  C   UNL A   1      42.603  24.337  26.577  1.00  0.00     0.198 A 
ATOM     77  F   UNL A   1      41.260  24.474  28.506  1.00  0.00    -0.203 F 
ATOM     78  F   UNL A   1      44.730  26.814  25.005  1.00  0.00    -0.200 F 
ATOM     79  C   UNL A   1      43.485  24.924  25.682  1.00  0.00     0.200 A 
ATOM     80  F   UNL A   1      42.213  23.068  26.397  1.00  0.00    -0.200 F 
ATOM     81  F   UNL A   1      43.931  24.231  24.625  1.00  0.00    -0.200 F 
ENDBRANCH  47  71
BRANCH  59  82
ATOM     82  C   UNL A   1      44.873  27.361  34.381  1.00  0.00     0.064 A 
ATOM     83  C   UNL A   1      46.104  28.032  34.413  1.00  0.00     0.173 A 
ATOM     84  C   UNL A   1      44.753  26.168  35.110  1.00  0.00     0.173 A 
ATOM     85  F   UNL A   1      46.271  29.168  33.719  1.00  0.00    -0.203 F 
ATOM     86  C   UNL A   1      47.180  27.515  35.129  1.00  0.00     0.198 A 
ATOM     87  C   UNL A   1      45.822  25.671  35.850  1.00  0.00     0.198 A 
ATOM     88  F   UNL A   1      43.594  25.492  35.118  1.00  0.00    -0.203 F 
ATOM     89  F   UNL A   1      48.360  28.149  35.108  1.00  0.00    -0.200 F 
ATOM     90  C   UNL A   1      47.036  26.341  35.853  1.00  0.00     0.200 A 
ATOM     91  F   UNL A   1      45.678  24.543  36.560  1.00  0.00    -0.200 F 
ATOM     92  F   UNL A   1      48.071  25.851  36.549  1.00  0.00    -0.200 F 
ENDBRANCH  59  82
ENDBRANCH  33  34
ENDBRANCH  25  28
ENDBRANCH  23  24
ENDBRANCH   1  23
TORSDOF 13
ENDMDL
