MODEL 1
REMARK VINA RESULT:     -12.5      0.000      0.000
REMARK SMILES CC[C@H]1SC[C@H](C(=O)NCCCNC(=O)c2ccc(-c3c4nc(c(-c5c(F)c(F)c(F)c(F)c5F)c5ccc([nH]5)c(-c5c(F)c(F)c(F)c(F)c5F)c5nc(c(-c6c(F)c(F)c(F)c(F)c6F)c6ccc3[nH]6)C=C5)C=C4)cc2)N1C(=O)Cc1ccc(F)c(F)c1
REMARK SMILES IDX 10 1 9 2 7 3 8 4 6 6 3 7 4 8 79 9 5 10 2 11 1 12 80 13 81 14
REMARK SMILES IDX 82 15 83 16 84 17 90 18 85 19 88 20 86 21 89 22 87 23 11 24
REMARK SMILES IDX 12 25 13 26 14 27 15 29 16 30 17 31 78 32 18 33 77 34 19 35
REMARK SMILES IDX 20 36 21 37 71 38 22 39 76 40 70 41 72 42 23 43 75 44 69 45
REMARK SMILES IDX 68 46 24 48 56 49 36 50 55 51 37 52 40 53 54 54 73 55 38 56
REMARK SMILES IDX 39 57 53 59 74 60 41 61 25 62 26 63 34 64 27 65 28 66 32 67
REMARK SMILES IDX 35 68 29 69 30 70 33 71 31 72 57 73 58 74 66 75 59 76 60 77
REMARK SMILES IDX 64 78 67 79 61 80 62 81 65 82 63 83 42 84 43 85 51 86 44 87
REMARK SMILES IDX 45 88 49 89 52 90 46 91 47 92 50 93 48 94
REMARK H PARENT 9 5 13 28 72 47 40 58
REMARK Flexibility Score: inf
ROOT
ATOM      1  C   UNL A   1      36.746  20.671  25.148  1.00  0.00     0.117 C 
ENDROOT
BRANCH   1   2
ATOM      2  N   UNL A   1      36.578  21.614  24.064  1.00  0.00    -0.354 N 
ATOM      3  C   UNL A   1      35.762  22.696  23.932  1.00  0.00     0.243 C 
ATOM      4  O   UNL A   1      35.834  23.306  22.858  1.00  0.00    -0.273 OA
ATOM      5  H   UNL A   1      37.157  21.444  23.285  1.00  0.00     0.163 HD
BRANCH   3   6
ATOM      6  C   UNL A   1      34.639  23.043  24.937  1.00  0.00     0.185 C 
ATOM      7  C   UNL A   1      32.643  24.499  24.724  1.00  0.00     0.143 C 
ATOM      8  S   UNL A   1      34.032  25.635  25.013  1.00  0.00    -0.134 SA
ATOM      9  N   UNL A   1      33.285  23.222  24.390  1.00  0.00    -0.318 N 
ATOM     10  C   UNL A   1      35.084  24.315  25.666  1.00  0.00     0.107 C 
BRANCH   7  11
ATOM     11  C   UNL A   1      31.659  24.348  25.909  1.00  0.00     0.033 C 
ATOM     12  C   UNL A   1      30.362  25.147  25.899  1.00  0.00     0.007 C 
ENDBRANCH   7  11
BRANCH   9  13
ATOM     13  C   UNL A   1      32.730  22.179  23.666  1.00  0.00     0.228 C 
ATOM     14  O   UNL A   1      32.549  22.271  22.450  1.00  0.00    -0.274 OA
BRANCH  13  15
ATOM     15  C   UNL A   1      32.188  20.968  24.423  1.00  0.00     0.135 C 
BRANCH  15  16
ATOM     16  C   UNL A   1      32.743  19.639  23.994  1.00  0.00    -0.036 A 
ATOM     17  C   UNL A   1      32.153  18.903  22.957  1.00  0.00     0.007 A 
ATOM     18  C   UNL A   1      33.854  19.106  24.668  1.00  0.00     0.046 A 
ATOM     19  C   UNL A   1      32.722  17.704  22.532  1.00  0.00     0.043 A 
ATOM     20  C   UNL A   1      34.402  17.897  24.251  1.00  0.00     0.159 A 
ATOM     21  C   UNL A   1      33.851  17.211  23.177  1.00  0.00     0.158 A 
ATOM     22  F   UNL A   1      35.477  17.411  24.887  1.00  0.00    -0.204 F 
ATOM     23  F   UNL A   1      34.404  16.068  22.751  1.00  0.00    -0.204 F 
ENDBRANCH  15  16
ENDBRANCH  13  15
ENDBRANCH   9  13
ENDBRANCH   3   6
ENDBRANCH   1   2
BRANCH   1  24
ATOM     24  C   UNL A   1      37.976  19.807  25.001  1.00  0.00     0.042 C 
BRANCH  24  25
ATOM     25  C   UNL A   1      39.105  20.247  25.903  1.00  0.00     0.118 C 
BRANCH  25  26
ATOM     26  N   UNL A   1      40.147  19.232  26.027  1.00  0.00    -0.352 N 
ATOM     27  C   UNL A   1      41.508  19.374  26.125  1.00  0.00     0.251 C 
ATOM     28  H   UNL A   1      39.823  18.302  26.043  1.00  0.00     0.163 HD
ATOM     29  O   UNL A   1      42.241  18.396  25.993  1.00  0.00    -0.269 OA
BRANCH  27  30
ATOM     30  C   UNL A   1      42.087  20.709  26.368  1.00  0.00     0.039 A 
ATOM     31  C   UNL A   1      42.398  21.537  25.288  1.00  0.00     0.014 A 
ATOM     32  C   UNL A   1      42.312  21.148  27.674  1.00  0.00     0.014 A 
ATOM     33  C   UNL A   1      42.873  22.827  25.528  1.00  0.00     0.010 A 
ATOM     34  C   UNL A   1      42.628  22.473  27.910  1.00  0.00     0.010 A 
ATOM     35  C   UNL A   1      42.958  23.316  26.842  1.00  0.00    -0.014 A 
BRANCH  35  36
ATOM     36  C   UNL A   1      43.467  24.675  27.144  1.00  0.00     0.031 A 
ATOM     37  C   UNL A   1      42.523  25.705  27.708  1.00  0.00     0.074 A 
ATOM     38  C   UNL A   1      44.740  24.998  26.853  1.00  0.00     0.049 A 
ATOM     39  N   UNL A   1      42.729  26.974  27.953  1.00  0.00    -0.248 NA
ATOM     40  C   UNL A   1      41.146  25.262  27.991  1.00  0.00     0.031 C 
ATOM     41  C   UNL A   1      45.730  24.103  26.251  1.00  0.00     0.029 A 
ATOM     42  N   UNL A   1      45.420  26.178  27.019  1.00  0.00    -0.354 N 
ATOM     43  C   UNL A   1      41.509  27.474  28.390  1.00  0.00     0.074 A 
ATOM     44  C   UNL A   1      40.548  26.401  28.296  1.00  0.00     0.031 C 
ATOM     45  C   UNL A   1      46.899  24.753  26.135  1.00  0.00     0.029 A 
ATOM     46  C   UNL A   1      46.729  26.122  26.609  1.00  0.00     0.049 A 
ATOM     47  H   UNL A   1      45.007  26.989  27.395  1.00  0.00     0.167 HD
ATOM     48  C   UNL A   1      41.223  28.707  28.868  1.00  0.00     0.037 A 
ATOM     49  C   UNL A   1      47.680  27.074  26.617  1.00  0.00     0.037 A 
ATOM     50  C   UNL A   1      42.196  29.756  28.999  1.00  0.00     0.049 A 
ATOM     51  C   UNL A   1      47.339  28.439  27.156  1.00  0.00     0.074 A 
ATOM     52  C   UNL A   1      42.033  31.024  29.525  1.00  0.00     0.029 A 
ATOM     53  N   UNL A   1      43.522  29.652  28.602  1.00  0.00    -0.354 N 
ATOM     54  N   UNL A   1      46.200  28.881  27.632  1.00  0.00    -0.248 NA
ATOM     55  C   UNL A   1      48.420  29.433  27.168  1.00  0.00     0.031 C 
ATOM     56  C   UNL A   1      43.247  31.706  29.397  1.00  0.00     0.029 A 
ATOM     57  C   UNL A   1      44.183  30.841  28.854  1.00  0.00     0.049 A 
ATOM     58  H   UNL A   1      43.931  28.851  28.201  1.00  0.00     0.167 HD
ATOM     59  C   UNL A   1      46.437  30.188  28.037  1.00  0.00     0.074 A 
ATOM     60  C   UNL A   1      47.831  30.463  27.759  1.00  0.00     0.031 C 
ATOM     61  C   UNL A   1      45.578  31.083  28.586  1.00  0.00     0.037 A 
BRANCH  48  62
ATOM     62  C   UNL A   1      39.807  28.978  29.293  1.00  0.00     0.064 A 
ATOM     63  C   UNL A   1      38.842  29.448  28.389  1.00  0.00     0.173 A 
ATOM     64  C   UNL A   1      39.404  28.745  30.617  1.00  0.00     0.173 A 
ATOM     65  F   UNL A   1      39.177  29.703  27.114  1.00  0.00    -0.203 F 
ATOM     66  C   UNL A   1      37.538  29.710  28.801  1.00  0.00     0.198 A 
ATOM     67  C   UNL A   1      38.089  28.972  31.016  1.00  0.00     0.198 A 
ATOM     68  F   UNL A   1      40.285  28.295  31.523  1.00  0.00    -0.203 F 
ATOM     69  F   UNL A   1      36.652  30.217  27.933  1.00  0.00    -0.200 F 
ATOM     70  C   UNL A   1      37.161  29.462  30.112  1.00  0.00     0.200 A 
ATOM     71  F   UNL A   1      37.723  28.720  32.280  1.00  0.00    -0.200 F 
ATOM     72  F   UNL A   1      35.903  29.706  30.505  1.00  0.00    -0.200 F 
ENDBRANCH  48  62
BRANCH  49  73
ATOM     73  C   UNL A   1      49.053  26.765  26.132  1.00  0.00     0.064 A 
ATOM     74  C   UNL A   1      50.026  26.257  27.003  1.00  0.00     0.173 A 
ATOM     75  C   UNL A   1      49.425  26.983  24.797  1.00  0.00     0.173 A 
ATOM     76  F   UNL A   1      49.726  26.046  28.293  1.00  0.00    -0.203 F 
ATOM     77  C   UNL A   1      51.327  26.009  26.567  1.00  0.00     0.198 A 
ATOM     78  C   UNL A   1      50.715  26.703  24.354  1.00  0.00     0.198 A 
ATOM     79  F   UNL A   1      48.529  27.458  23.919  1.00  0.00    -0.203 F 
ATOM     80  F   UNL A   1      52.251  25.578  27.436  1.00  0.00    -0.200 F 
ATOM     81  C   UNL A   1      51.669  26.229  25.241  1.00  0.00     0.200 A 
ATOM     82  F   UNL A   1      51.037  26.900  23.068  1.00  0.00    -0.200 F 
ATOM     83  F   UNL A   1      52.918  25.990  24.821  1.00  0.00    -0.200 F 
ENDBRANCH  49  73
BRANCH  61  84
ATOM     84  C   UNL A   1      46.136  32.420  28.979  1.00  0.00     0.064 A 
ATOM     85  C   UNL A   1      46.687  32.650  30.248  1.00  0.00     0.173 A 
ATOM     86  C   UNL A   1      46.158  33.475  28.052  1.00  0.00     0.173 A 
ATOM     87  F   UNL A   1      46.680  31.680  31.174  1.00  0.00    -0.203 F 
ATOM     88  C   UNL A   1      47.211  33.896  30.584  1.00  0.00     0.198 A 
ATOM     89  C   UNL A   1      46.715  34.706  28.379  1.00  0.00     0.198 A 
ATOM     90  F   UNL A   1      45.653  33.304  26.820  1.00  0.00    -0.203 F 
ATOM     91  F   UNL A   1      47.681  34.110  31.820  1.00  0.00    -0.200 F 
ATOM     92  C   UNL A   1      47.232  34.919  29.648  1.00  0.00     0.200 A 
ATOM     93  F   UNL A   1      46.752  35.687  27.467  1.00  0.00    -0.200 F 
ATOM     94  F   UNL A   1      47.745  36.114  29.970  1.00  0.00    -0.200 F 
ENDBRANCH  61  84
ENDBRANCH  35  36
ENDBRANCH  27  30
ENDBRANCH  25  26
ENDBRANCH  24  25
ENDBRANCH   1  24
TORSDOF 14
ENDMDL
MODEL 2
REMARK VINA RESULT:     -12.4      0.356      1.969
REMARK SMILES CC[C@H]1SC[C@H](C(=O)NCCCNC(=O)c2ccc(-c3c4nc(c(-c5c(F)c(F)c(F)c(F)c5F)c5ccc([nH]5)c(-c5c(F)c(F)c(F)c(F)c5F)c5nc(c(-c6c(F)c(F)c(F)c(F)c6F)c6ccc3[nH]6)C=C5)C=C4)cc2)N1C(=O)Cc1ccc(F)c(F)c1
REMARK SMILES IDX 10 1 9 2 7 3 8 4 6 6 3 7 4 8 79 9 5 10 2 11 1 12 80 13 81 14
REMARK SMILES IDX 82 15 83 16 84 17 90 18 85 19 88 20 86 21 89 22 87 23 11 24
REMARK SMILES IDX 12 25 13 26 14 27 15 29 16 30 17 31 78 32 18 33 77 34 19 35
REMARK SMILES IDX 20 36 21 37 71 38 22 39 76 40 70 41 72 42 23 43 75 44 69 45
REMARK SMILES IDX 68 46 24 48 56 49 36 50 55 51 37 52 40 53 54 54 73 55 38 56
REMARK SMILES IDX 39 57 53 59 74 60 41 61 25 62 26 63 34 64 27 65 28 66 32 67
REMARK SMILES IDX 35 68 29 69 30 70 33 71 31 72 57 73 58 74 66 75 59 76 60 77
REMARK SMILES IDX 64 78 67 79 61 80 62 81 65 82 63 83 42 84 43 85 51 86 44 87
REMARK SMILES IDX 45 88 49 89 52 90 46 91 47 92 50 93 48 94
REMARK H PARENT 9 5 13 28 72 47 40 58
REMARK Flexibility Score: inf
ROOT
ATOM      1  C   UNL A   1      36.679  20.709  25.091  1.00  0.00     0.117 C 
ENDROOT
BRANCH   1   2
ATOM      2  N   UNL A   1      36.623  21.634  23.981  1.00  0.00    -0.354 N 
ATOM      3  C   UNL A   1      35.864  22.746  23.775  1.00  0.00     0.243 C 
ATOM      4  O   UNL A   1      36.033  23.329  22.696  1.00  0.00    -0.273 OA
ATOM      5  H   UNL A   1      37.244  21.424  23.245  1.00  0.00     0.163 HD
BRANCH   3   6
ATOM      6  C   UNL A   1      34.692  23.159  24.695  1.00  0.00     0.185 C 
ATOM      7  C   UNL A   1      32.683  24.549  24.265  1.00  0.00     0.143 C 
ATOM      8  S   UNL A   1      34.040  25.734  24.507  1.00  0.00    -0.134 SA
ATOM      9  N   UNL A   1      33.360  23.260  24.077  1.00  0.00    -0.318 N 
ATOM     10  C   UNL A   1      35.083  24.501  25.321  1.00  0.00     0.107 C 
BRANCH   7  11
ATOM     11  C   UNL A   1      31.651  24.487  25.416  1.00  0.00     0.033 C 
ATOM     12  C   UNL A   1      31.708  25.538  26.517  1.00  0.00     0.007 C 
ENDBRANCH   7  11
BRANCH   9  13
ATOM     13  C   UNL A   1      32.855  22.144  23.429  1.00  0.00     0.228 C 
ATOM     14  O   UNL A   1      32.722  22.122  22.204  1.00  0.00    -0.274 OA
BRANCH  13  15
ATOM     15  C   UNL A   1      32.306  20.994  24.271  1.00  0.00     0.135 C 
BRANCH  15  16
ATOM     16  C   UNL A   1      32.815  19.628  23.906  1.00  0.00    -0.036 A 
ATOM     17  C   UNL A   1      32.194  18.861  22.909  1.00  0.00     0.007 A 
ATOM     18  C   UNL A   1      33.913  19.093  24.599  1.00  0.00     0.046 A 
ATOM     19  C   UNL A   1      32.721  17.625  22.541  1.00  0.00     0.043 A 
ATOM     20  C   UNL A   1      34.418  17.848  24.240  1.00  0.00     0.159 A 
ATOM     21  C   UNL A   1      33.838  17.128  23.204  1.00  0.00     0.158 A 
ATOM     22  F   UNL A   1      35.480  17.359  24.893  1.00  0.00    -0.204 F 
ATOM     23  F   UNL A   1      34.350  15.948  22.832  1.00  0.00    -0.204 F 
ENDBRANCH  15  16
ENDBRANCH  13  15
ENDBRANCH   9  13
ENDBRANCH   3   6
ENDBRANCH   1   2
BRANCH   1  24
ATOM     24  C   UNL A   1      37.849  19.757  25.016  1.00  0.00     0.042 C 
BRANCH  24  25
ATOM     25  C   UNL A   1      39.070  20.281  25.735  1.00  0.00     0.118 C 
BRANCH  25  26
ATOM     26  N   UNL A   1      40.090  19.253  25.922  1.00  0.00    -0.352 N 
ATOM     27  C   UNL A   1      41.444  19.379  26.100  1.00  0.00     0.251 C 
ATOM     28  H   UNL A   1      39.753  18.328  25.920  1.00  0.00     0.163 HD
ATOM     29  O   UNL A   1      42.171  18.392  26.013  1.00  0.00    -0.269 OA
BRANCH  27  30
ATOM     30  C   UNL A   1      42.024  20.707  26.375  1.00  0.00     0.039 A 
ATOM     31  C   UNL A   1      42.203  21.615  25.330  1.00  0.00     0.014 A 
ATOM     32  C   UNL A   1      42.382  21.059  27.677  1.00  0.00     0.014 A 
ATOM     33  C   UNL A   1      42.680  22.896  25.609  1.00  0.00     0.010 A 
ATOM     34  C   UNL A   1      42.701  22.372  27.972  1.00  0.00     0.010 A 
ATOM     35  C   UNL A   1      42.899  23.295  26.938  1.00  0.00    -0.014 A 
BRANCH  35  36
ATOM     36  C   UNL A   1      43.416  24.641  27.281  1.00  0.00     0.031 A 
ATOM     37  C   UNL A   1      42.486  25.649  27.904  1.00  0.00     0.074 A 
ATOM     38  C   UNL A   1      44.683  24.975  26.973  1.00  0.00     0.049 A 
ATOM     39  N   UNL A   1      42.698  26.907  28.192  1.00  0.00    -0.248 NA
ATOM     40  C   UNL A   1      41.115  25.196  28.200  1.00  0.00     0.031 C 
ATOM     41  C   UNL A   1      45.658  24.103  26.316  1.00  0.00     0.029 A 
ATOM     42  N   UNL A   1      45.367  26.148  27.170  1.00  0.00    -0.354 N 
ATOM     43  C   UNL A   1      41.489  27.391  28.675  1.00  0.00     0.074 A 
ATOM     44  C   UNL A   1      40.525  26.322  28.561  1.00  0.00     0.031 C 
ATOM     45  C   UNL A   1      46.825  24.758  26.199  1.00  0.00     0.029 A 
ATOM     46  C   UNL A   1      46.667  26.108  26.729  1.00  0.00     0.049 A 
ATOM     47  H   UNL A   1      44.963  26.944  27.586  1.00  0.00     0.167 HD
ATOM     48  C   UNL A   1      41.214  28.604  29.206  1.00  0.00     0.037 A 
ATOM     49  C   UNL A   1      47.619  27.058  26.752  1.00  0.00     0.037 A 
ATOM     50  C   UNL A   1      42.191  29.648  29.355  1.00  0.00     0.049 A 
ATOM     51  C   UNL A   1      47.291  28.401  27.350  1.00  0.00     0.074 A 
ATOM     52  C   UNL A   1      42.040  30.895  29.932  1.00  0.00     0.029 A 
ATOM     53  N   UNL A   1      43.507  29.559  28.925  1.00  0.00    -0.354 N 
ATOM     54  N   UNL A   1      46.163  28.825  27.868  1.00  0.00    -0.248 NA
ATOM     55  C   UNL A   1      48.372  29.394  27.377  1.00  0.00     0.031 C 
ATOM     56  C   UNL A   1      43.252  31.581  29.804  1.00  0.00     0.029 A 
ATOM     57  C   UNL A   1      44.175  30.738  29.207  1.00  0.00     0.049 A 
ATOM     58  H   UNL A   1      43.906  28.774  28.485  1.00  0.00     0.167 HD
ATOM     59  C   UNL A   1      46.409  30.116  28.316  1.00  0.00     0.074 A 
ATOM     60  C   UNL A   1      47.797  30.401  28.019  1.00  0.00     0.031 C 
ATOM     61  C   UNL A   1      45.564  30.989  28.918  1.00  0.00     0.037 A 
BRANCH  48  62
ATOM     62  C   UNL A   1      39.808  28.859  29.672  1.00  0.00     0.064 A 
ATOM     63  C   UNL A   1      39.410  28.603  30.994  1.00  0.00     0.173 A 
ATOM     64  C   UNL A   1      38.851  29.387  28.792  1.00  0.00     0.173 A 
ATOM     65  F   UNL A   1      40.281  28.083  31.872  1.00  0.00    -0.203 F 
ATOM     66  C   UNL A   1      38.100  28.830  31.406  1.00  0.00     0.198 A 
ATOM     67  C   UNL A   1      37.552  29.649  29.219  1.00  0.00     0.198 A 
ATOM     68  F   UNL A   1      39.177  29.653  27.518  1.00  0.00    -0.203 F 
ATOM     69  F   UNL A   1      37.730  28.518  32.656  1.00  0.00    -0.200 F 
ATOM     70  C   UNL A   1      37.175  29.362  30.522  1.00  0.00     0.200 A 
ATOM     71  F   UNL A   1      36.662  30.175  28.366  1.00  0.00    -0.200 F 
ATOM     72  F   UNL A   1      35.917  29.588  30.923  1.00  0.00    -0.200 F 
ENDBRANCH  48  62
BRANCH  49  73
ATOM     73  C   UNL A   1      48.980  26.768  26.226  1.00  0.00     0.064 A 
ATOM     74  C   UNL A   1      49.326  27.092  24.906  1.00  0.00     0.173 A 
ATOM     75  C   UNL A   1      49.957  26.152  27.022  1.00  0.00     0.173 A 
ATOM     76  F   UNL A   1      48.423  27.668  24.100  1.00  0.00    -0.203 F 
ATOM     77  C   UNL A   1      50.584  26.781  24.393  1.00  0.00     0.198 A 
ATOM     78  C   UNL A   1      51.225  25.872  26.518  1.00  0.00     0.198 A 
ATOM     79  F   UNL A   1      49.682  25.830  28.294  1.00  0.00    -0.203 F 
ATOM     80  F   UNL A   1      50.866  27.050  23.111  1.00  0.00    -0.200 F 
ATOM     81  C   UNL A   1      51.534  26.175  25.201  1.00  0.00     0.200 A 
ATOM     82  F   UNL A   1      52.146  25.302  27.307  1.00  0.00    -0.200 F 
ATOM     83  F   UNL A   1      52.743  25.877  24.708  1.00  0.00    -0.200 F 
ENDBRANCH  49  73
BRANCH  61  84
ATOM     84  C   UNL A   1      46.131  32.311  29.350  1.00  0.00     0.064 A 
ATOM     85  C   UNL A   1      46.077  33.445  28.527  1.00  0.00     0.173 A 
ATOM     86  C   UNL A   1      46.697  32.452  30.627  1.00  0.00     0.173 A 
ATOM     87  F   UNL A   1      45.558  33.360  27.293  1.00  0.00    -0.203 F 
ATOM     88  C   UNL A   1      46.598  34.664  28.954  1.00  0.00     0.198 A 
ATOM     89  C   UNL A   1      47.182  33.680  31.065  1.00  0.00     0.198 A 
ATOM     90  F   UNL A   1      46.763  31.400  31.458  1.00  0.00    -0.203 F 
ATOM     91  F   UNL A   1      46.586  35.720  28.130  1.00  0.00    -0.200 F 
ATOM     92  C   UNL A   1      47.141  34.782  30.225  1.00  0.00     0.200 A 
ATOM     93  F   UNL A   1      47.689  33.796  32.300  1.00  0.00    -0.200 F 
ATOM     94  F   UNL A   1      47.632  35.958  30.639  1.00  0.00    -0.200 F 
ENDBRANCH  61  84
ENDBRANCH  35  36
ENDBRANCH  27  30
ENDBRANCH  25  26
ENDBRANCH  24  25
ENDBRANCH   1  24
TORSDOF 14
ENDMDL
MODEL 3
REMARK VINA RESULT:     -12.4      0.578      7.393
REMARK SMILES CC[C@H]1SC[C@H](C(=O)NCCCNC(=O)c2ccc(-c3c4nc(c(-c5c(F)c(F)c(F)c(F)c5F)c5ccc([nH]5)c(-c5c(F)c(F)c(F)c(F)c5F)c5nc(c(-c6c(F)c(F)c(F)c(F)c6F)c6ccc3[nH]6)C=C5)C=C4)cc2)N1C(=O)Cc1ccc(F)c(F)c1
REMARK SMILES IDX 10 1 9 2 7 3 8 4 6 6 3 7 4 8 79 9 5 10 2 11 1 12 80 13 81 14
REMARK SMILES IDX 82 15 83 16 84 17 90 18 85 19 88 20 86 21 89 22 87 23 11 24
REMARK SMILES IDX 12 25 13 26 14 27 15 29 16 30 17 31 78 32 18 33 77 34 19 35
REMARK SMILES IDX 20 36 21 37 71 38 22 39 76 40 70 41 72 42 23 43 75 44 69 45
REMARK SMILES IDX 68 46 24 48 56 49 36 50 55 51 37 52 40 53 54 54 73 55 38 56
REMARK SMILES IDX 39 57 53 59 74 60 41 61 25 62 26 63 34 64 27 65 28 66 32 67
REMARK SMILES IDX 35 68 29 69 30 70 33 71 31 72 57 73 58 74 66 75 59 76 60 77
REMARK SMILES IDX 64 78 67 79 61 80 62 81 65 82 63 83 42 84 43 85 51 86 44 87
REMARK SMILES IDX 45 88 49 89 52 90 46 91 47 92 50 93 48 94
REMARK H PARENT 9 5 13 28 72 47 40 58
REMARK Flexibility Score: inf
ROOT
ATOM      1  C   UNL A   1      37.015  20.666  25.070  1.00  0.00     0.117 C 
ENDROOT
BRANCH   1   2
ATOM      2  N   UNL A   1      36.783  21.607  23.997  1.00  0.00    -0.354 N 
ATOM      3  C   UNL A   1      35.924  22.659  23.893  1.00  0.00     0.243 C 
ATOM      4  O   UNL A   1      35.945  23.276  22.820  1.00  0.00    -0.273 OA
ATOM      5  H   UNL A   1      37.346  21.462  23.201  1.00  0.00     0.163 HD
BRANCH   3   6
ATOM      6  C   UNL A   1      34.816  22.958  24.928  1.00  0.00     0.185 C 
ATOM      7  C   UNL A   1      32.825  24.433  24.816  1.00  0.00     0.143 C 
ATOM      8  S   UNL A   1      34.223  25.546  25.144  1.00  0.00    -0.134 SA
ATOM      9  N   UNL A   1      33.455  23.172  24.409  1.00  0.00    -0.318 N 
ATOM     10  C   UNL A   1      35.277  24.190  25.714  1.00  0.00     0.107 C 
BRANCH   7  11
ATOM     11  C   UNL A   1      31.856  24.227  26.005  1.00  0.00     0.033 C 
ATOM     12  C   UNL A   1      30.560  25.026  26.050  1.00  0.00     0.007 C 
ENDBRANCH   7  11
BRANCH   9  13
ATOM     13  C   UNL A   1      32.886  22.169  23.641  1.00  0.00     0.228 C 
ATOM     14  O   UNL A   1      32.769  22.289  22.419  1.00  0.00    -0.274 OA
BRANCH  13  15
ATOM     15  C   UNL A   1      32.249  20.975  24.349  1.00  0.00     0.135 C 
BRANCH  15  16
ATOM     16  C   UNL A   1      32.802  19.631  23.969  1.00  0.00    -0.036 A 
ATOM     17  C   UNL A   1      32.165  18.824  23.014  1.00  0.00     0.007 A 
ATOM     18  C   UNL A   1      33.960  19.155  24.607  1.00  0.00     0.046 A 
ATOM     19  C   UNL A   1      32.730  17.609  22.629  1.00  0.00     0.043 A 
ATOM     20  C   UNL A   1      34.503  17.932  24.231  1.00  0.00     0.159 A 
ATOM     21  C   UNL A   1      33.904  17.173  23.235  1.00  0.00     0.158 A 
ATOM     22  F   UNL A   1      35.622  17.501  24.831  1.00  0.00    -0.204 F 
ATOM     23  F   UNL A   1      34.451  16.015  22.846  1.00  0.00    -0.204 F 
ENDBRANCH  15  16
ENDBRANCH  13  15
ENDBRANCH   9  13
ENDBRANCH   3   6
ENDBRANCH   1   2
BRANCH   1  24
ATOM     24  C   UNL A   1      38.308  19.901  24.924  1.00  0.00     0.042 C 
BRANCH  24  25
ATOM     25  C   UNL A   1      39.230  20.090  26.106  1.00  0.00     0.118 C 
BRANCH  25  26
ATOM     26  N   UNL A   1      40.390  19.205  26.055  1.00  0.00    -0.352 N 
ATOM     27  C   UNL A   1      41.728  19.507  26.041  1.00  0.00     0.251 C 
ATOM     28  H   UNL A   1      40.179  18.244  26.025  1.00  0.00     0.163 HD
ATOM     29  O   UNL A   1      42.553  18.638  25.765  1.00  0.00    -0.269 OA
BRANCH  27  30
ATOM     30  C   UNL A   1      42.169  20.883  26.336  1.00  0.00     0.039 A 
ATOM     31  C   UNL A   1      42.354  21.791  25.292  1.00  0.00     0.014 A 
ATOM     32  C   UNL A   1      42.390  21.280  27.655  1.00  0.00     0.014 A 
ATOM     33  C   UNL A   1      42.696  23.112  25.584  1.00  0.00     0.010 A 
ATOM     34  C   UNL A   1      42.570  22.619  27.951  1.00  0.00     0.010 A 
ATOM     35  C   UNL A   1      42.772  23.544  26.919  1.00  0.00    -0.014 A 
BRANCH  35  36
ATOM     36  C   UNL A   1      43.143  24.933  27.277  1.00  0.00     0.031 A 
ATOM     37  C   UNL A   1      44.557  25.400  27.045  1.00  0.00     0.074 A 
ATOM     38  C   UNL A   1      42.242  25.741  27.865  1.00  0.00     0.049 A 
ATOM     39  N   UNL A   1      45.121  26.534  27.372  1.00  0.00    -0.248 NA
ATOM     40  C   UNL A   1      45.476  24.445  26.400  1.00  0.00     0.031 C 
ATOM     41  C   UNL A   1      40.862  25.381  28.194  1.00  0.00     0.029 A 
ATOM     42  N   UNL A   1      42.358  27.038  28.299  1.00  0.00    -0.354 N 
ATOM     43  C   UNL A   1      46.452  26.413  26.996  1.00  0.00     0.074 A 
ATOM     44  C   UNL A   1      46.636  25.071  26.498  1.00  0.00     0.031 C 
ATOM     45  C   UNL A   1      40.249  26.443  28.741  1.00  0.00     0.029 A 
ATOM     46  C   UNL A   1      41.203  27.541  28.845  1.00  0.00     0.049 A 
ATOM     47  H   UNL A   1      43.191  27.557  28.227  1.00  0.00     0.167 HD
ATOM     48  C   UNL A   1      47.428  27.350  27.023  1.00  0.00     0.037 A 
ATOM     49  C   UNL A   1      40.951  28.754  29.371  1.00  0.00     0.037 A 
ATOM     50  C   UNL A   1      47.225  28.698  27.481  1.00  0.00     0.049 A 
ATOM     51  C   UNL A   1      42.051  29.782  29.388  1.00  0.00     0.074 A 
ATOM     52  C   UNL A   1      48.124  29.747  27.498  1.00  0.00     0.029 A 
ATOM     53  N   UNL A   1      46.032  29.180  27.998  1.00  0.00    -0.354 N 
ATOM     54  N   UNL A   1      43.288  29.680  28.966  1.00  0.00    -0.248 NA
ATOM     55  C   UNL A   1      41.716  31.098  29.946  1.00  0.00     0.031 C 
ATOM     56  C   UNL A   1      47.490  30.852  28.076  1.00  0.00     0.029 A 
ATOM     57  C   UNL A   1      46.177  30.509  28.356  1.00  0.00     0.049 A 
ATOM     58  H   UNL A   1      45.204  28.655  28.096  1.00  0.00     0.167 HD
ATOM     59  C   UNL A   1      43.867  30.925  29.170  1.00  0.00     0.074 A 
ATOM     60  C   UNL A   1      42.841  31.770  29.743  1.00  0.00     0.031 C 
ATOM     61  C   UNL A   1      45.133  31.335  28.908  1.00  0.00     0.037 A 
BRANCH  48  62
ATOM     62  C   UNL A   1      48.792  26.951  26.535  1.00  0.00     0.064 A 
ATOM     63  C   UNL A   1      49.754  26.403  27.399  1.00  0.00     0.173 A 
ATOM     64  C   UNL A   1      49.135  27.098  25.183  1.00  0.00     0.173 A 
ATOM     65  F   UNL A   1      49.485  26.256  28.705  1.00  0.00    -0.203 F 
ATOM     66  C   UNL A   1      51.019  26.053  26.934  1.00  0.00     0.198 A 
ATOM     67  C   UNL A   1      50.388  26.710  24.715  1.00  0.00     0.198 A 
ATOM     68  F   UNL A   1      48.254  27.614  24.313  1.00  0.00    -0.203 F 
ATOM     69  F   UNL A   1      51.941  25.591  27.791  1.00  0.00    -0.200 F 
ATOM     70  C   UNL A   1      51.332  26.197  25.592  1.00  0.00     0.200 A 
ATOM     71  F   UNL A   1      50.684  26.838  23.415  1.00  0.00    -0.200 F 
ATOM     72  F   UNL A   1      52.547  25.851  25.145  1.00  0.00    -0.200 F 
ENDBRANCH  48  62
BRANCH  49  73
ATOM     73  C   UNL A   1      39.595  29.077  29.891  1.00  0.00     0.064 A 
ATOM     74  C   UNL A   1      38.620  29.643  29.057  1.00  0.00     0.173 A 
ATOM     75  C   UNL A   1      39.248  28.842  31.230  1.00  0.00     0.173 A 
ATOM     76  F   UNL A   1      38.907  29.903  27.773  1.00  0.00    -0.203 F 
ATOM     77  C   UNL A   1      37.363  29.991  29.549  1.00  0.00     0.198 A 
ATOM     78  C   UNL A   1      37.980  29.159  31.712  1.00  0.00     0.198 A 
ATOM     79  F   UNL A   1      40.139  28.292  32.068  1.00  0.00    -0.203 F 
ATOM     80  F   UNL A   1      36.472  30.584  28.742  1.00  0.00    -0.200 F 
ATOM     81  C   UNL A   1      37.043  29.745  30.875  1.00  0.00     0.200 A 
ATOM     82  F   UNL A   1      37.669  28.903  32.990  1.00  0.00    -0.200 F 
ATOM     83  F   UNL A   1      35.835  30.078  31.348  1.00  0.00    -0.200 F 
ENDBRANCH  49  73
BRANCH  61  84
ATOM     84  C   UNL A   1      45.462  32.773  29.183  1.00  0.00     0.064 A 
ATOM     85  C   UNL A   1      46.016  33.187  30.403  1.00  0.00     0.173 A 
ATOM     86  C   UNL A   1      45.262  33.745  28.190  1.00  0.00     0.173 A 
ATOM     87  F   UNL A   1      46.217  32.300  31.389  1.00  0.00    -0.203 F 
ATOM     88  C   UNL A   1      46.326  34.526  30.630  1.00  0.00     0.198 A 
ATOM     89  C   UNL A   1      45.607  35.074  28.407  1.00  0.00     0.198 A 
ATOM     90  F   UNL A   1      44.744  33.400  27.000  1.00  0.00    -0.203 F 
ATOM     91  F   UNL A   1      46.802  34.906  31.823  1.00  0.00    -0.200 F 
ATOM     92  C   UNL A   1      46.130  35.465  29.630  1.00  0.00     0.200 A 
ATOM     93  F   UNL A   1      45.434  35.978  27.432  1.00  0.00    -0.200 F 
ATOM     94  F   UNL A   1      46.439  36.751  29.846  1.00  0.00    -0.200 F 
ENDBRANCH  61  84
ENDBRANCH  35  36
ENDBRANCH  27  30
ENDBRANCH  25  26
ENDBRANCH  24  25
ENDBRANCH   1  24
TORSDOF 14
ENDMDL
