MODEL 1
REMARK VINA RESULT:     -12.9      0.000      0.000
REMARK SMILES Cc1cc(C)c2c(C(=O)NCCCNC(=O)c3ccc(-c4c5nc(c(-c6c(F)c(F)c(F)c(F)c6F)c6ccc([nH]6)c(-c6c(F)c(F)c(F)c(F)c6F)c6nc(c(-c7c(F)c(F)c(F)c(F)c7F)c7ccc4[nH]7)C=C6)C=C5)cc3)cc(-c3ccco3)nc2c1
REMARK SMILES IDX 12 1 11 2 10 3 8 4 9 5 7 7 1 8 2 9 3 10 89 11 4 12 88 13
REMARK SMILES IDX 5 14 6 15 87 16 81 17 80 18 82 19 83 20 86 21 84 22 85 23
REMARK SMILES IDX 13 24 14 25 15 26 16 28 17 29 18 30 79 31 19 32 78 33 20 34
REMARK SMILES IDX 21 35 22 36 72 37 23 38 77 39 71 40 73 41 24 42 76 43 70 44
REMARK SMILES IDX 69 45 25 47 57 48 37 49 56 50 38 51 41 52 55 53 74 54 39 55
REMARK SMILES IDX 40 56 54 58 75 59 42 60 26 61 27 62 35 63 28 64 29 65 33 66
REMARK SMILES IDX 36 67 30 68 31 69 34 70 32 71 58 72 59 73 67 74 60 75 61 76
REMARK SMILES IDX 65 77 68 78 62 79 63 80 66 81 64 82 43 83 44 84 52 85 45 86
REMARK SMILES IDX 46 87 50 88 53 89 47 90 48 91 51 92 49 93
REMARK H PARENT 10 6 14 27 73 46 41 57
REMARK Flexibility Score: inf
ROOT
ATOM      1  C   UNL A   1      33.021  27.805  24.441  1.00  0.00     0.042 C 
ENDROOT
BRANCH   1   2
ATOM      2  C   UNL A   1      33.437  26.356  24.649  1.00  0.00     0.118 C 
BRANCH   2   3
ATOM      3  N   UNL A   1      32.597  25.609  25.575  1.00  0.00    -0.352 N 
ATOM      4  C   UNL A   1      32.742  24.355  26.121  1.00  0.00     0.252 C 
ATOM      5  O   UNL A   1      31.910  23.988  26.952  1.00  0.00    -0.269 OA
ATOM      6  H   UNL A   1      31.782  26.084  25.859  1.00  0.00     0.163 HD
BRANCH   4   7
ATOM      7  C   UNL A   1      33.780  23.393  25.666  1.00  0.00     0.051 A 
ATOM      8  C   UNL A   1      32.675  18.167  23.742  1.00  0.00     0.044 C 
ATOM      9  C   UNL A   1      33.013  19.595  24.042  1.00  0.00    -0.049 A 
ATOM     10  C   UNL A   1      32.153  20.621  23.669  1.00  0.00     0.007 A 
ATOM     11  C   UNL A   1      34.235  19.937  24.626  1.00  0.00     0.032 A 
ATOM     12  C   UNL A   1      32.425  21.946  24.043  1.00  0.00    -0.041 A 
ATOM     13  C   UNL A   1      34.529  21.235  25.016  1.00  0.00     0.072 A 
ATOM     14  C   UNL A   1      31.617  23.032  23.371  1.00  0.00     0.045 C 
ATOM     15  C   UNL A   1      33.536  22.224  24.899  1.00  0.00     0.016 A 
ATOM     16  N   UNL A   1      35.754  21.477  25.503  1.00  0.00    -0.244 NA
ATOM     17  C   UNL A   1      36.036  22.710  25.971  1.00  0.00     0.107 A 
ATOM     18  C   UNL A   1      35.062  23.661  26.160  1.00  0.00     0.046 A 
BRANCH  17  19
ATOM     19  C   UNL A   1      37.436  22.985  26.236  1.00  0.00     0.152 A 
ATOM     20  C   UNL A   1      38.177  24.120  26.501  1.00  0.00     0.052 A 
ATOM     21  O   UNL A   1      38.275  21.909  26.119  1.00  0.00    -0.463 OA
ATOM     22  C   UNL A   1      39.535  23.713  26.556  1.00  0.00     0.043 A 
ATOM     23  C   UNL A   1      39.540  22.361  26.308  1.00  0.00     0.196 A 
ENDBRANCH  17  19
ENDBRANCH   4   7
ENDBRANCH   2   3
ENDBRANCH   1   2
BRANCH   1  24
ATOM     24  C   UNL A   1      33.926  28.823  25.129  1.00  0.00     0.118 C 
BRANCH  24  25
ATOM     25  N   UNL A   1      33.215  29.940  25.742  1.00  0.00    -0.352 N 
ATOM     26  C   UNL A   1      33.506  30.722  26.836  1.00  0.00     0.251 C 
ATOM     27  H   UNL A   1      32.375  30.178  25.289  1.00  0.00     0.163 HD
ATOM     28  O   UNL A   1      32.686  31.539  27.234  1.00  0.00    -0.269 OA
BRANCH  26  29
ATOM     29  C   UNL A   1      34.784  30.560  27.564  1.00  0.00     0.039 A 
ATOM     30  C   UNL A   1      35.650  31.656  27.671  1.00  0.00     0.014 A 
ATOM     31  C   UNL A   1      35.153  29.334  28.112  1.00  0.00     0.014 A 
ATOM     32  C   UNL A   1      36.832  31.543  28.410  1.00  0.00     0.010 A 
ATOM     33  C   UNL A   1      36.271  29.248  28.930  1.00  0.00     0.010 A 
ATOM     34  C   UNL A   1      37.128  30.348  29.080  1.00  0.00    -0.014 A 
BRANCH  34  35
ATOM     35  C   UNL A   1      38.355  30.170  29.895  1.00  0.00     0.031 A 
ATOM     36  C   UNL A   1      39.474  29.326  29.349  1.00  0.00     0.074 A 
ATOM     37  C   UNL A   1      38.422  30.661  31.147  1.00  0.00     0.049 A 
ATOM     38  N   UNL A   1      40.528  28.846  29.957  1.00  0.00    -0.248 NA
ATOM     39  C   UNL A   1      39.365  28.936  27.933  1.00  0.00     0.031 C 
ATOM     40  C   UNL A   1      37.396  31.478  31.794  1.00  0.00     0.029 A 
ATOM     41  N   UNL A   1      39.391  30.520  32.108  1.00  0.00    -0.354 N 
ATOM     42  C   UNL A   1      41.186  28.074  29.009  1.00  0.00     0.074 A 
ATOM     43  C   UNL A   1      40.387  28.104  27.804  1.00  0.00     0.031 C 
ATOM     44  C   UNL A   1      37.796  31.777  33.041  1.00  0.00     0.029 A 
ATOM     45  C   UNL A   1      39.081  31.134  33.297  1.00  0.00     0.049 A 
ATOM     46  H   UNL A   1      40.229  30.024  31.960  1.00  0.00     0.167 HD
ATOM     47  C   UNL A   1      42.365  27.420  29.125  1.00  0.00     0.037 A 
ATOM     48  C   UNL A   1      39.755  31.159  34.462  1.00  0.00     0.037 A 
ATOM     49  C   UNL A   1      43.175  27.428  30.314  1.00  0.00     0.049 A 
ATOM     50  C   UNL A   1      41.060  30.415  34.571  1.00  0.00     0.074 A 
ATOM     51  C   UNL A   1      44.403  26.830  30.526  1.00  0.00     0.029 A 
ATOM     52  N   UNL A   1      42.838  28.084  31.490  1.00  0.00    -0.354 N 
ATOM     53  N   UNL A   1      41.681  29.696  33.668  1.00  0.00    -0.248 NA
ATOM     54  C   UNL A   1      41.754  30.485  35.864  1.00  0.00     0.031 C 
ATOM     55  C   UNL A   1      44.797  27.099  31.841  1.00  0.00     0.029 A 
ATOM     56  C   UNL A   1      43.834  27.900  32.434  1.00  0.00     0.049 A 
ATOM     57  H   UNL A   1      42.013  28.602  31.632  1.00  0.00     0.167 HD
ATOM     58  C   UNL A   1      42.848  29.248  34.272  1.00  0.00     0.074 A 
ATOM     59  C   UNL A   1      42.856  29.790  35.615  1.00  0.00     0.031 C 
ATOM     60  C   UNL A   1      43.823  28.455  33.764  1.00  0.00     0.037 A 
BRANCH  47  61
ATOM     61  C   UNL A   1      42.854  26.655  27.931  1.00  0.00     0.064 A 
ATOM     62  C   UNL A   1      43.595  27.279  26.916  1.00  0.00     0.173 A 
ATOM     63  C   UNL A   1      42.603  25.280  27.808  1.00  0.00     0.173 A 
ATOM     64  F   UNL A   1      43.848  28.596  26.977  1.00  0.00    -0.203 F 
ATOM     65  C   UNL A   1      44.044  26.561  25.810  1.00  0.00     0.198 A 
ATOM     66  C   UNL A   1      43.079  24.560  26.716  1.00  0.00     0.198 A 
ATOM     67  F   UNL A   1      41.899  24.634  28.751  1.00  0.00    -0.203 F 
ATOM     68  F   UNL A   1      44.705  27.191  24.828  1.00  0.00    -0.200 F 
ATOM     69  C   UNL A   1      43.792  25.201  25.715  1.00  0.00     0.200 A 
ATOM     70  F   UNL A   1      42.845  23.243  26.631  1.00  0.00    -0.200 F 
ATOM     71  F   UNL A   1      44.230  24.510  24.654  1.00  0.00    -0.200 F 
ENDBRANCH  47  61
BRANCH  48  72
ATOM     72  C   UNL A   1      39.224  31.940  35.609  1.00  0.00     0.064 A 
ATOM     73  C   UNL A   1      39.560  33.294  35.763  1.00  0.00     0.173 A 
ATOM     74  C   UNL A   1      38.373  31.367  36.564  1.00  0.00     0.173 A 
ATOM     75  F   UNL A   1      40.390  33.880  34.889  1.00  0.00    -0.203 F 
ATOM     76  C   UNL A   1      39.075  34.039  36.836  1.00  0.00     0.198 A 
ATOM     77  C   UNL A   1      37.867  32.121  37.622  1.00  0.00     0.198 A 
ATOM     78  F   UNL A   1      38.019  30.078  36.460  1.00  0.00    -0.203 F 
ATOM     79  F   UNL A   1      39.442  35.320  36.978  1.00  0.00    -0.200 F 
ATOM     80  C   UNL A   1      38.222  33.454  37.760  1.00  0.00     0.200 A 
ATOM     81  F   UNL A   1      37.034  31.556  38.506  1.00  0.00    -0.200 F 
ATOM     82  F   UNL A   1      37.749  34.173  38.786  1.00  0.00    -0.200 F 
ENDBRANCH  48  72
BRANCH  60  83
ATOM     83  C   UNL A   1      44.993  28.147  34.652  1.00  0.00     0.064 A 
ATOM     84  C   UNL A   1      45.016  27.004  35.463  1.00  0.00     0.173 A 
ATOM     85  C   UNL A   1      46.127  28.973  34.645  1.00  0.00     0.173 A 
ATOM     86  F   UNL A   1      43.951  26.190  35.513  1.00  0.00    -0.203 F 
ATOM     87  C   UNL A   1      46.125  26.711  36.253  1.00  0.00     0.198 A 
ATOM     88  C   UNL A   1      47.244  28.662  35.413  1.00  0.00     0.198 A 
ATOM     89  F   UNL A   1      46.157  30.074  33.878  1.00  0.00    -0.203 F 
ATOM     90  F   UNL A   1      46.109  25.636  37.053  1.00  0.00    -0.200 F 
ATOM     91  C   UNL A   1      47.240  27.535  36.221  1.00  0.00     0.200 A 
ATOM     92  F   UNL A   1      48.327  29.450  35.369  1.00  0.00    -0.200 F 
ATOM     93  F   UNL A   1      48.310  27.244  36.972  1.00  0.00    -0.200 F 
ENDBRANCH  60  83
ENDBRANCH  34  35
ENDBRANCH  26  29
ENDBRANCH  24  25
ENDBRANCH   1  24
TORSDOF 11
ENDMDL
MODEL 2
REMARK VINA RESULT:     -12.9      0.077      1.595
REMARK SMILES Cc1cc(C)c2c(C(=O)NCCCNC(=O)c3ccc(-c4c5nc(c(-c6c(F)c(F)c(F)c(F)c6F)c6ccc([nH]6)c(-c6c(F)c(F)c(F)c(F)c6F)c6nc(c(-c7c(F)c(F)c(F)c(F)c7F)c7ccc4[nH]7)C=C6)C=C5)cc3)cc(-c3ccco3)nc2c1
REMARK SMILES IDX 12 1 11 2 10 3 8 4 9 5 7 7 1 8 2 9 3 10 89 11 4 12 88 13
REMARK SMILES IDX 5 14 6 15 87 16 81 17 80 18 82 19 83 20 86 21 84 22 85 23
REMARK SMILES IDX 13 24 14 25 15 26 16 28 17 29 18 30 79 31 19 32 78 33 20 34
REMARK SMILES IDX 21 35 22 36 72 37 23 38 77 39 71 40 73 41 24 42 76 43 70 44
REMARK SMILES IDX 69 45 25 47 57 48 37 49 56 50 38 51 41 52 55 53 74 54 39 55
REMARK SMILES IDX 40 56 54 58 75 59 42 60 26 61 27 62 35 63 28 64 29 65 33 66
REMARK SMILES IDX 36 67 30 68 31 69 34 70 32 71 58 72 59 73 67 74 60 75 61 76
REMARK SMILES IDX 65 77 68 78 62 79 63 80 66 81 64 82 43 83 44 84 52 85 45 86
REMARK SMILES IDX 46 87 50 88 53 89 47 90 48 91 51 92 49 93
REMARK H PARENT 10 6 14 27 73 46 41 57
REMARK Flexibility Score: inf
ROOT
ATOM      1  C   UNL A   1      33.029  27.768  24.487  1.00  0.00     0.042 C 
ENDROOT
BRANCH   1   2
ATOM      2  C   UNL A   1      33.472  26.331  24.721  1.00  0.00     0.118 C 
BRANCH   2   3
ATOM      3  N   UNL A   1      32.613  25.569  25.618  1.00  0.00    -0.352 N 
ATOM      4  C   UNL A   1      32.742  24.302  26.137  1.00  0.00     0.252 C 
ATOM      5  O   UNL A   1      31.895  23.922  26.946  1.00  0.00    -0.269 OA
ATOM      6  H   UNL A   1      31.798  26.043  25.900  1.00  0.00     0.163 HD
BRANCH   4   7
ATOM      7  C   UNL A   1      33.780  23.343  25.675  1.00  0.00     0.051 A 
ATOM      8  C   UNL A   1      32.680  18.119  23.744  1.00  0.00     0.044 C 
ATOM      9  C   UNL A   1      33.017  19.547  24.046  1.00  0.00    -0.049 A 
ATOM     10  C   UNL A   1      32.152  20.572  23.678  1.00  0.00     0.007 A 
ATOM     11  C   UNL A   1      34.240  19.891  24.626  1.00  0.00     0.032 A 
ATOM     12  C   UNL A   1      32.422  21.896  24.054  1.00  0.00    -0.041 A 
ATOM     13  C   UNL A   1      34.532  21.188  25.017  1.00  0.00     0.072 A 
ATOM     14  C   UNL A   1      31.609  22.982  23.388  1.00  0.00     0.045 C 
ATOM     15  C   UNL A   1      33.537  22.176  24.907  1.00  0.00     0.016 A 
ATOM     16  N   UNL A   1      35.759  21.433  25.500  1.00  0.00    -0.244 NA
ATOM     17  C   UNL A   1      36.039  22.665  25.970  1.00  0.00     0.107 A 
ATOM     18  C   UNL A   1      35.063  23.614  26.165  1.00  0.00     0.046 A 
BRANCH  17  19
ATOM     19  C   UNL A   1      37.440  22.944  26.229  1.00  0.00     0.152 A 
ATOM     20  C   UNL A   1      38.178  24.079  26.500  1.00  0.00     0.052 A 
ATOM     21  O   UNL A   1      38.282  21.872  26.100  1.00  0.00    -0.463 OA
ATOM     22  C   UNL A   1      39.537  23.677  26.545  1.00  0.00     0.043 A 
ATOM     23  C   UNL A   1      39.546  22.326  26.286  1.00  0.00     0.196 A 
ENDBRANCH  17  19
ENDBRANCH   4   7
ENDBRANCH   2   3
ENDBRANCH   1   2
BRANCH   1  24
ATOM     24  C   UNL A   1      33.940  28.817  25.120  1.00  0.00     0.118 C 
BRANCH  24  25
ATOM     25  N   UNL A   1      33.232  29.935  25.733  1.00  0.00    -0.352 N 
ATOM     26  C   UNL A   1      33.523  30.715  26.829  1.00  0.00     0.251 C 
ATOM     27  H   UNL A   1      32.393  30.177  25.278  1.00  0.00     0.163 HD
ATOM     28  O   UNL A   1      32.705  31.534  27.227  1.00  0.00    -0.269 OA
BRANCH  26  29
ATOM     29  C   UNL A   1      34.799  30.547  27.560  1.00  0.00     0.039 A 
ATOM     30  C   UNL A   1      35.687  31.627  27.635  1.00  0.00     0.014 A 
ATOM     31  C   UNL A   1      35.143  29.329  28.141  1.00  0.00     0.014 A 
ATOM     32  C   UNL A   1      36.867  31.511  28.375  1.00  0.00     0.010 A 
ATOM     33  C   UNL A   1      36.261  29.244  28.960  1.00  0.00     0.010 A 
ATOM     34  C   UNL A   1      37.141  30.330  29.078  1.00  0.00    -0.014 A 
BRANCH  34  35
ATOM     35  C   UNL A   1      38.365  30.149  29.896  1.00  0.00     0.031 A 
ATOM     36  C   UNL A   1      39.483  29.301  29.354  1.00  0.00     0.074 A 
ATOM     37  C   UNL A   1      38.431  30.644  31.146  1.00  0.00     0.049 A 
ATOM     38  N   UNL A   1      40.533  28.818  29.966  1.00  0.00    -0.248 NA
ATOM     39  C   UNL A   1      39.375  28.907  27.940  1.00  0.00     0.031 C 
ATOM     40  C   UNL A   1      37.406  31.467  31.789  1.00  0.00     0.029 A 
ATOM     41  N   UNL A   1      39.398  30.502  32.110  1.00  0.00    -0.354 N 
ATOM     42  C   UNL A   1      41.191  28.042  29.022  1.00  0.00     0.074 A 
ATOM     43  C   UNL A   1      40.394  28.071  27.815  1.00  0.00     0.031 C 
ATOM     44  C   UNL A   1      37.805  31.767  33.036  1.00  0.00     0.029 A 
ATOM     45  C   UNL A   1      39.087  31.121  33.296  1.00  0.00     0.049 A 
ATOM     46  H   UNL A   1      40.234  30.004  31.965  1.00  0.00     0.167 HD
ATOM     47  C   UNL A   1      42.367  27.384  29.143  1.00  0.00     0.037 A 
ATOM     48  C   UNL A   1      39.759  31.147  34.463  1.00  0.00     0.037 A 
ATOM     49  C   UNL A   1      43.174  27.393  30.333  1.00  0.00     0.049 A 
ATOM     50  C   UNL A   1      41.060  30.398  34.577  1.00  0.00     0.074 A 
ATOM     51  C   UNL A   1      44.400  26.791  30.549  1.00  0.00     0.029 A 
ATOM     52  N   UNL A   1      42.838  28.052  31.506  1.00  0.00    -0.354 N 
ATOM     53  N   UNL A   1      41.681  29.675  33.678  1.00  0.00    -0.248 NA
ATOM     54  C   UNL A   1      41.753  30.469  35.871  1.00  0.00     0.031 C 
ATOM     55  C   UNL A   1      44.793  27.062  31.864  1.00  0.00     0.029 A 
ATOM     56  C   UNL A   1      43.831  27.868  32.453  1.00  0.00     0.049 A 
ATOM     57  H   UNL A   1      42.014  28.574  31.645  1.00  0.00     0.167 HD
ATOM     58  C   UNL A   1      42.845  29.224  34.285  1.00  0.00     0.074 A 
ATOM     59  C   UNL A   1      42.853  29.770  35.627  1.00  0.00     0.031 C 
ATOM     60  C   UNL A   1      43.819  28.427  33.781  1.00  0.00     0.037 A 
BRANCH  47  61
ATOM     61  C   UNL A   1      42.856  26.614  27.951  1.00  0.00     0.064 A 
ATOM     62  C   UNL A   1      42.575  25.247  27.799  1.00  0.00     0.173 A 
ATOM     63  C   UNL A   1      43.588  27.249  26.937  1.00  0.00     0.173 A 
ATOM     64  F   UNL A   1      41.893  24.588  28.748  1.00  0.00    -0.203 F 
ATOM     65  C   UNL A   1      43.034  24.539  26.691  1.00  0.00     0.198 A 
ATOM     66  C   UNL A   1      44.019  26.545  25.816  1.00  0.00     0.198 A 
ATOM     67  F   UNL A   1      43.883  28.555  27.033  1.00  0.00    -0.203 F 
ATOM     68  F   UNL A   1      42.798  23.223  26.594  1.00  0.00    -0.200 F 
ATOM     69  C   UNL A   1      43.747  25.191  25.697  1.00  0.00     0.200 A 
ATOM     70  F   UNL A   1      44.699  27.178  24.851  1.00  0.00    -0.200 F 
ATOM     71  F   UNL A   1      44.182  24.511  24.627  1.00  0.00    -0.200 F 
ENDBRANCH  47  61
BRANCH  48  72
ATOM     72  C   UNL A   1      39.228  31.933  35.607  1.00  0.00     0.064 A 
ATOM     73  C   UNL A   1      39.569  33.285  35.759  1.00  0.00     0.173 A 
ATOM     74  C   UNL A   1      38.372  31.365  36.561  1.00  0.00     0.173 A 
ATOM     75  F   UNL A   1      40.404  33.866  34.885  1.00  0.00    -0.203 F 
ATOM     76  C   UNL A   1      39.084  34.035  36.828  1.00  0.00     0.198 A 
ATOM     77  C   UNL A   1      37.866  32.124  37.616  1.00  0.00     0.198 A 
ATOM     78  F   UNL A   1      38.013  30.077  36.460  1.00  0.00    -0.203 F 
ATOM     79  F   UNL A   1      39.456  35.314  36.969  1.00  0.00    -0.200 F 
ATOM     80  C   UNL A   1      38.227  33.456  37.752  1.00  0.00     0.200 A 
ATOM     81  F   UNL A   1      37.029  31.564  38.499  1.00  0.00    -0.200 F 
ATOM     82  F   UNL A   1      37.754  34.179  38.775  1.00  0.00    -0.200 F 
ENDBRANCH  48  72
BRANCH  60  83
ATOM     83  C   UNL A   1      44.986  28.117  34.672  1.00  0.00     0.064 A 
ATOM     84  C   UNL A   1      46.105  28.959  34.734  1.00  0.00     0.173 A 
ATOM     85  C   UNL A   1      44.957  26.997  35.517  1.00  0.00     0.173 A 
ATOM     86  F   UNL A   1      46.185  30.035  33.937  1.00  0.00    -0.203 F 
ATOM     87  C   UNL A   1      47.164  28.678  35.593  1.00  0.00     0.198 A 
ATOM     88  C   UNL A   1      46.002  26.735  36.396  1.00  0.00     0.198 A 
ATOM     89  F   UNL A   1      43.903  26.166  35.502  1.00  0.00    -0.203 F 
ATOM     90  F   UNL A   1      48.243  29.473  35.605  1.00  0.00    -0.200 F 
ATOM     91  C   UNL A   1      47.108  27.573  36.429  1.00  0.00     0.200 A 
ATOM     92  F   UNL A   1      45.940  25.676  37.215  1.00  0.00    -0.200 F 
ATOM     93  F   UNL A   1      48.122  27.311  37.264  1.00  0.00    -0.200 F 
ENDBRANCH  60  83
ENDBRANCH  34  35
ENDBRANCH  26  29
ENDBRANCH  24  25
ENDBRANCH   1  24
TORSDOF 11
ENDMDL
MODEL 3
REMARK VINA RESULT:     -12.8      3.174      7.702
REMARK SMILES Cc1cc(C)c2c(C(=O)NCCCNC(=O)c3ccc(-c4c5nc(c(-c6c(F)c(F)c(F)c(F)c6F)c6ccc([nH]6)c(-c6c(F)c(F)c(F)c(F)c6F)c6nc(c(-c7c(F)c(F)c(F)c(F)c7F)c7ccc4[nH]7)C=C6)C=C5)cc3)cc(-c3ccco3)nc2c1
REMARK SMILES IDX 12 1 11 2 10 3 8 4 9 5 7 7 1 8 2 9 3 10 89 11 4 12 88 13
REMARK SMILES IDX 5 14 6 15 87 16 81 17 80 18 82 19 83 20 86 21 84 22 85 23
REMARK SMILES IDX 13 24 14 25 15 26 16 28 17 29 18 30 79 31 19 32 78 33 20 34
REMARK SMILES IDX 21 35 22 36 72 37 23 38 77 39 71 40 73 41 24 42 76 43 70 44
REMARK SMILES IDX 69 45 25 47 57 48 37 49 56 50 38 51 41 52 55 53 74 54 39 55
REMARK SMILES IDX 40 56 54 58 75 59 42 60 26 61 27 62 35 63 28 64 29 65 33 66
REMARK SMILES IDX 36 67 30 68 31 69 34 70 32 71 58 72 59 73 67 74 60 75 61 76
REMARK SMILES IDX 65 77 68 78 62 79 63 80 66 81 64 82 43 83 44 84 52 85 45 86
REMARK SMILES IDX 46 87 50 88 53 89 47 90 48 91 51 92 49 93
REMARK H PARENT 10 6 14 27 73 46 41 57
REMARK Flexibility Score: inf
ROOT
ATOM      1  C   UNL A   1      34.031  28.321  25.788  1.00  0.00     0.042 C 
ENDROOT
BRANCH   1   2
ATOM      2  C   UNL A   1      32.922  27.697  24.954  1.00  0.00     0.118 C 
BRANCH   2   3
ATOM      3  N   UNL A   1      33.343  27.216  23.645  1.00  0.00    -0.352 N 
ATOM      4  C   UNL A   1      33.666  25.954  23.204  1.00  0.00     0.252 C 
ATOM      5  O   UNL A   1      33.919  25.809  22.008  1.00  0.00    -0.269 OA
ATOM      6  H   UNL A   1      33.409  27.917  22.956  1.00  0.00     0.163 HD
BRANCH   4   7
ATOM      7  C   UNL A   1      33.837  24.798  24.123  1.00  0.00     0.051 A 
ATOM      8  C   UNL A   1      29.731  22.720  27.448  1.00  0.00     0.044 C 
ATOM      9  C   UNL A   1      30.787  23.086  26.452  1.00  0.00    -0.049 A 
ATOM     10  C   UNL A   1      30.442  23.495  25.168  1.00  0.00     0.007 A 
ATOM     11  C   UNL A   1      32.143  22.948  26.757  1.00  0.00     0.032 A 
ATOM     12  C   UNL A   1      31.429  23.935  24.274  1.00  0.00    -0.041 A 
ATOM     13  C   UNL A   1      33.141  23.383  25.899  1.00  0.00     0.072 A 
ATOM     14  C   UNL A   1      31.028  24.088  22.825  1.00  0.00     0.045 C 
ATOM     15  C   UNL A   1      32.782  24.062  24.721  1.00  0.00     0.016 A 
ATOM     16  N   UNL A   1      34.414  23.142  26.249  1.00  0.00    -0.244 NA
ATOM     17  C   UNL A   1      35.404  23.632  25.476  1.00  0.00     0.107 A 
ATOM     18  C   UNL A   1      35.167  24.538  24.470  1.00  0.00     0.046 A 
BRANCH  17  19
ATOM     19  C   UNL A   1      36.736  23.123  25.752  1.00  0.00     0.152 A 
ATOM     20  C   UNL A   1      37.936  23.684  26.142  1.00  0.00     0.052 A 
ATOM     21  O   UNL A   1      36.917  21.791  25.493  1.00  0.00    -0.463 OA
ATOM     22  C   UNL A   1      38.894  22.639  26.127  1.00  0.00     0.043 A 
ATOM     23  C   UNL A   1      38.225  21.511  25.716  1.00  0.00     0.196 A 
ENDBRANCH  17  19
ENDBRANCH   4   7
ENDBRANCH   2   3
ENDBRANCH   1   2
BRANCH   1  24
ATOM     24  C   UNL A   1      33.653  28.577  27.244  1.00  0.00     0.118 C 
BRANCH  24  25
ATOM     25  N   UNL A   1      33.671  29.984  27.630  1.00  0.00    -0.352 N 
ATOM     26  C   UNL A   1      34.635  30.756  28.239  1.00  0.00     0.251 C 
ATOM     27  H   UNL A   1      32.843  30.471  27.416  1.00  0.00     0.163 HD
ATOM     28  O   UNL A   1      34.373  31.904  28.572  1.00  0.00    -0.269 OA
BRANCH  26  29
ATOM     29  C   UNL A   1      35.975  30.200  28.532  1.00  0.00     0.039 A 
ATOM     30  C   UNL A   1      36.957  30.230  27.534  1.00  0.00     0.014 A 
ATOM     31  C   UNL A   1      36.263  29.622  29.765  1.00  0.00     0.014 A 
ATOM     32  C   UNL A   1      38.248  29.770  27.810  1.00  0.00     0.010 A 
ATOM     33  C   UNL A   1      37.567  29.261  30.075  1.00  0.00     0.010 A 
ATOM     34  C   UNL A   1      38.572  29.321  29.098  1.00  0.00    -0.014 A 
BRANCH  34  35
ATOM     35  C   UNL A   1      39.927  28.839  29.461  1.00  0.00     0.031 A 
ATOM     36  C   UNL A   1      40.824  29.734  30.271  1.00  0.00     0.074 A 
ATOM     37  C   UNL A   1      40.388  27.669  28.981  1.00  0.00     0.049 A 
ATOM     38  N   UNL A   1      42.106  29.631  30.512  1.00  0.00    -0.248 NA
ATOM     39  C   UNL A   1      40.197  30.933  30.851  1.00  0.00     0.031 C 
ATOM     40  C   UNL A   1      39.620  26.722  28.172  1.00  0.00     0.029 A 
ATOM     41  N   UNL A   1      41.627  27.089  29.087  1.00  0.00    -0.354 N 
ATOM     42  C   UNL A   1      42.441  30.763  31.241  1.00  0.00     0.074 A 
ATOM     43  C   UNL A   1      41.244  31.567  31.357  1.00  0.00     0.031 C 
ATOM     44  C   UNL A   1      40.402  25.673  27.866  1.00  0.00     0.029 A 
ATOM     45  C   UNL A   1      41.736  25.896  28.415  1.00  0.00     0.049 A 
ATOM     46  H   UNL A   1      42.368  27.490  29.596  1.00  0.00     0.167 HD
ATOM     47  C   UNL A   1      43.634  31.092  31.789  1.00  0.00     0.037 A 
ATOM     48  C   UNL A   1      42.799  25.086  28.252  1.00  0.00     0.037 A 
ATOM     49  C   UNL A   1      44.810  30.268  31.705  1.00  0.00     0.049 A 
ATOM     50  C   UNL A   1      44.120  25.477  28.861  1.00  0.00     0.074 A 
ATOM     51  C   UNL A   1      46.059  30.488  32.255  1.00  0.00     0.029 A 
ATOM     52  N   UNL A   1      44.873  29.054  31.036  1.00  0.00    -0.354 N 
ATOM     53  N   UNL A   1      44.427  26.544  29.558  1.00  0.00    -0.248 NA
ATOM     54  C   UNL A   1      45.242  24.551  28.657  1.00  0.00     0.031 C 
ATOM     55  C   UNL A   1      46.889  29.421  31.894  1.00  0.00     0.029 A 
ATOM     56  C   UNL A   1      46.144  28.515  31.155  1.00  0.00     0.049 A 
ATOM     57  H   UNL A   1      44.126  28.637  30.549  1.00  0.00     0.167 HD
ATOM     58  C   UNL A   1      45.766  26.409  29.896  1.00  0.00     0.074 A 
ATOM     59  C   UNL A   1      46.210  25.146  29.341  1.00  0.00     0.031 C 
ATOM     60  C   UNL A   1      46.560  27.253  30.598  1.00  0.00     0.037 A 
BRANCH  47  61
ATOM     61  C   UNL A   1      43.720  32.389  32.538  1.00  0.00     0.064 A 
ATOM     62  C   UNL A   1      44.059  33.587  31.889  1.00  0.00     0.173 A 
ATOM     63  C   UNL A   1      43.435  32.445  33.910  1.00  0.00     0.173 A 
ATOM     64  F   UNL A   1      44.357  33.585  30.580  1.00  0.00    -0.203 F 
ATOM     65  C   UNL A   1      44.137  34.786  32.592  1.00  0.00     0.198 A 
ATOM     66  C   UNL A   1      43.485  33.652  34.603  1.00  0.00     0.198 A 
ATOM     67  F   UNL A   1      43.105  31.329  34.579  1.00  0.00    -0.203 F 
ATOM     68  F   UNL A   1      44.514  35.907  31.960  1.00  0.00    -0.200 F 
ATOM     69  C   UNL A   1      43.842  34.819  33.946  1.00  0.00     0.200 A 
ATOM     70  F   UNL A   1      43.189  33.684  35.910  1.00  0.00    -0.200 F 
ATOM     71  F   UNL A   1      43.911  35.975  34.620  1.00  0.00    -0.200 F 
ENDBRANCH  47  61
BRANCH  48  72
ATOM     72  C   UNL A   1      42.652  23.810  27.505  1.00  0.00     0.064 A 
ATOM     73  C   UNL A   1      42.952  23.750  26.136  1.00  0.00     0.173 A 
ATOM     74  C   UNL A   1      42.222  22.631  28.131  1.00  0.00     0.173 A 
ATOM     75  F   UNL A   1      43.344  24.856  25.488  1.00  0.00    -0.203 F 
ATOM     76  C   UNL A   1      42.815  22.563  25.419  1.00  0.00     0.198 A 
ATOM     77  C   UNL A   1      42.111  21.438  27.418  1.00  0.00     0.198 A 
ATOM     78  F   UNL A   1      41.926  22.635  29.438  1.00  0.00    -0.203 F 
ATOM     79  F   UNL A   1      43.073  22.543  24.105  1.00  0.00    -0.200 F 
ATOM     80  C   UNL A   1      42.402  21.406  26.063  1.00  0.00     0.200 A 
ATOM     81  F   UNL A   1      41.723  20.319  28.046  1.00  0.00    -0.200 F 
ATOM     82  F   UNL A   1      42.278  20.263  25.376  1.00  0.00    -0.200 F 
ENDBRANCH  48  72
BRANCH  60  83
ATOM     83  C   UNL A   1      47.981  26.831  30.829  1.00  0.00     0.064 A 
ATOM     84  C   UNL A   1      48.327  25.958  31.870  1.00  0.00     0.173 A 
ATOM     85  C   UNL A   1      48.999  27.260  29.964  1.00  0.00     0.173 A 
ATOM     86  F   UNL A   1      47.392  25.531  32.731  1.00  0.00    -0.203 F 
ATOM     87  C   UNL A   1      49.644  25.545  32.049  1.00  0.00     0.198 A 
ATOM     88  C   UNL A   1      50.310  26.822  30.127  1.00  0.00     0.198 A 
ATOM     89  F   UNL A   1      48.718  28.088  28.947  1.00  0.00    -0.203 F 
ATOM     90  F   UNL A   1      49.960  24.743  33.076  1.00  0.00    -0.200 F 
ATOM     91  C   UNL A   1      50.632  25.970  31.173  1.00  0.00     0.200 A 
ATOM     92  F   UNL A   1      51.260  27.221  29.270  1.00  0.00    -0.200 F 
ATOM     93  F   UNL A   1      51.897  25.562  31.340  1.00  0.00    -0.200 F 
ENDBRANCH  60  83
ENDBRANCH  34  35
ENDBRANCH  26  29
ENDBRANCH  24  25
ENDBRANCH   1  24
TORSDOF 11
ENDMDL
