MODEL 1
REMARK VINA RESULT:     -13.4      0.000      0.000
REMARK SMILES [NH3+][C@H]1CN(C(=O)OCC2c3ccccc3-c3ccccc32)C[C@@H]1C(=O)NCCCNC(=O)c1ccc(-c2c3nc(c(-c4c(F)c(F)c(F)c(F)c4F)c4ccc([nH]4)c(-c4c(F)c(F)c(F)c(F)c4F)c4nc(c(-c5c(F)c(F)c(F)c(F)c5F)c5ccc2[nH]5)C=C4)C=C3)cc1
REMARK SMILES IDX 27 1 26 2 24 3 25 4 23 6 2 7 3 8 4 9 22 10 1 11 5 15 6 16
REMARK SMILES IDX 7 17 8 18 9 19 10 20 21 21 11 22 15 23 16 24 20 25 12 26
REMARK SMILES IDX 14 27 17 28 19 29 13 30 18 31 28 32 29 33 30 34 31 35 32 37
REMARK SMILES IDX 33 38 34 39 95 40 35 41 94 42 36 43 37 44 38 45 88 46 39 47
REMARK SMILES IDX 93 48 87 49 89 50 40 51 92 52 86 53 85 54 41 56 73 57 53 58
REMARK SMILES IDX 72 59 54 60 57 61 71 62 90 63 55 64 56 65 70 67 91 68 58 69
REMARK SMILES IDX 42 70 43 71 51 72 44 73 45 74 49 75 52 76 46 77 47 78 50 79
REMARK SMILES IDX 48 80 74 81 75 82 83 83 76 84 77 85 81 86 84 87 78 88 79 89
REMARK SMILES IDX 82 90 80 91 59 92 60 93 68 94 61 95 62 96 66 97 69 98 63 99
REMARK SMILES IDX 64 100 67 101 65 102
REMARK H PARENT 26 5 1 12 1 13 1 14 30 36 89 55 57 66
REMARK Flexibility Score: inf
ROOT
ATOM      1  C   UNL A   1      31.422  30.897  26.337  1.00  0.00     0.117 C 
ENDROOT
BRANCH   1   2
ATOM      2  N   UNL A   1      31.219  30.447  24.979  1.00  0.00    -0.356 N 
ATOM      3  C   UNL A   1      31.219  29.221  24.407  1.00  0.00     0.231 C 
ATOM      4  O   UNL A   1      30.782  29.188  23.247  1.00  0.00    -0.274 OA
ATOM      5  H   UNL A   1      31.044  31.178  24.344  1.00  0.00     0.163 HD
BRANCH   3   6
ATOM      6  C   UNL A   1      31.715  27.911  25.025  1.00  0.00     0.158 C 
ATOM      7  C   UNL A   1      33.245  27.980  25.251  1.00  0.00     0.215 C 
ATOM      8  C   UNL A   1      33.820  27.292  23.988  1.00  0.00     0.188 C 
ATOM      9  N   UNL A   1      32.737  26.475  23.478  1.00  0.00    -0.301 N 
ATOM     10  C   UNL A   1      31.555  26.584  24.315  1.00  0.00     0.143 C 
BRANCH   7  11
ATOM     11  N   UNL A   1      33.620  27.245  26.475  1.00  0.00    -0.353 N 
ATOM     12  H   UNL A   1      34.044  26.353  26.220  1.00  0.00     0.344 HD
ATOM     13  H   UNL A   1      32.787  27.077  27.039  1.00  0.00     0.344 HD
ATOM     14  H   UNL A   1      34.289  27.797  27.012  1.00  0.00     0.344 HD
ENDBRANCH   7  11
BRANCH   9  15
ATOM     15  C   UNL A   1      32.713  25.841  22.263  1.00  0.00     0.410 C 
ATOM     16  O   UNL A   1      31.895  26.109  21.391  1.00  0.00    -0.224 OA
BRANCH  15  17
ATOM     17  O   UNL A   1      33.687  24.893  22.132  1.00  0.00    -0.448 OA
BRANCH  17  18
ATOM     18  C   UNL A   1      33.166  23.553  22.053  1.00  0.00     0.248 C 
BRANCH  18  19
ATOM     19  C   UNL A   1      33.528  22.631  23.250  1.00  0.00     0.088 C 
ATOM     20  C   UNL A   1      34.891  22.880  23.889  1.00  0.00    -0.029 A 
ATOM     21  C   UNL A   1      32.593  22.945  24.423  1.00  0.00    -0.029 A 
ATOM     22  C   UNL A   1      36.150  22.659  23.346  1.00  0.00     0.005 A 
ATOM     23  C   UNL A   1      34.737  23.478  25.157  1.00  0.00    -0.014 A 
ATOM     24  C   UNL A   1      33.332  23.485  25.500  1.00  0.00    -0.014 A 
ATOM     25  C   UNL A   1      31.216  22.795  24.499  1.00  0.00     0.005 A 
ATOM     26  C   UNL A   1      37.261  23.148  24.037  1.00  0.00     0.000 A 
ATOM     27  C   UNL A   1      35.840  23.959  25.843  1.00  0.00     0.009 A 
ATOM     28  C   UNL A   1      32.694  23.887  26.662  1.00  0.00     0.009 A 
ATOM     29  C   UNL A   1      30.576  23.194  25.676  1.00  0.00     0.000 A 
ATOM     30  C   UNL A   1      37.105  23.809  25.265  1.00  0.00     0.001 A 
ATOM     31  C   UNL A   1      31.307  23.738  26.745  1.00  0.00     0.001 A 
ENDBRANCH  18  19
ENDBRANCH  17  18
ENDBRANCH  15  17
ENDBRANCH   9  15
ENDBRANCH   3   6
ENDBRANCH   1   2
BRANCH   1  32
ATOM     32  C   UNL A   1      31.363  32.408  26.498  1.00  0.00     0.042 C 
BRANCH  32  33
ATOM     33  C   UNL A   1      32.568  32.948  27.256  1.00  0.00     0.118 C 
BRANCH  33  34
ATOM     34  N   UNL A   1      32.382  34.334  27.679  1.00  0.00    -0.352 N 
ATOM     35  C   UNL A   1      32.989  35.058  28.673  1.00  0.00     0.251 C 
ATOM     36  H   UNL A   1      31.709  34.834  27.162  1.00  0.00     0.163 HD
ATOM     37  O   UNL A   1      32.559  36.168  28.969  1.00  0.00    -0.269 OA
BRANCH  35  38
ATOM     38  C   UNL A   1      34.150  34.504  29.397  1.00  0.00     0.039 A 
ATOM     39  C   UNL A   1      33.944  33.885  30.632  1.00  0.00     0.014 A 
ATOM     40  C   UNL A   1      35.439  34.613  28.872  1.00  0.00     0.014 A 
ATOM     41  C   UNL A   1      35.024  33.318  31.310  1.00  0.00     0.010 A 
ATOM     42  C   UNL A   1      36.495  33.964  29.497  1.00  0.00     0.010 A 
ATOM     43  C   UNL A   1      36.301  33.323  30.729  1.00  0.00    -0.014 A 
BRANCH  43  44
ATOM     44  C   UNL A   1      37.462  32.688  31.397  1.00  0.00     0.031 A 
ATOM     45  C   UNL A   1      38.160  31.531  30.737  1.00  0.00     0.074 A 
ATOM     46  C   UNL A   1      37.830  33.096  32.626  1.00  0.00     0.049 A 
ATOM     47  N   UNL A   1      39.117  30.767  31.199  1.00  0.00    -0.248 NA
ATOM     48  C   UNL A   1      37.693  31.158  29.392  1.00  0.00     0.031 C 
ATOM     49  C   UNL A   1      37.193  34.171  33.388  1.00  0.00     0.029 A 
ATOM     50  N   UNL A   1      38.823  32.643  33.457  1.00  0.00    -0.354 N 
ATOM     51  C   UNL A   1      39.344  29.813  30.216  1.00  0.00     0.074 A 
ATOM     52  C   UNL A   1      38.390  30.057  29.158  1.00  0.00     0.031 C 
ATOM     53  C   UNL A   1      37.824  34.310  34.565  1.00  0.00     0.029 A 
ATOM     54  C   UNL A   1      38.883  33.310  34.656  1.00  0.00     0.049 A 
ATOM     55  H   UNL A   1      39.434  31.910  33.218  1.00  0.00     0.167 HD
ATOM     56  C   UNL A   1      40.282  28.837  30.188  1.00  0.00     0.037 A 
ATOM     57  C   UNL A   1      39.697  33.127  35.712  1.00  0.00     0.037 A 
ATOM     58  C   UNL A   1      41.256  28.630  31.226  1.00  0.00     0.049 A 
ATOM     59  C   UNL A   1      40.745  32.050  35.647  1.00  0.00     0.074 A 
ATOM     60  C   UNL A   1      42.296  27.718  31.264  1.00  0.00     0.029 A 
ATOM     61  N   UNL A   1      41.310  29.350  32.411  1.00  0.00    -0.354 N 
ATOM     62  N   UNL A   1      40.995  31.196  34.684  1.00  0.00    -0.248 NA
ATOM     63  C   UNL A   1      41.627  31.915  36.814  1.00  0.00     0.031 C 
ATOM     64  C   UNL A   1      42.955  27.861  32.490  1.00  0.00     0.029 A 
ATOM     65  C   UNL A   1      42.355  28.892  33.195  1.00  0.00     0.049 A 
ATOM     66  H   UNL A   1      40.696  30.080  32.657  1.00  0.00     0.167 HD
ATOM     67  C   UNL A   1      42.077  30.441  35.115  1.00  0.00     0.074 A 
ATOM     68  C   UNL A   1      42.445  30.949  36.420  1.00  0.00     0.031 C 
ATOM     69  C   UNL A   1      42.708  29.418  34.488  1.00  0.00     0.037 A 
BRANCH  56  70
ATOM     70  C   UNL A   1      40.305  27.930  28.992  1.00  0.00     0.064 A 
ATOM     71  C   UNL A   1      41.060  28.237  27.849  1.00  0.00     0.173 A 
ATOM     72  C   UNL A   1      39.586  26.726  28.998  1.00  0.00     0.173 A 
ATOM     73  F   UNL A   1      41.754  29.383  27.786  1.00  0.00    -0.203 F 
ATOM     74  C   UNL A   1      41.067  27.388  26.746  1.00  0.00     0.198 A 
ATOM     75  C   UNL A   1      39.621  25.864  27.905  1.00  0.00     0.198 A 
ATOM     76  F   UNL A   1      38.851  26.381  30.067  1.00  0.00    -0.203 F 
ATOM     77  F   UNL A   1      41.752  27.729  25.645  1.00  0.00    -0.200 F 
ATOM     78  C   UNL A   1      40.354  26.199  26.777  1.00  0.00     0.200 A 
ATOM     79  F   UNL A   1      38.941  24.709  27.941  1.00  0.00    -0.200 F 
ATOM     80  F   UNL A   1      40.367  25.380  25.717  1.00  0.00    -0.200 F 
ENDBRANCH  56  70
BRANCH  57  81
ATOM     81  C   UNL A   1      39.574  34.004  36.905  1.00  0.00     0.064 A 
ATOM     82  C   UNL A   1      38.807  33.609  38.009  1.00  0.00     0.173 A 
ATOM     83  C   UNL A   1      40.217  35.249  36.969  1.00  0.00     0.173 A 
ATOM     84  F   UNL A   1      38.157  32.436  37.988  1.00  0.00    -0.203 F 
ATOM     85  C   UNL A   1      38.672  34.433  39.125  1.00  0.00     0.198 A 
ATOM     86  C   UNL A   1      40.103  36.060  38.096  1.00  0.00     0.198 A 
ATOM     87  F   UNL A   1      40.968  35.670  35.941  1.00  0.00    -0.203 F 
ATOM     88  F   UNL A   1      37.897  34.049  40.148  1.00  0.00    -0.200 F 
ATOM     89  C   UNL A   1      39.324  35.655  39.169  1.00  0.00     0.200 A 
ATOM     90  F   UNL A   1      40.747  37.235  38.141  1.00  0.00    -0.200 F 
ATOM     91  F   UNL A   1      39.197  36.446  40.244  1.00  0.00    -0.200 F 
ENDBRANCH  57  81
BRANCH  69  92
ATOM     92  C   UNL A   1      43.882  28.803  35.191  1.00  0.00     0.064 A 
ATOM     93  C   UNL A   1      43.725  27.742  36.093  1.00  0.00     0.173 A 
ATOM     94  C   UNL A   1      45.184  29.256  34.926  1.00  0.00     0.173 A 
ATOM     95  F   UNL A   1      42.499  27.285  36.391  1.00  0.00    -0.203 F 
ATOM     96  C   UNL A   1      44.827  27.171  36.723  1.00  0.00     0.198 A 
ATOM     97  C   UNL A   1      46.286  28.663  35.534  1.00  0.00     0.198 A 
ATOM     98  F   UNL A   1      45.387  30.264  34.066  1.00  0.00    -0.203 F 
ATOM     99  F   UNL A   1      44.650  26.187  37.616  1.00  0.00    -0.200 F 
ATOM    100  C   UNL A   1      46.106  27.626  36.437  1.00  0.00     0.200 A 
ATOM    101  F   UNL A   1      47.521  29.094  35.247  1.00  0.00    -0.200 F 
ATOM    102  F   UNL A   1      47.166  27.067  37.037  1.00  0.00    -0.200 F 
ENDBRANCH  69  92
ENDBRANCH  43  44
ENDBRANCH  35  38
ENDBRANCH  33  34
ENDBRANCH  32  33
ENDBRANCH   1  32
TORSDOF 15
ENDMDL
MODEL 2
REMARK VINA RESULT:     -13.3      1.105      2.187
REMARK SMILES [NH3+][C@H]1CN(C(=O)OCC2c3ccccc3-c3ccccc32)C[C@@H]1C(=O)NCCCNC(=O)c1ccc(-c2c3nc(c(-c4c(F)c(F)c(F)c(F)c4F)c4ccc([nH]4)c(-c4c(F)c(F)c(F)c(F)c4F)c4nc(c(-c5c(F)c(F)c(F)c(F)c5F)c5ccc2[nH]5)C=C4)C=C3)cc1
REMARK SMILES IDX 27 1 26 2 24 3 25 4 23 6 2 7 3 8 4 9 22 10 1 11 5 15 6 16
REMARK SMILES IDX 7 17 8 18 9 19 10 20 21 21 11 22 15 23 16 24 20 25 12 26
REMARK SMILES IDX 14 27 17 28 19 29 13 30 18 31 28 32 29 33 30 34 31 35 32 37
REMARK SMILES IDX 33 38 34 39 95 40 35 41 94 42 36 43 37 44 38 45 88 46 39 47
REMARK SMILES IDX 93 48 87 49 89 50 40 51 92 52 86 53 85 54 41 56 73 57 53 58
REMARK SMILES IDX 72 59 54 60 57 61 71 62 90 63 55 64 56 65 70 67 91 68 58 69
REMARK SMILES IDX 42 70 43 71 51 72 44 73 45 74 49 75 52 76 46 77 47 78 50 79
REMARK SMILES IDX 48 80 74 81 75 82 83 83 76 84 77 85 81 86 84 87 78 88 79 89
REMARK SMILES IDX 82 90 80 91 59 92 60 93 68 94 61 95 62 96 66 97 69 98 63 99
REMARK SMILES IDX 64 100 67 101 65 102
REMARK H PARENT 26 5 1 12 1 13 1 14 30 36 89 55 57 66
REMARK Flexibility Score: inf
ROOT
ATOM      1  C   UNL A   1      31.513  30.474  26.297  1.00  0.00     0.117 C 
ENDROOT
BRANCH   1   2
ATOM      2  N   UNL A   1      32.066  30.099  25.015  1.00  0.00    -0.356 N 
ATOM      3  C   UNL A   1      31.907  29.010  24.228  1.00  0.00     0.231 C 
ATOM      4  O   UNL A   1      32.366  29.125  23.082  1.00  0.00    -0.274 OA
ATOM      5  H   UNL A   1      32.681  30.770  24.640  1.00  0.00     0.163 HD
BRANCH   3   6
ATOM      6  C   UNL A   1      31.257  27.678  24.611  1.00  0.00     0.158 C 
ATOM      7  C   UNL A   1      32.064  27.004  25.747  1.00  0.00     0.215 C 
ATOM      8  C   UNL A   1      32.994  26.026  24.987  1.00  0.00     0.188 C 
ATOM      9  N   UNL A   1      32.349  25.810  23.707  1.00  0.00    -0.301 N 
ATOM     10  C   UNL A   1      31.103  26.550  23.613  1.00  0.00     0.143 C 
BRANCH   7  11
ATOM     11  N   UNL A   1      31.161  26.277  26.661  1.00  0.00    -0.353 N 
ATOM     12  H   UNL A   1      30.269  26.108  26.195  1.00  0.00     0.344 HD
ATOM     13  H   UNL A   1      31.005  26.836  27.500  1.00  0.00     0.344 HD
ATOM     14  H   UNL A   1      31.583  25.386  26.920  1.00  0.00     0.344 HD
ENDBRANCH   7  11
BRANCH   9  15
ATOM     15  C   UNL A   1      32.905  25.178  22.625  1.00  0.00     0.410 C 
ATOM     16  O   UNL A   1      33.653  25.745  21.838  1.00  0.00    -0.224 OA
BRANCH  15  17
ATOM     17  O   UNL A   1      32.537  23.867  22.522  1.00  0.00    -0.448 OA
BRANCH  17  18
ATOM     18  C   UNL A   1      33.627  22.953  22.752  1.00  0.00     0.248 C 
BRANCH  18  19
ATOM     19  C   UNL A   1      33.720  22.386  24.195  1.00  0.00     0.088 C 
ATOM     20  C   UNL A   1      33.546  20.875  24.326  1.00  0.00    -0.029 A 
ATOM     21  C   UNL A   1      35.152  22.562  24.711  1.00  0.00    -0.029 A 
ATOM     22  C   UNL A   1      32.403  20.118  24.108  1.00  0.00     0.005 A 
ATOM     23  C   UNL A   1      34.780  20.265  24.637  1.00  0.00    -0.014 A 
ATOM     24  C   UNL A   1      35.754  21.298  24.909  1.00  0.00    -0.014 A 
ATOM     25  C   UNL A   1      35.853  23.737  24.941  1.00  0.00     0.005 A 
ATOM     26  C   UNL A   1      32.528  18.727  24.093  1.00  0.00     0.000 A 
ATOM     27  C   UNL A   1      34.901  18.886  24.626  1.00  0.00     0.009 A 
ATOM     28  C   UNL A   1      37.069  21.202  25.334  1.00  0.00     0.009 A 
ATOM     29  C   UNL A   1      37.178  23.637  25.377  1.00  0.00     0.000 A 
ATOM     30  C   UNL A   1      33.770  18.117  24.330  1.00  0.00     0.001 A 
ATOM     31  C   UNL A   1      37.781  22.382  25.569  1.00  0.00     0.001 A 
ENDBRANCH  18  19
ENDBRANCH  17  18
ENDBRANCH  15  17
ENDBRANCH   9  15
ENDBRANCH   3   6
ENDBRANCH   1   2
BRANCH   1  32
ATOM     32  C   UNL A   1      31.401  31.976  26.501  1.00  0.00     0.042 C 
BRANCH  32  33
ATOM     33  C   UNL A   1      32.621  32.547  27.210  1.00  0.00     0.118 C 
BRANCH  33  34
ATOM     34  N   UNL A   1      32.448  33.953  27.569  1.00  0.00    -0.352 N 
ATOM     35  C   UNL A   1      33.060  34.716  28.530  1.00  0.00     0.251 C 
ATOM     36  H   UNL A   1      31.779  34.435  27.029  1.00  0.00     0.163 HD
ATOM     37  O   UNL A   1      32.639  35.842  28.775  1.00  0.00    -0.269 OA
BRANCH  35  38
ATOM     38  C   UNL A   1      34.215  34.185  29.280  1.00  0.00     0.039 A 
ATOM     39  C   UNL A   1      33.985  33.439  30.438  1.00  0.00     0.014 A 
ATOM     40  C   UNL A   1      35.520  34.440  28.857  1.00  0.00     0.014 A 
ATOM     41  C   UNL A   1      35.063  32.894  31.136  1.00  0.00     0.010 A 
ATOM     42  C   UNL A   1      36.586  33.816  29.493  1.00  0.00     0.010 A 
ATOM     43  C   UNL A   1      36.369  33.050  30.646  1.00  0.00    -0.014 A 
BRANCH  43  44
ATOM     44  C   UNL A   1      37.535  32.443  31.333  1.00  0.00     0.031 A 
ATOM     45  C   UNL A   1      38.263  31.295  30.692  1.00  0.00     0.074 A 
ATOM     46  C   UNL A   1      37.880  32.870  32.563  1.00  0.00     0.049 A 
ATOM     47  N   UNL A   1      39.229  30.554  31.172  1.00  0.00    -0.248 NA
ATOM     48  C   UNL A   1      37.819  30.901  29.345  1.00  0.00     0.031 C 
ATOM     49  C   UNL A   1      37.212  33.938  33.308  1.00  0.00     0.029 A 
ATOM     50  N   UNL A   1      38.871  32.444  33.410  1.00  0.00    -0.354 N 
ATOM     51  C   UNL A   1      39.486  29.596  30.200  1.00  0.00     0.074 A 
ATOM     52  C   UNL A   1      38.540  29.812  29.129  1.00  0.00     0.031 C 
ATOM     53  C   UNL A   1      37.826  34.100  34.491  1.00  0.00     0.029 A 
ATOM     54  C   UNL A   1      38.904  33.123  34.604  1.00  0.00     0.049 A 
ATOM     55  H   UNL A   1      39.500  31.721  33.184  1.00  0.00     0.167 HD
ATOM     56  C   UNL A   1      40.444  28.640  30.192  1.00  0.00     0.037 A 
ATOM     57  C   UNL A   1      39.709  32.965  35.670  1.00  0.00     0.037 A 
ATOM     58  C   UNL A   1      41.410  28.461  31.243  1.00  0.00     0.049 A 
ATOM     59  C   UNL A   1      40.779  31.908  35.627  1.00  0.00     0.074 A 
ATOM     60  C   UNL A   1      42.467  27.571  31.302  1.00  0.00     0.029 A 
ATOM     61  N   UNL A   1      41.435  29.192  32.422  1.00  0.00    -0.354 N 
ATOM     62  N   UNL A   1      41.057  31.051  34.675  1.00  0.00    -0.248 NA
ATOM     63  C   UNL A   1      41.649  31.801  36.805  1.00  0.00     0.031 C 
ATOM     64  C   UNL A   1      43.109  27.736  32.534  1.00  0.00     0.029 A 
ATOM     65  C   UNL A   1      42.480  28.761  33.223  1.00  0.00     0.049 A 
ATOM     66  H   UNL A   1      40.804  29.912  32.654  1.00  0.00     0.167 HD
ATOM     67  C   UNL A   1      42.148  30.322  35.125  1.00  0.00     0.074 A 
ATOM     68  C   UNL A   1      42.492  30.848  36.430  1.00  0.00     0.031 C 
ATOM     69  C   UNL A   1      42.808  29.306  34.515  1.00  0.00     0.037 A 
BRANCH  56  70
ATOM     70  C   UNL A   1      40.499  27.723  29.004  1.00  0.00     0.064 A 
ATOM     71  C   UNL A   1      41.341  27.982  27.912  1.00  0.00     0.173 A 
ATOM     72  C   UNL A   1      39.722  26.555  28.970  1.00  0.00     0.173 A 
ATOM     73  F   UNL A   1      42.094  29.092  27.888  1.00  0.00    -0.203 F 
ATOM     74  C   UNL A   1      41.377  27.125  26.815  1.00  0.00     0.198 A 
ATOM     75  C   UNL A   1      39.785  25.684  27.886  1.00  0.00     0.198 A 
ATOM     76  F   UNL A   1      38.903  26.256  29.990  1.00  0.00    -0.203 F 
ATOM     77  F   UNL A   1      42.148  27.423  25.760  1.00  0.00    -0.200 F 
ATOM     78  C   UNL A   1      40.606  25.973  26.806  1.00  0.00     0.200 A 
ATOM     79  F   UNL A   1      39.047  24.565  27.883  1.00  0.00    -0.200 F 
ATOM     80  F   UNL A   1      40.646  25.146  25.753  1.00  0.00    -0.200 F 
ENDBRANCH  56  70
BRANCH  57  81
ATOM     81  C   UNL A   1      39.554  33.850  36.853  1.00  0.00     0.064 A 
ATOM     82  C   UNL A   1      40.181  35.103  36.898  1.00  0.00     0.173 A 
ATOM     83  C   UNL A   1      38.781  33.467  37.959  1.00  0.00     0.173 A 
ATOM     84  F   UNL A   1      40.947  35.506  35.874  1.00  0.00    -0.203 F 
ATOM     85  C   UNL A   1      40.056  35.932  38.012  1.00  0.00     0.198 A 
ATOM     86  C   UNL A   1      38.634  34.309  39.060  1.00  0.00     0.198 A 
ATOM     87  F   UNL A   1      38.156  32.281  37.962  1.00  0.00    -0.203 F 
ATOM     88  F   UNL A   1      40.701  37.105  38.046  1.00  0.00    -0.200 F 
ATOM     89  C   UNL A   1      39.278  35.536  39.089  1.00  0.00     0.200 A 
ATOM     90  F   UNL A   1      37.870  33.928  40.093  1.00  0.00    -0.200 F 
ATOM     91  F   UNL A   1      39.155  36.335  40.158  1.00  0.00    -0.200 F 
ENDBRANCH  57  81
BRANCH  69  92
ATOM     92  C   UNL A   1      43.985  28.721  35.237  1.00  0.00     0.064 A 
ATOM     93  C   UNL A   1      43.844  27.638  36.116  1.00  0.00     0.173 A 
ATOM     94  C   UNL A   1      45.275  29.225  35.013  1.00  0.00     0.173 A 
ATOM     95  F   UNL A   1      42.629  27.132  36.374  1.00  0.00    -0.203 F 
ATOM     96  C   UNL A   1      44.950  27.095  36.763  1.00  0.00     0.198 A 
ATOM     97  C   UNL A   1      46.383  28.661  35.639  1.00  0.00     0.198 A 
ATOM     98  F   UNL A   1      45.463  30.256  34.176  1.00  0.00    -0.203 F 
ATOM     99  F   UNL A   1      44.787  26.089  37.634  1.00  0.00    -0.200 F 
ATOM    100  C   UNL A   1      46.218  27.601  36.519  1.00  0.00     0.200 A 
ATOM    101  F   UNL A   1      47.608  29.142  35.391  1.00  0.00    -0.200 F 
ATOM    102  F   UNL A   1      47.283  27.070  37.136  1.00  0.00    -0.200 F 
ENDBRANCH  69  92
ENDBRANCH  43  44
ENDBRANCH  35  38
ENDBRANCH  33  34
ENDBRANCH  32  33
ENDBRANCH   1  32
TORSDOF 15
ENDMDL
MODEL 3
REMARK VINA RESULT:     -13.3      1.549      2.287
REMARK SMILES [NH3+][C@H]1CN(C(=O)OCC2c3ccccc3-c3ccccc32)C[C@@H]1C(=O)NCCCNC(=O)c1ccc(-c2c3nc(c(-c4c(F)c(F)c(F)c(F)c4F)c4ccc([nH]4)c(-c4c(F)c(F)c(F)c(F)c4F)c4nc(c(-c5c(F)c(F)c(F)c(F)c5F)c5ccc2[nH]5)C=C4)C=C3)cc1
REMARK SMILES IDX 27 1 26 2 24 3 25 4 23 6 2 7 3 8 4 9 22 10 1 11 5 15 6 16
REMARK SMILES IDX 7 17 8 18 9 19 10 20 21 21 11 22 15 23 16 24 20 25 12 26
REMARK SMILES IDX 14 27 17 28 19 29 13 30 18 31 28 32 29 33 30 34 31 35 32 37
REMARK SMILES IDX 33 38 34 39 95 40 35 41 94 42 36 43 37 44 38 45 88 46 39 47
REMARK SMILES IDX 93 48 87 49 89 50 40 51 92 52 86 53 85 54 41 56 73 57 53 58
REMARK SMILES IDX 72 59 54 60 57 61 71 62 90 63 55 64 56 65 70 67 91 68 58 69
REMARK SMILES IDX 42 70 43 71 51 72 44 73 45 74 49 75 52 76 46 77 47 78 50 79
REMARK SMILES IDX 48 80 74 81 75 82 83 83 76 84 77 85 81 86 84 87 78 88 79 89
REMARK SMILES IDX 82 90 80 91 59 92 60 93 68 94 61 95 62 96 66 97 69 98 63 99
REMARK SMILES IDX 64 100 67 101 65 102
REMARK H PARENT 26 5 1 12 1 13 1 14 30 36 89 55 57 66
REMARK Flexibility Score: inf
ROOT
ATOM      1  C   UNL A   1      31.678  30.765  26.044  1.00  0.00     0.117 C 
ENDROOT
BRANCH   1   2
ATOM      2  N   UNL A   1      31.503  29.719  27.026  1.00  0.00    -0.356 N 
ATOM      3  C   UNL A   1      31.760  28.390  27.011  1.00  0.00     0.231 C 
ATOM      4  O   UNL A   1      31.694  27.835  28.117  1.00  0.00    -0.274 OA
ATOM      5  H   UNL A   1      31.122  30.036  27.876  1.00  0.00     0.163 HD
BRANCH   3   6
ATOM      6  C   UNL A   1      32.091  27.526  25.791  1.00  0.00     0.158 C 
ATOM      7  C   UNL A   1      30.813  27.291  24.948  1.00  0.00     0.215 C 
ATOM      8  C   UNL A   1      30.306  25.917  25.452  1.00  0.00     0.188 C 
ATOM      9  N   UNL A   1      31.467  25.279  26.041  1.00  0.00    -0.301 N 
ATOM     10  C   UNL A   1      32.643  26.124  25.934  1.00  0.00     0.143 C 
BRANCH   7  11
ATOM     11  N   UNL A   1      31.145  27.242  23.511  1.00  0.00    -0.353 N 
ATOM     12  H   UNL A   1      31.651  26.380  23.308  1.00  0.00     0.344 HD
ATOM     13  H   UNL A   1      31.727  28.043  23.269  1.00  0.00     0.344 HD
ATOM     14  H   UNL A   1      30.286  27.268  22.962  1.00  0.00     0.344 HD
ENDBRANCH   7  11
BRANCH   9  15
ATOM     15  C   UNL A   1      31.457  24.134  26.795  1.00  0.00     0.410 C 
ATOM     16  O   UNL A   1      30.422  23.594  27.165  1.00  0.00    -0.224 OA
BRANCH  15  17
ATOM     17  O   UNL A   1      32.708  23.671  27.084  1.00  0.00    -0.448 OA
BRANCH  17  18
ATOM     18  C   UNL A   1      32.911  22.302  26.686  1.00  0.00     0.248 C 
BRANCH  18  19
ATOM     19  C   UNL A   1      33.570  22.109  25.293  1.00  0.00     0.088 C 
ATOM     20  C   UNL A   1      35.075  22.355  25.232  1.00  0.00    -0.029 A 
ATOM     21  C   UNL A   1      33.500  20.628  24.906  1.00  0.00    -0.029 A 
ATOM     22  C   UNL A   1      35.759  23.554  25.383  1.00  0.00     0.005 A 
ATOM     23  C   UNL A   1      35.765  21.135  25.074  1.00  0.00    -0.014 A 
ATOM     24  C   UNL A   1      34.802  20.083  24.837  1.00  0.00    -0.014 A 
ATOM     25  C   UNL A   1      32.378  19.844  24.677  1.00  0.00     0.005 A 
ATOM     26  C   UNL A   1      37.150  23.510  25.489  1.00  0.00     0.000 A 
ATOM     27  C   UNL A   1      37.146  21.094  25.174  1.00  0.00     0.009 A 
ATOM     28  C   UNL A   1      34.992  18.742  24.545  1.00  0.00     0.009 A 
ATOM     29  C   UNL A   1      32.573  18.493  24.374  1.00  0.00     0.000 A 
ATOM     30  C   UNL A   1      37.836  22.289  25.405  1.00  0.00     0.001 A 
ATOM     31  C   UNL A   1      33.865  17.947  24.312  1.00  0.00     0.001 A 
ENDBRANCH  18  19
ENDBRANCH  17  18
ENDBRANCH  15  17
ENDBRANCH   9  15
ENDBRANCH   3   6
ENDBRANCH   1   2
BRANCH   1  32
ATOM     32  C   UNL A   1      31.415  32.162  26.582  1.00  0.00     0.042 C 
BRANCH  32  33
ATOM     33  C   UNL A   1      32.655  32.767  27.226  1.00  0.00     0.118 C 
BRANCH  33  34
ATOM     34  N   UNL A   1      32.445  34.151  27.643  1.00  0.00    -0.352 N 
ATOM     35  C   UNL A   1      33.032  34.887  28.641  1.00  0.00     0.251 C 
ATOM     36  H   UNL A   1      31.769  34.639  27.119  1.00  0.00     0.163 HD
ATOM     37  O   UNL A   1      32.582  35.991  28.930  1.00  0.00    -0.269 OA
BRANCH  35  38
ATOM     38  C   UNL A   1      34.194  34.353  29.376  1.00  0.00     0.039 A 
ATOM     39  C   UNL A   1      33.982  33.693  30.590  1.00  0.00     0.014 A 
ATOM     40  C   UNL A   1      35.490  34.519  28.885  1.00  0.00     0.014 A 
ATOM     41  C   UNL A   1      35.065  33.145  31.277  1.00  0.00     0.010 A 
ATOM     42  C   UNL A   1      36.554  33.889  29.517  1.00  0.00     0.010 A 
ATOM     43  C   UNL A   1      36.354  33.209  30.726  1.00  0.00    -0.014 A 
BRANCH  43  44
ATOM     44  C   UNL A   1      37.521  32.594  31.404  1.00  0.00     0.031 A 
ATOM     45  C   UNL A   1      38.238  31.443  30.755  1.00  0.00     0.074 A 
ATOM     46  C   UNL A   1      37.878  33.017  32.632  1.00  0.00     0.049 A 
ATOM     47  N   UNL A   1      39.203  30.695  31.228  1.00  0.00    -0.248 NA
ATOM     48  C   UNL A   1      37.782  31.053  29.411  1.00  0.00     0.031 C 
ATOM     49  C   UNL A   1      37.222  34.088  33.382  1.00  0.00     0.029 A 
ATOM     50  N   UNL A   1      38.873  32.584  33.470  1.00  0.00    -0.354 N 
ATOM     51  C   UNL A   1      39.447  29.737  30.252  1.00  0.00     0.074 A 
ATOM     52  C   UNL A   1      38.495  29.960  29.189  1.00  0.00     0.031 C 
ATOM     53  C   UNL A   1      37.846  34.244  34.562  1.00  0.00     0.029 A 
ATOM     54  C   UNL A   1      38.919  33.260  34.665  1.00  0.00     0.049 A 
ATOM     55  H   UNL A   1      39.495  31.858  33.239  1.00  0.00     0.167 HD
ATOM     56  C   UNL A   1      40.400  28.775  30.236  1.00  0.00     0.037 A 
ATOM     57  C   UNL A   1      39.730  33.097  35.725  1.00  0.00     0.037 A 
ATOM     58  C   UNL A   1      41.372  28.589  31.280  1.00  0.00     0.049 A 
ATOM     59  C   UNL A   1      40.794  32.033  35.673  1.00  0.00     0.074 A 
ATOM     60  C   UNL A   1      42.424  27.692  31.329  1.00  0.00     0.029 A 
ATOM     61  N   UNL A   1      41.410  29.318  32.459  1.00  0.00    -0.354 N 
ATOM     62  N   UNL A   1      41.059  31.176  34.718  1.00  0.00    -0.248 NA
ATOM     63  C   UNL A   1      41.672  31.919  36.845  1.00  0.00     0.031 C 
ATOM     64  C   UNL A   1      43.076  27.852  32.557  1.00  0.00     0.029 A 
ATOM     65  C   UNL A   1      42.458  28.880  33.252  1.00  0.00     0.049 A 
ATOM     66  H   UNL A   1      40.785  30.041  32.697  1.00  0.00     0.167 HD
ATOM     67  C   UNL A   1      42.150  30.440  35.159  1.00  0.00     0.074 A 
ATOM     68  C   UNL A   1      42.506  30.962  36.462  1.00  0.00     0.031 C 
ATOM     69  C   UNL A   1      42.798  29.421  34.542  1.00  0.00     0.037 A 
BRANCH  56  70
ATOM     70  C   UNL A   1      40.441  27.859  29.047  1.00  0.00     0.064 A 
ATOM     71  C   UNL A   1      41.243  28.138  27.929  1.00  0.00     0.173 A 
ATOM     72  C   UNL A   1      39.690  26.674  29.035  1.00  0.00     0.173 A 
ATOM     73  F   UNL A   1      41.969  29.265  27.884  1.00  0.00    -0.203 F 
ATOM     74  C   UNL A   1      41.266  27.282  26.832  1.00  0.00     0.198 A 
ATOM     75  C   UNL A   1      39.741  25.805  27.949  1.00  0.00     0.198 A 
ATOM     76  F   UNL A   1      38.909  26.356  30.079  1.00  0.00    -0.203 F 
ATOM     77  F   UNL A   1      41.998  27.598  25.754  1.00  0.00    -0.200 F 
ATOM     78  C   UNL A   1      40.522  26.113  26.845  1.00  0.00     0.200 A 
ATOM     79  F   UNL A   1      39.029  24.668  27.967  1.00  0.00    -0.200 F 
ATOM     80  F   UNL A   1      40.550  25.286  25.791  1.00  0.00    -0.200 F 
ENDBRANCH  56  70
BRANCH  57  81
ATOM     81  C   UNL A   1      39.590  33.981  36.911  1.00  0.00     0.064 A 
ATOM     82  C   UNL A   1      40.240  35.221  36.961  1.00  0.00     0.173 A 
ATOM     83  C   UNL A   1      38.806  33.610  38.013  1.00  0.00     0.173 A 
ATOM     84  F   UNL A   1      41.016  35.612  35.940  1.00  0.00    -0.203 F 
ATOM     85  C   UNL A   1      40.128  36.049  38.077  1.00  0.00     0.198 A 
ATOM     86  C   UNL A   1      38.673  34.450  39.116  1.00  0.00     0.198 A 
ATOM     87  F   UNL A   1      38.158  32.435  38.012  1.00  0.00    -0.203 F 
ATOM     88  F   UNL A   1      40.796  37.210  38.116  1.00  0.00    -0.200 F 
ATOM     89  C   UNL A   1      39.340  35.665  39.151  1.00  0.00     0.200 A 
ATOM     90  F   UNL A   1      37.898  34.082  40.147  1.00  0.00    -0.200 F 
ATOM     91  F   UNL A   1      39.229  36.463  40.222  1.00  0.00    -0.200 F 
ENDBRANCH  57  81
BRANCH  69  92
ATOM     92  C   UNL A   1      43.977  28.828  35.255  1.00  0.00     0.064 A 
ATOM     93  C   UNL A   1      43.829  27.780  36.174  1.00  0.00     0.173 A 
ATOM     94  C   UNL A   1      45.275  29.287  34.982  1.00  0.00     0.173 A 
ATOM     95  F   UNL A   1      42.608  27.317  36.479  1.00  0.00    -0.203 F 
ATOM     96  C   UNL A   1      44.937  27.228  36.812  1.00  0.00     0.198 A 
ATOM     97  C   UNL A   1      46.382  28.714  35.600  1.00  0.00     0.198 A 
ATOM     98  F   UNL A   1      45.469  30.284  34.106  1.00  0.00    -0.203 F 
ATOM     99  F   UNL A   1      44.769  26.257  37.721  1.00  0.00    -0.200 F 
ATOM    100  C   UNL A   1      46.212  27.690  36.519  1.00  0.00     0.200 A 
ATOM    101  F   UNL A   1      47.613  29.152  35.305  1.00  0.00    -0.200 F 
ATOM    102  F   UNL A   1      47.276  27.150  37.128  1.00  0.00    -0.200 F 
ENDBRANCH  69  92
ENDBRANCH  43  44
ENDBRANCH  35  38
ENDBRANCH  33  34
ENDBRANCH  32  33
ENDBRANCH   1  32
TORSDOF 15
ENDMDL
