MODEL 1
REMARK VINA RESULT:     -10.7      0.000      0.000
REMARK SMILES COc1c(F)cc(F)c(C(=O)NCCCNC(=O)c2ccc(-c3c4nc(c(-c5c(F)c(F)c(F)c(F)c5F)c5ccc([nH]5)c(-c5c(F)c(F)c(F)c(F)c5F)c5nc(c(-c6c(F)c(F)c(F)c(F)c6F)c6ccc3[nH]6)C=C5)C=C4)cc2)c1F
REMARK SMILES IDX 14 1 13 2 12 3 10 4 11 5 9 7 3 8 4 9 82 10 5 11 6 12 83 13
REMARK SMILES IDX 7 14 8 15 2 16 1 17 15 18 16 19 17 20 18 22 19 23 20 24
REMARK SMILES IDX 81 25 21 26 80 27 22 28 23 29 24 30 74 31 25 32 79 33 73 34
REMARK SMILES IDX 75 35 26 36 78 37 72 38 71 39 27 41 59 42 39 43 58 44 40 45
REMARK SMILES IDX 43 46 57 47 76 48 41 49 42 50 56 52 77 53 44 54 28 55 29 56
REMARK SMILES IDX 37 57 30 58 31 59 35 60 38 61 32 62 33 63 36 64 34 65 60 66
REMARK SMILES IDX 61 67 69 68 62 69 63 70 67 71 70 72 64 73 65 74 68 75 66 76
REMARK SMILES IDX 45 77 46 78 54 79 47 80 48 81 52 82 55 83 49 84 50 85 53 86
REMARK SMILES IDX 51 87
REMARK H PARENT 12 6 16 21 75 40 43 51
REMARK Flexibility Score: inf
ROOT
ATOM      1  C   UNL A   1      34.250  33.825  28.948  1.00  0.00     0.042 C 
ENDROOT
BRANCH   1   2
ATOM      2  C   UNL A   1      34.972  33.990  30.289  1.00  0.00     0.118 C 
BRANCH   2   3
ATOM      3  N   UNL A   1      34.056  33.766  31.395  1.00  0.00    -0.352 N 
ATOM      4  C   UNL A   1      34.207  33.217  32.643  1.00  0.00     0.257 C 
ATOM      5  O   UNL A   1      33.177  33.072  33.304  1.00  0.00    -0.269 OA
ATOM      6  H   UNL A   1      33.139  34.073  31.212  1.00  0.00     0.163 HD
BRANCH   4   7
ATOM      7  C   UNL A   1      35.504  32.833  33.246  1.00  0.00     0.115 A 
ATOM      8  C   UNL A   1      37.390  33.111  34.771  1.00  0.00     0.191 A 
ATOM      9  C   UNL A   1      37.993  31.974  34.246  1.00  0.00     0.171 A 
ATOM     10  C   UNL A   1      36.167  33.544  34.246  1.00  0.00     0.183 A 
ATOM     11  F   UNL A   1      39.154  31.521  34.738  1.00  0.00    -0.203 F 
ATOM     12  C   UNL A   1      37.388  31.273  33.213  1.00  0.00     0.083 A 
ATOM     13  F   UNL A   1      35.691  34.706  34.709  1.00  0.00    -0.202 F 
ATOM     14  C   UNL A   1      36.148  31.696  32.734  1.00  0.00     0.142 A 
ATOM     15  F   UNL A   1      35.584  30.952  31.772  1.00  0.00    -0.206 F 
BRANCH   8  16
ATOM     16  O   UNL A   1      37.872  33.783  35.863  1.00  0.00    -0.491 OA
ATOM     17  C   UNL A   1      38.929  34.683  35.543  1.00  0.00     0.278 C 
ENDBRANCH   8  16
ENDBRANCH   4   7
ENDBRANCH   2   3
ENDBRANCH   1   2
BRANCH   1  18
ATOM     18  C   UNL A   1      34.952  32.875  27.983  1.00  0.00     0.118 C 
BRANCH  18  19
ATOM     19  N   UNL A   1      34.175  31.668  27.745  1.00  0.00    -0.352 N 
ATOM     20  C   UNL A   1      34.578  30.358  27.686  1.00  0.00     0.251 C 
ATOM     21  H   UNL A   1      33.212  31.815  27.605  1.00  0.00     0.163 HD
ATOM     22  O   UNL A   1      33.803  29.508  27.258  1.00  0.00    -0.269 OA
BRANCH  20  23
ATOM     23  C   UNL A   1      35.935  29.955  28.121  1.00  0.00     0.039 A 
ATOM     24  C   UNL A   1      37.000  30.124  27.229  1.00  0.00     0.014 A 
ATOM     25  C   UNL A   1      36.160  29.355  29.364  1.00  0.00     0.014 A 
ATOM     26  C   UNL A   1      38.290  29.735  27.599  1.00  0.00     0.010 A 
ATOM     27  C   UNL A   1      37.457  29.024  29.756  1.00  0.00     0.010 A 
ATOM     28  C   UNL A   1      38.533  29.205  28.876  1.00  0.00    -0.014 A 
BRANCH  28  29
ATOM     29  C   UNL A   1      39.906  28.827  29.301  1.00  0.00     0.031 A 
ATOM     30  C   UNL A   1      40.674  29.705  30.249  1.00  0.00     0.074 A 
ATOM     31  C   UNL A   1      40.474  27.710  28.805  1.00  0.00     0.049 A 
ATOM     32  N   UNL A   1      41.905  29.583  30.677  1.00  0.00    -0.248 NA
ATOM     33  C   UNL A   1      39.970  30.886  30.774  1.00  0.00     0.031 C 
ATOM     34  C   UNL A   1      39.835  26.784  27.869  1.00  0.00     0.029 A 
ATOM     35  N   UNL A   1      41.715  27.164  29.018  1.00  0.00    -0.354 N 
ATOM     36  C   UNL A   1      42.124  30.670  31.514  1.00  0.00     0.074 A 
ATOM     37  C   UNL A   1      40.917  31.468  31.497  1.00  0.00     0.031 C 
ATOM     38  C   UNL A   1      40.675  25.769  27.614  1.00  0.00     0.029 A 
ATOM     39  C   UNL A   1      41.926  25.993  28.332  1.00  0.00     0.049 A 
ATOM     40  H   UNL A   1      42.390  27.574  29.606  1.00  0.00     0.167 HD
ATOM     41  C   UNL A   1      43.224  30.961  32.249  1.00  0.00     0.037 A 
ATOM     42  C   UNL A   1      43.008  25.193  28.286  1.00  0.00     0.037 A 
ATOM     43  C   UNL A   1      44.417  30.155  32.280  1.00  0.00     0.049 A 
ATOM     44  C   UNL A   1      44.231  25.561  29.081  1.00  0.00     0.074 A 
ATOM     45  C   UNL A   1      45.578  30.361  33.004  1.00  0.00     0.029 A 
ATOM     46  N   UNL A   1      44.597  28.985  31.558  1.00  0.00    -0.354 N 
ATOM     47  N   UNL A   1      44.419  26.582  29.882  1.00  0.00    -0.248 NA
ATOM     48  C   UNL A   1      45.394  24.669  28.964  1.00  0.00     0.031 C 
ATOM     49  C   UNL A   1      46.473  29.332  32.697  1.00  0.00     0.029 A 
ATOM     50  C   UNL A   1      45.855  28.462  31.813  1.00  0.00     0.049 A 
ATOM     51  H   UNL A   1      43.930  28.584  30.954  1.00  0.00     0.167 HD
ATOM     52  C   UNL A   1      45.705  26.442  30.383  1.00  0.00     0.074 A 
ATOM     53  C   UNL A   1      46.250  25.231  29.806  1.00  0.00     0.031 C 
ATOM     54  C   UNL A   1      46.376  27.247  31.243  1.00  0.00     0.037 A 
BRANCH  41  55
ATOM     55  C   UNL A   1      43.189  32.195  33.102  1.00  0.00     0.064 A 
ATOM     56  C   UNL A   1      42.655  32.156  34.398  1.00  0.00     0.173 A 
ATOM     57  C   UNL A   1      43.621  33.435  32.607  1.00  0.00     0.173 A 
ATOM     58  F   UNL A   1      42.221  30.997  34.917  1.00  0.00    -0.203 F 
ATOM     59  C   UNL A   1      42.543  33.315  35.163  1.00  0.00     0.198 A 
ATOM     60  C   UNL A   1      43.531  34.587  33.383  1.00  0.00     0.198 A 
ATOM     61  F   UNL A   1      44.149  33.523  31.377  1.00  0.00    -0.203 F 
ATOM     62  F   UNL A   1      42.000  33.259  36.387  1.00  0.00    -0.200 F 
ATOM     63  C   UNL A   1      42.984  34.528  34.656  1.00  0.00     0.200 A 
ATOM     64  F   UNL A   1      43.978  35.755  32.900  1.00  0.00    -0.200 F 
ATOM     65  F   UNL A   1      42.881  35.641  35.395  1.00  0.00    -0.200 F 
ENDBRANCH  41  55
BRANCH  42  66
ATOM     66  C   UNL A   1      42.971  23.942  27.484  1.00  0.00     0.064 A 
ATOM     67  C   UNL A   1      43.383  23.914  26.144  1.00  0.00     0.173 A 
ATOM     68  C   UNL A   1      42.507  22.746  28.049  1.00  0.00     0.173 A 
ATOM     69  F   UNL A   1      43.834  25.032  25.556  1.00  0.00    -0.203 F 
ATOM     70  C   UNL A   1      43.317  22.741  25.396  1.00  0.00     0.198 A 
ATOM     71  C   UNL A   1      42.466  21.567  27.308  1.00  0.00     0.198 A 
ATOM     72  F   UNL A   1      42.122  22.719  29.334  1.00  0.00    -0.203 F 
ATOM     73  F   UNL A   1      43.690  22.747  24.109  1.00  0.00    -0.200 F 
ATOM     74  C   UNL A   1      42.864  21.568  25.980  1.00  0.00     0.200 A 
ATOM     75  F   UNL A   1      42.052  20.431  27.884  1.00  0.00    -0.200 F 
ATOM     76  F   UNL A   1      42.817  20.434  25.264  1.00  0.00    -0.200 F 
ENDBRANCH  42  66
BRANCH  54  77
ATOM     77  C   UNL A   1      47.762  26.837  31.642  1.00  0.00     0.064 A 
ATOM     78  C   UNL A   1      48.876  27.321  30.939  1.00  0.00     0.173 A 
ATOM     79  C   UNL A   1      47.982  25.907  32.667  1.00  0.00     0.173 A 
ATOM     80  F   UNL A   1      48.714  28.208  29.945  1.00  0.00    -0.203 F 
ATOM     81  C   UNL A   1      50.159  26.879  31.241  1.00  0.00     0.198 A 
ATOM     82  C   UNL A   1      49.270  25.486  32.983  1.00  0.00     0.198 A 
ATOM     83  F   UNL A   1      46.950  25.425  33.376  1.00  0.00    -0.203 F 
ATOM     84  F   UNL A   1      51.206  27.330  30.536  1.00  0.00    -0.200 F 
ATOM     85  C   UNL A   1      50.357  25.964  32.264  1.00  0.00     0.200 A 
ATOM     86  F   UNL A   1      49.463  24.619  33.988  1.00  0.00    -0.200 F 
ATOM     87  F   UNL A   1      51.595  25.544  32.560  1.00  0.00    -0.200 F 
ENDBRANCH  54  77
ENDBRANCH  28  29
ENDBRANCH  20  23
ENDBRANCH  18  19
ENDBRANCH   1  18
TORSDOF 11
ENDMDL
MODEL 2
REMARK VINA RESULT:     -10.6      3.859     10.190
REMARK SMILES COc1c(F)cc(F)c(C(=O)NCCCNC(=O)c2ccc(-c3c4nc(c(-c5c(F)c(F)c(F)c(F)c5F)c5ccc([nH]5)c(-c5c(F)c(F)c(F)c(F)c5F)c5nc(c(-c6c(F)c(F)c(F)c(F)c6F)c6ccc3[nH]6)C=C5)C=C4)cc2)c1F
REMARK SMILES IDX 14 1 13 2 12 3 10 4 11 5 9 7 3 8 4 9 82 10 5 11 6 12 83 13
REMARK SMILES IDX 7 14 8 15 2 16 1 17 15 18 16 19 17 20 18 22 19 23 20 24
REMARK SMILES IDX 81 25 21 26 80 27 22 28 23 29 24 30 74 31 25 32 79 33 73 34
REMARK SMILES IDX 75 35 26 36 78 37 72 38 71 39 27 41 59 42 39 43 58 44 40 45
REMARK SMILES IDX 43 46 57 47 76 48 41 49 42 50 56 52 77 53 44 54 28 55 29 56
REMARK SMILES IDX 37 57 30 58 31 59 35 60 38 61 32 62 33 63 36 64 34 65 60 66
REMARK SMILES IDX 61 67 69 68 62 69 63 70 67 71 70 72 64 73 65 74 68 75 66 76
REMARK SMILES IDX 45 77 46 78 54 79 47 80 48 81 52 82 55 83 49 84 50 85 53 86
REMARK SMILES IDX 51 87
REMARK H PARENT 12 6 16 21 75 40 43 51
REMARK Flexibility Score: inf
ROOT
ATOM      1  C   UNL A   1      31.370  32.179  26.502  1.00  0.00     0.042 C 
ENDROOT
BRANCH   1   2
ATOM      2  C   UNL A   1      31.514  30.776  25.906  1.00  0.00     0.118 C 
BRANCH   2   3
ATOM      3  N   UNL A   1      31.487  29.769  26.954  1.00  0.00    -0.352 N 
ATOM      4  C   UNL A   1      31.645  28.406  26.951  1.00  0.00     0.257 C 
ATOM      5  O   UNL A   1      31.444  27.831  28.022  1.00  0.00    -0.269 OA
ATOM      6  H   UNL A   1      31.324  30.141  27.850  1.00  0.00     0.163 HD
BRANCH   4   7
ATOM      7  C   UNL A   1      32.069  27.607  25.778  1.00  0.00     0.115 A 
ATOM      8  C   UNL A   1      31.708  26.083  23.906  1.00  0.00     0.191 A 
ATOM      9  C   UNL A   1      33.064  26.119  23.604  1.00  0.00     0.171 A 
ATOM     10  C   UNL A   1      31.230  26.804  25.007  1.00  0.00     0.183 A 
ATOM     11  F   UNL A   1      33.551  25.456  22.547  1.00  0.00    -0.203 F 
ATOM     12  C   UNL A   1      33.936  26.864  24.384  1.00  0.00     0.083 A 
ATOM     13  F   UNL A   1      29.939  26.640  25.318  1.00  0.00    -0.202 F 
ATOM     14  C   UNL A   1      33.434  27.610  25.450  1.00  0.00     0.142 A 
ATOM     15  F   UNL A   1      34.312  28.354  26.137  1.00  0.00    -0.206 F 
BRANCH   8  16
ATOM     16  O   UNL A   1      30.777  25.464  23.115  1.00  0.00    -0.491 OA
ATOM     17  C   UNL A   1      30.652  24.071  23.385  1.00  0.00     0.278 C 
ENDBRANCH   8  16
ENDBRANCH   4   7
ENDBRANCH   2   3
ENDBRANCH   1   2
BRANCH   1  18
ATOM     18  C   UNL A   1      32.628  32.682  27.205  1.00  0.00     0.118 C 
BRANCH  18  19
ATOM     19  N   UNL A   1      32.500  34.068  27.626  1.00  0.00    -0.352 N 
ATOM     20  C   UNL A   1      33.126  34.741  28.645  1.00  0.00     0.251 C 
ATOM     21  H   UNL A   1      31.869  34.607  27.097  1.00  0.00     0.163 HD
ATOM     22  O   UNL A   1      32.718  35.851  28.974  1.00  0.00    -0.269 OA
BRANCH  20  23
ATOM     23  C   UNL A   1      34.277  34.146  29.362  1.00  0.00     0.039 A 
ATOM     24  C   UNL A   1      34.023  33.328  30.468  1.00  0.00     0.014 A 
ATOM     25  C   UNL A   1      35.596  34.435  29.000  1.00  0.00     0.014 A 
ATOM     26  C   UNL A   1      35.086  32.766  31.181  1.00  0.00     0.010 A 
ATOM     27  C   UNL A   1      36.655  33.825  29.673  1.00  0.00     0.010 A 
ATOM     28  C   UNL A   1      36.411  32.990  30.773  1.00  0.00    -0.014 A 
BRANCH  28  29
ATOM     29  C   UNL A   1      37.551  32.365  31.493  1.00  0.00     0.031 A 
ATOM     30  C   UNL A   1      38.298  31.217  30.875  1.00  0.00     0.074 A 
ATOM     31  C   UNL A   1      37.890  32.812  32.719  1.00  0.00     0.049 A 
ATOM     32  N   UNL A   1      39.269  30.495  31.377  1.00  0.00    -0.248 NA
ATOM     33  C   UNL A   1      37.891  30.814  29.520  1.00  0.00     0.031 C 
ATOM     34  C   UNL A   1      37.234  33.910  33.427  1.00  0.00     0.029 A 
ATOM     35  N   UNL A   1      38.871  32.396  33.584  1.00  0.00    -0.354 N 
ATOM     36  C   UNL A   1      39.583  29.555  30.405  1.00  0.00     0.074 A 
ATOM     37  C   UNL A   1      38.669  29.763  29.303  1.00  0.00     0.031 C 
ATOM     38  C   UNL A   1      37.850  34.103  34.604  1.00  0.00     0.029 A 
ATOM     39  C   UNL A   1      38.915  33.117  34.753  1.00  0.00     0.049 A 
ATOM     40  H   UNL A   1      39.484  31.652  33.387  1.00  0.00     0.167 HD
ATOM     41  C   UNL A   1      40.562  28.618  30.421  1.00  0.00     0.037 A 
ATOM     42  C   UNL A   1      39.721  32.992  35.824  1.00  0.00     0.037 A 
ATOM     43  C   UNL A   1      41.483  28.426  31.511  1.00  0.00     0.049 A 
ATOM     44  C   UNL A   1      40.774  31.917  35.832  1.00  0.00     0.074 A 
ATOM     45  C   UNL A   1      42.518  27.512  31.613  1.00  0.00     0.029 A 
ATOM     46  N   UNL A   1      41.483  29.166  32.684  1.00  0.00    -0.354 N 
ATOM     47  N   UNL A   1      41.071  31.046  34.900  1.00  0.00    -0.248 NA
ATOM     48  C   UNL A   1      41.600  31.806  37.043  1.00  0.00     0.031 C 
ATOM     49  C   UNL A   1      43.124  27.678  32.862  1.00  0.00     0.029 A 
ATOM     50  C   UNL A   1      42.495  28.722  33.520  1.00  0.00     0.049 A 
ATOM     51  H   UNL A   1      40.858  29.897  32.891  1.00  0.00     0.167 HD
ATOM     52  C   UNL A   1      42.133  30.303  35.397  1.00  0.00     0.074 A 
ATOM     53  C   UNL A   1      42.437  30.832  36.710  1.00  0.00     0.031 C 
ATOM     54  C   UNL A   1      42.794  29.271  34.817  1.00  0.00     0.037 A 
BRANCH  41  55
ATOM     55  C   UNL A   1      40.707  27.737  29.215  1.00  0.00     0.064 A 
ATOM     56  C   UNL A   1      41.662  28.023  28.229  1.00  0.00     0.173 A 
ATOM     57  C   UNL A   1      39.848  26.648  29.003  1.00  0.00     0.173 A 
ATOM     58  F   UNL A   1      42.503  29.057  28.381  1.00  0.00    -0.203 F 
ATOM     59  C   UNL A   1      41.745  27.257  27.068  1.00  0.00     0.198 A 
ATOM     60  C   UNL A   1      39.950  25.869  27.853  1.00  0.00     0.198 A 
ATOM     61  F   UNL A   1      38.924  26.328  29.921  1.00  0.00    -0.203 F 
ATOM     62  F   UNL A   1      42.645  27.568  26.125  1.00  0.00    -0.200 F 
ATOM     63  C   UNL A   1      40.891  26.180  26.882  1.00  0.00     0.200 A 
ATOM     64  F   UNL A   1      39.139  24.815  27.686  1.00  0.00    -0.200 F 
ATOM     65  F   UNL A   1      40.976  25.441  25.769  1.00  0.00    -0.200 F 
ENDBRANCH  41  55
BRANCH  42  66
ATOM     66  C   UNL A   1      39.588  33.935  36.965  1.00  0.00     0.064 A 
ATOM     67  C   UNL A   1      40.250  35.172  36.978  1.00  0.00     0.173 A 
ATOM     68  C   UNL A   1      38.800  33.605  38.075  1.00  0.00     0.173 A 
ATOM     69  F   UNL A   1      41.018  35.534  35.940  1.00  0.00    -0.203 F 
ATOM     70  C   UNL A   1      40.139  36.035  38.066  1.00  0.00     0.198 A 
ATOM     71  C   UNL A   1      38.668  34.480  39.152  1.00  0.00     0.198 A 
ATOM     72  F   UNL A   1      38.131  32.442  38.099  1.00  0.00    -0.203 F 
ATOM     73  F   UNL A   1      40.803  37.198  38.067  1.00  0.00    -0.200 F 
ATOM     74  C   UNL A   1      39.344  35.691  39.149  1.00  0.00     0.200 A 
ATOM     75  F   UNL A   1      37.879  34.154  40.184  1.00  0.00    -0.200 F 
ATOM     76  F   UNL A   1      39.224  36.529  40.189  1.00  0.00    -0.200 F 
ENDBRANCH  42  66
BRANCH  54  77
ATOM     77  C   UNL A   1      43.934  28.661  35.578  1.00  0.00     0.064 A 
ATOM     78  C   UNL A   1      43.701  27.628  36.499  1.00  0.00     0.173 A 
ATOM     79  C   UNL A   1      45.241  29.150  35.453  1.00  0.00     0.173 A 
ATOM     80  F   UNL A   1      42.464  27.132  36.659  1.00  0.00    -0.203 F 
ATOM     81  C   UNL A   1      44.734  27.116  37.276  1.00  0.00     0.198 A 
ATOM     82  C   UNL A   1      46.278  28.618  36.214  1.00  0.00     0.198 A 
ATOM     83  F   UNL A   1      45.516  30.128  34.576  1.00  0.00    -0.203 F 
ATOM     84  F   UNL A   1      44.484  26.151  38.172  1.00  0.00    -0.200 F 
ATOM     85  C   UNL A   1      46.023  27.609  37.131  1.00  0.00     0.200 A 
ATOM     86  F   UNL A   1      47.527  29.078  36.057  1.00  0.00    -0.200 F 
ATOM     87  F   UNL A   1      47.020  27.110  37.875  1.00  0.00    -0.200 F 
ENDBRANCH  54  77
ENDBRANCH  28  29
ENDBRANCH  20  23
ENDBRANCH  18  19
ENDBRANCH   1  18
TORSDOF 11
ENDMDL
MODEL 3
REMARK VINA RESULT:     -10.6      5.644     10.526
REMARK SMILES COc1c(F)cc(F)c(C(=O)NCCCNC(=O)c2ccc(-c3c4nc(c(-c5c(F)c(F)c(F)c(F)c5F)c5ccc([nH]5)c(-c5c(F)c(F)c(F)c(F)c5F)c5nc(c(-c6c(F)c(F)c(F)c(F)c6F)c6ccc3[nH]6)C=C5)C=C4)cc2)c1F
REMARK SMILES IDX 14 1 13 2 12 3 10 4 11 5 9 7 3 8 4 9 82 10 5 11 6 12 83 13
REMARK SMILES IDX 7 14 8 15 2 16 1 17 15 18 16 19 17 20 18 22 19 23 20 24
REMARK SMILES IDX 81 25 21 26 80 27 22 28 23 29 24 30 74 31 25 32 79 33 73 34
REMARK SMILES IDX 75 35 26 36 78 37 72 38 71 39 27 41 59 42 39 43 58 44 40 45
REMARK SMILES IDX 43 46 57 47 76 48 41 49 42 50 56 52 77 53 44 54 28 55 29 56
REMARK SMILES IDX 37 57 30 58 31 59 35 60 38 61 32 62 33 63 36 64 34 65 60 66
REMARK SMILES IDX 61 67 69 68 62 69 63 70 67 71 70 72 64 73 65 74 68 75 66 76
REMARK SMILES IDX 45 77 46 78 54 79 47 80 48 81 52 82 55 83 49 84 50 85 53 86
REMARK SMILES IDX 51 87
REMARK H PARENT 12 6 16 21 75 40 43 51
REMARK Flexibility Score: inf
ROOT
ATOM      1  C   UNL A   1      37.956  19.684  24.990  1.00  0.00     0.042 C 
ENDROOT
BRANCH   1   2
ATOM      2  C   UNL A   1      36.994  20.809  24.600  1.00  0.00     0.118 C 
BRANCH   2   3
ATOM      3  N   UNL A   1      35.981  20.997  25.627  1.00  0.00    -0.352 N 
ATOM      4  C   UNL A   1      34.650  20.674  25.702  1.00  0.00     0.257 C 
ATOM      5  O   UNL A   1      34.044  21.088  26.692  1.00  0.00    -0.269 OA
ATOM      6  H   UNL A   1      36.321  21.446  26.434  1.00  0.00     0.163 HD
BRANCH   4   7
ATOM      7  C   UNL A   1      33.923  19.846  24.712  1.00  0.00     0.115 A 
ATOM      8  C   UNL A   1      33.463  17.792  23.476  1.00  0.00     0.191 A 
ATOM      9  C   UNL A   1      32.459  18.437  22.762  1.00  0.00     0.171 A 
ATOM     10  C   UNL A   1      34.203  18.511  24.423  1.00  0.00     0.183 A 
ATOM     11  F   UNL A   1      31.720  17.774  21.863  1.00  0.00    -0.203 F 
ATOM     12  C   UNL A   1      32.192  19.779  22.987  1.00  0.00     0.083 A 
ATOM     13  F   UNL A   1      35.230  17.872  24.994  1.00  0.00    -0.202 F 
ATOM     14  C   UNL A   1      32.910  20.466  23.965  1.00  0.00     0.142 A 
ATOM     15  F   UNL A   1      32.574  21.746  24.178  1.00  0.00    -0.206 F 
BRANCH   8  16
ATOM     16  O   UNL A   1      33.704  16.447  23.388  1.00  0.00    -0.491 OA
ATOM     17  C   UNL A   1      33.218  15.718  24.511  1.00  0.00     0.278 C 
ENDBRANCH   8  16
ENDBRANCH   4   7
ENDBRANCH   2   3
ENDBRANCH   1   2
BRANCH   1  18
ATOM     18  C   UNL A   1      39.042  20.114  25.972  1.00  0.00     0.118 C 
BRANCH  18  19
ATOM     19  N   UNL A   1      40.167  19.192  25.979  1.00  0.00    -0.352 N 
ATOM     20  C   UNL A   1      41.513  19.445  26.052  1.00  0.00     0.251 C 
ATOM     21  H   UNL A   1      39.924  18.239  25.924  1.00  0.00     0.163 HD
ATOM     22  O   UNL A   1      42.310  18.539  25.824  1.00  0.00    -0.269 OA
BRANCH  20  23
ATOM     23  C   UNL A   1      42.021  20.794  26.391  1.00  0.00     0.039 A 
ATOM     24  C   UNL A   1      42.249  21.702  25.351  1.00  0.00     0.014 A 
ATOM     25  C   UNL A   1      42.336  21.151  27.705  1.00  0.00     0.014 A 
ATOM     26  C   UNL A   1      42.748  22.976  25.632  1.00  0.00     0.010 A 
ATOM     27  C   UNL A   1      42.774  22.444  27.992  1.00  0.00     0.010 A 
ATOM     28  C   UNL A   1      42.991  23.367  26.959  1.00  0.00    -0.014 A 
BRANCH  28  29
ATOM     29  C   UNL A   1      43.479  24.733  27.279  1.00  0.00     0.031 A 
ATOM     30  C   UNL A   1      42.542  25.755  27.860  1.00  0.00     0.074 A 
ATOM     31  C   UNL A   1      44.759  25.063  27.014  1.00  0.00     0.049 A 
ATOM     32  N   UNL A   1      42.761  27.016  28.136  1.00  0.00    -0.248 NA
ATOM     33  C   UNL A   1      41.173  25.306  28.154  1.00  0.00     0.031 C 
ATOM     34  C   UNL A   1      45.759  24.163  26.441  1.00  0.00     0.029 A 
ATOM     35  N   UNL A   1      45.436  26.243  27.192  1.00  0.00    -0.354 N 
ATOM     36  C   UNL A   1      41.561  27.509  28.630  1.00  0.00     0.074 A 
ATOM     37  C   UNL A   1      40.602  26.428  28.571  1.00  0.00     0.031 C 
ATOM     38  C   UNL A   1      46.930  24.812  26.344  1.00  0.00     0.029 A 
ATOM     39  C   UNL A   1      46.754  26.185  26.808  1.00  0.00     0.049 A 
ATOM     40  H   UNL A   1      45.017  27.054  27.560  1.00  0.00     0.167 HD
ATOM     41  C   UNL A   1      41.291  28.746  29.113  1.00  0.00     0.037 A 
ATOM     42  C   UNL A   1      47.709  27.134  26.824  1.00  0.00     0.037 A 
ATOM     43  C   UNL A   1      42.252  29.815  29.189  1.00  0.00     0.049 A 
ATOM     44  C   UNL A   1      47.371  28.511  27.328  1.00  0.00     0.074 A 
ATOM     45  C   UNL A   1      42.077  31.099  29.675  1.00  0.00     0.029 A 
ATOM     46  N   UNL A   1      43.572  29.721  28.774  1.00  0.00    -0.354 N 
ATOM     47  N   UNL A   1      46.237  28.959  27.808  1.00  0.00    -0.248 NA
ATOM     48  C   UNL A   1      48.444  29.514  27.288  1.00  0.00     0.031 C 
ATOM     49  C   UNL A   1      43.281  31.792  29.525  1.00  0.00     0.029 A 
ATOM     50  C   UNL A   1      44.220  30.928  28.984  1.00  0.00     0.049 A 
ATOM     51  H   UNL A   1      43.987  28.916  28.387  1.00  0.00     0.167 HD
ATOM     52  C   UNL A   1      46.466  30.284  28.152  1.00  0.00     0.074 A 
ATOM     53  C   UNL A   1      47.850  30.566  27.837  1.00  0.00     0.031 C 
ATOM     54  C   UNL A   1      45.603  31.187  28.679  1.00  0.00     0.037 A 
BRANCH  41  55
ATOM     55  C   UNL A   1      39.903  29.013  29.618  1.00  0.00     0.064 A 
ATOM     56  C   UNL A   1      39.571  28.775  30.960  1.00  0.00     0.173 A 
ATOM     57  C   UNL A   1      38.883  29.436  28.754  1.00  0.00     0.173 A 
ATOM     58  F   UNL A   1      40.509  28.363  31.826  1.00  0.00    -0.203 F 
ATOM     59  C   UNL A   1      38.265  28.940  31.415  1.00  0.00     0.198 A 
ATOM     60  C   UNL A   1      37.584  29.625  29.218  1.00  0.00     0.198 A 
ATOM     61  F   UNL A   1      39.152  29.686  27.464  1.00  0.00    -0.203 F 
ATOM     62  F   UNL A   1      37.964  28.678  32.694  1.00  0.00    -0.200 F 
ATOM     63  C   UNL A   1      37.274  29.368  30.545  1.00  0.00     0.200 A 
ATOM     64  F   UNL A   1      36.632  30.060  28.379  1.00  0.00    -0.200 F 
ATOM     65  F   UNL A   1      36.020  29.533  30.985  1.00  0.00    -0.200 F 
ENDBRANCH  41  55
BRANCH  42  66
ATOM     66  C   UNL A   1      49.089  26.803  26.382  1.00  0.00     0.064 A 
ATOM     67  C   UNL A   1      50.043  26.290  27.272  1.00  0.00     0.173 A 
ATOM     68  C   UNL A   1      49.480  27.008  25.052  1.00  0.00     0.173 A 
ATOM     69  F   UNL A   1      49.720  26.077  28.556  1.00  0.00    -0.203 F 
ATOM     70  C   UNL A   1      51.342  26.011  26.851  1.00  0.00     0.198 A 
ATOM     71  C   UNL A   1      50.771  26.704  24.625  1.00  0.00     0.198 A 
ATOM     72  F   UNL A   1      48.595  27.477  24.159  1.00  0.00    -0.203 F 
ATOM     73  F   UNL A   1      52.244  25.548  27.727  1.00  0.00    -0.200 F 
ATOM     74  C   UNL A   1      51.703  26.212  25.527  1.00  0.00     0.200 A 
ATOM     75  F   UNL A   1      51.107  26.876  23.340  1.00  0.00    -0.200 F 
ATOM     76  F   UNL A   1      52.947  25.927  25.118  1.00  0.00    -0.200 F 
ENDBRANCH  42  66
BRANCH  54  77
ATOM     77  C   UNL A   1      46.131  32.557  28.981  1.00  0.00     0.064 A 
ATOM     78  C   UNL A   1      46.676  32.846  30.242  1.00  0.00     0.173 A 
ATOM     79  C   UNL A   1      46.029  33.602  28.052  1.00  0.00     0.173 A 
ATOM     80  F   UNL A   1      46.788  31.880  31.167  1.00  0.00    -0.203 F 
ATOM     81  C   UNL A   1      47.087  34.135  30.565  1.00  0.00     0.198 A 
ATOM     82  C   UNL A   1      46.464  34.885  28.370  1.00  0.00     0.198 A 
ATOM     83  F   UNL A   1      45.527  33.371  26.829  1.00  0.00    -0.203 F 
ATOM     84  F   UNL A   1      47.575  34.396  31.786  1.00  0.00    -0.200 F 
ATOM     85  C   UNL A   1      46.984  35.153  29.629  1.00  0.00     0.200 A 
ATOM     86  F   UNL A   1      46.386  35.863  27.457  1.00  0.00    -0.200 F 
ATOM     87  F   UNL A   1      47.388  36.393  29.938  1.00  0.00    -0.200 F 
ENDBRANCH  54  77
ENDBRANCH  28  29
ENDBRANCH  20  23
ENDBRANCH  18  19
ENDBRANCH   1  18
TORSDOF 11
ENDMDL
