MODEL 1
REMARK VINA RESULT:     -13.2      0.000      0.000
REMARK SMILES C=C(C(=O)NCCCNC(=O)c1ccc(-c2c3nc(c(-c4c(F)c(F)c(F)c(F)c4F)c4ccc([nH]4)c(-c4c(F)c(F)c(F)c(F)c4F)c4nc(c(-c5c(F)c(F)c(F)c(F)c5F)c5ccc2[nH]5)C=C4)C=C3)cc1)[C@@H]1CC[C@]2(C)C[C@@H](O)CC(=C)[C@H]2C1
REMARK SMILES IDX 7 1 6 2 5 3 3 4 4 5 2 7 1 8 75 9 76 10 87 11 77 12 86 13
REMARK SMILES IDX 78 14 84 15 79 16 80 17 83 18 85 19 81 20 82 21 8 23 9 24
REMARK SMILES IDX 10 25 11 27 12 28 13 29 74 30 14 31 73 32 15 33 16 34 17 35
REMARK SMILES IDX 67 36 18 37 72 38 66 39 68 40 19 41 71 42 65 43 64 44 20 46
REMARK SMILES IDX 52 47 32 48 51 49 33 50 36 51 50 52 69 53 34 54 35 55 49 57
REMARK SMILES IDX 70 58 37 59 21 60 22 61 30 62 23 63 24 64 28 65 31 66 25 67
REMARK SMILES IDX 26 68 29 69 27 70 53 71 54 72 62 73 55 74 56 75 60 76 63 77
REMARK SMILES IDX 57 78 58 79 61 80 59 81 38 82 39 83 47 84 40 85 41 86 45 87
REMARK SMILES IDX 48 88 42 89 43 90 46 91 44 92
REMARK H PARENT 5 6 82 22 9 26 68 45 36 56
REMARK Flexibility Score: inf
ROOT
ATOM      1  C   UNL A   1      31.355  32.265  26.478  1.00  0.00     0.042 C 
ENDROOT
BRANCH   1   2
ATOM      2  C   UNL A   1      31.512  30.794  26.073  1.00  0.00     0.118 C 
BRANCH   2   3
ATOM      3  N   UNL A   1      31.764  29.972  27.241  1.00  0.00    -0.352 N 
ATOM      4  C   UNL A   1      32.246  28.700  27.281  1.00  0.00     0.246 C 
ATOM      5  O   UNL A   1      31.659  27.903  28.007  1.00  0.00    -0.270 OA
ATOM      6  H   UNL A   1      31.562  30.386  28.111  1.00  0.00     0.163 HD
BRANCH   4   7
ATOM      7  C   UNL A   1      33.506  28.329  26.575  1.00  0.00     0.013 C 
ATOM      8  C   UNL A   1      34.674  28.936  26.858  1.00  0.00     0.018 C 
BRANCH   7   9
ATOM      9  C   UNL A   1      33.446  27.317  25.424  1.00  0.00     0.025 C 
ATOM     10  C   UNL A   1      32.068  27.300  24.739  1.00  0.00     0.009 C 
ATOM     11  C   UNL A   1      33.990  25.895  25.692  1.00  0.00     0.017 C 
ATOM     12  C   UNL A   1      31.065  26.314  25.335  1.00  0.00     0.008 C 
ATOM     13  C   UNL A   1      32.969  24.908  26.287  1.00  0.00     0.021 C 
ATOM     14  C   UNL A   1      31.621  24.876  25.508  1.00  0.00    -0.024 C 
ATOM     15  C   UNL A   1      33.450  23.481  26.526  1.00  0.00    -0.071 C 
ATOM     16  C   UNL A   1      31.778  24.262  24.096  1.00  0.00     0.012 C 
ATOM     17  C   UNL A   1      30.586  24.058  26.342  1.00  0.00     0.039 C 
ATOM     18  C   UNL A   1      32.497  22.688  27.402  1.00  0.00     0.062 C 
ATOM     19  C   UNL A   1      34.576  22.934  26.039  1.00  0.00     0.008 C 
ATOM     20  C   UNL A   1      31.067  22.683  26.838  1.00  0.00     0.119 C 
BRANCH  20  21
ATOM     21  O   UNL A   1      30.933  21.711  25.801  1.00  0.00    -0.393 OA
ATOM     22  H   UNL A   1      31.812  21.459  25.477  1.00  0.00     0.210 HD
ENDBRANCH  20  21
ENDBRANCH   7   9
ENDBRANCH   4   7
ENDBRANCH   2   3
ENDBRANCH   1   2
BRANCH   1  23
ATOM     23  C   UNL A   1      32.552  32.808  27.262  1.00  0.00     0.118 C 
BRANCH  23  24
ATOM     24  N   UNL A   1      32.385  34.217  27.596  1.00  0.00    -0.352 N 
ATOM     25  C   UNL A   1      32.978  34.949  28.592  1.00  0.00     0.251 C 
ATOM     26  H   UNL A   1      31.755  34.714  27.025  1.00  0.00     0.163 HD
ATOM     27  O   UNL A   1      32.523  36.048  28.906  1.00  0.00    -0.269 OA
BRANCH  25  28
ATOM     28  C   UNL A   1      34.166  34.419  29.288  1.00  0.00     0.039 A 
ATOM     29  C   UNL A   1      34.006  33.752  30.506  1.00  0.00     0.014 A 
ATOM     30  C   UNL A   1      35.440  34.612  28.751  1.00  0.00     0.014 A 
ATOM     31  C   UNL A   1      35.123  33.225  31.158  1.00  0.00     0.010 A 
ATOM     32  C   UNL A   1      36.544  34.034  29.368  1.00  0.00     0.010 A 
ATOM     33  C   UNL A   1      36.396  33.337  30.579  1.00  0.00    -0.014 A 
BRANCH  33  34
ATOM     34  C   UNL A   1      37.603  32.749  31.213  1.00  0.00     0.031 A 
ATOM     35  C   UNL A   1      38.318  31.614  30.537  1.00  0.00     0.074 A 
ATOM     36  C   UNL A   1      37.985  33.162  32.436  1.00  0.00     0.049 A 
ATOM     37  N   UNL A   1      39.273  30.844  30.993  1.00  0.00    -0.248 NA
ATOM     38  C   UNL A   1      37.876  31.278  29.174  1.00  0.00     0.031 C 
ATOM     39  C   UNL A   1      37.351  34.235  33.203  1.00  0.00     0.029 A 
ATOM     40  N   UNL A   1      38.983  32.708  33.261  1.00  0.00    -0.354 N 
ATOM     41  C   UNL A   1      39.523  29.919  29.990  1.00  0.00     0.074 A 
ATOM     42  C   UNL A   1      38.596  30.196  28.915  1.00  0.00     0.031 C 
ATOM     43  C   UNL A   1      37.977  34.357  34.385  1.00  0.00     0.029 A 
ATOM     44  C   UNL A   1      39.024  33.343  34.477  1.00  0.00     0.049 A 
ATOM     45  H   UNL A   1      39.611  31.992  33.006  1.00  0.00     0.167 HD
ATOM     46  C   UNL A   1      40.455  28.935  29.963  1.00  0.00     0.037 A 
ATOM     47  C   UNL A   1      39.802  33.119  35.553  1.00  0.00     0.037 A 
ATOM     48  C   UNL A   1      41.394  28.685  31.024  1.00  0.00     0.049 A 
ATOM     49  C   UNL A   1      40.827  32.018  35.499  1.00  0.00     0.074 A 
ATOM     50  C   UNL A   1      42.412  27.749  31.075  1.00  0.00     0.029 A 
ATOM     51  N   UNL A   1      41.432  29.382  32.223  1.00  0.00    -0.354 N 
ATOM     52  N   UNL A   1      41.088  31.178  34.528  1.00  0.00    -0.248 NA
ATOM     53  C   UNL A   1      41.669  31.837  36.690  1.00  0.00     0.031 C 
ATOM     54  C   UNL A   1      43.040  27.852  32.319  1.00  0.00     0.029 A 
ATOM     55  C   UNL A   1      42.448  28.888  33.025  1.00  0.00     0.049 A 
ATOM     56  H   UNL A   1      40.827  30.119  32.468  1.00  0.00     0.167 HD
ATOM     57  C   UNL A   1      42.145  30.396  34.972  1.00  0.00     0.074 A 
ATOM     58  C   UNL A   1      42.481  30.863  36.302  1.00  0.00     0.031 C 
ATOM     59  C   UNL A   1      42.784  29.385  34.334  1.00  0.00     0.037 A 
BRANCH  46  60
ATOM     60  C   UNL A   1      40.501  28.053  28.749  1.00  0.00     0.064 A 
ATOM     61  C   UNL A   1      41.267  28.390  27.623  1.00  0.00     0.173 A 
ATOM     62  C   UNL A   1      39.799  26.838  28.725  1.00  0.00     0.173 A 
ATOM     63  F   UNL A   1      41.948  29.546  27.591  1.00  0.00    -0.203 F 
ATOM     64  C   UNL A   1      41.304  27.559  26.506  1.00  0.00     0.198 A 
ATOM     65  C   UNL A   1      39.864  25.994  27.619  1.00  0.00     0.198 A 
ATOM     66  F   UNL A   1      39.057  26.463  29.777  1.00  0.00    -0.203 F 
ATOM     67  F   UNL A   1      42.002  27.927  25.423  1.00  0.00    -0.200 F 
ATOM     68  C   UNL A   1      40.608  26.360  26.507  1.00  0.00     0.200 A 
ATOM     69  F   UNL A   1      39.203  24.829  27.627  1.00  0.00    -0.200 F 
ATOM     70  F   UNL A   1      40.651  25.558  25.434  1.00  0.00    -0.200 F 
ENDBRANCH  46  60
BRANCH  47  71
ATOM     71  C   UNL A   1      39.655  33.966  36.765  1.00  0.00     0.064 A 
ATOM     72  C   UNL A   1      38.847  33.553  37.833  1.00  0.00     0.173 A 
ATOM     73  C   UNL A   1      40.316  35.197  36.884  1.00  0.00     0.173 A 
ATOM     74  F   UNL A   1      38.179  32.392  37.757  1.00  0.00    -0.203 F 
ATOM     75  C   UNL A   1      38.689  34.348  38.967  1.00  0.00     0.198 A 
ATOM     76  C   UNL A   1      40.180  35.978  38.031  1.00  0.00     0.198 A 
ATOM     77  F   UNL A   1      41.108  35.634  35.894  1.00  0.00    -0.203 F 
ATOM     78  F   UNL A   1      37.876  33.949  39.955  1.00  0.00    -0.200 F 
ATOM     79  C   UNL A   1      39.361  35.556  39.067  1.00  0.00     0.200 A 
ATOM     80  F   UNL A   1      40.843  37.138  38.130  1.00  0.00    -0.200 F 
ATOM     81  F   UNL A   1      39.214  36.318  40.160  1.00  0.00    -0.200 F 
ENDBRANCH  47  71
BRANCH  59  82
ATOM     82  C   UNL A   1      43.952  28.754  35.032  1.00  0.00     0.064 A 
ATOM     83  C   UNL A   1      43.802  27.629  35.854  1.00  0.00     0.173 A 
ATOM     84  C   UNL A   1      45.248  29.247  34.819  1.00  0.00     0.173 A 
ATOM     85  F   UNL A   1      42.582  27.129  36.099  1.00  0.00    -0.203 F 
ATOM     86  C   UNL A   1      44.908  27.029  36.450  1.00  0.00     0.198 A 
ATOM     87  C   UNL A   1      46.354  28.629  35.394  1.00  0.00     0.198 A 
ATOM     88  F   UNL A   1      45.444  30.319  34.036  1.00  0.00    -0.203 F 
ATOM     89  F   UNL A   1      44.740  25.975  37.262  1.00  0.00    -0.200 F 
ATOM     90  C   UNL A   1      46.183  27.523  36.213  1.00  0.00     0.200 A 
ATOM     91  F   UNL A   1      47.585  29.099  35.152  1.00  0.00    -0.200 F 
ATOM     92  F   UNL A   1      47.247  26.934  36.776  1.00  0.00    -0.200 F 
ENDBRANCH  59  82
ENDBRANCH  33  34
ENDBRANCH  25  28
ENDBRANCH  23  24
ENDBRANCH   1  23
TORSDOF 12
ENDMDL
MODEL 2
REMARK VINA RESULT:     -13.2      0.090      1.143
REMARK SMILES C=C(C(=O)NCCCNC(=O)c1ccc(-c2c3nc(c(-c4c(F)c(F)c(F)c(F)c4F)c4ccc([nH]4)c(-c4c(F)c(F)c(F)c(F)c4F)c4nc(c(-c5c(F)c(F)c(F)c(F)c5F)c5ccc2[nH]5)C=C4)C=C3)cc1)[C@@H]1CC[C@]2(C)C[C@@H](O)CC(=C)[C@H]2C1
REMARK SMILES IDX 7 1 6 2 5 3 3 4 4 5 2 7 1 8 75 9 76 10 87 11 77 12 86 13
REMARK SMILES IDX 78 14 84 15 79 16 80 17 83 18 85 19 81 20 82 21 8 23 9 24
REMARK SMILES IDX 10 25 11 27 12 28 13 29 74 30 14 31 73 32 15 33 16 34 17 35
REMARK SMILES IDX 67 36 18 37 72 38 66 39 68 40 19 41 71 42 65 43 64 44 20 46
REMARK SMILES IDX 52 47 32 48 51 49 33 50 36 51 50 52 69 53 34 54 35 55 49 57
REMARK SMILES IDX 70 58 37 59 21 60 22 61 30 62 23 63 24 64 28 65 31 66 25 67
REMARK SMILES IDX 26 68 29 69 27 70 53 71 54 72 62 73 55 74 56 75 60 76 63 77
REMARK SMILES IDX 57 78 58 79 61 80 59 81 38 82 39 83 47 84 40 85 41 86 45 87
REMARK SMILES IDX 48 88 42 89 43 90 46 91 44 92
REMARK H PARENT 5 6 82 22 9 26 68 45 36 56
REMARK Flexibility Score: inf
ROOT
ATOM      1  C   UNL A   1      31.379  32.256  26.498  1.00  0.00     0.042 C 
ENDROOT
BRANCH   1   2
ATOM      2  C   UNL A   1      31.540  30.786  26.092  1.00  0.00     0.118 C 
BRANCH   2   3
ATOM      3  N   UNL A   1      31.785  29.963  27.262  1.00  0.00    -0.352 N 
ATOM      4  C   UNL A   1      32.256  28.688  27.304  1.00  0.00     0.246 C 
ATOM      5  O   UNL A   1      31.662  27.896  28.030  1.00  0.00    -0.270 OA
ATOM      6  H   UNL A   1      31.585  30.380  28.131  1.00  0.00     0.163 HD
BRANCH   4   7
ATOM      7  C   UNL A   1      33.514  28.305  26.600  1.00  0.00     0.013 C 
ATOM      8  C   UNL A   1      34.688  28.896  26.892  1.00  0.00     0.018 C 
BRANCH   7   9
ATOM      9  C   UNL A   1      33.446  27.303  25.442  1.00  0.00     0.025 C 
ATOM     10  C   UNL A   1      32.061  27.286  24.770  1.00  0.00     0.009 C 
ATOM     11  C   UNL A   1      33.998  25.880  25.693  1.00  0.00     0.017 C 
ATOM     12  C   UNL A   1      31.068  26.293  25.368  1.00  0.00     0.008 C 
ATOM     13  C   UNL A   1      32.984  24.885  26.291  1.00  0.00     0.021 C 
ATOM     14  C   UNL A   1      31.629  24.856  25.525  1.00  0.00    -0.024 C 
ATOM     15  C   UNL A   1      33.472  23.458  26.515  1.00  0.00    -0.071 C 
ATOM     16  C   UNL A   1      31.775  24.252  24.106  1.00  0.00     0.012 C 
ATOM     17  C   UNL A   1      30.605  24.027  26.362  1.00  0.00     0.039 C 
ATOM     18  C   UNL A   1      32.530  22.656  27.393  1.00  0.00     0.062 C 
ATOM     19  C   UNL A   1      34.596  22.919  26.012  1.00  0.00     0.008 C 
ATOM     20  C   UNL A   1      31.095  22.651  26.843  1.00  0.00     0.119 C 
BRANCH  20  21
ATOM     21  O   UNL A   1      30.954  21.686  25.800  1.00  0.00    -0.393 OA
ATOM     22  H   UNL A   1      31.816  21.284  25.611  1.00  0.00     0.210 HD
ENDBRANCH  20  21
ENDBRANCH   7   9
ENDBRANCH   4   7
ENDBRANCH   2   3
ENDBRANCH   1   2
BRANCH   1  23
ATOM     23  C   UNL A   1      32.580  32.808  27.268  1.00  0.00     0.118 C 
BRANCH  23  24
ATOM     24  N   UNL A   1      32.408  34.216  27.604  1.00  0.00    -0.352 N 
ATOM     25  C   UNL A   1      32.989  34.946  28.607  1.00  0.00     0.251 C 
ATOM     26  H   UNL A   1      31.783  34.713  27.028  1.00  0.00     0.163 HD
ATOM     27  O   UNL A   1      32.529  36.044  28.920  1.00  0.00    -0.269 OA
BRANCH  25  28
ATOM     28  C   UNL A   1      34.171  34.416  29.314  1.00  0.00     0.039 A 
ATOM     29  C   UNL A   1      33.999  33.739  30.525  1.00  0.00     0.014 A 
ATOM     30  C   UNL A   1      35.451  34.620  28.795  1.00  0.00     0.014 A 
ATOM     31  C   UNL A   1      35.110  33.213  31.187  1.00  0.00     0.010 A 
ATOM     32  C   UNL A   1      36.550  34.043  29.422  1.00  0.00     0.010 A 
ATOM     33  C   UNL A   1      36.390  33.335  30.625  1.00  0.00    -0.014 A 
BRANCH  33  34
ATOM     34  C   UNL A   1      37.592  32.748  31.269  1.00  0.00     0.031 A 
ATOM     35  C   UNL A   1      38.313  31.613  30.601  1.00  0.00     0.074 A 
ATOM     36  C   UNL A   1      37.964  33.162  32.496  1.00  0.00     0.049 A 
ATOM     37  N   UNL A   1      39.265  30.844  31.065  1.00  0.00    -0.248 NA
ATOM     38  C   UNL A   1      37.883  31.276  29.234  1.00  0.00     0.031 C 
ATOM     39  C   UNL A   1      37.323  34.235  33.256  1.00  0.00     0.029 A 
ATOM     40  N   UNL A   1      38.955  32.709  33.329  1.00  0.00    -0.354 N 
ATOM     41  C   UNL A   1      39.523  29.918  30.065  1.00  0.00     0.074 A 
ATOM     42  C   UNL A   1      38.605  30.194  28.982  1.00  0.00     0.031 C 
ATOM     43  C   UNL A   1      37.939  34.359  34.443  1.00  0.00     0.029 A 
ATOM     44  C   UNL A   1      38.985  33.346  34.545  1.00  0.00     0.049 A 
ATOM     45  H   UNL A   1      39.585  31.994  33.080  1.00  0.00     0.167 HD
ATOM     46  C   UNL A   1      40.456  28.934  30.047  1.00  0.00     0.037 A 
ATOM     47  C   UNL A   1      39.754  33.122  35.628  1.00  0.00     0.037 A 
ATOM     48  C   UNL A   1      41.386  28.686  31.115  1.00  0.00     0.049 A 
ATOM     49  C   UNL A   1      40.780  32.022  35.583  1.00  0.00     0.074 A 
ATOM     50  C   UNL A   1      42.404  27.750  31.175  1.00  0.00     0.029 A 
ATOM     51  N   UNL A   1      41.413  29.384  32.314  1.00  0.00    -0.354 N 
ATOM     52  N   UNL A   1      41.049  31.181  34.615  1.00  0.00    -0.248 NA
ATOM     53  C   UNL A   1      41.612  31.842  36.781  1.00  0.00     0.031 C 
ATOM     54  C   UNL A   1      43.021  27.855  32.425  1.00  0.00     0.029 A 
ATOM     55  C   UNL A   1      42.423  28.890  33.125  1.00  0.00     0.049 A 
ATOM     56  H   UNL A   1      40.806  30.121  32.554  1.00  0.00     0.167 HD
ATOM     57  C   UNL A   1      42.103  30.400  35.068  1.00  0.00     0.074 A 
ATOM     58  C   UNL A   1      42.428  30.868  36.400  1.00  0.00     0.031 C 
ATOM     59  C   UNL A   1      42.747  29.389  34.437  1.00  0.00     0.037 A 
BRANCH  46  60
ATOM     60  C   UNL A   1      40.513  28.052  28.834  1.00  0.00     0.064 A 
ATOM     61  C   UNL A   1      39.786  26.854  28.760  1.00  0.00     0.173 A 
ATOM     62  C   UNL A   1      41.274  28.426  27.716  1.00  0.00     0.173 A 
ATOM     63  F   UNL A   1      39.051  26.444  29.805  1.00  0.00    -0.203 F 
ATOM     64  C   UNL A   1      39.845  26.048  27.626  1.00  0.00     0.198 A 
ATOM     65  C   UNL A   1      41.306  27.634  26.571  1.00  0.00     0.198 A 
ATOM     66  F   UNL A   1      41.982  29.565  27.730  1.00  0.00    -0.203 F 
ATOM     67  F   UNL A   1      39.183  24.883  27.599  1.00  0.00    -0.200 F 
ATOM     68  C   UNL A   1      40.598  26.442  26.530  1.00  0.00     0.200 A 
ATOM     69  F   UNL A   1      42.022  28.023  25.508  1.00  0.00    -0.200 F 
ATOM     70  F   UNL A   1      40.647  25.669  25.436  1.00  0.00    -0.200 F 
ENDBRANCH  46  60
BRANCH  47  71
ATOM     71  C   UNL A   1      39.596  33.970  36.838  1.00  0.00     0.064 A 
ATOM     72  C   UNL A   1      38.810  33.540  37.915  1.00  0.00     0.173 A 
ATOM     73  C   UNL A   1      40.225  35.219  36.946  1.00  0.00     0.173 A 
ATOM     74  F   UNL A   1      38.173  32.361  37.851  1.00  0.00    -0.203 F 
ATOM     75  C   UNL A   1      38.643  34.335  39.048  1.00  0.00     0.198 A 
ATOM     76  C   UNL A   1      40.080  36.000  38.090  1.00  0.00     0.198 A 
ATOM     77  F   UNL A   1      40.995  35.672  35.945  1.00  0.00    -0.203 F 
ATOM     78  F   UNL A   1      37.851  33.919  40.045  1.00  0.00    -0.200 F 
ATOM     79  C   UNL A   1      39.282  35.562  39.136  1.00  0.00     0.200 A 
ATOM     80  F   UNL A   1      40.712  37.179  38.179  1.00  0.00    -0.200 F 
ATOM     81  F   UNL A   1      39.126  36.324  40.227  1.00  0.00    -0.200 F 
ENDBRANCH  47  71
BRANCH  59  82
ATOM     82  C   UNL A   1      43.910  28.759  35.145  1.00  0.00     0.064 A 
ATOM     83  C   UNL A   1      43.746  27.669  36.011  1.00  0.00     0.173 A 
ATOM     84  C   UNL A   1      45.214  29.214  34.898  1.00  0.00     0.173 A 
ATOM     85  F   UNL A   1      42.517  27.207  36.289  1.00  0.00    -0.203 F 
ATOM     86  C   UNL A   1      44.846  27.067  36.617  1.00  0.00     0.198 A 
ATOM     87  C   UNL A   1      46.313  28.593  35.484  1.00  0.00     0.198 A 
ATOM     88  F   UNL A   1      45.424  30.251  34.073  1.00  0.00    -0.203 F 
ATOM     89  F   UNL A   1      44.664  26.050  37.470  1.00  0.00    -0.200 F 
ATOM     90  C   UNL A   1      46.127  27.524  36.347  1.00  0.00     0.200 A 
ATOM     91  F   UNL A   1      47.551  29.027  35.210  1.00  0.00    -0.200 F 
ATOM     92  F   UNL A   1      47.186  26.933  36.920  1.00  0.00    -0.200 F 
ENDBRANCH  59  82
ENDBRANCH  33  34
ENDBRANCH  25  28
ENDBRANCH  23  24
ENDBRANCH   1  23
TORSDOF 12
ENDMDL
MODEL 3
REMARK VINA RESULT:     -13.2      0.151      1.618
REMARK SMILES C=C(C(=O)NCCCNC(=O)c1ccc(-c2c3nc(c(-c4c(F)c(F)c(F)c(F)c4F)c4ccc([nH]4)c(-c4c(F)c(F)c(F)c(F)c4F)c4nc(c(-c5c(F)c(F)c(F)c(F)c5F)c5ccc2[nH]5)C=C4)C=C3)cc1)[C@@H]1CC[C@]2(C)C[C@@H](O)CC(=C)[C@H]2C1
REMARK SMILES IDX 7 1 6 2 5 3 3 4 4 5 2 7 1 8 75 9 76 10 87 11 77 12 86 13
REMARK SMILES IDX 78 14 84 15 79 16 80 17 83 18 85 19 81 20 82 21 8 23 9 24
REMARK SMILES IDX 10 25 11 27 12 28 13 29 74 30 14 31 73 32 15 33 16 34 17 35
REMARK SMILES IDX 67 36 18 37 72 38 66 39 68 40 19 41 71 42 65 43 64 44 20 46
REMARK SMILES IDX 52 47 32 48 51 49 33 50 36 51 50 52 69 53 34 54 35 55 49 57
REMARK SMILES IDX 70 58 37 59 21 60 22 61 30 62 23 63 24 64 28 65 31 66 25 67
REMARK SMILES IDX 26 68 29 69 27 70 53 71 54 72 62 73 55 74 56 75 60 76 63 77
REMARK SMILES IDX 57 78 58 79 61 80 59 81 38 82 39 83 47 84 40 85 41 86 45 87
REMARK SMILES IDX 48 88 42 89 43 90 46 91 44 92
REMARK H PARENT 5 6 82 22 9 26 68 45 36 56
REMARK Flexibility Score: inf
ROOT
ATOM      1  C   UNL A   1      31.377  32.259  26.495  1.00  0.00     0.042 C 
ENDROOT
BRANCH   1   2
ATOM      2  C   UNL A   1      31.539  30.790  26.088  1.00  0.00     0.118 C 
BRANCH   2   3
ATOM      3  N   UNL A   1      31.780  29.965  27.257  1.00  0.00    -0.352 N 
ATOM      4  C   UNL A   1      32.247  28.688  27.299  1.00  0.00     0.246 C 
ATOM      5  O   UNL A   1      31.650  27.897  28.024  1.00  0.00    -0.270 OA
ATOM      6  H   UNL A   1      31.580  30.381  28.127  1.00  0.00     0.163 HD
BRANCH   4   7
ATOM      7  C   UNL A   1      33.505  28.302  26.597  1.00  0.00     0.013 C 
ATOM      8  C   UNL A   1      34.681  28.888  26.891  1.00  0.00     0.018 C 
BRANCH   7   9
ATOM      9  C   UNL A   1      33.435  27.302  25.437  1.00  0.00     0.025 C 
ATOM     10  C   UNL A   1      32.047  27.282  24.771  1.00  0.00     0.009 C 
ATOM     11  C   UNL A   1      33.994  25.881  25.681  1.00  0.00     0.017 C 
ATOM     12  C   UNL A   1      31.061  26.282  25.372  1.00  0.00     0.008 C 
ATOM     13  C   UNL A   1      32.988  24.881  26.282  1.00  0.00     0.021 C 
ATOM     14  C   UNL A   1      31.629  24.847  25.522  1.00  0.00    -0.024 C 
ATOM     15  C   UNL A   1      33.484  23.455  26.499  1.00  0.00    -0.071 C 
ATOM     16  C   UNL A   1      31.770  24.248  24.101  1.00  0.00     0.012 C 
ATOM     17  C   UNL A   1      30.614  24.013  26.362  1.00  0.00     0.039 C 
ATOM     18  C   UNL A   1      32.549  22.647  27.380  1.00  0.00     0.062 C 
ATOM     19  C   UNL A   1      34.607  22.922  25.989  1.00  0.00     0.008 C 
ATOM     20  C   UNL A   1      31.111  22.637  26.837  1.00  0.00     0.119 C 
BRANCH  20  21
ATOM     21  O   UNL A   1      30.969  21.674  25.792  1.00  0.00    -0.393 OA
ATOM     22  H   UNL A   1      30.657  22.114  24.987  1.00  0.00     0.210 HD
ENDBRANCH  20  21
ENDBRANCH   7   9
ENDBRANCH   4   7
ENDBRANCH   2   3
ENDBRANCH   1   2
BRANCH   1  23
ATOM     23  C   UNL A   1      32.569  32.805  27.283  1.00  0.00     0.118 C 
BRANCH  23  24
ATOM     24  N   UNL A   1      32.403  34.217  27.607  1.00  0.00    -0.352 N 
ATOM     25  C   UNL A   1      32.990  34.954  28.602  1.00  0.00     0.251 C 
ATOM     26  H   UNL A   1      31.778  34.712  27.028  1.00  0.00     0.163 HD
ATOM     27  O   UNL A   1      32.534  36.056  28.906  1.00  0.00    -0.269 OA
BRANCH  25  28
ATOM     28  C   UNL A   1      34.171  34.426  29.310  1.00  0.00     0.039 A 
ATOM     29  C   UNL A   1      34.000  33.762  30.528  1.00  0.00     0.014 A 
ATOM     30  C   UNL A   1      35.451  34.619  28.785  1.00  0.00     0.014 A 
ATOM     31  C   UNL A   1      35.111  33.237  31.192  1.00  0.00     0.010 A 
ATOM     32  C   UNL A   1      36.549  34.043  29.414  1.00  0.00     0.010 A 
ATOM     33  C   UNL A   1      36.390  33.348  30.625  1.00  0.00    -0.014 A 
BRANCH  33  34
ATOM     34  C   UNL A   1      37.591  32.762  31.271  1.00  0.00     0.031 A 
ATOM     35  C   UNL A   1      38.315  31.629  30.603  1.00  0.00     0.074 A 
ATOM     36  C   UNL A   1      37.960  33.175  32.499  1.00  0.00     0.049 A 
ATOM     37  N   UNL A   1      39.267  30.861  31.069  1.00  0.00    -0.248 NA
ATOM     38  C   UNL A   1      37.888  31.292  29.235  1.00  0.00     0.031 C 
ATOM     39  C   UNL A   1      37.315  34.247  33.259  1.00  0.00     0.029 A 
ATOM     40  N   UNL A   1      38.950  32.723  33.334  1.00  0.00    -0.354 N 
ATOM     41  C   UNL A   1      39.529  29.936  30.068  1.00  0.00     0.074 A 
ATOM     42  C   UNL A   1      38.613  30.212  28.984  1.00  0.00     0.031 C 
ATOM     43  C   UNL A   1      37.929  34.370  34.448  1.00  0.00     0.029 A 
ATOM     44  C   UNL A   1      38.976  33.359  34.551  1.00  0.00     0.049 A 
ATOM     45  H   UNL A   1      39.581  32.009  33.085  1.00  0.00     0.167 HD
ATOM     46  C   UNL A   1      40.463  28.953  30.051  1.00  0.00     0.037 A 
ATOM     47  C   UNL A   1      39.743  33.135  35.635  1.00  0.00     0.037 A 
ATOM     48  C   UNL A   1      41.391  28.705  31.122  1.00  0.00     0.049 A 
ATOM     49  C   UNL A   1      40.771  32.037  35.591  1.00  0.00     0.074 A 
ATOM     50  C   UNL A   1      42.410  27.771  31.183  1.00  0.00     0.029 A 
ATOM     51  N   UNL A   1      41.415  29.402  32.321  1.00  0.00    -0.354 N 
ATOM     52  N   UNL A   1      41.043  31.197  34.622  1.00  0.00    -0.248 NA
ATOM     53  C   UNL A   1      41.601  31.856  36.791  1.00  0.00     0.031 C 
ATOM     54  C   UNL A   1      43.025  27.875  32.434  1.00  0.00     0.029 A 
ATOM     55  C   UNL A   1      42.423  28.910  33.133  1.00  0.00     0.049 A 
ATOM     56  H   UNL A   1      40.806  30.138  32.560  1.00  0.00     0.167 HD
ATOM     57  C   UNL A   1      42.097  30.417  35.078  1.00  0.00     0.074 A 
ATOM     58  C   UNL A   1      42.418  30.884  36.411  1.00  0.00     0.031 C 
ATOM     59  C   UNL A   1      42.744  29.407  34.447  1.00  0.00     0.037 A 
BRANCH  46  60
ATOM     60  C   UNL A   1      40.524  28.072  28.837  1.00  0.00     0.064 A 
ATOM     61  C   UNL A   1      39.796  26.876  28.759  1.00  0.00     0.173 A 
ATOM     62  C   UNL A   1      41.291  28.447  27.723  1.00  0.00     0.173 A 
ATOM     63  F   UNL A   1      39.055  26.466  29.801  1.00  0.00    -0.203 F 
ATOM     64  C   UNL A   1      39.858  26.071  27.624  1.00  0.00     0.198 A 
ATOM     65  C   UNL A   1      41.326  27.656  26.578  1.00  0.00     0.198 A 
ATOM     66  F   UNL A   1      42.000  29.585  27.742  1.00  0.00    -0.203 F 
ATOM     67  F   UNL A   1      39.194  24.908  27.593  1.00  0.00    -0.200 F 
ATOM     68  C   UNL A   1      40.617  26.465  26.532  1.00  0.00     0.200 A 
ATOM     69  F   UNL A   1      42.048  28.044  25.518  1.00  0.00    -0.200 F 
ATOM     70  F   UNL A   1      40.669  25.693  25.438  1.00  0.00    -0.200 F 
ENDBRANCH  46  60
BRANCH  47  71
ATOM     71  C   UNL A   1      39.582  33.981  36.845  1.00  0.00     0.064 A 
ATOM     72  C   UNL A   1      38.796  33.548  37.922  1.00  0.00     0.173 A 
ATOM     73  C   UNL A   1      40.206  35.232  36.954  1.00  0.00     0.173 A 
ATOM     74  F   UNL A   1      38.163  32.367  37.856  1.00  0.00    -0.203 F 
ATOM     75  C   UNL A   1      38.625  34.342  39.055  1.00  0.00     0.198 A 
ATOM     76  C   UNL A   1      40.057  36.013  38.099  1.00  0.00     0.198 A 
ATOM     77  F   UNL A   1      40.975  35.690  35.955  1.00  0.00    -0.203 F 
ATOM     78  F   UNL A   1      37.834  33.922  40.051  1.00  0.00    -0.200 F 
ATOM     79  C   UNL A   1      39.261  35.570  39.144  1.00  0.00     0.200 A 
ATOM     80  F   UNL A   1      40.685  37.193  38.189  1.00  0.00    -0.200 F 
ATOM     81  F   UNL A   1      39.101  36.331  40.236  1.00  0.00    -0.200 F 
ENDBRANCH  47  71
BRANCH  59  82
ATOM     82  C   UNL A   1      43.906  28.778  35.157  1.00  0.00     0.064 A 
ATOM     83  C   UNL A   1      45.214  29.257  35.002  1.00  0.00     0.173 A 
ATOM     84  C   UNL A   1      43.692  27.723  36.057  1.00  0.00     0.173 A 
ATOM     85  F   UNL A   1      45.471  30.254  34.142  1.00  0.00    -0.203 F 
ATOM     86  C   UNL A   1      46.270  28.690  35.711  1.00  0.00     0.198 A 
ATOM     87  C   UNL A   1      44.746  27.177  36.784  1.00  0.00     0.198 A 
ATOM     88  F   UNL A   1      42.457  27.233  36.244  1.00  0.00    -0.203 F 
ATOM     89  F   UNL A   1      47.519  29.138  35.521  1.00  0.00    -0.200 F 
ATOM     90  C   UNL A   1      46.034  27.658  36.607  1.00  0.00     0.200 A 
ATOM     91  F   UNL A   1      44.513  26.190  37.660  1.00  0.00    -0.200 F 
ATOM     92  F   UNL A   1      47.050  27.124  37.300  1.00  0.00    -0.200 F 
ENDBRANCH  59  82
ENDBRANCH  33  34
ENDBRANCH  25  28
ENDBRANCH  23  24
ENDBRANCH   1  23
TORSDOF 12
ENDMDL
