MODEL 1
REMARK VINA RESULT:     -12.4      0.000      0.000
REMARK SMILES O=C(NCCCNC(=O)[C@@H](NC(=O)c1cscn1)c1ccccc1C(F)(F)F)c1ccc(-c2c3nc(c(-c4c(F)c(F)c(F)c(F)c4F)c4ccc([nH]4)c(-c4c(F)c(F)c(F)c(F)c4F)c4nc(c(-c5c(F)c(F)c(F)c(F)c5F)c5ccc2[nH]5)C=C4)C=C3)cc1
REMARK SMILES IDX 5 1 4 2 3 3 1 4 2 5 29 7 30 8 91 9 31 10 90 11 32 12 33 13
REMARK SMILES IDX 34 14 84 15 35 16 89 17 83 18 85 19 36 20 88 21 82 22 81 23
REMARK SMILES IDX 37 25 69 26 49 27 68 28 50 29 53 30 67 31 86 32 51 33 52 34
REMARK SMILES IDX 66 36 87 37 54 38 38 39 39 40 47 41 40 42 41 43 45 44 48 45
REMARK SMILES IDX 42 46 43 47 46 48 44 49 70 50 71 51 79 52 72 53 73 54 77 55
REMARK SMILES IDX 80 56 74 57 75 58 78 59 76 60 55 61 56 62 64 63 57 64 58 65
REMARK SMILES IDX 62 66 65 67 59 68 60 69 63 70 61 71 6 72 7 73 8 74 9 76
REMARK SMILES IDX 10 77 11 78 12 79 13 81 14 82 15 83 18 84 16 85 17 86 19 87
REMARK SMILES IDX 20 88 24 89 21 90 23 91 22 92 25 93 26 94 27 95 28 96
REMARK H PARENT 3 6 85 24 53 35 7 75 11 80
REMARK Flexibility Score: inf
ROOT
ATOM      1  C   UNL A   1      31.903  28.038  26.538  1.00  0.00     0.042 C 
ENDROOT
BRANCH   1   2
ATOM      2  C   UNL A   1      32.784  29.092  25.876  1.00  0.00     0.118 C 
BRANCH   2   3
ATOM      3  N   UNL A   1      32.442  30.467  26.220  1.00  0.00    -0.352 N 
ATOM      4  O   UNL A   1      32.513  32.494  27.197  1.00  0.00    -0.269 OA
ATOM      5  C   UNL A   1      33.065  31.413  27.001  1.00  0.00     0.251 C 
ATOM      6  H   UNL A   1      31.602  30.781  25.813  1.00  0.00     0.163 HD
BRANCH   5   7
ATOM      7  C   UNL A   1      34.362  31.132  27.659  1.00  0.00     0.039 A 
ATOM      8  C   UNL A   1      34.715  29.843  28.033  1.00  0.00     0.014 A 
ATOM      9  C   UNL A   1      35.262  32.178  27.896  1.00  0.00     0.014 A 
ATOM     10  C   UNL A   1      35.808  29.632  28.857  1.00  0.00     0.010 A 
ATOM     11  C   UNL A   1      36.461  31.935  28.580  1.00  0.00     0.010 A 
ATOM     12  C   UNL A   1      36.722  30.665  29.110  1.00  0.00    -0.014 A 
BRANCH  12  13
ATOM     13  C   UNL A   1      37.959  30.330  29.865  1.00  0.00     0.031 A 
ATOM     14  C   UNL A   1      38.141  30.745  31.299  1.00  0.00     0.074 A 
ATOM     15  C   UNL A   1      38.887  29.559  29.260  1.00  0.00     0.049 A 
ATOM     16  N   UNL A   1      39.137  30.483  32.108  1.00  0.00    -0.248 NA
ATOM     17  C   UNL A   1      37.083  31.569  31.905  1.00  0.00     0.031 C 
ATOM     18  C   UNL A   1      38.823  29.108  27.865  1.00  0.00     0.029 A 
ATOM     19  N   UNL A   1      40.030  28.970  29.739  1.00  0.00    -0.354 N 
ATOM     20  C   UNL A   1      38.847  31.138  33.298  1.00  0.00     0.074 A 
ATOM     21  C   UNL A   1      37.585  31.818  33.108  1.00  0.00     0.031 C 
ATOM     22  C   UNL A   1      39.816  28.240  27.633  1.00  0.00     0.029 A 
ATOM     23  C   UNL A   1      40.649  28.153  28.823  1.00  0.00     0.049 A 
ATOM     24  H   UNL A   1      40.372  29.119  30.649  1.00  0.00     0.167 HD
ATOM     25  C   UNL A   1      39.572  31.164  34.442  1.00  0.00     0.037 A 
ATOM     26  C   UNL A   1      41.779  27.428  28.918  1.00  0.00     0.037 A 
ATOM     27  C   UNL A   1      40.807  30.446  34.635  1.00  0.00     0.049 A 
ATOM     28  C   UNL A   1      42.551  27.472  30.203  1.00  0.00     0.074 A 
ATOM     29  C   UNL A   1      41.597  30.379  35.769  1.00  0.00     0.029 A 
ATOM     30  N   UNL A   1      41.427  29.666  33.669  1.00  0.00    -0.354 N 
ATOM     31  N   UNL A   1      42.258  28.092  31.320  1.00  0.00    -0.248 NA
ATOM     32  C   UNL A   1      43.819  26.733  30.235  1.00  0.00     0.031 C 
ATOM     33  C   UNL A   1      42.717  29.593  35.478  1.00  0.00     0.029 A 
ATOM     34  C   UNL A   1      42.602  29.131  34.176  1.00  0.00     0.049 A 
ATOM     35  H   UNL A   1      41.084  29.514  32.759  1.00  0.00     0.167 HD
ATOM     36  C   UNL A   1      43.304  27.823  32.188  1.00  0.00     0.074 A 
ATOM     37  C   UNL A   1      44.220  26.951  31.480  1.00  0.00     0.031 C 
ATOM     38  C   UNL A   1      43.497  28.269  33.452  1.00  0.00     0.037 A 
BRANCH  25  39
ATOM     39  C   UNL A   1      39.073  32.010  35.577  1.00  0.00     0.064 A 
ATOM     40  C   UNL A   1      38.294  31.477  36.613  1.00  0.00     0.173 A 
ATOM     41  C   UNL A   1      39.450  33.360  35.667  1.00  0.00     0.173 A 
ATOM     42  F   UNL A   1      37.898  30.196  36.569  1.00  0.00    -0.203 F 
ATOM     43  C   UNL A   1      37.904  32.265  37.694  1.00  0.00     0.198 A 
ATOM     44  C   UNL A   1      39.079  34.138  36.760  1.00  0.00     0.198 A 
ATOM     45  F   UNL A   1      40.200  33.917  34.705  1.00  0.00    -0.203 F 
ATOM     46  F   UNL A   1      37.138  31.742  38.661  1.00  0.00    -0.200 F 
ATOM     47  C   UNL A   1      38.304  33.591  37.771  1.00  0.00     0.200 A 
ATOM     48  F   UNL A   1      39.478  35.415  36.840  1.00  0.00    -0.200 F 
ATOM     49  F   UNL A   1      37.942  34.342  38.821  1.00  0.00    -0.200 F 
ENDBRANCH  25  39
BRANCH  26  50
ATOM     50  C   UNL A   1      42.259  26.643  27.750  1.00  0.00     0.064 A 
ATOM     51  C   UNL A   1      43.195  27.172  26.853  1.00  0.00     0.173 A 
ATOM     52  C   UNL A   1      41.794  25.339  27.515  1.00  0.00     0.173 A 
ATOM     53  F   UNL A   1      43.655  28.421  27.022  1.00  0.00    -0.203 F 
ATOM     54  C   UNL A   1      43.637  26.433  25.756  1.00  0.00     0.198 A 
ATOM     55  C   UNL A   1      42.265  24.588  26.441  1.00  0.00     0.198 A 
ATOM     56  F   UNL A   1      40.901  24.783  28.345  1.00  0.00    -0.203 F 
ATOM     57  F   UNL A   1      44.499  26.979  24.887  1.00  0.00    -0.200 F 
ATOM     58  C   UNL A   1      43.179  25.139  25.557  1.00  0.00     0.200 A 
ATOM     59  F   UNL A   1      41.835  23.331  26.266  1.00  0.00    -0.200 F 
ATOM     60  F   UNL A   1      43.614  24.425  24.510  1.00  0.00    -0.200 F 
ENDBRANCH  26  50
BRANCH  38  61
ATOM     61  C   UNL A   1      44.743  27.806  34.146  1.00  0.00     0.064 A 
ATOM     62  C   UNL A   1      44.771  26.608  34.874  1.00  0.00     0.173 A 
ATOM     63  C   UNL A   1      45.921  28.562  34.071  1.00  0.00     0.173 A 
ATOM     64  F   UNL A   1      43.661  25.862  34.989  1.00  0.00    -0.203 F 
ATOM     65  C   UNL A   1      45.929  26.197  35.526  1.00  0.00     0.198 A 
ATOM     66  C   UNL A   1      47.085  28.134  34.701  1.00  0.00     0.198 A 
ATOM     67  F   UNL A   1      45.943  29.714  33.383  1.00  0.00    -0.203 F 
ATOM     68  F   UNL A   1      45.920  25.076  36.260  1.00  0.00    -0.200 F 
ATOM     69  C   UNL A   1      47.086  26.957  35.435  1.00  0.00     0.200 A 
ATOM     70  F   UNL A   1      48.205  28.863  34.604  1.00  0.00    -0.200 F 
ATOM     71  F   UNL A   1      48.200  26.559  36.064  1.00  0.00    -0.200 F 
ENDBRANCH  38  61
ENDBRANCH  12  13
ENDBRANCH   5   7
ENDBRANCH   2   3
ENDBRANCH   1   2
BRANCH   1  72
ATOM     72  C   UNL A   1      32.555  26.666  26.616  1.00  0.00     0.117 C 
BRANCH  72  73
ATOM     73  N   UNL A   1      31.597  25.580  26.756  1.00  0.00    -0.354 N 
ATOM     74  C   UNL A   1      31.281  24.567  25.901  1.00  0.00     0.247 C 
ATOM     75  H   UNL A   1      31.097  25.576  27.604  1.00  0.00     0.163 HD
ATOM     76  O   UNL A   1      30.829  23.540  26.420  1.00  0.00    -0.272 OA
BRANCH  74  77
ATOM     77  C   UNL A   1      31.473  24.665  24.366  1.00  0.00     0.203 C 
BRANCH  77  78
ATOM     78  N   UNL A   1      31.391  23.385  23.664  1.00  0.00    -0.335 N 
ATOM     79  C   UNL A   1      32.262  22.424  23.247  1.00  0.00     0.271 C 
ATOM     80  H   UNL A   1      30.463  23.158  23.431  1.00  0.00     0.165 HD
ATOM     81  O   UNL A   1      31.891  21.694  22.324  1.00  0.00    -0.267 OA
BRANCH  79  82
ATOM     82  C   UNL A   1      33.567  22.259  23.862  1.00  0.00     0.139 A 
ATOM     83  C   UNL A   1      34.681  22.975  23.458  1.00  0.00     0.100 A 
ATOM     84  N   UNL A   1      33.826  21.291  24.824  1.00  0.00    -0.240 NA
ATOM     85  S   UNL A   1      36.048  22.517  24.379  1.00  0.00    -0.130 S 
ATOM     86  C   UNL A   1      35.089  21.346  25.179  1.00  0.00     0.176 A 
ENDBRANCH  79  82
ENDBRANCH  77  78
BRANCH  77  87
ATOM     87  C   UNL A   1      30.969  25.958  23.727  1.00  0.00    -0.004 A 
ATOM     88  C   UNL A   1      29.611  26.283  23.979  1.00  0.00     0.007 A 
ATOM     89  C   UNL A   1      31.711  26.838  22.897  1.00  0.00     0.061 A 
ATOM     90  C   UNL A   1      29.006  27.420  23.443  1.00  0.00     0.000 A 
ATOM     91  C   UNL A   1      31.072  27.984  22.364  1.00  0.00     0.013 A 
ATOM     92  C   UNL A   1      29.738  28.272  22.634  1.00  0.00     0.001 A 
BRANCH  89  93
ATOM     93  C   UNL A   1      33.170  26.666  22.552  1.00  0.00     0.416 C 
ATOM     94  F   UNL A   1      33.425  25.549  21.816  1.00  0.00    -0.166 F 
ATOM     95  F   UNL A   1      33.692  27.696  21.826  1.00  0.00    -0.166 F 
ATOM     96  F   UNL A   1      33.958  26.584  23.657  1.00  0.00    -0.166 F 
ENDBRANCH  89  93
ENDBRANCH  77  87
ENDBRANCH  74  77
ENDBRANCH  72  73
ENDBRANCH   1  72
TORSDOF 14
ENDMDL
MODEL 2
REMARK VINA RESULT:     -12.3      0.643      1.343
REMARK SMILES O=C(NCCCNC(=O)[C@@H](NC(=O)c1cscn1)c1ccccc1C(F)(F)F)c1ccc(-c2c3nc(c(-c4c(F)c(F)c(F)c(F)c4F)c4ccc([nH]4)c(-c4c(F)c(F)c(F)c(F)c4F)c4nc(c(-c5c(F)c(F)c(F)c(F)c5F)c5ccc2[nH]5)C=C4)C=C3)cc1
REMARK SMILES IDX 5 1 4 2 3 3 1 4 2 5 29 7 30 8 91 9 31 10 90 11 32 12 33 13
REMARK SMILES IDX 34 14 84 15 35 16 89 17 83 18 85 19 36 20 88 21 82 22 81 23
REMARK SMILES IDX 37 25 69 26 49 27 68 28 50 29 53 30 67 31 86 32 51 33 52 34
REMARK SMILES IDX 66 36 87 37 54 38 38 39 39 40 47 41 40 42 41 43 45 44 48 45
REMARK SMILES IDX 42 46 43 47 46 48 44 49 70 50 71 51 79 52 72 53 73 54 77 55
REMARK SMILES IDX 80 56 74 57 75 58 78 59 76 60 55 61 56 62 64 63 57 64 58 65
REMARK SMILES IDX 62 66 65 67 59 68 60 69 63 70 61 71 6 72 7 73 8 74 9 76
REMARK SMILES IDX 10 77 11 78 12 79 13 81 14 82 15 83 18 84 16 85 17 86 19 87
REMARK SMILES IDX 20 88 24 89 21 90 23 91 22 92 25 93 26 94 27 95 28 96
REMARK H PARENT 3 6 85 24 53 35 7 75 11 80
REMARK Flexibility Score: inf
ROOT
ATOM      1  C   UNL A   1      31.740  28.782  26.874  1.00  0.00     0.042 C 
ENDROOT
BRANCH   1   2
ATOM      2  C   UNL A   1      32.703  29.735  26.175  1.00  0.00     0.118 C 
BRANCH   2   3
ATOM      3  N   UNL A   1      32.492  31.144  26.487  1.00  0.00    -0.352 N 
ATOM      4  O   UNL A   1      32.763  33.180  27.408  1.00  0.00    -0.269 OA
ATOM      5  C   UNL A   1      33.213  32.049  27.231  1.00  0.00     0.251 C 
ATOM      6  H   UNL A   1      31.675  31.521  26.088  1.00  0.00     0.163 HD
BRANCH   5   7
ATOM      7  C   UNL A   1      34.492  31.671  27.873  1.00  0.00     0.039 A 
ATOM      8  C   UNL A   1      34.707  30.385  28.348  1.00  0.00     0.014 A 
ATOM      9  C   UNL A   1      35.518  32.617  27.990  1.00  0.00     0.014 A 
ATOM     10  C   UNL A   1      35.799  30.114  29.154  1.00  0.00     0.010 A 
ATOM     11  C   UNL A   1      36.707  32.289  28.656  1.00  0.00     0.010 A 
ATOM     12  C   UNL A   1      36.838  31.046  29.287  1.00  0.00    -0.014 A 
BRANCH  12  13
ATOM     13  C   UNL A   1      38.057  30.629  30.033  1.00  0.00     0.031 A 
ATOM     14  C   UNL A   1      38.259  30.995  31.477  1.00  0.00     0.074 A 
ATOM     15  C   UNL A   1      38.946  29.830  29.405  1.00  0.00     0.049 A 
ATOM     16  N   UNL A   1      39.239  30.661  32.278  1.00  0.00    -0.248 NA
ATOM     17  C   UNL A   1      37.243  31.853  32.106  1.00  0.00     0.031 C 
ATOM     18  C   UNL A   1      38.860  29.422  27.998  1.00  0.00     0.029 A 
ATOM     19  N   UNL A   1      40.057  29.172  29.867  1.00  0.00    -0.354 N 
ATOM     20  C   UNL A   1      38.982  31.297  33.486  1.00  0.00     0.074 A 
ATOM     21  C   UNL A   1      37.755  32.043  33.315  1.00  0.00     0.031 C 
ATOM     22  C   UNL A   1      39.808  28.512  27.741  1.00  0.00     0.029 A 
ATOM     23  C   UNL A   1      40.635  28.350  28.928  1.00  0.00     0.049 A 
ATOM     24  H   UNL A   1      40.406  29.278  30.780  1.00  0.00     0.167 HD
ATOM     25  C   UNL A   1      39.707  31.254  34.629  1.00  0.00     0.037 A 
ATOM     26  C   UNL A   1      41.728  27.568  29.002  1.00  0.00     0.037 A 
ATOM     27  C   UNL A   1      40.904  30.471  34.801  1.00  0.00     0.049 A 
ATOM     28  C   UNL A   1      42.500  27.538  30.286  1.00  0.00     0.074 A 
ATOM     29  C   UNL A   1      41.690  30.333  35.932  1.00  0.00     0.029 A 
ATOM     30  N   UNL A   1      41.485  29.688  33.813  1.00  0.00    -0.354 N 
ATOM     31  N   UNL A   1      42.238  28.140  31.420  1.00  0.00    -0.248 NA
ATOM     32  C   UNL A   1      43.730  26.736  30.298  1.00  0.00     0.031 C 
ATOM     33  C   UNL A   1      42.769  29.501  35.618  1.00  0.00     0.029 A 
ATOM     34  C   UNL A   1      42.632  29.081  34.304  1.00  0.00     0.049 A 
ATOM     35  H   UNL A   1      41.136  29.579  32.900  1.00  0.00     0.167 HD
ATOM     36  C   UNL A   1      43.269  27.795  32.280  1.00  0.00     0.074 A 
ATOM     37  C   UNL A   1      44.141  26.899  31.547  1.00  0.00     0.031 C 
ATOM     38  C   UNL A   1      43.484  28.196  33.556  1.00  0.00     0.037 A 
BRANCH  25  39
ATOM     39  C   UNL A   1      39.250  32.092  35.787  1.00  0.00     0.064 A 
ATOM     40  C   UNL A   1      38.369  31.598  36.759  1.00  0.00     0.173 A 
ATOM     41  C   UNL A   1      39.767  33.386  35.968  1.00  0.00     0.173 A 
ATOM     42  F   UNL A   1      37.839  30.373  36.629  1.00  0.00    -0.203 F 
ATOM     43  C   UNL A   1      38.017  32.369  37.866  1.00  0.00     0.198 A 
ATOM     44  C   UNL A   1      39.432  34.144  37.086  1.00  0.00     0.198 A 
ATOM     45  F   UNL A   1      40.618  33.904  35.070  1.00  0.00    -0.203 F 
ATOM     46  F   UNL A   1      37.154  31.886  38.770  1.00  0.00    -0.200 F 
ATOM     47  C   UNL A   1      38.555  33.637  38.032  1.00  0.00     0.200 A 
ATOM     48  F   UNL A   1      39.964  35.364  37.252  1.00  0.00    -0.200 F 
ATOM     49  F   UNL A   1      38.228  34.369  39.106  1.00  0.00    -0.200 F 
ENDBRANCH  25  39
BRANCH  26  50
ATOM     50  C   UNL A   1      42.168  26.792  27.812  1.00  0.00     0.064 A 
ATOM     51  C   UNL A   1      43.099  27.317  26.907  1.00  0.00     0.173 A 
ATOM     52  C   UNL A   1      41.671  25.503  27.563  1.00  0.00     0.173 A 
ATOM     53  F   UNL A   1      43.590  28.552  27.088  1.00  0.00    -0.203 F 
ATOM     54  C   UNL A   1      43.505  26.587  25.790  1.00  0.00     0.198 A 
ATOM     55  C   UNL A   1      42.105  24.761  26.469  1.00  0.00     0.198 A 
ATOM     56  F   UNL A   1      40.780  24.954  28.401  1.00  0.00    -0.203 F 
ATOM     57  F   UNL A   1      44.363  27.128  24.914  1.00  0.00    -0.200 F 
ATOM     58  C   UNL A   1      43.015  25.307  25.577  1.00  0.00     0.200 A 
ATOM     59  F   UNL A   1      41.644  23.517  26.281  1.00  0.00    -0.200 F 
ATOM     60  F   UNL A   1      43.415  24.601  24.510  1.00  0.00    -0.200 F 
ENDBRANCH  26  50
BRANCH  38  61
ATOM     61  C   UNL A   1      44.704  27.653  34.235  1.00  0.00     0.064 A 
ATOM     62  C   UNL A   1      45.925  28.342  34.204  1.00  0.00     0.173 A 
ATOM     63  C   UNL A   1      44.648  26.439  34.934  1.00  0.00     0.173 A 
ATOM     64  F   UNL A   1      46.031  29.498  33.530  1.00  0.00    -0.203 F 
ATOM     65  C   UNL A   1      47.056  27.820  34.826  1.00  0.00     0.198 A 
ATOM     66  C   UNL A   1      45.773  25.934  35.578  1.00  0.00     0.198 A 
ATOM     67  F   UNL A   1      43.501  25.746  34.994  1.00  0.00    -0.203 F 
ATOM     68  F   UNL A   1      48.225  28.468  34.739  1.00  0.00    -0.200 F 
ATOM     69  C   UNL A   1      46.976  26.620  35.516  1.00  0.00     0.200 A 
ATOM     70  F   UNL A   1      45.694  24.780  36.254  1.00  0.00    -0.200 F 
ATOM     71  F   UNL A   1      48.066  26.119  36.114  1.00  0.00    -0.200 F 
ENDBRANCH  38  61
ENDBRANCH  12  13
ENDBRANCH   5   7
ENDBRANCH   2   3
ENDBRANCH   1   2
BRANCH   1  72
ATOM     72  C   UNL A   1      32.276  27.364  27.001  1.00  0.00     0.117 C 
BRANCH  72  73
ATOM     73  N   UNL A   1      31.251  26.344  26.849  1.00  0.00    -0.354 N 
ATOM     74  C   UNL A   1      31.074  25.410  25.872  1.00  0.00     0.247 C 
ATOM     75  H   UNL A   1      30.576  26.325  27.565  1.00  0.00     0.163 HD
ATOM     76  O   UNL A   1      30.461  24.389  26.202  1.00  0.00    -0.272 OA
BRANCH  74  77
ATOM     77  C   UNL A   1      31.607  25.587  24.427  1.00  0.00     0.203 C 
BRANCH  77  78
ATOM     78  N   UNL A   1      31.792  24.335  23.694  1.00  0.00    -0.335 N 
ATOM     79  C   UNL A   1      32.805  23.447  23.485  1.00  0.00     0.271 C 
ATOM     80  H   UNL A   1      30.969  24.061  23.229  1.00  0.00     0.165 HD
ATOM     81  O   UNL A   1      32.727  22.736  22.480  1.00  0.00    -0.267 OA
BRANCH  79  82
ATOM     82  C   UNL A   1      33.923  23.337  24.404  1.00  0.00     0.139 A 
ATOM     83  C   UNL A   1      35.113  24.021  24.220  1.00  0.00     0.100 A 
ATOM     84  N   UNL A   1      33.930  22.451  25.473  1.00  0.00    -0.240 NA
ATOM     85  S   UNL A   1      36.215  23.642  25.473  1.00  0.00    -0.130 S 
ATOM     86  C   UNL A   1      35.073  22.538  26.114  1.00  0.00     0.176 A 
ENDBRANCH  79  82
ENDBRANCH  77  78
BRANCH  77  87
ATOM     87  C   UNL A   1      31.162  26.866  23.720  1.00  0.00    -0.004 A 
ATOM     88  C   UNL A   1      29.769  27.132  23.743  1.00  0.00     0.007 A 
ATOM     89  C   UNL A   1      31.994  27.786  23.030  1.00  0.00     0.061 A 
ATOM     90  C   UNL A   1      29.214  28.250  23.120  1.00  0.00     0.000 A 
ATOM     91  C   UNL A   1      31.404  28.911  22.404  1.00  0.00     0.013 A 
ATOM     92  C   UNL A   1      30.034  29.141  22.449  1.00  0.00     0.001 A 
BRANCH  89  93
ATOM     93  C   UNL A   1      33.496  27.677  22.932  1.00  0.00     0.416 C 
ATOM     94  F   UNL A   1      34.105  27.476  24.132  1.00  0.00    -0.166 F 
ATOM     95  F   UNL A   1      33.925  26.653  22.139  1.00  0.00    -0.166 F 
ATOM     96  F   UNL A   1      34.062  28.792  22.397  1.00  0.00    -0.166 F 
ENDBRANCH  89  93
ENDBRANCH  77  87
ENDBRANCH  74  77
ENDBRANCH  72  73
ENDBRANCH   1  72
TORSDOF 14
ENDMDL
MODEL 3
REMARK VINA RESULT:     -12.3      1.455      2.400
REMARK SMILES O=C(NCCCNC(=O)[C@@H](NC(=O)c1cscn1)c1ccccc1C(F)(F)F)c1ccc(-c2c3nc(c(-c4c(F)c(F)c(F)c(F)c4F)c4ccc([nH]4)c(-c4c(F)c(F)c(F)c(F)c4F)c4nc(c(-c5c(F)c(F)c(F)c(F)c5F)c5ccc2[nH]5)C=C4)C=C3)cc1
REMARK SMILES IDX 5 1 4 2 3 3 1 4 2 5 29 7 30 8 91 9 31 10 90 11 32 12 33 13
REMARK SMILES IDX 34 14 84 15 35 16 89 17 83 18 85 19 36 20 88 21 82 22 81 23
REMARK SMILES IDX 37 25 69 26 49 27 68 28 50 29 53 30 67 31 86 32 51 33 52 34
REMARK SMILES IDX 66 36 87 37 54 38 38 39 39 40 47 41 40 42 41 43 45 44 48 45
REMARK SMILES IDX 42 46 43 47 46 48 44 49 70 50 71 51 79 52 72 53 73 54 77 55
REMARK SMILES IDX 80 56 74 57 75 58 78 59 76 60 55 61 56 62 64 63 57 64 58 65
REMARK SMILES IDX 62 66 65 67 59 68 60 69 63 70 61 71 6 72 7 73 8 74 9 76
REMARK SMILES IDX 10 77 11 78 12 79 13 81 14 82 15 83 18 84 16 85 17 86 19 87
REMARK SMILES IDX 20 88 24 89 21 90 23 91 22 92 25 93 26 94 27 95 28 96
REMARK H PARENT 3 6 85 24 53 35 7 75 11 80
REMARK Flexibility Score: inf
ROOT
ATOM      1  C   UNL A   1      32.725  28.714  23.819  1.00  0.00     0.042 C 
ENDROOT
BRANCH   1   2
ATOM      2  C   UNL A   1      33.273  29.022  25.208  1.00  0.00     0.118 C 
BRANCH   2   3
ATOM      3  N   UNL A   1      32.690  30.200  25.840  1.00  0.00    -0.352 N 
ATOM      4  O   UNL A   1      32.383  31.912  27.268  1.00  0.00    -0.269 OA
ATOM      5  C   UNL A   1      33.119  31.014  26.863  1.00  0.00     0.251 C 
ATOM      6  H   UNL A   1      31.821  30.464  25.461  1.00  0.00     0.163 HD
BRANCH   5   7
ATOM      7  C   UNL A   1      34.424  30.792  27.525  1.00  0.00     0.039 A 
ATOM      8  C   UNL A   1      34.815  29.528  27.942  1.00  0.00     0.014 A 
ATOM      9  C   UNL A   1      35.296  31.871  27.722  1.00  0.00     0.014 A 
ATOM     10  C   UNL A   1      35.915  29.377  28.769  1.00  0.00     0.010 A 
ATOM     11  C   UNL A   1      36.504  31.685  28.408  1.00  0.00     0.010 A 
ATOM     12  C   UNL A   1      36.802  30.442  28.981  1.00  0.00    -0.014 A 
BRANCH  12  13
ATOM     13  C   UNL A   1      38.050  30.168  29.744  1.00  0.00     0.031 A 
ATOM     14  C   UNL A   1      38.216  30.620  31.168  1.00  0.00     0.074 A 
ATOM     15  C   UNL A   1      39.005  29.419  29.154  1.00  0.00     0.049 A 
ATOM     16  N   UNL A   1      39.220  30.411  31.982  1.00  0.00    -0.248 NA
ATOM     17  C   UNL A   1      37.128  31.417  31.757  1.00  0.00     0.031 C 
ATOM     18  C   UNL A   1      38.958  28.937  27.769  1.00  0.00     0.029 A 
ATOM     19  N   UNL A   1      40.168  28.882  29.645  1.00  0.00    -0.354 N 
ATOM     20  C   UNL A   1      38.906  31.080  33.159  1.00  0.00     0.074 A 
ATOM     21  C   UNL A   1      37.620  31.709  32.954  1.00  0.00     0.031 C 
ATOM     22  C   UNL A   1      39.982  28.101  27.554  1.00  0.00     0.029 A 
ATOM     23  C   UNL A   1      40.817  28.069  28.746  1.00  0.00     0.049 A 
ATOM     24  H   UNL A   1      40.505  29.063  30.551  1.00  0.00     0.167 HD
ATOM     25  C   UNL A   1      39.629  31.156  34.301  1.00  0.00     0.037 A 
ATOM     26  C   UNL A   1      41.973  27.389  28.856  1.00  0.00     0.037 A 
ATOM     27  C   UNL A   1      40.889  30.487  34.508  1.00  0.00     0.049 A 
ATOM     28  C   UNL A   1      42.742  27.487  30.138  1.00  0.00     0.074 A 
ATOM     29  C   UNL A   1      41.681  30.473  35.644  1.00  0.00     0.029 A 
ATOM     30  N   UNL A   1      41.538  29.710  33.559  1.00  0.00    -0.354 N 
ATOM     31  N   UNL A   1      42.427  28.119  31.242  1.00  0.00    -0.248 NA
ATOM     32  C   UNL A   1      44.036  26.796  30.186  1.00  0.00     0.031 C 
ATOM     33  C   UNL A   1      42.829  29.722  35.368  1.00  0.00     0.029 A 
ATOM     34  C   UNL A   1      42.731  29.229  34.076  1.00  0.00     0.049 A 
ATOM     35  H   UNL A   1      41.201  29.527  32.653  1.00  0.00     0.167 HD
ATOM     36  C   UNL A   1      43.482  27.906  32.115  1.00  0.00     0.074 A 
ATOM     37  C   UNL A   1      44.429  27.054  31.425  1.00  0.00     0.031 C 
ATOM     38  C   UNL A   1      43.658  28.386  33.370  1.00  0.00     0.037 A 
BRANCH  25  39
ATOM     39  C   UNL A   1      39.100  32.006  35.418  1.00  0.00     0.064 A 
ATOM     40  C   UNL A   1      38.340  31.466  36.466  1.00  0.00     0.173 A 
ATOM     41  C   UNL A   1      39.426  33.371  35.480  1.00  0.00     0.173 A 
ATOM     42  F   UNL A   1      37.992  30.171  36.450  1.00  0.00    -0.203 F 
ATOM     43  C   UNL A   1      37.921  32.263  37.531  1.00  0.00     0.198 A 
ATOM     44  C   UNL A   1      39.026  34.157  36.557  1.00  0.00     0.198 A 
ATOM     45  F   UNL A   1      40.155  33.935  34.506  1.00  0.00    -0.203 F 
ATOM     46  F   UNL A   1      37.176  31.732  38.510  1.00  0.00    -0.200 F 
ATOM     47  C   UNL A   1      38.272  33.604  37.580  1.00  0.00     0.200 A 
ATOM     48  F   UNL A   1      39.378  35.450  36.609  1.00  0.00    -0.200 F 
ATOM     49  F   UNL A   1      37.883  34.362  38.614  1.00  0.00    -0.200 F 
ENDBRANCH  25  39
BRANCH  26  50
ATOM     50  C   UNL A   1      42.481  26.597  27.704  1.00  0.00     0.064 A 
ATOM     51  C   UNL A   1      43.408  27.137  26.803  1.00  0.00     0.173 A 
ATOM     52  C   UNL A   1      42.055  25.277  27.488  1.00  0.00     0.173 A 
ATOM     53  F   UNL A   1      43.832  28.401  26.953  1.00  0.00    -0.203 F 
ATOM     54  C   UNL A   1      43.877  26.392  25.722  1.00  0.00     0.198 A 
ATOM     55  C   UNL A   1      42.552  24.522  26.430  1.00  0.00     0.198 A 
ATOM     56  F   UNL A   1      41.172  24.711  28.323  1.00  0.00    -0.203 F 
ATOM     57  F   UNL A   1      44.728  26.947  24.848  1.00  0.00    -0.200 F 
ATOM     58  C   UNL A   1      43.457  25.082  25.542  1.00  0.00     0.200 A 
ATOM     59  F   UNL A   1      42.159  23.250  26.274  1.00  0.00    -0.200 F 
ATOM     60  F   UNL A   1      43.918  24.363  24.510  1.00  0.00    -0.200 F 
ENDBRANCH  26  50
BRANCH  38  61
ATOM     61  C   UNL A   1      44.919  27.983  34.072  1.00  0.00     0.064 A 
ATOM     62  C   UNL A   1      44.989  26.805  34.830  1.00  0.00     0.173 A 
ATOM     63  C   UNL A   1      46.071  28.777  33.977  1.00  0.00     0.173 A 
ATOM     64  F   UNL A   1      43.906  26.025  34.966  1.00  0.00    -0.203 F 
ATOM     65  C   UNL A   1      46.162  26.450  35.490  1.00  0.00     0.198 A 
ATOM     66  C   UNL A   1      47.249  28.404  34.615  1.00  0.00     0.198 A 
ATOM     67  F   UNL A   1      46.052  29.911  33.261  1.00  0.00    -0.203 F 
ATOM     68  F   UNL A   1      46.192  25.348  36.251  1.00  0.00    -0.200 F 
ATOM     69  C   UNL A   1      47.291  27.247  35.378  1.00  0.00     0.200 A 
ATOM     70  F   UNL A   1      48.343  29.169  34.499  1.00  0.00    -0.200 F 
ATOM     71  F   UNL A   1      48.419  26.903  36.015  1.00  0.00    -0.200 F 
ENDBRANCH  38  61
ENDBRANCH  12  13
ENDBRANCH   5   7
ENDBRANCH   2   3
ENDBRANCH   1   2
BRANCH   1  72
ATOM     72  C   UNL A   1      32.432  27.237  23.597  1.00  0.00     0.117 C 
BRANCH  72  73
ATOM     73  N   UNL A   1      33.037  26.705  22.387  1.00  0.00    -0.354 N 
ATOM     74  C   UNL A   1      33.142  25.420  21.945  1.00  0.00     0.247 C 
ATOM     75  H   UNL A   1      33.436  27.380  21.792  1.00  0.00     0.163 HD
ATOM     76  O   UNL A   1      33.244  25.274  20.722  1.00  0.00    -0.272 OA
BRANCH  74  77
ATOM     77  C   UNL A   1      33.128  24.195  22.895  1.00  0.00     0.203 C 
BRANCH  77  78
ATOM     78  N   UNL A   1      32.285  23.089  22.441  1.00  0.00    -0.335 N 
ATOM     79  C   UNL A   1      32.192  21.750  22.678  1.00  0.00     0.271 C 
ATOM     80  H   UNL A   1      31.608  23.390  21.795  1.00  0.00     0.165 HD
ATOM     81  O   UNL A   1      31.645  21.066  21.810  1.00  0.00    -0.267 OA
BRANCH  79  82
ATOM     82  C   UNL A   1      32.707  21.154  23.897  1.00  0.00     0.139 A 
ATOM     83  C   UNL A   1      32.099  21.323  25.129  1.00  0.00     0.100 A 
ATOM     84  N   UNL A   1      33.912  20.464  23.943  1.00  0.00    -0.240 NA
ATOM     85  S   UNL A   1      32.981  20.504  26.345  1.00  0.00    -0.130 S 
ATOM     86  C   UNL A   1      34.147  20.063  25.172  1.00  0.00     0.176 A 
ENDBRANCH  79  82
ENDBRANCH  77  78
BRANCH  77  87
ATOM     87  C   UNL A   1      34.428  23.946  23.657  1.00  0.00    -0.004 A 
ATOM     88  C   UNL A   1      35.514  23.461  22.885  1.00  0.00     0.007 A 
ATOM     89  C   UNL A   1      34.642  24.128  25.048  1.00  0.00     0.061 A 
ATOM     90  C   UNL A   1      36.756  23.166  23.448  1.00  0.00     0.000 A 
ATOM     91  C   UNL A   1      35.912  23.819  25.595  1.00  0.00     0.013 A 
ATOM     92  C   UNL A   1      36.955  23.346  24.806  1.00  0.00     0.001 A 
BRANCH  89  93
ATOM     93  C   UNL A   1      33.612  24.665  26.012  1.00  0.00     0.416 C 
ATOM     94  F   UNL A   1      33.815  25.967  26.352  1.00  0.00    -0.166 F 
ATOM     95  F   UNL A   1      32.334  24.616  25.539  1.00  0.00    -0.166 F 
ATOM     96  F   UNL A   1      33.579  23.965  27.177  1.00  0.00    -0.166 F 
ENDBRANCH  89  93
ENDBRANCH  77  87
ENDBRANCH  74  77
ENDBRANCH  72  73
ENDBRANCH   1  72
TORSDOF 14
ENDMDL
