MODEL 1
REMARK VINA RESULT:     -14.3      0.000      0.000
REMARK SMILES C[C@H]1[C@H](C)CC[C@@]2(C(=O)NCCCNC(=O)c3ccc(-c4c5nc(c(-c6c(F)c(F)c(F)c(F)c6F)c6ccc([nH]6)c(-c6c(F)c(F)c(F)c(F)c6F)c6nc(c(-c7c(F)c(F)c(F)c(F)c7F)c7ccc4[nH]7)C=C6)C=C5)cc3)CC[C@@]3(C)C(=CC[C@@H]4[C@@]5(C)CC[C@H](O)C(C)(C)[C@@H]5CC[C@]43C)[C@H]12
REMARK SMILES IDX 12 1 11 2 10 3 8 4 9 5 7 7 1 8 2 9 3 10 102 11 4 12 5 13
REMARK SMILES IDX 84 14 6 15 80 16 82 17 85 18 81 19 83 20 100 21 86 22 87 23
REMARK SMILES IDX 99 24 101 25 88 26 98 27 89 28 90 29 97 30 91 31 94 32 92 33
REMARK SMILES IDX 95 34 96 35 93 36 13 38 14 39 15 40 16 42 17 43 18 44 79 45
REMARK SMILES IDX 19 46 78 47 20 48 21 49 22 50 72 51 23 52 77 53 71 54 73 55
REMARK SMILES IDX 24 56 76 57 70 58 69 59 25 61 57 62 37 63 56 64 38 65 41 66
REMARK SMILES IDX 55 67 74 68 39 69 40 70 54 72 75 73 42 74 26 75 27 76 35 77
REMARK SMILES IDX 28 78 29 79 33 80 36 81 30 82 31 83 34 84 32 85 58 86 59 87
REMARK SMILES IDX 67 88 60 89 61 90 65 91 68 92 62 93 63 94 66 95 64 96 43 97
REMARK SMILES IDX 44 98 52 99 45 100 46 101 50 102 53 103 47 104 48 105 51 106
REMARK SMILES IDX 49 107
REMARK H PARENT 10 6 93 37 14 41 73 60 41 71
REMARK Flexibility Score: inf
ROOT
ATOM      1  C   UNL A   1      34.888  29.302  27.516  1.00  0.00     0.042 C 
ENDROOT
BRANCH   1   2
ATOM      2  C   UNL A   1      34.320  28.334  26.480  1.00  0.00     0.117 C 
BRANCH   2   3
ATOM      3  N   UNL A   1      34.005  28.958  25.211  1.00  0.00    -0.356 N 
ATOM      4  C   UNL A   1      32.844  29.154  24.530  1.00  0.00     0.226 C 
ATOM      5  O   UNL A   1      33.026  29.313  23.315  1.00  0.00    -0.274 OA
ATOM      6  H   UNL A   1      34.796  29.314  24.745  1.00  0.00     0.163 HD
BRANCH   4   7
ATOM      7  C   UNL A   1      31.400  29.233  25.152  1.00  0.00     0.056 C 
ATOM      8  C   UNL A   1      28.659  28.909  22.316  1.00  0.00     0.008 C 
ATOM      9  C   UNL A   1      29.815  29.554  23.107  1.00  0.00    -0.003 C 
ATOM     10  C   UNL A   1      29.353  30.933  23.679  1.00  0.00    -0.011 C 
ATOM     11  C   UNL A   1      30.291  28.621  24.251  1.00  0.00     0.034 C 
ATOM     12  C   UNL A   1      29.097  31.983  22.581  1.00  0.00     0.008 C 
ATOM     13  C   UNL A   1      30.285  31.577  24.720  1.00  0.00     0.005 C 
ATOM     14  C   UNL A   1      30.766  27.190  23.929  1.00  0.00    -0.063 C 
ATOM     15  C   UNL A   1      31.072  30.658  25.639  1.00  0.00     0.018 C 
ATOM     16  C   UNL A   1      31.403  28.346  26.465  1.00  0.00     0.018 C 
ATOM     17  C   UNL A   1      30.712  26.185  25.113  1.00  0.00    -0.006 C 
ATOM     18  C   UNL A   1      31.426  26.914  22.787  1.00  0.00    -0.027 C 
ATOM     19  C   UNL A   1      31.530  26.820  26.284  1.00  0.00     0.013 C 
ATOM     20  C   UNL A   1      29.245  26.019  25.600  1.00  0.00     0.017 C 
ATOM     21  C   UNL A   1      31.310  24.724  24.690  1.00  0.00    -0.020 C 
ATOM     22  C   UNL A   1      32.305  25.712  22.583  1.00  0.00     0.032 C 
ATOM     23  C   UNL A   1      32.651  24.991  23.910  1.00  0.00     0.006 C 
ATOM     24  C   UNL A   1      31.568  23.818  25.922  1.00  0.00     0.008 C 
ATOM     25  C   UNL A   1      30.278  23.961  23.803  1.00  0.00     0.012 C 
ATOM     26  C   UNL A   1      33.716  23.813  23.784  1.00  0.00    -0.025 C 
ATOM     27  C   UNL A   1      32.387  22.566  25.599  1.00  0.00     0.005 C 
ATOM     28  C   UNL A   1      33.435  22.971  22.522  1.00  0.00     0.012 C 
ATOM     29  C   UNL A   1      35.136  24.453  23.633  1.00  0.00     0.010 C 
ATOM     30  C   UNL A   1      33.783  22.979  25.118  1.00  0.00     0.003 C 
ATOM     31  C   UNL A   1      36.281  23.440  23.645  1.00  0.00     0.033 C 
ATOM     32  C   UNL A   1      34.877  21.842  25.163  1.00  0.00    -0.006 C 
ATOM     33  C   UNL A   1      36.259  22.497  24.851  1.00  0.00     0.120 C 
ATOM     34  C   UNL A   1      34.581  20.631  24.251  1.00  0.00     0.014 C 
ATOM     35  C   UNL A   1      34.973  21.249  26.598  1.00  0.00     0.014 C 
BRANCH  33  36
ATOM     36  O   UNL A   1      37.277  21.510  24.682  1.00  0.00    -0.393 OA
ATOM     37  H   UNL A   1      36.899  20.628  24.821  1.00  0.00     0.210 HD
ENDBRANCH  33  36
ENDBRANCH   4   7
ENDBRANCH   2   3
ENDBRANCH   1   2
BRANCH   1  38
ATOM     38  C   UNL A   1      34.289  30.705  27.410  1.00  0.00     0.118 C 
BRANCH  38  39
ATOM     39  N   UNL A   1      34.291  31.470  28.656  1.00  0.00    -0.352 N 
ATOM     40  C   UNL A   1      35.199  31.582  29.683  1.00  0.00     0.251 C 
ATOM     41  H   UNL A   1      33.479  32.013  28.786  1.00  0.00     0.163 HD
ATOM     42  O   UNL A   1      34.920  32.280  30.658  1.00  0.00    -0.269 OA
BRANCH  40  43
ATOM     43  C   UNL A   1      36.474  30.825  29.680  1.00  0.00     0.039 A 
ATOM     44  C   UNL A   1      37.494  31.215  28.805  1.00  0.00     0.014 A 
ATOM     45  C   UNL A   1      36.688  29.748  30.531  1.00  0.00     0.014 A 
ATOM     46  C   UNL A   1      38.754  30.608  28.880  1.00  0.00     0.010 A 
ATOM     47  C   UNL A   1      37.972  29.244  30.703  1.00  0.00     0.010 A 
ATOM     48  C   UNL A   1      39.028  29.669  29.886  1.00  0.00    -0.014 A 
BRANCH  48  49
ATOM     49  C   UNL A   1      40.393  29.120  30.124  1.00  0.00     0.031 A 
ATOM     50  C   UNL A   1      41.394  29.908  30.932  1.00  0.00     0.074 A 
ATOM     51  C   UNL A   1      40.779  27.984  29.508  1.00  0.00     0.049 A 
ATOM     52  N   UNL A   1      42.682  29.720  31.073  1.00  0.00    -0.248 NA
ATOM     53  C   UNL A   1      40.889  31.106  31.621  1.00  0.00     0.031 C 
ATOM     54  C   UNL A   1      39.937  27.159  28.638  1.00  0.00     0.029 A 
ATOM     55  N   UNL A   1      41.989  27.334  29.503  1.00  0.00    -0.354 N 
ATOM     56  C   UNL A   1      43.143  30.803  31.813  1.00  0.00     0.074 A 
ATOM     57  C   UNL A   1      42.011  31.674  32.036  1.00  0.00     0.031 C 
ATOM     58  C   UNL A   1      40.642  26.098  28.216  1.00  0.00     0.029 A 
ATOM     59  C   UNL A   1      42.000  26.191  28.739  1.00  0.00     0.049 A 
ATOM     60  H   UNL A   1      42.776  27.656  30.000  1.00  0.00     0.167 HD
ATOM     61  C   UNL A   1      44.388  31.036  32.293  1.00  0.00     0.037 A 
ATOM     62  C   UNL A   1      42.994  25.320  28.481  1.00  0.00     0.037 A 
ATOM     63  C   UNL A   1      45.492  30.124  32.140  1.00  0.00     0.049 A 
ATOM     64  C   UNL A   1      44.353  25.564  29.082  1.00  0.00     0.074 A 
ATOM     65  C   UNL A   1      46.768  30.217  32.665  1.00  0.00     0.029 A 
ATOM     66  N   UNL A   1      45.439  28.939  31.421  1.00  0.00    -0.354 N 
ATOM     67  N   UNL A   1      44.760  26.562  29.827  1.00  0.00    -0.248 NA
ATOM     68  C   UNL A   1      45.388  24.557  28.809  1.00  0.00     0.031 C 
ATOM     69  C   UNL A   1      47.497  29.101  32.240  1.00  0.00     0.029 A 
ATOM     70  C   UNL A   1      46.662  28.293  31.486  1.00  0.00     0.049 A 
ATOM     71  H   UNL A   1      44.649  28.606  30.937  1.00  0.00     0.167 HD
ATOM     72  C   UNL A   1      46.086  26.291  30.137  1.00  0.00     0.074 A 
ATOM     73  C   UNL A   1      46.410  25.027  29.511  1.00  0.00     0.031 C 
ATOM     74  C   UNL A   1      46.957  27.025  30.870  1.00  0.00     0.037 A 
BRANCH  61  75
ATOM     75  C   UNL A   1      44.616  32.314  33.050  1.00  0.00     0.064 A 
ATOM     76  C   UNL A   1      44.421  32.395  34.438  1.00  0.00     0.173 A 
ATOM     77  C   UNL A   1      45.055  33.470  32.385  1.00  0.00     0.173 A 
ATOM     78  F   UNL A   1      43.993  31.323  35.123  1.00  0.00    -0.203 F 
ATOM     79  C   UNL A   1      44.610  33.593  35.122  1.00  0.00     0.198 A 
ATOM     80  C   UNL A   1      45.280  34.657  33.078  1.00  0.00     0.198 A 
ATOM     81  F   UNL A   1      45.269  33.450  31.060  1.00  0.00    -0.203 F 
ATOM     82  F   UNL A   1      44.351  33.660  36.435  1.00  0.00    -0.200 F 
ATOM     83  C   UNL A   1      45.045  34.721  34.444  1.00  0.00     0.200 A 
ATOM     84  F   UNL A   1      45.715  35.742  32.424  1.00  0.00    -0.200 F 
ATOM     85  F   UNL A   1      45.230  35.872  35.105  1.00  0.00    -0.200 F 
ENDBRANCH  61  75
BRANCH  62  86
ATOM     86  C   UNL A   1      42.734  24.114  27.651  1.00  0.00     0.064 A 
ATOM     87  C   UNL A   1      42.181  22.960  28.225  1.00  0.00     0.173 A 
ATOM     88  C   UNL A   1      43.025  24.085  26.280  1.00  0.00     0.173 A 
ATOM     89  F   UNL A   1      41.903  22.933  29.537  1.00  0.00    -0.203 F 
ATOM     90  C   UNL A   1      41.952  21.816  27.465  1.00  0.00     0.198 A 
ATOM     91  C   UNL A   1      42.768  22.949  25.514  1.00  0.00     0.198 A 
ATOM     92  F   UNL A   1      43.545  25.166  25.681  1.00  0.00    -0.203 F 
ATOM     93  F   UNL A   1      41.467  20.711  28.049  1.00  0.00    -0.200 F 
ATOM     94  C   UNL A   1      42.239  21.813  26.109  1.00  0.00     0.200 A 
ATOM     95  F   UNL A   1      43.033  22.955  24.201  1.00  0.00    -0.200 F 
ATOM     96  F   UNL A   1      42.015  20.713  25.376  1.00  0.00    -0.200 F 
ENDBRANCH  62  86
BRANCH  74  97
ATOM     97  C   UNL A   1      48.332  26.458  31.075  1.00  0.00     0.064 A 
ATOM     98  C   UNL A   1      48.616  25.578  32.128  1.00  0.00     0.173 A 
ATOM     99  C   UNL A   1      49.364  26.765  30.174  1.00  0.00     0.173 A 
ATOM    100  F   UNL A   1      47.666  25.268  33.023  1.00  0.00    -0.203 F 
ATOM    101  C   UNL A   1      49.891  25.043  32.285  1.00  0.00     0.198 A 
ATOM    102  C   UNL A   1      50.629  26.204  30.318  1.00  0.00     0.198 A 
ATOM    103  F   UNL A   1      49.139  27.598  29.147  1.00  0.00    -0.203 F 
ATOM    104  F   UNL A   1      50.153  24.236  33.324  1.00  0.00    -0.200 F 
ATOM    105  C   UNL A   1      50.893  25.348  31.377  1.00  0.00     0.200 A 
ATOM    106  F   UNL A   1      51.592  26.490  29.431  1.00  0.00    -0.200 F 
ATOM    107  F   UNL A   1      52.117  24.823  31.524  1.00  0.00    -0.200 F 
ENDBRANCH  74  97
ENDBRANCH  48  49
ENDBRANCH  40  43
ENDBRANCH  38  39
ENDBRANCH   1  38
TORSDOF 11
ENDMDL
MODEL 2
REMARK VINA RESULT:     -14.1      3.134      8.989
REMARK SMILES C[C@H]1[C@H](C)CC[C@@]2(C(=O)NCCCNC(=O)c3ccc(-c4c5nc(c(-c6c(F)c(F)c(F)c(F)c6F)c6ccc([nH]6)c(-c6c(F)c(F)c(F)c(F)c6F)c6nc(c(-c7c(F)c(F)c(F)c(F)c7F)c7ccc4[nH]7)C=C6)C=C5)cc3)CC[C@@]3(C)C(=CC[C@@H]4[C@@]5(C)CC[C@H](O)C(C)(C)[C@@H]5CC[C@]43C)[C@H]12
REMARK SMILES IDX 12 1 11 2 10 3 8 4 9 5 7 7 1 8 2 9 3 10 102 11 4 12 5 13
REMARK SMILES IDX 84 14 6 15 80 16 82 17 85 18 81 19 83 20 100 21 86 22 87 23
REMARK SMILES IDX 99 24 101 25 88 26 98 27 89 28 90 29 97 30 91 31 94 32 92 33
REMARK SMILES IDX 95 34 96 35 93 36 13 38 14 39 15 40 16 42 17 43 18 44 79 45
REMARK SMILES IDX 19 46 78 47 20 48 21 49 22 50 72 51 23 52 77 53 71 54 73 55
REMARK SMILES IDX 24 56 76 57 70 58 69 59 25 61 57 62 37 63 56 64 38 65 41 66
REMARK SMILES IDX 55 67 74 68 39 69 40 70 54 72 75 73 42 74 26 75 27 76 35 77
REMARK SMILES IDX 28 78 29 79 33 80 36 81 30 82 31 83 34 84 32 85 58 86 59 87
REMARK SMILES IDX 67 88 60 89 61 90 65 91 68 92 62 93 63 94 66 95 64 96 43 97
REMARK SMILES IDX 44 98 52 99 45 100 46 101 50 102 53 103 47 104 48 105 51 106
REMARK SMILES IDX 49 107
REMARK H PARENT 10 6 93 37 14 41 73 60 41 71
REMARK Flexibility Score: inf
ROOT
ATOM      1  C   UNL A   1      38.100  23.959  26.123  1.00  0.00     0.042 C 
ENDROOT
BRANCH   1   2
ATOM      2  C   UNL A   1      36.580  23.963  25.977  1.00  0.00     0.117 C 
BRANCH   2   3
ATOM      3  N   UNL A   1      35.930  22.847  26.634  1.00  0.00    -0.356 N 
ATOM      4  C   UNL A   1      35.221  21.779  26.179  1.00  0.00     0.226 C 
ATOM      5  O   UNL A   1      34.465  21.307  27.039  1.00  0.00    -0.274 OA
ATOM      6  H   UNL A   1      36.019  22.867  27.615  1.00  0.00     0.163 HD
BRANCH   4   7
ATOM      7  C   UNL A   1      35.332  21.128  24.750  1.00  0.00     0.056 C 
ATOM      8  C   UNL A   1      32.154  18.890  24.007  1.00  0.00     0.008 C 
ATOM      9  C   UNL A   1      33.463  19.310  24.705  1.00  0.00    -0.003 C 
ATOM     10  C   UNL A   1      34.544  18.201  24.502  1.00  0.00    -0.011 C 
ATOM     11  C   UNL A   1      33.968  20.671  24.158  1.00  0.00     0.034 C 
ATOM     12  C   UNL A   1      34.205  16.889  25.234  1.00  0.00     0.008 C 
ATOM     13  C   UNL A   1      35.983  18.583  24.892  1.00  0.00     0.005 C 
ATOM     14  C   UNL A   1      33.056  21.912  24.222  1.00  0.00    -0.063 C 
ATOM     15  C   UNL A   1      36.412  20.030  24.712  1.00  0.00     0.018 C 
ATOM     16  C   UNL A   1      35.857  22.249  23.760  1.00  0.00     0.018 C 
ATOM     17  C   UNL A   1      33.398  23.047  23.217  1.00  0.00    -0.006 C 
ATOM     18  C   UNL A   1      32.204  22.100  25.249  1.00  0.00    -0.027 C 
ATOM     19  C   UNL A   1      34.900  23.416  23.446  1.00  0.00     0.013 C 
ATOM     20  C   UNL A   1      33.260  22.523  21.760  1.00  0.00     0.017 C 
ATOM     21  C   UNL A   1      32.426  24.344  23.420  1.00  0.00    -0.020 C 
ATOM     22  C   UNL A   1      31.628  23.432  25.641  1.00  0.00     0.032 C 
ATOM     23  C   UNL A   1      32.356  24.622  24.968  1.00  0.00     0.006 C 
ATOM     24  C   UNL A   1      32.952  25.593  22.665  1.00  0.00     0.008 C 
ATOM     25  C   UNL A   1      31.012  24.049  22.831  1.00  0.00     0.012 C 
ATOM     26  C   UNL A   1      31.908  26.065  25.472  1.00  0.00    -0.025 C 
ATOM     27  C   UNL A   1      32.237  26.889  23.058  1.00  0.00     0.005 C 
ATOM     28  C   UNL A   1      30.375  26.120  25.640  1.00  0.00     0.012 C 
ATOM     29  C   UNL A   1      32.559  26.317  26.872  1.00  0.00     0.010 C 
ATOM     30  C   UNL A   1      32.498  27.188  24.539  1.00  0.00     0.003 C 
ATOM     31  C   UNL A   1      32.334  27.726  27.421  1.00  0.00     0.033 C 
ATOM     32  C   UNL A   1      32.214  28.674  24.988  1.00  0.00    -0.006 C 
ATOM     33  C   UNL A   1      32.737  28.839  26.449  1.00  0.00     0.120 C 
ATOM     34  C   UNL A   1      30.742  29.120  24.836  1.00  0.00     0.014 C 
ATOM     35  C   UNL A   1      33.025  29.664  24.105  1.00  0.00     0.014 C 
BRANCH  33  36
ATOM     36  O   UNL A   1      32.348  30.097  27.003  1.00  0.00    -0.393 OA
ATOM     37  H   UNL A   1      31.429  30.287  26.760  1.00  0.00     0.210 HD
ENDBRANCH  33  36
ENDBRANCH   4   7
ENDBRANCH   2   3
ENDBRANCH   1   2
BRANCH   1  38
ATOM     38  C   UNL A   1      38.675  22.558  26.333  1.00  0.00     0.118 C 
BRANCH  38  39
ATOM     39  N   UNL A   1      40.075  22.402  25.942  1.00  0.00    -0.352 N 
ATOM     40  C   UNL A   1      41.187  23.196  26.108  1.00  0.00     0.251 C 
ATOM     41  H   UNL A   1      40.259  21.561  25.462  1.00  0.00     0.163 HD
ATOM     42  O   UNL A   1      42.260  22.833  25.628  1.00  0.00    -0.269 OA
BRANCH  40  43
ATOM     43  C   UNL A   1      41.107  24.511  26.787  1.00  0.00     0.039 A 
ATOM     44  C   UNL A   1      40.958  24.551  28.178  1.00  0.00     0.014 A 
ATOM     45  C   UNL A   1      41.191  25.706  26.082  1.00  0.00     0.014 A 
ATOM     46  C   UNL A   1      41.021  25.774  28.857  1.00  0.00     0.010 A 
ATOM     47  C   UNL A   1      41.395  26.900  26.761  1.00  0.00     0.010 A 
ATOM     48  C   UNL A   1      41.321  26.955  28.160  1.00  0.00    -0.014 A 
BRANCH  48  49
ATOM     49  C   UNL A   1      41.573  28.254  28.847  1.00  0.00     0.031 A 
ATOM     50  C   UNL A   1      42.937  28.555  29.417  1.00  0.00     0.074 A 
ATOM     51  C   UNL A   1      40.550  29.102  29.080  1.00  0.00     0.049 A 
ATOM     52  N   UNL A   1      43.306  29.512  30.230  1.00  0.00    -0.248 NA
ATOM     53  C   UNL A   1      44.016  27.614  29.077  1.00  0.00     0.031 C 
ATOM     54  C   UNL A   1      39.163  28.902  28.651  1.00  0.00     0.029 A 
ATOM     55  N   UNL A   1      40.514  30.298  29.754  1.00  0.00    -0.354 N 
ATOM     56  C   UNL A   1      44.636  29.253  30.540  1.00  0.00     0.074 A 
ATOM     57  C   UNL A   1      44.989  28.016  29.880  1.00  0.00     0.031 C 
ATOM     58  C   UNL A   1      38.424  29.952  29.038  1.00  0.00     0.029 A 
ATOM     59  C   UNL A   1      39.267  30.877  29.787  1.00  0.00     0.049 A 
ATOM     60  H   UNL A   1      41.307  30.704  30.173  1.00  0.00     0.167 HD
ATOM     61  C   UNL A   1      45.496  29.993  31.279  1.00  0.00     0.037 A 
ATOM     62  C   UNL A   1      38.848  32.019  30.364  1.00  0.00     0.037 A 
ATOM     63  C   UNL A   1      45.164  31.266  31.864  1.00  0.00     0.049 A 
ATOM     64  C   UNL A   1      39.839  32.860  31.124  1.00  0.00     0.074 A 
ATOM     65  C   UNL A   1      45.984  32.141  32.552  1.00  0.00     0.029 A 
ATOM     66  N   UNL A   1      43.908  31.852  31.810  1.00  0.00    -0.354 N 
ATOM     67  N   UNL A   1      41.107  32.632  31.361  1.00  0.00    -0.248 NA
ATOM     68  C   UNL A   1      39.340  34.120  31.692  1.00  0.00     0.031 C 
ATOM     69  C   UNL A   1      45.217  33.246  32.939  1.00  0.00     0.029 A 
ATOM     70  C   UNL A   1      43.930  33.077  32.455  1.00  0.00     0.049 A 
ATOM     71  H   UNL A   1      43.117  31.455  31.377  1.00  0.00     0.167 HD
ATOM     72  C   UNL A   1      41.565  33.729  32.077  1.00  0.00     0.074 A 
ATOM     73  C   UNL A   1      40.442  34.630  32.224  1.00  0.00     0.031 C 
ATOM     74  C   UNL A   1      42.804  33.967  32.573  1.00  0.00     0.037 A 
BRANCH  61  75
ATOM     75  C   UNL A   1      46.887  29.458  31.475  1.00  0.00     0.064 A 
ATOM     76  C   UNL A   1      47.925  29.750  30.576  1.00  0.00     0.173 A 
ATOM     77  C   UNL A   1      47.194  28.657  32.587  1.00  0.00     0.173 A 
ATOM     78  F   UNL A   1      47.685  30.503  29.491  1.00  0.00    -0.203 F 
ATOM     79  C   UNL A   1      49.201  29.226  30.756  1.00  0.00     0.198 A 
ATOM     80  C   UNL A   1      48.482  28.164  32.784  1.00  0.00     0.198 A 
ATOM     81  F   UNL A   1      46.246  28.353  33.486  1.00  0.00    -0.203 F 
ATOM     82  F   UNL A   1      50.156  29.465  29.846  1.00  0.00    -0.200 F 
ATOM     83  C   UNL A   1      49.482  28.438  31.862  1.00  0.00     0.200 A 
ATOM     84  F   UNL A   1      48.755  27.417  33.862  1.00  0.00    -0.200 F 
ATOM     85  F   UNL A   1      50.712  27.937  32.035  1.00  0.00    -0.200 F 
ENDBRANCH  61  75
BRANCH  62  86
ATOM     86  C   UNL A   1      37.436  32.458  30.211  1.00  0.00     0.064 A 
ATOM     87  C   UNL A   1      37.033  33.181  29.079  1.00  0.00     0.173 A 
ATOM     88  C   UNL A   1      36.464  32.168  31.178  1.00  0.00     0.173 A 
ATOM     89  F   UNL A   1      37.931  33.499  28.134  1.00  0.00    -0.203 F 
ATOM     90  C   UNL A   1      35.719  33.618  28.931  1.00  0.00     0.198 A 
ATOM     91  C   UNL A   1      35.142  32.581  31.016  1.00  0.00     0.198 A 
ATOM     92  F   UNL A   1      36.794  31.471  32.276  1.00  0.00    -0.203 F 
ATOM     93  F   UNL A   1      35.373  34.347  27.862  1.00  0.00    -0.200 F 
ATOM     94  C   UNL A   1      34.773  33.312  29.897  1.00  0.00     0.200 A 
ATOM     95  F   UNL A   1      34.227  32.270  31.944  1.00  0.00    -0.200 F 
ATOM     96  F   UNL A   1      33.507  33.728  29.754  1.00  0.00    -0.200 F 
ENDBRANCH  62  86
BRANCH  74  97
ATOM     97  C   UNL A   1      43.023  35.272  33.280  1.00  0.00     0.064 A 
ATOM     98  C   UNL A   1      42.820  35.404  34.660  1.00  0.00     0.173 A 
ATOM     99  C   UNL A   1      43.488  36.391  32.572  1.00  0.00     0.173 A 
ATOM    100  F   UNL A   1      42.360  34.367  35.377  1.00  0.00    -0.203 F 
ATOM    101  C   UNL A   1      43.054  36.616  35.303  1.00  0.00     0.198 A 
ATOM    102  C   UNL A   1      43.750  37.592  33.223  1.00  0.00     0.198 A 
ATOM    103  F   UNL A   1      43.704  36.312  31.250  1.00  0.00    -0.203 F 
ATOM    104  F   UNL A   1      42.812  36.733  36.617  1.00  0.00    -0.200 F 
ATOM    105  C   UNL A   1      43.526  37.705  34.587  1.00  0.00     0.200 A 
ATOM    106  F   UNL A   1      44.218  38.639  32.531  1.00  0.00    -0.200 F 
ATOM    107  F   UNL A   1      43.761  38.869  35.210  1.00  0.00    -0.200 F 
ENDBRANCH  74  97
ENDBRANCH  48  49
ENDBRANCH  40  43
ENDBRANCH  38  39
ENDBRANCH   1  38
TORSDOF 11
ENDMDL
MODEL 3
REMARK VINA RESULT:     -14.0      3.139      8.986
REMARK SMILES C[C@H]1[C@H](C)CC[C@@]2(C(=O)NCCCNC(=O)c3ccc(-c4c5nc(c(-c6c(F)c(F)c(F)c(F)c6F)c6ccc([nH]6)c(-c6c(F)c(F)c(F)c(F)c6F)c6nc(c(-c7c(F)c(F)c(F)c(F)c7F)c7ccc4[nH]7)C=C6)C=C5)cc3)CC[C@@]3(C)C(=CC[C@@H]4[C@@]5(C)CC[C@H](O)C(C)(C)[C@@H]5CC[C@]43C)[C@H]12
REMARK SMILES IDX 12 1 11 2 10 3 8 4 9 5 7 7 1 8 2 9 3 10 102 11 4 12 5 13
REMARK SMILES IDX 84 14 6 15 80 16 82 17 85 18 81 19 83 20 100 21 86 22 87 23
REMARK SMILES IDX 99 24 101 25 88 26 98 27 89 28 90 29 97 30 91 31 94 32 92 33
REMARK SMILES IDX 95 34 96 35 93 36 13 38 14 39 15 40 16 42 17 43 18 44 79 45
REMARK SMILES IDX 19 46 78 47 20 48 21 49 22 50 72 51 23 52 77 53 71 54 73 55
REMARK SMILES IDX 24 56 76 57 70 58 69 59 25 61 57 62 37 63 56 64 38 65 41 66
REMARK SMILES IDX 55 67 74 68 39 69 40 70 54 72 75 73 42 74 26 75 27 76 35 77
REMARK SMILES IDX 28 78 29 79 33 80 36 81 30 82 31 83 34 84 32 85 58 86 59 87
REMARK SMILES IDX 67 88 60 89 61 90 65 91 68 92 62 93 63 94 66 95 64 96 43 97
REMARK SMILES IDX 44 98 52 99 45 100 46 101 50 102 53 103 47 104 48 105 51 106
REMARK SMILES IDX 49 107
REMARK H PARENT 10 6 93 37 14 41 73 60 41 71
REMARK Flexibility Score: inf
ROOT
ATOM      1  C   UNL A   1      38.236  23.894  26.324  1.00  0.00     0.042 C 
ENDROOT
BRANCH   1   2
ATOM      2  C   UNL A   1      36.736  23.919  26.040  1.00  0.00     0.117 C 
BRANCH   2   3
ATOM      3  N   UNL A   1      36.005  22.839  26.673  1.00  0.00    -0.356 N 
ATOM      4  C   UNL A   1      35.249  21.816  26.193  1.00  0.00     0.226 C 
ATOM      5  O   UNL A   1      34.444  21.384  27.030  1.00  0.00    -0.274 OA
ATOM      6  H   UNL A   1      36.069  22.849  27.656  1.00  0.00     0.163 HD
BRANCH   4   7
ATOM      7  C   UNL A   1      35.361  21.166  24.763  1.00  0.00     0.056 C 
ATOM      8  C   UNL A   1      32.185  18.925  24.018  1.00  0.00     0.008 C 
ATOM      9  C   UNL A   1      33.494  19.346  24.716  1.00  0.00    -0.003 C 
ATOM     10  C   UNL A   1      34.576  18.238  24.512  1.00  0.00    -0.011 C 
ATOM     11  C   UNL A   1      33.998  20.708  24.170  1.00  0.00     0.034 C 
ATOM     12  C   UNL A   1      34.238  16.925  25.243  1.00  0.00     0.008 C 
ATOM     13  C   UNL A   1      36.015  18.621  24.903  1.00  0.00     0.005 C 
ATOM     14  C   UNL A   1      33.084  21.948  24.235  1.00  0.00    -0.063 C 
ATOM     15  C   UNL A   1      36.442  20.068  24.724  1.00  0.00     0.018 C 
ATOM     16  C   UNL A   1      35.885  22.288  23.775  1.00  0.00     0.018 C 
ATOM     17  C   UNL A   1      33.426  23.084  23.231  1.00  0.00    -0.006 C 
ATOM     18  C   UNL A   1      32.232  22.135  25.263  1.00  0.00    -0.027 C 
ATOM     19  C   UNL A   1      34.928  23.454  23.461  1.00  0.00     0.013 C 
ATOM     20  C   UNL A   1      33.288  22.561  21.774  1.00  0.00     0.017 C 
ATOM     21  C   UNL A   1      32.453  24.381  23.435  1.00  0.00    -0.020 C 
ATOM     22  C   UNL A   1      31.655  23.466  25.656  1.00  0.00     0.032 C 
ATOM     23  C   UNL A   1      32.382  24.657  24.983  1.00  0.00     0.006 C 
ATOM     24  C   UNL A   1      32.978  25.631  22.682  1.00  0.00     0.008 C 
ATOM     25  C   UNL A   1      31.039  24.085  22.845  1.00  0.00     0.012 C 
ATOM     26  C   UNL A   1      31.933  26.099  25.489  1.00  0.00    -0.025 C 
ATOM     27  C   UNL A   1      32.262  26.926  23.075  1.00  0.00     0.005 C 
ATOM     28  C   UNL A   1      30.400  26.152  25.657  1.00  0.00     0.012 C 
ATOM     29  C   UNL A   1      32.583  26.350  26.889  1.00  0.00     0.010 C 
ATOM     30  C   UNL A   1      32.522  27.223  24.557  1.00  0.00     0.003 C 
ATOM     31  C   UNL A   1      32.356  27.759  27.439  1.00  0.00     0.033 C 
ATOM     32  C   UNL A   1      32.236  28.709  25.007  1.00  0.00    -0.006 C 
ATOM     33  C   UNL A   1      32.759  28.872  26.469  1.00  0.00     0.120 C 
ATOM     34  C   UNL A   1      30.764  29.153  24.856  1.00  0.00     0.014 C 
ATOM     35  C   UNL A   1      33.047  29.701  24.125  1.00  0.00     0.014 C 
BRANCH  33  36
ATOM     36  O   UNL A   1      32.369  30.130  27.023  1.00  0.00    -0.393 OA
ATOM     37  H   UNL A   1      31.403  30.212  26.992  1.00  0.00     0.210 HD
ENDBRANCH  33  36
ENDBRANCH   4   7
ENDBRANCH   2   3
ENDBRANCH   1   2
BRANCH   1  38
ATOM     38  C   UNL A   1      38.806  22.476  26.389  1.00  0.00     0.118 C 
BRANCH  38  39
ATOM     39  N   UNL A   1      40.194  22.351  25.947  1.00  0.00    -0.352 N 
ATOM     40  C   UNL A   1      41.295  23.166  26.079  1.00  0.00     0.251 C 
ATOM     41  H   UNL A   1      40.377  21.517  25.456  1.00  0.00     0.163 HD
ATOM     42  O   UNL A   1      42.357  22.828  25.558  1.00  0.00    -0.269 OA
BRANCH  40  43
ATOM     43  C   UNL A   1      41.214  24.476  26.768  1.00  0.00     0.039 A 
ATOM     44  C   UNL A   1      41.164  24.507  28.167  1.00  0.00     0.014 A 
ATOM     45  C   UNL A   1      41.199  25.674  26.065  1.00  0.00     0.014 A 
ATOM     46  C   UNL A   1      41.229  25.730  28.845  1.00  0.00     0.010 A 
ATOM     47  C   UNL A   1      41.405  26.875  26.734  1.00  0.00     0.010 A 
ATOM     48  C   UNL A   1      41.431  26.923  28.135  1.00  0.00    -0.014 A 
BRANCH  48  49
ATOM     49  C   UNL A   1      41.681  28.229  28.809  1.00  0.00     0.031 A 
ATOM     50  C   UNL A   1      43.050  28.546  29.356  1.00  0.00     0.074 A 
ATOM     51  C   UNL A   1      40.654  29.069  29.050  1.00  0.00     0.049 A 
ATOM     52  N   UNL A   1      43.423  29.513  30.156  1.00  0.00    -0.248 NA
ATOM     53  C   UNL A   1      44.133  27.613  29.007  1.00  0.00     0.031 C 
ATOM     54  C   UNL A   1      39.263  28.854  28.643  1.00  0.00     0.029 A 
ATOM     55  N   UNL A   1      40.617  30.271  29.715  1.00  0.00    -0.354 N 
ATOM     56  C   UNL A   1      44.759  29.268  30.448  1.00  0.00     0.074 A 
ATOM     57  C   UNL A   1      45.114  28.029  29.792  1.00  0.00     0.031 C 
ATOM     58  C   UNL A   1      38.521  29.901  29.033  1.00  0.00     0.029 A 
ATOM     59  C   UNL A   1      39.366  30.839  29.763  1.00  0.00     0.049 A 
ATOM     60  H   UNL A   1      41.412  30.687  30.120  1.00  0.00     0.167 HD
ATOM     61  C   UNL A   1      45.624  30.021  31.170  1.00  0.00     0.037 A 
ATOM     62  C   UNL A   1      38.945  31.981  30.338  1.00  0.00     0.037 A 
ATOM     63  C   UNL A   1      45.289  31.295  31.750  1.00  0.00     0.049 A 
ATOM     64  C   UNL A   1      39.939  32.836  31.077  1.00  0.00     0.074 A 
ATOM     65  C   UNL A   1      46.111  32.183  32.419  1.00  0.00     0.029 A 
ATOM     66  N   UNL A   1      44.027  31.869  31.710  1.00  0.00    -0.354 N 
ATOM     67  N   UNL A   1      41.213  32.621  31.296  1.00  0.00    -0.248 NA
ATOM     68  C   UNL A   1      39.437  34.096  31.643  1.00  0.00     0.031 C 
ATOM     69  C   UNL A   1      45.340  33.283  32.810  1.00  0.00     0.029 A 
ATOM     70  C   UNL A   1      44.047  33.100  32.346  1.00  0.00     0.049 A 
ATOM     71  H   UNL A   1      43.233  31.463  31.291  1.00  0.00     0.167 HD
ATOM     72  C   UNL A   1      41.671  33.728  31.998  1.00  0.00     0.074 A 
ATOM     73  C   UNL A   1      40.542  34.620  32.154  1.00  0.00     0.031 C 
ATOM     74  C   UNL A   1      42.915  33.981  32.473  1.00  0.00     0.037 A 
BRANCH  61  75
ATOM     75  C   UNL A   1      47.022  29.500  31.349  1.00  0.00     0.064 A 
ATOM     76  C   UNL A   1      47.377  28.701  32.448  1.00  0.00     0.173 A 
ATOM     77  C   UNL A   1      48.018  29.786  30.402  1.00  0.00     0.173 A 
ATOM     78  F   UNL A   1      46.468  28.404  33.389  1.00  0.00    -0.203 F 
ATOM     79  C   UNL A   1      48.683  28.247  32.615  1.00  0.00     0.198 A 
ATOM     80  C   UNL A   1      49.315  29.299  30.553  1.00  0.00     0.198 A 
ATOM     81  F   UNL A   1      47.735  30.535  29.326  1.00  0.00    -0.203 F 
ATOM     82  F   UNL A   1      49.010  27.544  33.707  1.00  0.00    -0.200 F 
ATOM     83  C   UNL A   1      49.649  28.541  31.665  1.00  0.00     0.200 A 
ATOM     84  F   UNL A   1      50.243  29.570  29.626  1.00  0.00    -0.200 F 
ATOM     85  F   UNL A   1      50.904  28.100  31.826  1.00  0.00    -0.200 F 
ENDBRANCH  61  75
BRANCH  62  86
ATOM     86  C   UNL A   1      37.527  32.406  30.202  1.00  0.00     0.064 A 
ATOM     87  C   UNL A   1      37.105  33.134  29.080  1.00  0.00     0.173 A 
ATOM     88  C   UNL A   1      36.567  32.099  31.177  1.00  0.00     0.173 A 
ATOM     89  F   UNL A   1      37.990  33.468  28.128  1.00  0.00    -0.203 F 
ATOM     90  C   UNL A   1      35.785  33.558  28.949  1.00  0.00     0.198 A 
ATOM     91  C   UNL A   1      35.240  32.498  31.031  1.00  0.00     0.198 A 
ATOM     92  F   UNL A   1      36.916  31.396  32.265  1.00  0.00    -0.203 F 
ATOM     93  F   UNL A   1      35.421  34.292  27.889  1.00  0.00    -0.200 F 
ATOM     94  C   UNL A   1      34.852  33.234  29.922  1.00  0.00     0.200 A 
ATOM     95  F   UNL A   1      34.337  32.171  31.966  1.00  0.00    -0.200 F 
ATOM     96  F   UNL A   1      33.580  33.638  29.794  1.00  0.00    -0.200 F 
ENDBRANCH  62  86
BRANCH  74  97
ATOM     97  C   UNL A   1      43.132  35.293  33.168  1.00  0.00     0.064 A 
ATOM     98  C   UNL A   1      43.550  36.434  32.470  1.00  0.00     0.173 A 
ATOM     99  C   UNL A   1      42.872  35.417  34.542  1.00  0.00     0.173 A 
ATOM    100  F   UNL A   1      43.826  36.361  31.160  1.00  0.00    -0.203 F 
ATOM    101  C   UNL A   1      43.720  37.649  33.128  1.00  0.00     0.198 A 
ATOM    102  C   UNL A   1      43.015  36.640  35.189  1.00  0.00     0.198 A 
ATOM    103  F   UNL A   1      42.465  34.354  35.251  1.00  0.00    -0.203 F 
ATOM    104  F   UNL A   1      44.161  38.719  32.450  1.00  0.00    -0.200 F 
ATOM    105  C   UNL A   1      43.445  37.753  34.483  1.00  0.00     0.200 A 
ATOM    106  F   UNL A   1      42.736  36.742  36.496  1.00  0.00    -0.200 F 
ATOM    107  F   UNL A   1      43.600  38.927  35.112  1.00  0.00    -0.200 F 
ENDBRANCH  74  97
ENDBRANCH  48  49
ENDBRANCH  40  43
ENDBRANCH  38  39
ENDBRANCH   1  38
TORSDOF 11
ENDMDL
