MODEL 1
REMARK VINA RESULT:     -12.9      0.000      0.000
REMARK SMILES CCc1nc(N2CC[N@H+](CC=C(C)C)[C@H](C(=O)NCCCNC(=O)c3ccc(-c4c5nc(c(-c6c(F)c(F)c(F)c(F)c6F)c6ccc([nH]6)c(-c6c(F)c(F)c(F)c(F)c6F)c6nc(c(-c7c(F)c(F)c(F)c(F)c7F)c7ccc4[nH]7)C=C6)C=C5)cc3)C2)no1
REMARK SMILES IDX 20 1 19 2 18 3 16 4 17 5 15 7 6 8 7 9 88 10 8 11 9 12 5 14
REMARK SMILES IDX 3 15 4 16 90 17 89 18 2 19 1 20 10 21 11 22 12 23 13 24
REMARK SMILES IDX 14 25 21 26 22 27 23 28 24 30 25 31 26 32 87 33 27 34 86 35
REMARK SMILES IDX 28 36 29 37 30 38 80 39 31 40 85 41 79 42 81 43 32 44 84 45
REMARK SMILES IDX 78 46 77 47 33 49 65 50 45 51 64 52 46 53 49 54 63 55 82 56
REMARK SMILES IDX 47 57 48 58 62 60 83 61 50 62 34 63 35 64 43 65 36 66 37 67
REMARK SMILES IDX 41 68 44 69 38 70 39 71 42 72 40 73 66 74 67 75 75 76 68 77
REMARK SMILES IDX 69 78 73 79 76 80 70 81 71 82 74 83 72 84 51 85 52 86 60 87
REMARK SMILES IDX 53 88 54 89 58 90 61 91 55 92 56 93 59 94 57 95
REMARK H PARENT 18 6 9 13 22 29 81 48 49 59
REMARK Flexibility Score: inf
ROOT
ATOM      1  C   UNL A   1      31.683  31.531  26.621  1.00  0.00     0.042 C 
ENDROOT
BRANCH   1   2
ATOM      2  C   UNL A   1      32.085  30.126  26.224  1.00  0.00     0.118 C 
BRANCH   2   3
ATOM      3  N   UNL A   1      33.001  30.060  25.093  1.00  0.00    -0.351 N 
ATOM      4  C   UNL A   1      33.036  29.109  24.098  1.00  0.00     0.280 C 
ATOM      5  O   UNL A   1      33.768  29.315  23.128  1.00  0.00    -0.268 OA
ATOM      6  H   UNL A   1      33.671  30.779  25.033  1.00  0.00     0.163 HD
BRANCH   4   7
ATOM      7  C   UNL A   1      32.225  27.811  24.267  1.00  0.00     0.294 C 
ATOM      8  N   UNL A   1      31.942  25.421  23.549  1.00  0.00    -0.326 N 
ATOM      9  C   UNL A   1      30.485  25.573  23.643  1.00  0.00     0.181 C 
ATOM     10  C   UNL A   1      32.783  26.630  23.433  1.00  0.00     0.195 C 
ATOM     11  C   UNL A   1      30.053  26.806  24.448  1.00  0.00     0.284 C 
ATOM     12  N   UNL A   1      30.764  28.041  24.114  1.00  0.00    -0.318 N 
ATOM     13  H   UNL A   1      30.521  28.763  24.791  1.00  0.00     0.349 HD
BRANCH   8  14
ATOM     14  C   UNL A   1      32.385  24.248  23.036  1.00  0.00     0.266 A 
ATOM     15  C   UNL A   1      32.404  22.187  22.694  1.00  0.00     0.227 A 
ATOM     16  N   UNL A   1      31.959  23.061  23.570  1.00  0.00    -0.176 NA
ATOM     17  O   UNL A   1      33.161  22.748  21.711  1.00  0.00    -0.337 OA
ATOM     18  N   UNL A   1      33.131  24.112  21.930  1.00  0.00    -0.038 NA
BRANCH  15  19
ATOM     19  C   UNL A   1      32.111  20.736  22.577  1.00  0.00     0.097 C 
ATOM     20  C   UNL A   1      32.462  19.940  23.827  1.00  0.00     0.014 C 
ENDBRANCH  15  19
ENDBRANCH   8  14
BRANCH  12  21
ATOM     21  C   UNL A   1      30.292  28.747  22.927  1.00  0.00     0.291 C 
BRANCH  21  22
ATOM     22  C   UNL A   1      29.556  30.034  23.120  1.00  0.00     0.032 C 
ATOM     23  C   UNL A   1      28.218  30.178  23.204  1.00  0.00    -0.075 C 
ATOM     24  C   UNL A   1      27.600  31.538  23.362  1.00  0.00     0.039 C 
ATOM     25  C   UNL A   1      27.254  29.029  23.094  1.00  0.00     0.039 C 
ENDBRANCH  21  22
ENDBRANCH  12  21
ENDBRANCH   4   7
ENDBRANCH   2   3
ENDBRANCH   1   2
BRANCH   1  26
ATOM     26  C   UNL A   1      32.798  32.331  27.269  1.00  0.00     0.118 C 
BRANCH  26  27
ATOM     27  N   UNL A   1      32.439  33.719  27.546  1.00  0.00    -0.352 N 
ATOM     28  C   UNL A   1      32.968  34.624  28.443  1.00  0.00     0.251 C 
ATOM     29  H   UNL A   1      31.696  34.066  27.002  1.00  0.00     0.163 HD
ATOM     30  O   UNL A   1      32.433  35.709  28.611  1.00  0.00    -0.269 OA
BRANCH  28  31
ATOM     31  C   UNL A   1      34.164  34.262  29.237  1.00  0.00     0.039 A 
ATOM     32  C   UNL A   1      34.004  33.657  30.487  1.00  0.00     0.014 A 
ATOM     33  C   UNL A   1      35.443  34.495  28.737  1.00  0.00     0.014 A 
ATOM     34  C   UNL A   1      35.125  33.188  31.179  1.00  0.00     0.010 A 
ATOM     35  C   UNL A   1      36.538  33.910  29.354  1.00  0.00     0.010 A 
ATOM     36  C   UNL A   1      36.396  33.260  30.590  1.00  0.00    -0.014 A 
BRANCH  36  37
ATOM     37  C   UNL A   1      37.619  32.717  31.238  1.00  0.00     0.031 A 
ATOM     38  C   UNL A   1      38.370  31.604  30.556  1.00  0.00     0.074 A 
ATOM     39  C   UNL A   1      37.978  33.121  32.472  1.00  0.00     0.049 A 
ATOM     40  N   UNL A   1      39.304  30.818  31.028  1.00  0.00    -0.248 NA
ATOM     41  C   UNL A   1      37.974  31.297  29.171  1.00  0.00     0.031 C 
ATOM     42  C   UNL A   1      37.312  34.161  33.256  1.00  0.00     0.029 A 
ATOM     43  N   UNL A   1      38.984  32.680  33.296  1.00  0.00    -0.354 N 
ATOM     44  C   UNL A   1      39.563  29.899  30.020  1.00  0.00     0.074 A 
ATOM     45  C   UNL A   1      38.654  30.186  28.935  1.00  0.00     0.031 C 
ATOM     46  C   UNL A   1      37.937  34.290  34.438  1.00  0.00     0.029 A 
ATOM     47  C   UNL A   1      39.013  33.308  34.517  1.00  0.00     0.049 A 
ATOM     48  H   UNL A   1      39.626  31.979  33.036  1.00  0.00     0.167 HD
ATOM     49  C   UNL A   1      40.496  28.917  29.992  1.00  0.00     0.037 A 
ATOM     50  C   UNL A   1      39.807  33.099  35.586  1.00  0.00     0.037 A 
ATOM     51  C   UNL A   1      41.443  28.681  31.047  1.00  0.00     0.049 A 
ATOM     52  C   UNL A   1      40.858  32.023  35.519  1.00  0.00     0.074 A 
ATOM     53  C   UNL A   1      42.474  27.762  31.092  1.00  0.00     0.029 A 
ATOM     54  N   UNL A   1      41.480  29.388  32.241  1.00  0.00    -0.354 N 
ATOM     55  N   UNL A   1      41.124  31.187  34.546  1.00  0.00    -0.248 NA
ATOM     56  C   UNL A   1      41.723  31.864  36.697  1.00  0.00     0.031 C 
ATOM     57  C   UNL A   1      43.116  27.889  32.327  1.00  0.00     0.029 A 
ATOM     58  C   UNL A   1      42.516  28.920  33.030  1.00  0.00     0.049 A 
ATOM     59  H   UNL A   1      40.862  30.113  32.489  1.00  0.00     0.167 HD
ATOM     60  C   UNL A   1      42.209  30.434  34.974  1.00  0.00     0.074 A 
ATOM     61  C   UNL A   1      42.552  30.910  36.297  1.00  0.00     0.031 C 
ATOM     62  C   UNL A   1      42.863  29.438  34.328  1.00  0.00     0.037 A 
BRANCH  49  63
ATOM     63  C   UNL A   1      40.543  28.037  28.776  1.00  0.00     0.064 A 
ATOM     64  C   UNL A   1      41.315  28.372  27.653  1.00  0.00     0.173 A 
ATOM     65  C   UNL A   1      39.826  26.832  28.743  1.00  0.00     0.173 A 
ATOM     66  F   UNL A   1      42.008  29.521  27.627  1.00  0.00    -0.203 F 
ATOM     67  C   UNL A   1      41.338  27.552  26.528  1.00  0.00     0.198 A 
ATOM     68  C   UNL A   1      39.880  25.996  27.630  1.00  0.00     0.198 A 
ATOM     69  F   UNL A   1      39.078  26.460  29.792  1.00  0.00    -0.203 F 
ATOM     70  F   UNL A   1      42.034  27.924  25.445  1.00  0.00    -0.200 F 
ATOM     71  C   UNL A   1      40.626  26.362  26.520  1.00  0.00     0.200 A 
ATOM     72  F   UNL A   1      39.204  24.840  27.629  1.00  0.00    -0.200 F 
ATOM     73  F   UNL A   1      40.655  25.571  25.439  1.00  0.00    -0.200 F 
ENDBRANCH  49  63
BRANCH  50  74
ATOM     74  C   UNL A   1      39.659  33.945  36.800  1.00  0.00     0.064 A 
ATOM     75  C   UNL A   1      40.300  35.189  36.887  1.00  0.00     0.173 A 
ATOM     76  C   UNL A   1      38.886  33.533  37.894  1.00  0.00     0.173 A 
ATOM     77  F   UNL A   1      41.067  35.618  35.874  1.00  0.00    -0.203 F 
ATOM     78  C   UNL A   1      40.190  35.979  38.029  1.00  0.00     0.198 A 
ATOM     79  C   UNL A   1      38.754  34.336  39.026  1.00  0.00     0.198 A 
ATOM     80  F   UNL A   1      38.247  32.355  37.861  1.00  0.00    -0.203 F 
ATOM     81  F   UNL A   1      40.851  37.143  38.103  1.00  0.00    -0.200 F 
ATOM     82  C   UNL A   1      39.413  35.555  39.097  1.00  0.00     0.200 A 
ATOM     83  F   UNL A   1      37.991  33.929  40.049  1.00  0.00    -0.200 F 
ATOM     84  F   UNL A   1      39.306  36.315  40.194  1.00  0.00    -0.200 F 
ENDBRANCH  50  74
BRANCH  62  85
ATOM     85  C   UNL A   1      44.063  28.843  35.001  1.00  0.00     0.064 A 
ATOM     86  C   UNL A   1      43.956  27.750  35.870  1.00  0.00     0.173 A 
ATOM     87  C   UNL A   1      45.347  29.325  34.699  1.00  0.00     0.173 A 
ATOM     88  F   UNL A   1      42.750  27.264  36.198  1.00  0.00    -0.203 F 
ATOM     89  C   UNL A   1      45.092  27.165  36.422  1.00  0.00     0.198 A 
ATOM     90  C   UNL A   1      46.481  28.720  35.231  1.00  0.00     0.198 A 
ATOM     91  F   UNL A   1      45.499  30.365  33.865  1.00  0.00    -0.203 F 
ATOM     92  F   UNL A   1      44.968  26.137  37.275  1.00  0.00    -0.200 F 
ATOM     93  C   UNL A   1      46.353  27.643  36.094  1.00  0.00     0.200 A 
ATOM     94  F   UNL A   1      47.698  29.174  34.900  1.00  0.00    -0.200 F 
ATOM     95  F   UNL A   1      47.446  27.065  36.612  1.00  0.00    -0.200 F 
ENDBRANCH  62  85
ENDBRANCH  36  37
ENDBRANCH  28  31
ENDBRANCH  26  27
ENDBRANCH   1  26
TORSDOF 14
ENDMDL
MODEL 2
REMARK VINA RESULT:     -12.9      0.126      1.943
REMARK SMILES CCc1nc(N2CC[N@H+](CC=C(C)C)[C@H](C(=O)NCCCNC(=O)c3ccc(-c4c5nc(c(-c6c(F)c(F)c(F)c(F)c6F)c6ccc([nH]6)c(-c6c(F)c(F)c(F)c(F)c6F)c6nc(c(-c7c(F)c(F)c(F)c(F)c7F)c7ccc4[nH]7)C=C6)C=C5)cc3)C2)no1
REMARK SMILES IDX 20 1 19 2 18 3 16 4 17 5 15 7 6 8 7 9 88 10 8 11 9 12 5 14
REMARK SMILES IDX 3 15 4 16 90 17 89 18 2 19 1 20 10 21 11 22 12 23 13 24
REMARK SMILES IDX 14 25 21 26 22 27 23 28 24 30 25 31 26 32 87 33 27 34 86 35
REMARK SMILES IDX 28 36 29 37 30 38 80 39 31 40 85 41 79 42 81 43 32 44 84 45
REMARK SMILES IDX 78 46 77 47 33 49 65 50 45 51 64 52 46 53 49 54 63 55 82 56
REMARK SMILES IDX 47 57 48 58 62 60 83 61 50 62 34 63 35 64 43 65 36 66 37 67
REMARK SMILES IDX 41 68 44 69 38 70 39 71 42 72 40 73 66 74 67 75 75 76 68 77
REMARK SMILES IDX 69 78 73 79 76 80 70 81 71 82 74 83 72 84 51 85 52 86 60 87
REMARK SMILES IDX 53 88 54 89 58 90 61 91 55 92 56 93 59 94 57 95
REMARK H PARENT 18 6 9 13 22 29 81 48 49 59
REMARK Flexibility Score: inf
ROOT
ATOM      1  C   UNL A   1      31.717  31.506  26.677  1.00  0.00     0.042 C 
ENDROOT
BRANCH   1   2
ATOM      2  C   UNL A   1      32.121  30.103  26.275  1.00  0.00     0.118 C 
BRANCH   2   3
ATOM      3  N   UNL A   1      33.033  30.043  25.140  1.00  0.00    -0.351 N 
ATOM      4  C   UNL A   1      33.065  29.097  24.140  1.00  0.00     0.280 C 
ATOM      5  O   UNL A   1      33.794  29.309  23.169  1.00  0.00    -0.268 OA
ATOM      6  H   UNL A   1      33.704  30.761  25.083  1.00  0.00     0.163 HD
BRANCH   4   7
ATOM      7  C   UNL A   1      32.253  27.799  24.303  1.00  0.00     0.294 C 
ATOM      8  N   UNL A   1      31.960  25.417  23.565  1.00  0.00    -0.326 N 
ATOM      9  C   UNL A   1      30.504  25.570  23.673  1.00  0.00     0.181 C 
ATOM     10  C   UNL A   1      32.802  26.626  23.453  1.00  0.00     0.195 C 
ATOM     11  C   UNL A   1      30.082  26.796  24.494  1.00  0.00     0.284 C 
ATOM     12  N   UNL A   1      30.792  28.033  24.166  1.00  0.00    -0.318 N 
ATOM     13  H   UNL A   1      30.556  28.749  24.852  1.00  0.00     0.349 HD
BRANCH   8  14
ATOM     14  C   UNL A   1      32.396  24.249  23.036  1.00  0.00     0.266 A 
ATOM     15  C   UNL A   1      32.398  22.193  22.658  1.00  0.00     0.227 A 
ATOM     16  N   UNL A   1      31.951  23.057  23.544  1.00  0.00    -0.176 NA
ATOM     17  O   UNL A   1      33.172  22.763  21.694  1.00  0.00    -0.337 OA
ATOM     18  N   UNL A   1      33.154  24.124  21.936  1.00  0.00    -0.038 NA
BRANCH  15  19
ATOM     19  C   UNL A   1      32.090  20.748  22.512  1.00  0.00     0.097 C 
ATOM     20  C   UNL A   1      32.438  19.923  23.744  1.00  0.00     0.014 C 
ENDBRANCH  15  19
ENDBRANCH   8  14
BRANCH  12  21
ATOM     21  C   UNL A   1      30.310  28.751  22.990  1.00  0.00     0.291 C 
BRANCH  21  22
ATOM     22  C   UNL A   1      29.563  30.029  23.203  1.00  0.00     0.032 C 
ATOM     23  C   UNL A   1      28.222  30.166  23.245  1.00  0.00    -0.075 C 
ATOM     24  C   UNL A   1      27.594  31.518  23.429  1.00  0.00     0.039 C 
ATOM     25  C   UNL A   1      27.267  29.020  23.059  1.00  0.00     0.039 C 
ENDBRANCH  21  22
ENDBRANCH  12  21
ENDBRANCH   4   7
ENDBRANCH   2   3
ENDBRANCH   1   2
BRANCH   1  26
ATOM     26  C   UNL A   1      32.851  32.331  27.258  1.00  0.00     0.118 C 
BRANCH  26  27
ATOM     27  N   UNL A   1      32.482  33.713  27.547  1.00  0.00    -0.352 N 
ATOM     28  C   UNL A   1      32.999  34.612  28.458  1.00  0.00     0.251 C 
ATOM     29  H   UNL A   1      31.740  34.062  27.002  1.00  0.00     0.163 HD
ATOM     30  O   UNL A   1      32.455  35.692  28.633  1.00  0.00    -0.269 OA
BRANCH  28  31
ATOM     31  C   UNL A   1      34.192  34.249  29.255  1.00  0.00     0.039 A 
ATOM     32  C   UNL A   1      34.027  33.634  30.500  1.00  0.00     0.014 A 
ATOM     33  C   UNL A   1      35.472  34.490  28.764  1.00  0.00     0.014 A 
ATOM     34  C   UNL A   1      35.146  33.164  31.195  1.00  0.00     0.010 A 
ATOM     35  C   UNL A   1      36.566  33.905  29.384  1.00  0.00     0.010 A 
ATOM     36  C   UNL A   1      36.420  33.246  30.614  1.00  0.00    -0.014 A 
BRANCH  36  37
ATOM     37  C   UNL A   1      37.641  32.703  31.264  1.00  0.00     0.031 A 
ATOM     38  C   UNL A   1      38.393  31.588  30.585  1.00  0.00     0.074 A 
ATOM     39  C   UNL A   1      37.998  33.108  32.499  1.00  0.00     0.049 A 
ATOM     40  N   UNL A   1      39.325  30.802  31.060  1.00  0.00    -0.248 NA
ATOM     41  C   UNL A   1      37.999  31.280  29.200  1.00  0.00     0.031 C 
ATOM     42  C   UNL A   1      37.331  34.149  33.280  1.00  0.00     0.029 A 
ATOM     43  N   UNL A   1      39.003  32.667  33.325  1.00  0.00    -0.354 N 
ATOM     44  C   UNL A   1      39.586  29.882  30.054  1.00  0.00     0.074 A 
ATOM     45  C   UNL A   1      38.679  30.168  28.966  1.00  0.00     0.031 C 
ATOM     46  C   UNL A   1      37.954  34.279  34.463  1.00  0.00     0.029 A 
ATOM     47  C   UNL A   1      39.029  33.297  34.546  1.00  0.00     0.049 A 
ATOM     48  H   UNL A   1      39.644  31.965  33.067  1.00  0.00     0.167 HD
ATOM     49  C   UNL A   1      40.519  28.900  30.028  1.00  0.00     0.037 A 
ATOM     50  C   UNL A   1      39.821  33.089  35.616  1.00  0.00     0.037 A 
ATOM     51  C   UNL A   1      41.463  28.664  31.085  1.00  0.00     0.049 A 
ATOM     52  C   UNL A   1      40.872  32.012  35.552  1.00  0.00     0.074 A 
ATOM     53  C   UNL A   1      42.493  27.745  31.133  1.00  0.00     0.029 A 
ATOM     54  N   UNL A   1      41.498  29.373  32.278  1.00  0.00    -0.354 N 
ATOM     55  N   UNL A   1      41.139  31.174  34.581  1.00  0.00    -0.248 NA
ATOM     56  C   UNL A   1      41.734  31.854  36.732  1.00  0.00     0.031 C 
ATOM     57  C   UNL A   1      43.134  27.873  32.369  1.00  0.00     0.029 A 
ATOM     58  C   UNL A   1      42.532  28.905  33.070  1.00  0.00     0.049 A 
ATOM     59  H   UNL A   1      40.881  30.098  32.525  1.00  0.00     0.167 HD
ATOM     60  C   UNL A   1      42.223  30.421  35.012  1.00  0.00     0.074 A 
ATOM     61  C   UNL A   1      42.564  30.899  36.335  1.00  0.00     0.031 C 
ATOM     62  C   UNL A   1      42.878  29.424  34.368  1.00  0.00     0.037 A 
BRANCH  49  63
ATOM     63  C   UNL A   1      40.567  28.019  28.814  1.00  0.00     0.064 A 
ATOM     64  C   UNL A   1      39.844  26.818  28.744  1.00  0.00     0.173 A 
ATOM     65  C   UNL A   1      41.326  28.391  27.695  1.00  0.00     0.173 A 
ATOM     66  F   UNL A   1      39.112  26.408  29.792  1.00  0.00    -0.203 F 
ATOM     67  C   UNL A   1      39.909  26.005  27.616  1.00  0.00     0.198 A 
ATOM     68  C   UNL A   1      41.361  27.594  26.553  1.00  0.00     0.198 A 
ATOM     69  F   UNL A   1      42.032  29.532  27.704  1.00  0.00    -0.203 F 
ATOM     70  F   UNL A   1      39.257  24.834  27.598  1.00  0.00    -0.200 F 
ATOM     71  C   UNL A   1      40.661  26.397  26.519  1.00  0.00     0.200 A 
ATOM     72  F   UNL A   1      42.077  27.980  25.489  1.00  0.00    -0.200 F 
ATOM     73  F   UNL A   1      40.717  25.616  25.431  1.00  0.00    -0.200 F 
ENDBRANCH  49  63
BRANCH  50  74
ATOM     74  C   UNL A   1      39.672  33.935  36.829  1.00  0.00     0.064 A 
ATOM     75  C   UNL A   1      38.872  33.514  37.901  1.00  0.00     0.173 A 
ATOM     76  C   UNL A   1      40.315  35.176  36.945  1.00  0.00     0.173 A 
ATOM     77  F   UNL A   1      38.221  32.345  37.830  1.00  0.00    -0.203 F 
ATOM     78  C   UNL A   1      38.704  34.310  39.032  1.00  0.00     0.198 A 
ATOM     79  C   UNL A   1      40.168  35.959  38.089  1.00  0.00     0.198 A 
ATOM     80  F   UNL A   1      41.097  35.623  35.952  1.00  0.00    -0.203 F 
ATOM     81  F   UNL A   1      37.897  33.903  40.022  1.00  0.00    -0.200 F 
ATOM     82  C   UNL A   1      39.356  35.530  39.128  1.00  0.00     0.200 A 
ATOM     83  F   UNL A   1      40.813  37.130  38.183  1.00  0.00    -0.200 F 
ATOM     84  F   UNL A   1      39.197  36.294  40.216  1.00  0.00    -0.200 F 
ENDBRANCH  50  74
BRANCH  62  85
ATOM     85  C   UNL A   1      44.076  28.829  35.045  1.00  0.00     0.064 A 
ATOM     86  C   UNL A   1      45.361  29.359  34.870  1.00  0.00     0.173 A 
ATOM     87  C   UNL A   1      43.915  27.767  35.948  1.00  0.00     0.173 A 
ATOM     88  F   UNL A   1      45.566  30.365  34.008  1.00  0.00    -0.203 F 
ATOM     89  C   UNL A   1      46.446  28.838  35.570  1.00  0.00     0.198 A 
ATOM     90  C   UNL A   1      44.997  27.269  36.666  1.00  0.00     0.198 A 
ATOM     91  F   UNL A   1      42.701  27.233  36.154  1.00  0.00    -0.203 F 
ATOM     92  F   UNL A   1      47.674  29.340  35.369  1.00  0.00    -0.200 F 
ATOM     93  C   UNL A   1      46.262  27.802  36.475  1.00  0.00     0.200 A 
ATOM     94  F   UNL A   1      44.813  26.278  37.551  1.00  0.00    -0.200 F 
ATOM     95  F   UNL A   1      47.305  27.317  37.162  1.00  0.00    -0.200 F 
ENDBRANCH  62  85
ENDBRANCH  36  37
ENDBRANCH  28  31
ENDBRANCH  26  27
ENDBRANCH   1  26
TORSDOF 14
ENDMDL
MODEL 3
REMARK VINA RESULT:     -12.9      5.546     11.296
REMARK SMILES CCc1nc(N2CC[N@H+](CC=C(C)C)[C@H](C(=O)NCCCNC(=O)c3ccc(-c4c5nc(c(-c6c(F)c(F)c(F)c(F)c6F)c6ccc([nH]6)c(-c6c(F)c(F)c(F)c(F)c6F)c6nc(c(-c7c(F)c(F)c(F)c(F)c7F)c7ccc4[nH]7)C=C6)C=C5)cc3)C2)no1
REMARK SMILES IDX 20 1 19 2 18 3 16 4 17 5 15 7 6 8 7 9 88 10 8 11 9 12 5 14
REMARK SMILES IDX 3 15 4 16 90 17 89 18 2 19 1 20 10 21 11 22 12 23 13 24
REMARK SMILES IDX 14 25 21 26 22 27 23 28 24 30 25 31 26 32 87 33 27 34 86 35
REMARK SMILES IDX 28 36 29 37 30 38 80 39 31 40 85 41 79 42 81 43 32 44 84 45
REMARK SMILES IDX 78 46 77 47 33 49 65 50 45 51 64 52 46 53 49 54 63 55 82 56
REMARK SMILES IDX 47 57 48 58 62 60 83 61 50 62 34 63 35 64 43 65 36 66 37 67
REMARK SMILES IDX 41 68 44 69 38 70 39 71 42 72 40 73 66 74 67 75 75 76 68 77
REMARK SMILES IDX 69 78 73 79 76 80 70 81 71 82 74 83 72 84 51 85 52 86 60 87
REMARK SMILES IDX 53 88 54 89 58 90 61 91 55 92 56 93 59 94 57 95
REMARK H PARENT 18 6 9 13 22 29 81 48 49 59
REMARK Flexibility Score: inf
ROOT
ATOM      1  C   UNL A   1      37.820  20.129  24.990  1.00  0.00     0.042 C 
ENDROOT
BRANCH   1   2
ATOM      2  C   UNL A   1      36.782  21.230  25.042  1.00  0.00     0.118 C 
BRANCH   2   3
ATOM      3  N   UNL A   1      36.054  21.311  26.302  1.00  0.00    -0.351 N 
ATOM      4  C   UNL A   1      34.728  21.636  26.484  1.00  0.00     0.280 C 
ATOM      5  O   UNL A   1      34.245  21.482  27.607  1.00  0.00    -0.268 OA
ATOM      6  H   UNL A   1      36.569  21.111  27.116  1.00  0.00     0.163 HD
BRANCH   4   7
ATOM      7  C   UNL A   1      33.930  22.236  25.311  1.00  0.00     0.294 C 
ATOM      8  N   UNL A   1      31.996  23.686  24.631  1.00  0.00    -0.326 N 
ATOM      9  C   UNL A   1      31.732  22.790  23.498  1.00  0.00     0.181 C 
ATOM     10  C   UNL A   1      32.796  23.187  25.768  1.00  0.00     0.195 C 
ATOM     11  C   UNL A   1      32.909  21.860  23.173  1.00  0.00     0.284 C 
ATOM     12  N   UNL A   1      33.513  21.200  24.331  1.00  0.00    -0.318 N 
ATOM     13  H   UNL A   1      34.368  20.726  24.041  1.00  0.00     0.349 HD
BRANCH   8  14
ATOM     14  C   UNL A   1      31.086  24.668  24.834  1.00  0.00     0.266 A 
ATOM     15  C   UNL A   1      29.697  26.139  24.309  1.00  0.00     0.227 A 
ATOM     16  N   UNL A   1      30.725  25.494  23.803  1.00  0.00    -0.176 NA
ATOM     17  O   UNL A   1      29.464  25.836  25.616  1.00  0.00    -0.337 OA
ATOM     18  N   UNL A   1      30.372  24.852  25.955  1.00  0.00    -0.038 NA
BRANCH  15  19
ATOM     19  C   UNL A   1      28.723  27.036  23.638  1.00  0.00     0.097 C 
ATOM     20  C   UNL A   1      29.344  28.322  23.108  1.00  0.00     0.014 C 
ENDBRANCH  15  19
ENDBRANCH   8  14
BRANCH  12  21
ATOM     21  C   UNL A   1      32.815  20.016  24.825  1.00  0.00     0.291 C 
BRANCH  21  22
ATOM     22  C   UNL A   1      33.475  18.686  24.649  1.00  0.00     0.032 C 
ATOM     23  C   UNL A   1      33.318  17.855  23.599  1.00  0.00    -0.075 C 
ATOM     24  C   UNL A   1      34.013  16.524  23.563  1.00  0.00     0.039 C 
ATOM     25  C   UNL A   1      32.416  18.156  22.434  1.00  0.00     0.039 C 
ENDBRANCH  21  22
ENDBRANCH  12  21
ENDBRANCH   4   7
ENDBRANCH   2   3
ENDBRANCH   1   2
BRANCH   1  26
ATOM     26  C   UNL A   1      39.094  20.446  25.750  1.00  0.00     0.118 C 
BRANCH  26  27
ATOM     27  N   UNL A   1      40.020  19.322  25.837  1.00  0.00    -0.352 N 
ATOM     28  C   UNL A   1      41.379  19.290  26.075  1.00  0.00     0.251 C 
ATOM     29  H   UNL A   1      39.606  18.439  25.704  1.00  0.00     0.163 HD
ATOM     30  O   UNL A   1      41.997  18.241  25.978  1.00  0.00    -0.269 OA
BRANCH  28  31
ATOM     31  C   UNL A   1      42.098  20.541  26.407  1.00  0.00     0.039 A 
ATOM     32  C   UNL A   1      42.601  21.340  25.377  1.00  0.00     0.014 A 
ATOM     33  C   UNL A   1      42.253  20.938  27.733  1.00  0.00     0.014 A 
ATOM     34  C   UNL A   1      43.158  22.588  25.676  1.00  0.00     0.010 A 
ATOM     35  C   UNL A   1      42.677  22.227  28.018  1.00  0.00     0.010 A 
ATOM     36  C   UNL A   1      43.147  23.065  26.995  1.00  0.00    -0.014 A 
BRANCH  36  37
ATOM     37  C   UNL A   1      43.656  24.409  27.372  1.00  0.00     0.031 A 
ATOM     38  C   UNL A   1      42.689  25.428  27.916  1.00  0.00     0.074 A 
ATOM     39  C   UNL A   1      44.932  24.756  27.114  1.00  0.00     0.049 A 
ATOM     40  N   UNL A   1      42.843  26.716  28.083  1.00  0.00    -0.248 NA
ATOM     41  C   UNL A   1      41.345  24.936  28.263  1.00  0.00     0.031 C 
ATOM     42  C   UNL A   1      45.958  23.877  26.554  1.00  0.00     0.029 A 
ATOM     43  N   UNL A   1      45.576  25.960  27.268  1.00  0.00    -0.354 N 
ATOM     44  C   UNL A   1      41.606  27.189  28.502  1.00  0.00     0.074 A 
ATOM     45  C   UNL A   1      40.699  26.065  28.509  1.00  0.00     0.031 C 
ATOM     46  C   UNL A   1      47.106  24.563  26.427  1.00  0.00     0.029 A 
ATOM     47  C   UNL A   1      46.884  25.943  26.847  1.00  0.00     0.049 A 
ATOM     48  H   UNL A   1      45.143  26.759  27.645  1.00  0.00     0.167 HD
ATOM     49  C   UNL A   1      41.264  28.446  28.873  1.00  0.00     0.037 A 
ATOM     50  C   UNL A   1      47.794  26.936  26.789  1.00  0.00     0.037 A 
ATOM     51  C   UNL A   1      42.189  29.545  28.928  1.00  0.00     0.049 A 
ATOM     52  C   UNL A   1      47.398  28.318  27.237  1.00  0.00     0.074 A 
ATOM     53  C   UNL A   1      41.965  30.840  29.356  1.00  0.00     0.029 A 
ATOM     54  N   UNL A   1      43.524  29.467  28.557  1.00  0.00    -0.354 N 
ATOM     55  N   UNL A   1      46.239  28.746  27.671  1.00  0.00    -0.248 NA
ATOM     56  C   UNL A   1      48.440  29.355  27.191  1.00  0.00     0.031 C 
ATOM     57  C   UNL A   1      43.157  31.556  29.213  1.00  0.00     0.029 A 
ATOM     58  C   UNL A   1      44.134  30.694  28.742  1.00  0.00     0.049 A 
ATOM     59  H   UNL A   1      43.969  28.659  28.213  1.00  0.00     0.167 HD
ATOM     60  C   UNL A   1      46.420  30.086  27.989  1.00  0.00     0.074 A 
ATOM     61  C   UNL A   1      47.802  30.401  27.696  1.00  0.00     0.031 C 
ATOM     62  C   UNL A   1      45.522  30.974  28.481  1.00  0.00     0.037 A 
BRANCH  49  63
ATOM     63  C   UNL A   1      39.834  28.692  29.258  1.00  0.00     0.064 A 
ATOM     64  C   UNL A   1      39.382  28.506  30.573  1.00  0.00     0.173 A 
ATOM     65  C   UNL A   1      38.908  29.143  28.305  1.00  0.00     0.173 A 
ATOM     66  F   UNL A   1      40.223  28.061  31.520  1.00  0.00    -0.203 F 
ATOM     67  C   UNL A   1      38.050  28.726  30.912  1.00  0.00     0.198 A 
ATOM     68  C   UNL A   1      37.584  29.397  28.655  1.00  0.00     0.198 A 
ATOM     69  F   UNL A   1      39.288  29.345  27.035  1.00  0.00    -0.203 F 
ATOM     70  F   UNL A   1      37.629  28.481  32.162  1.00  0.00    -0.200 F 
ATOM     71  C   UNL A   1      37.154  29.178  29.955  1.00  0.00     0.200 A 
ATOM     72  F   UNL A   1      36.724  29.848  27.733  1.00  0.00    -0.200 F 
ATOM     73  F   UNL A   1      35.873  29.396  30.285  1.00  0.00    -0.200 F 
ENDBRANCH  49  63
BRANCH  50  74
ATOM     74  C   UNL A   1      49.175  26.655  26.316  1.00  0.00     0.064 A 
ATOM     75  C   UNL A   1      50.149  26.172  27.201  1.00  0.00     0.173 A 
ATOM     76  C   UNL A   1      49.553  26.863  24.982  1.00  0.00     0.173 A 
ATOM     77  F   UNL A   1      49.841  25.975  28.491  1.00  0.00    -0.203 F 
ATOM     78  C   UNL A   1      51.454  25.929  26.777  1.00  0.00     0.198 A 
ATOM     79  C   UNL A   1      50.851  26.593  24.552  1.00  0.00     0.198 A 
ATOM     80  F   UNL A   1      48.659  27.317  24.093  1.00  0.00    -0.203 F 
ATOM     81  F   UNL A   1      52.376  25.512  27.655  1.00  0.00    -0.200 F 
ATOM     82  C   UNL A   1      51.803  26.135  25.451  1.00  0.00     0.200 A 
ATOM     83  F   UNL A   1      51.180  26.780  23.266  1.00  0.00    -0.200 F 
ATOM     84  F   UNL A   1      53.056  25.899  25.041  1.00  0.00    -0.200 F 
ENDBRANCH  50  74
BRANCH  62  85
ATOM     85  C   UNL A   1      46.015  32.352  28.809  1.00  0.00     0.064 A 
ATOM     86  C   UNL A   1      45.980  33.391  27.870  1.00  0.00     0.173 A 
ATOM     87  C   UNL A   1      46.445  32.650  30.111  1.00  0.00     0.173 A 
ATOM     88  F   UNL A   1      45.588  33.150  26.611  1.00  0.00    -0.203 F 
ATOM     89  C   UNL A   1      46.369  34.680  28.222  1.00  0.00     0.198 A 
ATOM     90  C   UNL A   1      46.807  33.946  30.465  1.00  0.00     0.198 A 
ATOM     91  F   UNL A   1      46.487  31.689  31.046  1.00  0.00    -0.203 F 
ATOM     92  F   UNL A   1      46.356  35.656  27.301  1.00  0.00    -0.200 F 
ATOM     93  C   UNL A   1      46.772  34.959  29.520  1.00  0.00     0.200 A 
ATOM     94  F   UNL A   1      47.180  34.215  31.724  1.00  0.00    -0.200 F 
ATOM     95  F   UNL A   1      47.127  36.205  29.860  1.00  0.00    -0.200 F 
ENDBRANCH  62  85
ENDBRANCH  36  37
ENDBRANCH  28  31
ENDBRANCH  26  27
ENDBRANCH   1  26
TORSDOF 14
ENDMDL
