MODEL 1
REMARK VINA RESULT:     -13.9      0.000      0.000
REMARK SMILES CN1C(=O)c2ccc(NC(=O)C[C@@](C)(C(=O)NCCCNC(=O)c3ccc(-c4c5nc(c(-c6c(F)c(F)c(F)c(F)c6F)c6ccc([nH]6)c(-c6c(F)c(F)c(F)c(F)c6F)c6nc(c(-c7c(F)c(F)c(F)c(F)c7F)c7ccc4[nH]7)C=C6)C=C5)cc3)c3ccccc3)cc2C1=O
REMARK SMILES IDX 18 1 17 2 15 3 16 4 13 6 14 7 12 8 10 9 9 10 11 12 8 13 1 14
REMARK SMILES IDX 2 15 3 16 95 17 4 18 5 19 94 20 96 21 6 22 93 23 7 24 87 25
REMARK SMILES IDX 88 26 92 27 89 28 91 29 90 30 19 31 20 32 21 33 22 34 23 36
REMARK SMILES IDX 24 37 25 38 86 39 26 40 85 41 27 42 28 43 29 44 79 45 30 46
REMARK SMILES IDX 84 47 78 48 80 49 31 50 83 51 77 52 76 53 32 55 64 56 44 57
REMARK SMILES IDX 63 58 45 59 48 60 62 61 81 62 46 63 47 64 61 66 82 67 49 68
REMARK SMILES IDX 33 69 34 70 42 71 35 72 36 73 40 74 43 75 37 76 38 77 41 78
REMARK SMILES IDX 39 79 65 80 66 81 74 82 67 83 68 84 72 85 75 86 69 87 70 88
REMARK SMILES IDX 73 89 71 90 50 91 51 92 59 93 52 94 53 95 57 96 60 97 54 98
REMARK SMILES IDX 55 99 58 100 56 101
REMARK H PARENT 17 5 9 11 21 35 80 54 48 65
REMARK Flexibility Score: inf
ROOT
ATOM      1  C   UNL A   1      35.115  21.151  24.593  1.00  0.00     0.117 C 
ENDROOT
BRANCH   1   2
ATOM      2  N   UNL A   1      33.903  20.480  25.044  1.00  0.00    -0.355 N 
ATOM      3  C   UNL A   1      32.637  20.852  25.381  1.00  0.00     0.230 C 
ATOM      4  O   UNL A   1      31.844  19.901  25.300  1.00  0.00    -0.274 OA
ATOM      5  H   UNL A   1      34.032  19.507  25.125  1.00  0.00     0.163 HD
BRANCH   3   6
ATOM      6  C   UNL A   1      32.130  22.310  25.715  1.00  0.00     0.080 C 
ATOM      7  C   UNL A   1      32.880  22.632  27.027  1.00  0.00     0.027 C 
BRANCH   6   8
ATOM      8  C   UNL A   1      30.582  22.386  25.756  1.00  0.00     0.121 C 
BRANCH   8   9
ATOM      9  C   UNL A   1      29.849  23.153  26.843  1.00  0.00     0.225 C 
ATOM     10  N   UNL A   1      29.684  24.508  26.879  1.00  0.00    -0.326 N 
ATOM     11  H   UNL A   1      29.282  24.806  27.727  1.00  0.00     0.169 HD
ATOM     12  O   UNL A   1      29.405  22.537  27.821  1.00  0.00    -0.275 OA
BRANCH  10  13
ATOM     13  C   UNL A   1      29.945  25.588  26.014  1.00  0.00     0.042 A 
ATOM     14  C   UNL A   1      33.554  29.188  22.852  1.00  0.00     0.157 C 
ATOM     15  N   UNL A   1      32.495  28.473  23.523  1.00  0.00    -0.277 N 
ATOM     16  C   UNL A   1      31.321  28.097  22.922  1.00  0.00     0.261 C 
ATOM     17  C   UNL A   1      32.581  28.016  24.804  1.00  0.00     0.261 C 
ATOM     18  O   UNL A   1      30.929  28.313  21.799  1.00  0.00    -0.269 OA
ATOM     19  C   UNL A   1      30.595  27.292  23.909  1.00  0.00     0.053 A 
ATOM     20  C   UNL A   1      31.358  27.251  25.053  1.00  0.00     0.055 A 
ATOM     21  O   UNL A   1      33.490  28.134  25.606  1.00  0.00    -0.269 OA
ATOM     22  C   UNL A   1      29.428  26.565  23.810  1.00  0.00     0.017 A 
ATOM     23  C   UNL A   1      31.021  26.455  26.134  1.00  0.00     0.040 A 
ATOM     24  C   UNL A   1      29.108  25.707  24.877  1.00  0.00     0.027 A 
ENDBRANCH  10  13
ENDBRANCH   8   9
ENDBRANCH   6   8
BRANCH   6  25
ATOM     25  C   UNL A   1      32.613  23.371  24.669  1.00  0.00    -0.032 A 
ATOM     26  C   UNL A   1      31.997  23.537  23.417  1.00  0.00     0.005 A 
ATOM     27  C   UNL A   1      33.721  24.200  24.949  1.00  0.00     0.005 A 
ATOM     28  C   UNL A   1      32.521  24.408  22.456  1.00  0.00     0.000 A 
ATOM     29  C   UNL A   1      34.231  25.087  23.998  1.00  0.00     0.000 A 
ATOM     30  C   UNL A   1      33.644  25.176  22.743  1.00  0.00     0.000 A 
ENDBRANCH   6  25
ENDBRANCH   3   6
ENDBRANCH   1   2
BRANCH   1  31
ATOM     31  C   UNL A   1      36.104  21.451  25.711  1.00  0.00     0.042 C 
BRANCH  31  32
ATOM     32  C   UNL A   1      37.493  21.812  25.206  1.00  0.00     0.118 C 
BRANCH  32  33
ATOM     33  N   UNL A   1      38.518  20.840  25.575  1.00  0.00    -0.352 N 
ATOM     34  C   UNL A   1      39.692  20.962  26.285  1.00  0.00     0.251 C 
ATOM     35  H   UNL A   1      38.335  19.926  25.258  1.00  0.00     0.163 HD
ATOM     36  O   UNL A   1      40.446  19.997  26.383  1.00  0.00    -0.269 OA
BRANCH  34  37
ATOM     37  C   UNL A   1      40.109  22.261  26.866  1.00  0.00     0.039 A 
ATOM     38  C   UNL A   1      41.102  22.270  27.853  1.00  0.00     0.014 A 
ATOM     39  C   UNL A   1      39.558  23.468  26.447  1.00  0.00     0.014 A 
ATOM     40  C   UNL A   1      41.632  23.483  28.305  1.00  0.00     0.010 A 
ATOM     41  C   UNL A   1      40.167  24.669  26.801  1.00  0.00     0.010 A 
ATOM     42  C   UNL A   1      41.227  24.691  27.718  1.00  0.00    -0.014 A 
BRANCH  42  43
ATOM     43  C   UNL A   1      41.909  25.984  28.004  1.00  0.00     0.031 A 
ATOM     44  C   UNL A   1      41.178  27.081  28.731  1.00  0.00     0.074 A 
ATOM     45  C   UNL A   1      43.136  26.220  27.495  1.00  0.00     0.049 A 
ATOM     46  N   UNL A   1      41.515  28.336  28.894  1.00  0.00    -0.248 NA
ATOM     47  C   UNL A   1      39.875  26.730  29.315  1.00  0.00     0.031 C 
ATOM     48  C   UNL A   1      43.936  25.264  26.726  1.00  0.00     0.029 A 
ATOM     49  N   UNL A   1      43.918  27.350  27.525  1.00  0.00    -0.354 N 
ATOM     50  C   UNL A   1      40.451  28.928  29.561  1.00  0.00     0.074 A 
ATOM     51  C   UNL A   1      39.439  27.909  29.732  1.00  0.00     0.031 C 
ATOM     52  C   UNL A   1      45.097  25.837  26.377  1.00  0.00     0.029 A 
ATOM     53  C   UNL A   1      45.104  27.218  26.844  1.00  0.00     0.049 A 
ATOM     54  H   UNL A   1      43.653  28.176  27.990  1.00  0.00     0.167 HD
ATOM     55  C   UNL A   1      40.338  30.201  30.011  1.00  0.00     0.037 A 
ATOM     56  C   UNL A   1      46.079  28.115  26.599  1.00  0.00     0.037 A 
ATOM     57  C   UNL A   1      41.369  31.197  29.890  1.00  0.00     0.049 A 
ATOM     58  C   UNL A   1      45.928  29.522  27.107  1.00  0.00     0.074 A 
ATOM     59  C   UNL A   1      41.390  32.482  30.400  1.00  0.00     0.029 A 
ATOM     60  N   UNL A   1      42.565  31.016  29.211  1.00  0.00    -0.354 N 
ATOM     61  N   UNL A   1      44.944  30.051  27.792  1.00  0.00    -0.248 NA
ATOM     62  C   UNL A   1      47.018  30.460  26.799  1.00  0.00     0.031 C 
ATOM     63  C   UNL A   1      42.582  33.094  29.996  1.00  0.00     0.029 A 
ATOM     64  C   UNL A   1      43.319  32.176  29.266  1.00  0.00     0.049 A 
ATOM     65  H   UNL A   1      42.837  30.185  28.757  1.00  0.00     0.167 HD
ATOM     66  C   UNL A   1      45.301  31.375  28.009  1.00  0.00     0.074 A 
ATOM     67  C   UNL A   1      46.602  31.565  27.400  1.00  0.00     0.031 C 
ATOM     68  C   UNL A   1      44.611  32.347  28.653  1.00  0.00     0.037 A 
BRANCH  55  69
ATOM     69  C   UNL A   1      39.057  30.588  30.690  1.00  0.00     0.064 A 
ATOM     70  C   UNL A   1      38.909  30.510  32.083  1.00  0.00     0.173 A 
ATOM     71  C   UNL A   1      37.975  31.078  29.942  1.00  0.00     0.173 A 
ATOM     72  F   UNL A   1      39.910  30.039  32.842  1.00  0.00    -0.203 F 
ATOM     73  C   UNL A   1      37.716  30.878  32.699  1.00  0.00     0.198 A 
ATOM     74  C   UNL A   1      36.793  31.474  30.566  1.00  0.00     0.198 A 
ATOM     75  F   UNL A   1      38.064  31.180  28.608  1.00  0.00    -0.203 F 
ATOM     76  F   UNL A   1      37.582  30.747  34.027  1.00  0.00    -0.200 F 
ATOM     77  C   UNL A   1      36.662  31.365  31.942  1.00  0.00     0.200 A 
ATOM     78  F   UNL A   1      35.780  31.957  29.834  1.00  0.00    -0.200 F 
ATOM     79  F   UNL A   1      35.517  31.724  32.538  1.00  0.00    -0.200 F 
ENDBRANCH  55  69
BRANCH  56  80
ATOM     80  C   UNL A   1      47.288  27.709  25.834  1.00  0.00     0.064 A 
ATOM     81  C   UNL A   1      47.287  27.732  24.433  1.00  0.00     0.173 A 
ATOM     82  C   UNL A   1      48.462  27.295  26.480  1.00  0.00     0.173 A 
ATOM     83  F   UNL A   1      46.181  28.100  23.770  1.00  0.00    -0.203 F 
ATOM     84  C   UNL A   1      48.410  27.340  23.706  1.00  0.00     0.198 A 
ATOM     85  C   UNL A   1      49.593  26.930  25.753  1.00  0.00     0.198 A 
ATOM     86  F   UNL A   1      48.515  27.261  27.820  1.00  0.00    -0.203 F 
ATOM     87  F   UNL A   1      48.369  27.332  22.367  1.00  0.00    -0.200 F 
ATOM     88  C   UNL A   1      49.563  26.945  24.366  1.00  0.00     0.200 A 
ATOM     89  F   UNL A   1      50.710  26.563  26.395  1.00  0.00    -0.200 F 
ATOM     90  F   UNL A   1      50.644  26.574  23.667  1.00  0.00    -0.200 F 
ENDBRANCH  56  80
BRANCH  68  91
ATOM     91  C   UNL A   1      45.249  33.700  28.742  1.00  0.00     0.064 A 
ATOM     92  C   UNL A   1      44.988  34.694  27.787  1.00  0.00     0.173 A 
ATOM     93  C   UNL A   1      46.081  34.027  29.824  1.00  0.00     0.173 A 
ATOM     94  F   UNL A   1      44.213  34.424  26.727  1.00  0.00    -0.203 F 
ATOM     95  C   UNL A   1      45.547  35.963  27.907  1.00  0.00     0.198 A 
ATOM     96  C   UNL A   1      46.617  35.304  29.953  1.00  0.00     0.198 A 
ATOM     97  F   UNL A   1      46.357  33.111  30.765  1.00  0.00    -0.203 F 
ATOM     98  F   UNL A   1      45.312  36.887  26.966  1.00  0.00    -0.200 F 
ATOM     99  C   UNL A   1      46.353  36.270  28.994  1.00  0.00     0.200 A 
ATOM    100  F   UNL A   1      47.386  35.603  31.010  1.00  0.00    -0.200 F 
ATOM    101  F   UNL A   1      46.880  37.496  29.113  1.00  0.00    -0.200 F 
ENDBRANCH  68  91
ENDBRANCH  42  43
ENDBRANCH  34  37
ENDBRANCH  32  33
ENDBRANCH  31  32
ENDBRANCH   1  31
TORSDOF 14
ENDMDL
MODEL 2
REMARK VINA RESULT:     -13.8      4.735     10.319
REMARK SMILES CN1C(=O)c2ccc(NC(=O)C[C@@](C)(C(=O)NCCCNC(=O)c3ccc(-c4c5nc(c(-c6c(F)c(F)c(F)c(F)c6F)c6ccc([nH]6)c(-c6c(F)c(F)c(F)c(F)c6F)c6nc(c(-c7c(F)c(F)c(F)c(F)c7F)c7ccc4[nH]7)C=C6)C=C5)cc3)c3ccccc3)cc2C1=O
REMARK SMILES IDX 18 1 17 2 15 3 16 4 13 6 14 7 12 8 10 9 9 10 11 12 8 13 1 14
REMARK SMILES IDX 2 15 3 16 95 17 4 18 5 19 94 20 96 21 6 22 93 23 7 24 87 25
REMARK SMILES IDX 88 26 92 27 89 28 91 29 90 30 19 31 20 32 21 33 22 34 23 36
REMARK SMILES IDX 24 37 25 38 86 39 26 40 85 41 27 42 28 43 29 44 79 45 30 46
REMARK SMILES IDX 84 47 78 48 80 49 31 50 83 51 77 52 76 53 32 55 64 56 44 57
REMARK SMILES IDX 63 58 45 59 48 60 62 61 81 62 46 63 47 64 61 66 82 67 49 68
REMARK SMILES IDX 33 69 34 70 42 71 35 72 36 73 40 74 43 75 37 76 38 77 41 78
REMARK SMILES IDX 39 79 65 80 66 81 74 82 67 83 68 84 72 85 75 86 69 87 70 88
REMARK SMILES IDX 73 89 71 90 50 91 51 92 59 93 52 94 53 95 57 96 60 97 54 98
REMARK SMILES IDX 55 99 58 100 56 101
REMARK H PARENT 17 5 9 11 21 35 80 54 48 65
REMARK Flexibility Score: inf
ROOT
ATOM      1  C   UNL A   1      32.200  30.469  26.265  1.00  0.00     0.117 C 
ENDROOT
BRANCH   1   2
ATOM      2  N   UNL A   1      31.697  29.400  27.119  1.00  0.00    -0.355 N 
ATOM      3  C   UNL A   1      31.704  28.039  27.100  1.00  0.00     0.230 C 
ATOM      4  O   UNL A   1      31.522  27.566  28.234  1.00  0.00    -0.274 OA
ATOM      5  H   UNL A   1      31.233  29.753  27.911  1.00  0.00     0.163 HD
BRANCH   3   6
ATOM      6  C   UNL A   1      32.026  27.103  25.869  1.00  0.00     0.080 C 
ATOM      7  C   UNL A   1      33.556  27.257  25.724  1.00  0.00     0.027 C 
BRANCH   6   8
ATOM      8  C   UNL A   1      31.164  27.463  24.632  1.00  0.00     0.121 C 
BRANCH   8   9
ATOM      9  C   UNL A   1      31.785  27.671  23.261  1.00  0.00     0.225 C 
ATOM     10  N   UNL A   1      32.442  26.717  22.538  1.00  0.00    -0.326 N 
ATOM     11  H   UNL A   1      32.864  27.093  21.733  1.00  0.00     0.169 HD
ATOM     12  O   UNL A   1      31.763  28.801  22.754  1.00  0.00    -0.275 OA
BRANCH  10  13
ATOM     13  C   UNL A   1      32.672  25.332  22.654  1.00  0.00     0.042 A 
ATOM     14  C   UNL A   1      35.336  20.508  25.022  1.00  0.00     0.157 C 
ATOM     15  N   UNL A   1      34.575  21.498  24.299  1.00  0.00    -0.277 N 
ATOM     16  C   UNL A   1      33.234  21.392  24.034  1.00  0.00     0.261 C 
ATOM     17  C   UNL A   1      35.086  22.688  23.876  1.00  0.00     0.261 C 
ATOM     18  O   UNL A   1      32.470  20.489  24.285  1.00  0.00    -0.269 OA
ATOM     19  C   UNL A   1      32.840  22.656  23.404  1.00  0.00     0.053 A 
ATOM     20  C   UNL A   1      33.967  23.437  23.302  1.00  0.00     0.055 A 
ATOM     21  O   UNL A   1      36.218  23.123  23.982  1.00  0.00    -0.269 OA
ATOM     22  C   UNL A   1      31.603  23.144  23.040  1.00  0.00     0.017 A 
ATOM     23  C   UNL A   1      33.913  24.753  22.875  1.00  0.00     0.040 A 
ATOM     24  C   UNL A   1      31.528  24.497  22.663  1.00  0.00     0.027 A 
ENDBRANCH  10  13
ENDBRANCH   8   9
ENDBRANCH   6   8
BRANCH   6  25
ATOM     25  C   UNL A   1      31.772  25.589  26.180  1.00  0.00    -0.032 A 
ATOM     26  C   UNL A   1      30.491  25.012  26.143  1.00  0.00     0.005 A 
ATOM     27  C   UNL A   1      32.843  24.742  26.536  1.00  0.00     0.005 A 
ATOM     28  C   UNL A   1      30.276  23.687  26.539  1.00  0.00     0.000 A 
ATOM     29  C   UNL A   1      32.632  23.412  26.910  1.00  0.00     0.000 A 
ATOM     30  C   UNL A   1      31.345  22.890  26.932  1.00  0.00     0.000 A 
ENDBRANCH   6  25
ENDBRANCH   3   6
ENDBRANCH   1   2
BRANCH   1  31
ATOM     31  C   UNL A   1      31.763  31.860  26.699  1.00  0.00     0.042 C 
BRANCH  31  32
ATOM     32  C   UNL A   1      32.865  32.651  27.390  1.00  0.00     0.118 C 
BRANCH  32  33
ATOM     33  N   UNL A   1      32.480  34.019  27.723  1.00  0.00    -0.352 N 
ATOM     34  C   UNL A   1      33.027  34.947  28.581  1.00  0.00     0.251 C 
ATOM     35  H   UNL A   1      31.680  34.337  27.245  1.00  0.00     0.163 HD
ATOM     36  O   UNL A   1      32.454  36.019  28.762  1.00  0.00    -0.269 OA
BRANCH  34  37
ATOM     37  C   UNL A   1      34.254  34.649  29.358  1.00  0.00     0.039 A 
ATOM     38  C   UNL A   1      34.125  34.243  30.692  1.00  0.00     0.014 A 
ATOM     39  C   UNL A   1      35.524  34.742  28.797  1.00  0.00     0.014 A 
ATOM     40  C   UNL A   1      35.246  33.799  31.402  1.00  0.00     0.010 A 
ATOM     41  C   UNL A   1      36.617  34.187  29.456  1.00  0.00     0.010 A 
ATOM     42  C   UNL A   1      36.488  33.687  30.760  1.00  0.00    -0.014 A 
BRANCH  42  43
ATOM     43  C   UNL A   1      37.657  33.022  31.399  1.00  0.00     0.031 A 
ATOM     44  C   UNL A   1      38.302  31.831  30.743  1.00  0.00     0.074 A 
ATOM     45  C   UNL A   1      38.054  33.404  32.631  1.00  0.00     0.049 A 
ATOM     46  N   UNL A   1      39.185  30.994  31.228  1.00  0.00    -0.248 NA
ATOM     47  C   UNL A   1      37.865  31.515  29.375  1.00  0.00     0.031 C 
ATOM     48  C   UNL A   1      37.481  34.509  33.404  1.00  0.00     0.029 A 
ATOM     49  N   UNL A   1      39.018  32.888  33.464  1.00  0.00    -0.354 N 
ATOM     50  C   UNL A   1      39.375  30.035  30.242  1.00  0.00     0.074 A 
ATOM     51  C   UNL A   1      38.485  30.365  29.151  1.00  0.00     0.031 C 
ATOM     52  C   UNL A   1      38.114  34.601  34.582  1.00  0.00     0.029 A 
ATOM     53  C   UNL A   1      39.099  33.528  34.678  1.00  0.00     0.049 A 
ATOM     54  H   UNL A   1      39.596  32.132  33.215  1.00  0.00     0.167 HD
ATOM     55  C   UNL A   1      40.233  28.986  30.236  1.00  0.00     0.037 A 
ATOM     56  C   UNL A   1      39.859  33.266  35.758  1.00  0.00     0.037 A 
ATOM     57  C   UNL A   1      41.158  28.691  31.298  1.00  0.00     0.049 A 
ATOM     58  C   UNL A   1      40.801  32.095  35.728  1.00  0.00     0.074 A 
ATOM     59  C   UNL A   1      42.134  27.713  31.344  1.00  0.00     0.029 A 
ATOM     60  N   UNL A   1      41.221  29.377  32.502  1.00  0.00    -0.354 N 
ATOM     61  N   UNL A   1      41.016  31.234  34.764  1.00  0.00    -0.248 NA
ATOM     62  C   UNL A   1      41.597  31.852  36.940  1.00  0.00     0.031 C 
ATOM     63  C   UNL A   1      42.763  27.780  32.592  1.00  0.00     0.029 A 
ATOM     64  C   UNL A   1      42.203  28.825  33.308  1.00  0.00     0.049 A 
ATOM     65  H   UNL A   1      40.653  30.143  32.746  1.00  0.00     0.167 HD
ATOM     66  C   UNL A   1      41.980  30.359  35.245  1.00  0.00     0.074 A 
ATOM     67  C   UNL A   1      42.323  30.803  36.580  1.00  0.00     0.031 C 
ATOM     68  C   UNL A   1      42.530  29.280  34.635  1.00  0.00     0.037 A 
BRANCH  55  69
ATOM     69  C   UNL A   1      40.221  28.082  29.038  1.00  0.00     0.064 A 
ATOM     70  C   UNL A   1      40.944  28.391  27.876  1.00  0.00     0.173 A 
ATOM     71  C   UNL A   1      39.506  26.874  29.064  1.00  0.00     0.173 A 
ATOM     72  F   UNL A   1      41.635  29.538  27.797  1.00  0.00    -0.203 F 
ATOM     73  C   UNL A   1      40.928  27.541  26.774  1.00  0.00     0.198 A 
ATOM     74  C   UNL A   1      39.517  26.012  27.970  1.00  0.00     0.198 A 
ATOM     75  F   UNL A   1      38.803  26.527  30.151  1.00  0.00    -0.203 F 
ATOM     76  F   UNL A   1      41.586  27.883  25.657  1.00  0.00    -0.200 F 
ATOM     77  C   UNL A   1      40.220  26.350  26.824  1.00  0.00     0.200 A 
ATOM     78  F   UNL A   1      38.843  24.855  28.024  1.00  0.00    -0.200 F 
ATOM     79  F   UNL A   1      40.211  25.530  25.764  1.00  0.00    -0.200 F 
ENDBRANCH  55  69
BRANCH  56  80
ATOM     80  C   UNL A   1      39.764  34.133  36.962  1.00  0.00     0.064 A 
ATOM     81  C   UNL A   1      38.925  33.784  38.029  1.00  0.00     0.173 A 
ATOM     82  C   UNL A   1      40.503  35.319  37.075  1.00  0.00     0.173 A 
ATOM     83  F   UNL A   1      38.181  32.670  37.958  1.00  0.00    -0.203 F 
ATOM     84  C   UNL A   1      38.816  34.596  39.156  1.00  0.00     0.198 A 
ATOM     85  C   UNL A   1      40.416  36.117  38.214  1.00  0.00     0.198 A 
ATOM     86  F   UNL A   1      41.325  35.696  36.084  1.00  0.00    -0.203 F 
ATOM     87  F   UNL A   1      37.975  34.259  40.143  1.00  0.00    -0.200 F 
ATOM     88  C   UNL A   1      39.566  35.758  39.251  1.00  0.00     0.200 A 
ATOM     89  F   UNL A   1      41.153  37.232  38.308  1.00  0.00    -0.200 F 
ATOM     90  F   UNL A   1      39.466  36.536  40.337  1.00  0.00    -0.200 F 
ENDBRANCH  56  80
BRANCH  68  91
ATOM     91  C   UNL A   1      43.564  28.510  35.399  1.00  0.00     0.064 A 
ATOM     92  C   UNL A   1      44.932  28.789  35.260  1.00  0.00     0.173 A 
ATOM     93  C   UNL A   1      43.182  27.525  36.323  1.00  0.00     0.173 A 
ATOM     94  F   UNL A   1      45.345  29.710  34.376  1.00  0.00    -0.203 F 
ATOM     95  C   UNL A   1      45.881  28.102  36.010  1.00  0.00     0.198 A 
ATOM     96  C   UNL A   1      44.133  26.858  37.089  1.00  0.00     0.198 A 
ATOM     97  F   UNL A   1      41.886  27.225  36.494  1.00  0.00    -0.203 F 
ATOM     98  F   UNL A   1      47.184  28.361  35.837  1.00  0.00    -0.200 F 
ATOM     99  C   UNL A   1      45.480  27.144  36.931  1.00  0.00     0.200 A 
ATOM    100  F   UNL A   1      43.744  25.941  37.987  1.00  0.00    -0.200 F 
ATOM    101  F   UNL A   1      46.395  26.493  37.662  1.00  0.00    -0.200 F 
ENDBRANCH  68  91
ENDBRANCH  42  43
ENDBRANCH  34  37
ENDBRANCH  32  33
ENDBRANCH  31  32
ENDBRANCH   1  31
TORSDOF 14
ENDMDL
MODEL 3
REMARK VINA RESULT:     -13.7      4.547      8.546
REMARK SMILES CN1C(=O)c2ccc(NC(=O)C[C@@](C)(C(=O)NCCCNC(=O)c3ccc(-c4c5nc(c(-c6c(F)c(F)c(F)c(F)c6F)c6ccc([nH]6)c(-c6c(F)c(F)c(F)c(F)c6F)c6nc(c(-c7c(F)c(F)c(F)c(F)c7F)c7ccc4[nH]7)C=C6)C=C5)cc3)c3ccccc3)cc2C1=O
REMARK SMILES IDX 18 1 17 2 15 3 16 4 13 6 14 7 12 8 10 9 9 10 11 12 8 13 1 14
REMARK SMILES IDX 2 15 3 16 95 17 4 18 5 19 94 20 96 21 6 22 93 23 7 24 87 25
REMARK SMILES IDX 88 26 92 27 89 28 91 29 90 30 19 31 20 32 21 33 22 34 23 36
REMARK SMILES IDX 24 37 25 38 86 39 26 40 85 41 27 42 28 43 29 44 79 45 30 46
REMARK SMILES IDX 84 47 78 48 80 49 31 50 83 51 77 52 76 53 32 55 64 56 44 57
REMARK SMILES IDX 63 58 45 59 48 60 62 61 81 62 46 63 47 64 61 66 82 67 49 68
REMARK SMILES IDX 33 69 34 70 42 71 35 72 36 73 40 74 43 75 37 76 38 77 41 78
REMARK SMILES IDX 39 79 65 80 66 81 74 82 67 83 68 84 72 85 75 86 69 87 70 88
REMARK SMILES IDX 73 89 71 90 50 91 51 92 59 93 52 94 53 95 57 96 60 97 54 98
REMARK SMILES IDX 55 99 58 100 56 101
REMARK H PARENT 17 5 9 11 21 35 80 54 48 65
REMARK Flexibility Score: inf
ROOT
ATOM      1  C   UNL A   1      31.773  30.713  26.099  1.00  0.00     0.117 C 
ENDROOT
BRANCH   1   2
ATOM      2  N   UNL A   1      31.476  29.619  27.014  1.00  0.00    -0.355 N 
ATOM      3  C   UNL A   1      31.661  28.271  27.031  1.00  0.00     0.230 C 
ATOM      4  O   UNL A   1      31.621  27.819  28.187  1.00  0.00    -0.274 OA
ATOM      5  H   UNL A   1      31.025  29.937  27.829  1.00  0.00     0.163 HD
BRANCH   3   6
ATOM      6  C   UNL A   1      32.017  27.342  25.805  1.00  0.00     0.080 C 
ATOM      7  C   UNL A   1      33.540  27.554  25.656  1.00  0.00     0.027 C 
BRANCH   6   8
ATOM      8  C   UNL A   1      31.141  27.660  24.567  1.00  0.00     0.121 C 
BRANCH   8   9
ATOM      9  C   UNL A   1      31.748  27.857  23.188  1.00  0.00     0.225 C 
ATOM     10  N   UNL A   1      32.401  26.897  22.469  1.00  0.00    -0.326 N 
ATOM     11  H   UNL A   1      32.814  27.266  21.656  1.00  0.00     0.169 HD
ATOM     12  O   UNL A   1      31.720  28.981  22.671  1.00  0.00    -0.275 OA
BRANCH  10  13
ATOM     13  C   UNL A   1      32.633  25.514  22.595  1.00  0.00     0.042 A 
ATOM     14  C   UNL A   1      35.327  20.715  24.984  1.00  0.00     0.157 C 
ATOM     15  N   UNL A   1      34.558  21.697  24.259  1.00  0.00    -0.277 N 
ATOM     16  C   UNL A   1      33.214  21.587  24.006  1.00  0.00     0.261 C 
ATOM     17  C   UNL A   1      35.062  22.885  23.820  1.00  0.00     0.261 C 
ATOM     18  O   UNL A   1      32.454  20.686  24.272  1.00  0.00    -0.269 OA
ATOM     19  C   UNL A   1      32.812  22.844  23.368  1.00  0.00     0.053 A 
ATOM     20  C   UNL A   1      33.937  23.627  23.249  1.00  0.00     0.055 A 
ATOM     21  O   UNL A   1      36.195  23.322  23.912  1.00  0.00    -0.269 OA
ATOM     22  C   UNL A   1      31.572  23.328  23.010  1.00  0.00     0.017 A 
ATOM     23  C   UNL A   1      33.877  24.939  22.810  1.00  0.00     0.040 A 
ATOM     24  C   UNL A   1      31.491  24.677  22.622  1.00  0.00     0.027 A 
ENDBRANCH  10  13
ENDBRANCH   8   9
ENDBRANCH   6   8
BRANCH   6  25
ATOM     25  C   UNL A   1      31.823  25.821  26.125  1.00  0.00    -0.032 A 
ATOM     26  C   UNL A   1      30.562  25.199  26.118  1.00  0.00     0.005 A 
ATOM     27  C   UNL A   1      32.930  25.012  26.458  1.00  0.00     0.005 A 
ATOM     28  C   UNL A   1      30.402  23.869  26.522  1.00  0.00     0.000 A 
ATOM     29  C   UNL A   1      32.774  23.676  26.840  1.00  0.00     0.000 A 
ATOM     30  C   UNL A   1      31.507  23.111  26.892  1.00  0.00     0.000 A 
ENDBRANCH   6  25
ENDBRANCH   3   6
ENDBRANCH   1   2
BRANCH   1  31
ATOM     31  C   UNL A   1      31.458  32.091  26.663  1.00  0.00     0.042 C 
BRANCH  31  32
ATOM     32  C   UNL A   1      32.676  32.801  27.236  1.00  0.00     0.118 C 
BRANCH  32  33
ATOM     33  N   UNL A   1      32.409  34.175  27.650  1.00  0.00    -0.352 N 
ATOM     34  C   UNL A   1      32.994  34.981  28.601  1.00  0.00     0.251 C 
ATOM     35  H   UNL A   1      31.673  34.605  27.157  1.00  0.00     0.163 HD
ATOM     36  O   UNL A   1      32.519  36.091  28.832  1.00  0.00    -0.269 OA
BRANCH  34  37
ATOM     37  C   UNL A   1      34.139  34.506  29.415  1.00  0.00     0.039 A 
ATOM     38  C   UNL A   1      33.887  33.967  30.682  1.00  0.00     0.014 A 
ATOM     39  C   UNL A   1      35.449  34.563  28.949  1.00  0.00     0.014 A 
ATOM     40  C   UNL A   1      34.921  33.364  31.407  1.00  0.00     0.010 A 
ATOM     41  C   UNL A   1      36.451  33.857  29.609  1.00  0.00     0.010 A 
ATOM     42  C   UNL A   1      36.195  33.228  30.836  1.00  0.00    -0.014 A 
BRANCH  42  43
ATOM     43  C   UNL A   1      37.267  32.409  31.467  1.00  0.00     0.031 A 
ATOM     44  C   UNL A   1      37.791  32.769  32.831  1.00  0.00     0.074 A 
ATOM     45  C   UNL A   1      37.862  31.426  30.759  1.00  0.00     0.049 A 
ATOM     46  N   UNL A   1      38.848  32.317  33.460  1.00  0.00    -0.248 NA
ATOM     47  C   UNL A   1      37.052  33.804  33.570  1.00  0.00     0.031 C 
ATOM     48  C   UNL A   1      37.489  31.008  29.406  1.00  0.00     0.029 A 
ATOM     49  N   UNL A   1      38.926  30.614  31.071  1.00  0.00    -0.354 N 
ATOM     50  C   UNL A   1      38.919  33.041  34.643  1.00  0.00     0.074 A 
ATOM     51  C   UNL A   1      37.829  33.991  34.626  1.00  0.00     0.031 C 
ATOM     52  C   UNL A   1      38.293  30.009  29.013  1.00  0.00     0.029 A 
ATOM     53  C   UNL A   1      39.277  29.751  30.059  1.00  0.00     0.049 A 
ATOM     54  H   UNL A   1      39.393  30.646  31.936  1.00  0.00     0.167 HD
ATOM     55  C   UNL A   1      39.801  32.909  35.663  1.00  0.00     0.037 A 
ATOM     56  C   UNL A   1      40.292  28.870  29.971  1.00  0.00     0.037 A 
ATOM     57  C   UNL A   1      40.851  31.925  35.704  1.00  0.00     0.049 A 
ATOM     58  C   UNL A   1      41.258  28.745  31.115  1.00  0.00     0.074 A 
ATOM     59  C   UNL A   1      41.730  31.645  36.733  1.00  0.00     0.029 A 
ATOM     60  N   UNL A   1      41.158  31.057  34.667  1.00  0.00    -0.354 N 
ATOM     61  N   UNL A   1      41.276  29.391  32.255  1.00  0.00    -0.248 NA
ATOM     62  C   UNL A   1      42.352  27.775  30.957  1.00  0.00     0.031 C 
ATOM     63  C   UNL A   1      42.598  30.635  36.305  1.00  0.00     0.029 A 
ATOM     64  C   UNL A   1      42.233  30.260  35.022  1.00  0.00     0.049 A 
ATOM     65  H   UNL A   1      40.682  31.014  33.806  1.00  0.00     0.167 HD
ATOM     66  C   UNL A   1      42.369  28.898  32.954  1.00  0.00     0.074 A 
ATOM     67  C   UNL A   1      42.979  27.884  32.119  1.00  0.00     0.031 C 
ATOM     68  C   UNL A   1      42.828  29.256  34.178  1.00  0.00     0.037 A 
BRANCH  55  69
ATOM     69  C   UNL A   1      39.663  33.844  36.829  1.00  0.00     0.064 A 
ATOM     70  C   UNL A   1      38.908  33.502  37.961  1.00  0.00     0.173 A 
ATOM     71  C   UNL A   1      40.323  35.083  36.830  1.00  0.00     0.173 A 
ATOM     72  F   UNL A   1      38.250  32.334  38.005  1.00  0.00    -0.203 F 
ATOM     73  C   UNL A   1      38.794  34.378  39.037  1.00  0.00     0.198 A 
ATOM     74  C   UNL A   1      40.230  35.943  37.921  1.00  0.00     0.198 A 
ATOM     75  F   UNL A   1      41.063  35.457  35.776  1.00  0.00    -0.203 F 
ATOM     76  F   UNL A   1      38.026  34.050  40.086  1.00  0.00    -0.200 F 
ATOM     77  C   UNL A   1      39.460  35.594  39.020  1.00  0.00     0.200 A 
ATOM     78  F   UNL A   1      40.885  37.112  37.908  1.00  0.00    -0.200 F 
ATOM     79  F   UNL A   1      39.352  36.433  40.059  1.00  0.00    -0.200 F 
ENDBRANCH  55  69
BRANCH  56  80
ATOM     80  C   UNL A   1      40.445  28.034  28.751  1.00  0.00     0.064 A 
ATOM     81  C   UNL A   1      39.811  26.787  28.656  1.00  0.00     0.173 A 
ATOM     82  C   UNL A   1      41.221  28.457  27.662  1.00  0.00     0.173 A 
ATOM     83  F   UNL A   1      39.078  26.330  29.681  1.00  0.00    -0.203 F 
ATOM     84  C   UNL A   1      39.960  25.988  27.524  1.00  0.00     0.198 A 
ATOM     85  C   UNL A   1      41.347  27.670  26.519  1.00  0.00     0.198 A 
ATOM     86  F   UNL A   1      41.844  29.644  27.702  1.00  0.00    -0.203 F 
ATOM     87  F   UNL A   1      39.377  24.783  27.475  1.00  0.00    -0.200 F 
ATOM     88  C   UNL A   1      40.722  26.433  26.454  1.00  0.00     0.200 A 
ATOM     89  F   UNL A   1      42.072  28.109  25.482  1.00  0.00    -0.200 F 
ATOM     90  F   UNL A   1      40.861  25.667  25.363  1.00  0.00    -0.200 F 
ENDBRANCH  56  80
BRANCH  68  91
ATOM     91  C   UNL A   1      44.042  28.543  34.694  1.00  0.00     0.064 A 
ATOM     92  C   UNL A   1      45.324  29.094  34.558  1.00  0.00     0.173 A 
ATOM     93  C   UNL A   1      43.915  27.327  35.383  1.00  0.00     0.173 A 
ATOM     94  F   UNL A   1      45.496  30.246  33.892  1.00  0.00    -0.203 F 
ATOM     95  C   UNL A   1      46.438  28.448  35.084  1.00  0.00     0.198 A 
ATOM     96  C   UNL A   1      45.029  26.697  35.929  1.00  0.00     0.198 A 
ATOM     97  F   UNL A   1      42.708  26.762  35.542  1.00  0.00    -0.203 F 
ATOM     98  F   UNL A   1      47.658  28.975  34.914  1.00  0.00    -0.200 F 
ATOM     99  C   UNL A   1      46.289  27.255  35.777  1.00  0.00     0.200 A 
ATOM    100  F   UNL A   1      44.881  25.551  36.609  1.00  0.00    -0.200 F 
ATOM    101  F   UNL A   1      47.362  26.641  36.295  1.00  0.00    -0.200 F 
ENDBRANCH  68  91
ENDBRANCH  42  43
ENDBRANCH  34  37
ENDBRANCH  32  33
ENDBRANCH  31  32
ENDBRANCH   1  31
TORSDOF 14
ENDMDL
