MODEL 1
REMARK VINA RESULT:     -12.8      0.000      0.000
REMARK SMILES O=C(NCCCNC(=O)[C@@]1([C@@H]2CCO[C@@]3(CCOC3)C2)CCOC1)c1ccc(-c2c3nc(c(-c4c(F)c(F)c(F)c(F)c4F)c4ccc([nH]4)c(-c4c(F)c(F)c(F)c(F)c4F)c4nc(c(-c5c(F)c(F)c(F)c(F)c5F)c5ccc2[nH]5)C=C4)C=C3)cc1
REMARK SMILES IDX 4 1 3 2 1 3 2 4 25 6 26 7 87 8 27 9 86 10 28 11 29 12 30 13
REMARK SMILES IDX 80 14 31 15 85 16 79 17 81 18 32 19 84 20 78 21 77 22 33 24
REMARK SMILES IDX 65 25 45 26 64 27 46 28 49 29 63 30 82 31 47 32 48 33 62 35
REMARK SMILES IDX 83 36 50 37 34 38 35 39 43 40 36 41 37 42 41 43 44 44 38 45
REMARK SMILES IDX 39 46 42 47 40 48 66 49 67 50 75 51 68 52 69 53 73 54 76 55
REMARK SMILES IDX 70 56 71 57 74 58 72 59 51 60 52 61 60 62 53 63 54 64 58 65
REMARK SMILES IDX 61 66 55 67 56 68 59 69 57 70 5 71 6 72 7 73 8 74 9 76 10 77
REMARK SMILES IDX 21 78 24 79 22 80 23 81 11 82 12 83 20 84 13 85 15 86 14 87
REMARK SMILES IDX 16 88 19 89 17 90 18 91
REMARK H PARENT 3 5 81 23 49 34 7 75
REMARK Flexibility Score: inf
ROOT
ATOM      1  C   UNL A   1      32.701  33.084  26.921  1.00  0.00     0.118 C 
ENDROOT
BRANCH   1   2
ATOM      2  N   UNL A   1      32.447  34.332  27.632  1.00  0.00    -0.352 N 
ATOM      3  O   UNL A   1      32.528  35.893  29.247  1.00  0.00    -0.269 OA
ATOM      4  C   UNL A   1      33.024  34.886  28.754  1.00  0.00     0.251 C 
ATOM      5  H   UNL A   1      31.730  34.880  27.238  1.00  0.00     0.163 HD
BRANCH   4   6
ATOM      6  C   UNL A   1      34.213  34.273  29.396  1.00  0.00     0.039 A 
ATOM      7  C   UNL A   1      35.503  34.578  28.973  1.00  0.00     0.014 A 
ATOM      8  C   UNL A   1      34.040  33.407  30.483  1.00  0.00     0.014 A 
ATOM      9  C   UNL A   1      36.587  33.871  29.477  1.00  0.00     0.010 A 
ATOM     10  C   UNL A   1      35.149  32.796  31.086  1.00  0.00     0.010 A 
ATOM     11  C   UNL A   1      36.433  32.990  30.559  1.00  0.00    -0.014 A 
BRANCH  11  12
ATOM     12  C   UNL A   1      37.652  32.368  31.142  1.00  0.00     0.031 A 
ATOM     13  C   UNL A   1      38.124  32.699  32.531  1.00  0.00     0.074 A 
ATOM     14  C   UNL A   1      38.290  31.420  30.424  1.00  0.00     0.049 A 
ATOM     15  N   UNL A   1      39.102  32.160  33.218  1.00  0.00    -0.248 NA
ATOM     16  C   UNL A   1      37.420  33.776  33.243  1.00  0.00     0.031 C 
ATOM     17  C   UNL A   1      37.946  31.033  29.053  1.00  0.00     0.029 A 
ATOM     18  N   UNL A   1      39.327  30.585  30.751  1.00  0.00    -0.354 N 
ATOM     19  C   UNL A   1      39.134  32.831  34.433  1.00  0.00     0.074 A 
ATOM     20  C   UNL A   1      38.100  33.844  34.379  1.00  0.00     0.031 C 
ATOM     21  C   UNL A   1      38.705  29.993  28.683  1.00  0.00     0.029 A 
ATOM     22  C   UNL A   1      39.636  29.683  29.761  1.00  0.00     0.049 A 
ATOM     23  H   UNL A   1      39.804  30.626  31.611  1.00  0.00     0.167 HD
ATOM     24  C   UNL A   1      39.940  32.611  35.499  1.00  0.00     0.037 A 
ATOM     25  C   UNL A   1      40.571  28.716  29.716  1.00  0.00     0.037 A 
ATOM     26  C   UNL A   1      40.965  31.598  35.552  1.00  0.00     0.049 A 
ATOM     27  C   UNL A   1      41.452  28.503  30.912  1.00  0.00     0.074 A 
ATOM     28  C   UNL A   1      41.825  31.291  36.594  1.00  0.00     0.029 A 
ATOM     29  N   UNL A   1      41.270  30.724  34.517  1.00  0.00    -0.354 N 
ATOM     30  N   UNL A   1      41.444  29.124  32.067  1.00  0.00    -0.248 NA
ATOM     31  C   UNL A   1      42.473  27.453  30.800  1.00  0.00     0.031 C 
ATOM     32  C   UNL A   1      42.676  30.263  36.176  1.00  0.00     0.029 A 
ATOM     33  C   UNL A   1      42.315  29.892  34.892  1.00  0.00     0.049 A 
ATOM     34  H   UNL A   1      40.812  30.700  33.647  1.00  0.00     0.167 HD
ATOM     35  C   UNL A   1      42.453  28.539  32.819  1.00  0.00     0.074 A 
ATOM     36  C   UNL A   1      43.023  27.486  32.004  1.00  0.00     0.031 C 
ATOM     37  C   UNL A   1      42.877  28.854  34.067  1.00  0.00     0.037 A 
BRANCH  24  38
ATOM     38  C   UNL A   1      39.756  33.480  36.711  1.00  0.00     0.064 A 
ATOM     39  C   UNL A   1      40.417  34.712  36.836  1.00  0.00     0.173 A 
ATOM     40  C   UNL A   1      38.852  33.117  37.721  1.00  0.00     0.173 A 
ATOM     41  F   UNL A   1      41.299  35.103  35.904  1.00  0.00    -0.203 F 
ATOM     42  C   UNL A   1      40.189  35.540  37.934  1.00  0.00     0.198 A 
ATOM     43  C   UNL A   1      38.607  33.958  38.803  1.00  0.00     0.198 A 
ATOM     44  F   UNL A   1      38.188  31.953  37.647  1.00  0.00    -0.203 F 
ATOM     45  F   UNL A   1      40.854  36.698  38.047  1.00  0.00    -0.200 F 
ATOM     46  C   UNL A   1      39.278  35.167  38.911  1.00  0.00     0.200 A 
ATOM     47  F   UNL A   1      37.716  33.602  39.739  1.00  0.00    -0.200 F 
ATOM     48  F   UNL A   1      39.047  35.972  39.957  1.00  0.00    -0.200 F 
ENDBRANCH  24  38
BRANCH  25  49
ATOM     49  C   UNL A   1      40.730  27.894  28.488  1.00  0.00     0.064 A 
ATOM     50  C   UNL A   1      40.075  26.663  28.346  1.00  0.00     0.173 A 
ATOM     51  C   UNL A   1      41.550  28.321  27.434  1.00  0.00     0.173 A 
ATOM     52  F   UNL A   1      39.294  26.201  29.334  1.00  0.00    -0.203 F 
ATOM     53  C   UNL A   1      40.255  25.880  27.208  1.00  0.00     0.198 A 
ATOM     54  C   UNL A   1      41.700  27.555  26.281  1.00  0.00     0.198 A 
ATOM     55  F   UNL A   1      42.194  29.495  27.517  1.00  0.00    -0.203 F 
ATOM     56  F   UNL A   1      39.660  24.682  27.120  1.00  0.00    -0.200 F 
ATOM     57  C   UNL A   1      41.062  26.330  26.173  1.00  0.00     0.200 A 
ATOM     58  F   UNL A   1      42.465  28.005  25.277  1.00  0.00    -0.200 F 
ATOM     59  F   UNL A   1      41.231  25.580  25.077  1.00  0.00    -0.200 F 
ENDBRANCH  25  49
BRANCH  37  60
ATOM     60  C   UNL A   1      44.007  28.037  34.622  1.00  0.00     0.064 A 
ATOM     61  C   UNL A   1      43.772  26.845  35.326  1.00  0.00     0.173 A 
ATOM     62  C   UNL A   1      45.336  28.448  34.451  1.00  0.00     0.173 A 
ATOM     63  F   UNL A   1      42.516  26.418  35.532  1.00  0.00    -0.203 F 
ATOM     64  C   UNL A   1      44.826  26.119  35.874  1.00  0.00     0.198 A 
ATOM     65  C   UNL A   1      46.389  27.702  34.972  1.00  0.00     0.198 A 
ATOM     66  F   UNL A   1      45.615  29.576  33.780  1.00  0.00    -0.203 F 
ATOM     67  F   UNL A   1      44.574  25.020  36.598  1.00  0.00    -0.200 F 
ATOM     68  C   UNL A   1      46.133  26.545  35.692  1.00  0.00     0.200 A 
ATOM     69  F   UNL A   1      47.653  28.109  34.787  1.00  0.00    -0.200 F 
ATOM     70  F   UNL A   1      47.146  25.847  36.224  1.00  0.00    -0.200 F 
ENDBRANCH  37  60
ENDBRANCH  11  12
ENDBRANCH   4   6
ENDBRANCH   1   2
BRANCH   1  71
ATOM     71  C   UNL A   1      31.479  32.185  26.829  1.00  0.00     0.042 C 
BRANCH  71  72
ATOM     72  C   UNL A   1      31.779  30.792  26.306  1.00  0.00     0.117 C 
BRANCH  72  73
ATOM     73  N   UNL A   1      31.460  29.726  27.251  1.00  0.00    -0.355 N 
ATOM     74  C   UNL A   1      31.613  28.370  27.216  1.00  0.00     0.228 C 
ATOM     75  H   UNL A   1      31.051  30.053  28.085  1.00  0.00     0.163 HD
ATOM     76  O   UNL A   1      31.403  27.801  28.291  1.00  0.00    -0.274 OA
BRANCH  74  77
ATOM     77  C   UNL A   1      31.937  27.570  25.927  1.00  0.00     0.078 C 
ATOM     78  C   UNL A   1      33.354  27.918  25.472  1.00  0.00     0.048 C 
ATOM     79  C   UNL A   1      32.000  26.066  26.246  1.00  0.00     0.177 C 
ATOM     80  C   UNL A   1      34.025  26.589  25.213  1.00  0.00     0.161 C 
ATOM     81  O   UNL A   1      33.333  25.605  25.982  1.00  0.00    -0.380 OA
BRANCH  77  82
ATOM     82  C   UNL A   1      30.838  27.762  24.797  1.00  0.00     0.012 C 
ATOM     83  C   UNL A   1      30.588  26.482  23.942  1.00  0.00     0.033 C 
ATOM     84  C   UNL A   1      30.963  28.977  23.838  1.00  0.00     0.043 C 
ATOM     85  C   UNL A   1      31.027  26.642  22.495  1.00  0.00     0.161 C 
ATOM     86  C   UNL A   1      30.001  28.825  22.630  1.00  0.00     0.094 C 
ATOM     87  O   UNL A   1      30.354  27.697  21.823  1.00  0.00    -0.372 OA
ATOM     88  C   UNL A   1      28.524  28.742  23.013  1.00  0.00     0.066 C 
ATOM     89  C   UNL A   1      29.972  30.077  21.744  1.00  0.00     0.195 C 
ATOM     90  C   UNL A   1      28.109  30.188  23.132  1.00  0.00     0.163 C 
ATOM     91  O   UNL A   1      28.904  30.926  22.200  1.00  0.00    -0.378 OA
ENDBRANCH  77  82
ENDBRANCH  74  77
ENDBRANCH  72  73
ENDBRANCH  71  72
ENDBRANCH   1  71
TORSDOF 11
ENDMDL
MODEL 2
REMARK VINA RESULT:     -12.8      0.087      1.613
REMARK SMILES O=C(NCCCNC(=O)[C@@]1([C@@H]2CCO[C@@]3(CCOC3)C2)CCOC1)c1ccc(-c2c3nc(c(-c4c(F)c(F)c(F)c(F)c4F)c4ccc([nH]4)c(-c4c(F)c(F)c(F)c(F)c4F)c4nc(c(-c5c(F)c(F)c(F)c(F)c5F)c5ccc2[nH]5)C=C4)C=C3)cc1
REMARK SMILES IDX 4 1 3 2 1 3 2 4 25 6 26 7 87 8 27 9 86 10 28 11 29 12 30 13
REMARK SMILES IDX 80 14 31 15 85 16 79 17 81 18 32 19 84 20 78 21 77 22 33 24
REMARK SMILES IDX 65 25 45 26 64 27 46 28 49 29 63 30 82 31 47 32 48 33 62 35
REMARK SMILES IDX 83 36 50 37 34 38 35 39 43 40 36 41 37 42 41 43 44 44 38 45
REMARK SMILES IDX 39 46 42 47 40 48 66 49 67 50 75 51 68 52 69 53 73 54 76 55
REMARK SMILES IDX 70 56 71 57 74 58 72 59 51 60 52 61 60 62 53 63 54 64 58 65
REMARK SMILES IDX 61 66 55 67 56 68 59 69 57 70 5 71 6 72 7 73 8 74 9 76 10 77
REMARK SMILES IDX 21 78 24 79 22 80 23 81 11 82 12 83 20 84 13 85 15 86 14 87
REMARK SMILES IDX 16 88 19 89 17 90 18 91
REMARK H PARENT 3 5 81 23 49 34 7 75
REMARK Flexibility Score: inf
ROOT
ATOM      1  C   UNL A   1      32.708  33.041  26.912  1.00  0.00     0.118 C 
ENDROOT
BRANCH   1   2
ATOM      2  N   UNL A   1      32.451  34.287  27.626  1.00  0.00    -0.352 N 
ATOM      3  O   UNL A   1      32.528  35.842  29.246  1.00  0.00    -0.269 OA
ATOM      4  C   UNL A   1      33.024  34.836  28.753  1.00  0.00     0.251 C 
ATOM      5  H   UNL A   1      31.736  34.837  27.231  1.00  0.00     0.163 HD
BRANCH   4   6
ATOM      6  C   UNL A   1      34.211  34.221  29.397  1.00  0.00     0.039 A 
ATOM      7  C   UNL A   1      35.504  34.584  29.033  1.00  0.00     0.014 A 
ATOM      8  C   UNL A   1      34.029  33.291  30.429  1.00  0.00     0.014 A 
ATOM      9  C   UNL A   1      36.592  33.879  29.532  1.00  0.00     0.010 A 
ATOM     10  C   UNL A   1      35.137  32.676  31.032  1.00  0.00     0.010 A 
ATOM     11  C   UNL A   1      36.430  32.934  30.558  1.00  0.00    -0.014 A 
BRANCH  11  12
ATOM     12  C   UNL A   1      37.648  32.313  31.144  1.00  0.00     0.031 A 
ATOM     13  C   UNL A   1      38.109  32.634  32.539  1.00  0.00     0.074 A 
ATOM     14  C   UNL A   1      38.297  31.376  30.421  1.00  0.00     0.049 A 
ATOM     15  N   UNL A   1      39.084  32.094  33.228  1.00  0.00    -0.248 NA
ATOM     16  C   UNL A   1      37.393  33.701  33.256  1.00  0.00     0.031 C 
ATOM     17  C   UNL A   1      37.964  31.000  29.044  1.00  0.00     0.029 A 
ATOM     18  N   UNL A   1      39.336  30.543  30.748  1.00  0.00    -0.354 N 
ATOM     19  C   UNL A   1      39.103  32.753  34.450  1.00  0.00     0.074 A 
ATOM     20  C   UNL A   1      38.065  33.762  34.398  1.00  0.00     0.031 C 
ATOM     21  C   UNL A   1      38.732  29.967  28.671  1.00  0.00     0.029 A 
ATOM     22  C   UNL A   1      39.657  29.652  29.753  1.00  0.00     0.049 A 
ATOM     23  H   UNL A   1      39.806  30.579  31.613  1.00  0.00     0.167 HD
ATOM     24  C   UNL A   1      39.903  32.528  35.520  1.00  0.00     0.037 A 
ATOM     25  C   UNL A   1      40.598  28.691  29.706  1.00  0.00     0.037 A 
ATOM     26  C   UNL A   1      40.933  31.520  35.571  1.00  0.00     0.049 A 
ATOM     27  C   UNL A   1      41.471  28.471  30.907  1.00  0.00     0.074 A 
ATOM     28  C   UNL A   1      41.786  31.208  36.616  1.00  0.00     0.029 A 
ATOM     29  N   UNL A   1      41.250  30.658  34.530  1.00  0.00    -0.354 N 
ATOM     30  N   UNL A   1      41.451  29.081  32.067  1.00  0.00    -0.248 NA
ATOM     31  C   UNL A   1      42.498  27.428  30.792  1.00  0.00     0.031 C 
ATOM     32  C   UNL A   1      42.646  30.189  36.195  1.00  0.00     0.029 A 
ATOM     33  C   UNL A   1      42.297  29.828  34.905  1.00  0.00     0.049 A 
ATOM     34  H   UNL A   1      40.798  30.639  33.656  1.00  0.00     0.167 HD
ATOM     35  C   UNL A   1      42.457  28.495  32.821  1.00  0.00     0.074 A 
ATOM     36  C   UNL A   1      43.039  27.452  32.001  1.00  0.00     0.031 C 
ATOM     37  C   UNL A   1      42.870  28.801  34.075  1.00  0.00     0.037 A 
BRANCH  24  38
ATOM     38  C   UNL A   1      39.705  33.386  36.738  1.00  0.00     0.064 A 
ATOM     39  C   UNL A   1      40.370  34.613  36.887  1.00  0.00     0.173 A 
ATOM     40  C   UNL A   1      38.785  33.015  37.731  1.00  0.00     0.173 A 
ATOM     41  F   UNL A   1      41.267  35.010  35.972  1.00  0.00    -0.203 F 
ATOM     42  C   UNL A   1      40.130  35.429  37.990  1.00  0.00     0.198 A 
ATOM     43  C   UNL A   1      38.528  33.846  38.818  1.00  0.00     0.198 A 
ATOM     44  F   UNL A   1      38.116  31.856  37.634  1.00  0.00    -0.203 F 
ATOM     45  F   UNL A   1      40.799  36.583  38.125  1.00  0.00    -0.200 F 
ATOM     46  C   UNL A   1      39.203  35.050  38.949  1.00  0.00     0.200 A 
ATOM     47  F   UNL A   1      37.622  33.485  39.737  1.00  0.00    -0.200 F 
ATOM     48  F   UNL A   1      38.961  35.846  40.000  1.00  0.00    -0.200 F 
ENDBRANCH  24  38
BRANCH  25  49
ATOM     49  C   UNL A   1      40.769  27.881  28.472  1.00  0.00     0.064 A 
ATOM     50  C   UNL A   1      41.587  28.318  27.421  1.00  0.00     0.173 A 
ATOM     51  C   UNL A   1      40.108  26.654  28.316  1.00  0.00     0.173 A 
ATOM     52  F   UNL A   1      42.226  29.494  27.513  1.00  0.00    -0.203 F 
ATOM     53  C   UNL A   1      41.716  27.571  26.252  1.00  0.00     0.198 A 
ATOM     54  C   UNL A   1      40.267  25.890  27.162  1.00  0.00     0.198 A 
ATOM     55  F   UNL A   1      39.319  26.187  29.295  1.00  0.00    -0.203 F 
ATOM     56  F   UNL A   1      42.461  28.037  25.240  1.00  0.00    -0.200 F 
ATOM     57  C   UNL A   1      41.061  26.355  26.126  1.00  0.00     0.200 A 
ATOM     58  F   UNL A   1      39.648  24.707  27.056  1.00  0.00    -0.200 F 
ATOM     59  F   UNL A   1      41.189  25.634  25.004  1.00  0.00    -0.200 F 
ENDBRANCH  25  49
BRANCH  37  60
ATOM     60  C   UNL A   1      44.000  27.984  34.630  1.00  0.00     0.064 A 
ATOM     61  C   UNL A   1      45.337  28.389  34.487  1.00  0.00     0.173 A 
ATOM     62  C   UNL A   1      43.747  26.785  35.310  1.00  0.00     0.173 A 
ATOM     63  F   UNL A   1      45.633  29.521  33.829  1.00  0.00    -0.203 F 
ATOM     64  C   UNL A   1      46.379  27.601  34.969  1.00  0.00     0.198 A 
ATOM     65  C   UNL A   1      44.789  26.016  35.819  1.00  0.00     0.198 A 
ATOM     66  F   UNL A   1      42.487  26.356  35.480  1.00  0.00    -0.203 F 
ATOM     67  F   UNL A   1      47.649  27.975  34.763  1.00  0.00    -0.200 F 
ATOM     68  C   UNL A   1      46.104  26.418  35.638  1.00  0.00     0.200 A 
ATOM     69  F   UNL A   1      44.523  24.878  36.476  1.00  0.00    -0.200 F 
ATOM     70  F   UNL A   1      47.108  25.659  36.098  1.00  0.00    -0.200 F 
ENDBRANCH  37  60
ENDBRANCH  11  12
ENDBRANCH   4   6
ENDBRANCH   1   2
BRANCH   1  71
ATOM     71  C   UNL A   1      31.477  32.158  26.784  1.00  0.00     0.042 C 
BRANCH  71  72
ATOM     72  C   UNL A   1      31.777  30.755  26.287  1.00  0.00     0.117 C 
BRANCH  72  73
ATOM     73  N   UNL A   1      31.460  29.707  27.252  1.00  0.00    -0.355 N 
ATOM     74  C   UNL A   1      31.610  28.350  27.241  1.00  0.00     0.228 C 
ATOM     75  H   UNL A   1      31.054  30.049  28.081  1.00  0.00     0.163 HD
ATOM     76  O   UNL A   1      31.403  27.801  28.326  1.00  0.00    -0.274 OA
BRANCH  74  77
ATOM     77  C   UNL A   1      31.929  27.527  25.966  1.00  0.00     0.078 C 
ATOM     78  C   UNL A   1      33.351  27.853  25.509  1.00  0.00     0.048 C 
ATOM     79  C   UNL A   1      31.976  26.027  26.308  1.00  0.00     0.177 C 
ATOM     80  C   UNL A   1      34.008  26.513  25.273  1.00  0.00     0.161 C 
ATOM     81  O   UNL A   1      33.304  25.548  26.055  1.00  0.00    -0.380 OA
BRANCH  77  82
ATOM     82  C   UNL A   1      30.835  27.713  24.829  1.00  0.00     0.012 C 
ATOM     83  C   UNL A   1      30.581  26.425  23.987  1.00  0.00     0.033 C 
ATOM     84  C   UNL A   1      30.969  28.916  23.858  1.00  0.00     0.043 C 
ATOM     85  C   UNL A   1      31.026  26.568  22.540  1.00  0.00     0.161 C 
ATOM     86  C   UNL A   1      30.010  28.757  22.649  1.00  0.00     0.094 C 
ATOM     87  O   UNL A   1      30.361  27.619  21.855  1.00  0.00    -0.372 OA
ATOM     88  C   UNL A   1      28.532  28.685  23.027  1.00  0.00     0.066 C 
ATOM     89  C   UNL A   1      29.991  30.000  21.750  1.00  0.00     0.195 C 
ATOM     90  C   UNL A   1      28.124  30.135  23.129  1.00  0.00     0.163 C 
ATOM     91  O   UNL A   1      28.926  30.859  22.193  1.00  0.00    -0.378 OA
ENDBRANCH  77  82
ENDBRANCH  74  77
ENDBRANCH  72  73
ENDBRANCH  71  72
ENDBRANCH   1  71
TORSDOF 11
ENDMDL
MODEL 3
REMARK VINA RESULT:     -12.7      5.727     11.472
REMARK SMILES O=C(NCCCNC(=O)[C@@]1([C@@H]2CCO[C@@]3(CCOC3)C2)CCOC1)c1ccc(-c2c3nc(c(-c4c(F)c(F)c(F)c(F)c4F)c4ccc([nH]4)c(-c4c(F)c(F)c(F)c(F)c4F)c4nc(c(-c5c(F)c(F)c(F)c(F)c5F)c5ccc2[nH]5)C=C4)C=C3)cc1
REMARK SMILES IDX 4 1 3 2 1 3 2 4 25 6 26 7 87 8 27 9 86 10 28 11 29 12 30 13
REMARK SMILES IDX 80 14 31 15 85 16 79 17 81 18 32 19 84 20 78 21 77 22 33 24
REMARK SMILES IDX 65 25 45 26 64 27 46 28 49 29 63 30 82 31 47 32 48 33 62 35
REMARK SMILES IDX 83 36 50 37 34 38 35 39 43 40 36 41 37 42 41 43 44 44 38 45
REMARK SMILES IDX 39 46 42 47 40 48 66 49 67 50 75 51 68 52 69 53 73 54 76 55
REMARK SMILES IDX 70 56 71 57 74 58 72 59 51 60 52 61 60 62 53 63 54 64 58 65
REMARK SMILES IDX 61 66 55 67 56 68 59 69 57 70 5 71 6 72 7 73 8 74 9 76 10 77
REMARK SMILES IDX 21 78 24 79 22 80 23 81 11 82 12 83 20 84 13 85 15 86 14 87
REMARK SMILES IDX 16 88 19 89 17 90 18 91
REMARK H PARENT 3 5 81 23 49 34 7 75
REMARK Flexibility Score: inf
ROOT
ATOM      1  C   UNL A   1      40.962  21.857  26.145  1.00  0.00     0.118 C 
ENDROOT
BRANCH   1   2
ATOM      2  N   UNL A   1      39.544  22.032  25.847  1.00  0.00    -0.352 N 
ATOM      3  O   UNL A   1      37.463  22.877  25.921  1.00  0.00    -0.269 OA
ATOM      4  C   UNL A   1      38.653  23.033  26.168  1.00  0.00     0.251 C 
ATOM      5  H   UNL A   1      39.151  21.299  25.319  1.00  0.00     0.163 HD
BRANCH   4   6
ATOM      6  C   UNL A   1      39.099  24.282  26.833  1.00  0.00     0.039 A 
ATOM      7  C   UNL A   1      39.684  25.319  26.111  1.00  0.00     0.014 A 
ATOM      8  C   UNL A   1      38.884  24.446  28.207  1.00  0.00     0.014 A 
ATOM      9  C   UNL A   1      40.239  26.405  26.777  1.00  0.00     0.010 A 
ATOM     10  C   UNL A   1      39.323  25.608  28.860  1.00  0.00     0.010 A 
ATOM     11  C   UNL A   1      40.044  26.581  28.156  1.00  0.00    -0.014 A 
BRANCH  11  12
ATOM     12  C   UNL A   1      40.546  27.832  28.785  1.00  0.00     0.031 A 
ATOM     13  C   UNL A   1      42.010  28.054  29.050  1.00  0.00     0.074 A 
ATOM     14  C   UNL A   1      39.661  28.818  29.040  1.00  0.00     0.049 A 
ATOM     15  N   UNL A   1      42.613  29.132  29.490  1.00  0.00    -0.248 NA
ATOM     16  C   UNL A   1      42.918  26.925  28.801  1.00  0.00     0.031 C 
ATOM     17  C   UNL A   1      38.211  28.712  28.854  1.00  0.00     0.029 A 
ATOM     18  N   UNL A   1      39.844  30.108  29.467  1.00  0.00    -0.354 N 
ATOM     19  C   UNL A   1      43.961  28.812  29.573  1.00  0.00     0.074 A 
ATOM     20  C   UNL A   1      44.088  27.425  29.175  1.00  0.00     0.031 C 
ATOM     21  C   UNL A   1      37.646  29.903  29.094  1.00  0.00     0.029 A 
ATOM     22  C   UNL A   1      38.680  30.838  29.518  1.00  0.00     0.049 A 
ATOM     23  H   UNL A   1      40.723  30.477  29.712  1.00  0.00     0.167 HD
ATOM     24  C   UNL A   1      44.998  29.606  29.935  1.00  0.00     0.037 A 
ATOM     25  C   UNL A   1      38.462  32.117  29.876  1.00  0.00     0.037 A 
ATOM     26  C   UNL A   1      44.869  30.988  30.326  1.00  0.00     0.049 A 
ATOM     27  C   UNL A   1      39.632  32.968  30.276  1.00  0.00     0.074 A 
ATOM     28  C   UNL A   1      45.864  31.878  30.698  1.00  0.00     0.029 A 
ATOM     29  N   UNL A   1      43.669  31.683  30.398  1.00  0.00    -0.354 N 
ATOM     30  N   UNL A   1      40.906  32.658  30.316  1.00  0.00    -0.248 NA
ATOM     31  C   UNL A   1      39.335  34.347  30.682  1.00  0.00     0.031 C 
ATOM     32  C   UNL A   1      45.264  33.096  31.033  1.00  0.00     0.029 A 
ATOM     33  C   UNL A   1      43.900  32.983  30.822  1.00  0.00     0.049 A 
ATOM     34  H   UNL A   1      42.787  31.308  30.178  1.00  0.00     0.167 HD
ATOM     35  C   UNL A   1      41.561  33.802  30.746  1.00  0.00     0.074 A 
ATOM     36  C   UNL A   1      40.549  34.825  30.913  1.00  0.00     0.031 C 
ATOM     37  C   UNL A   1      42.881  33.987  30.992  1.00  0.00     0.037 A 
BRANCH  24  38
ATOM     38  C   UNL A   1      46.377  29.008  29.928  1.00  0.00     0.064 A 
ATOM     39  C   UNL A   1      46.911  28.386  31.066  1.00  0.00     0.173 A 
ATOM     40  C   UNL A   1      47.141  28.989  28.751  1.00  0.00     0.173 A 
ATOM     41  F   UNL A   1      46.226  28.385  32.220  1.00  0.00    -0.203 F 
ATOM     42  C   UNL A   1      48.165  27.779  31.029  1.00  0.00     0.198 A 
ATOM     43  C   UNL A   1      48.381  28.358  28.711  1.00  0.00     0.198 A 
ATOM     44  F   UNL A   1      46.674  29.563  27.632  1.00  0.00    -0.203 F 
ATOM     45  F   UNL A   1      48.667  27.217  32.138  1.00  0.00    -0.200 F 
ATOM     46  C   UNL A   1      48.894  27.757  29.850  1.00  0.00     0.200 A 
ATOM     47  F   UNL A   1      49.079  28.326  27.567  1.00  0.00    -0.200 F 
ATOM     48  F   UNL A   1      50.092  27.157  29.813  1.00  0.00    -0.200 F 
ENDBRANCH  24  38
BRANCH  25  49
ATOM     49  C   UNL A   1      37.079  32.658  29.886  1.00  0.00     0.064 A 
ATOM     50  C   UNL A   1      36.550  33.326  28.774  1.00  0.00     0.173 A 
ATOM     51  C   UNL A   1      36.260  32.526  31.017  1.00  0.00     0.173 A 
ATOM     52  F   UNL A   1      37.299  33.496  27.674  1.00  0.00    -0.203 F 
ATOM     53  C   UNL A   1      35.264  33.863  28.802  1.00  0.00     0.198 A 
ATOM     54  C   UNL A   1      34.962  33.030  31.031  1.00  0.00     0.198 A 
ATOM     55  F   UNL A   1      36.717  31.890  32.106  1.00  0.00    -0.203 F 
ATOM     56  F   UNL A   1      34.801  34.544  27.744  1.00  0.00    -0.200 F 
ATOM     57  C   UNL A   1      34.469  33.708  29.928  1.00  0.00     0.200 A 
ATOM     58  F   UNL A   1      34.192  32.860  32.114  1.00  0.00    -0.200 F 
ATOM     59  F   UNL A   1      33.231  34.220  29.953  1.00  0.00    -0.200 F 
ENDBRANCH  25  49
BRANCH  37  60
ATOM     60  C   UNL A   1      43.296  35.351  31.459  1.00  0.00     0.064 A 
ATOM     61  C   UNL A   1      43.279  35.697  32.819  1.00  0.00     0.173 A 
ATOM     62  C   UNL A   1      43.712  36.324  30.539  1.00  0.00     0.173 A 
ATOM     63  F   UNL A   1      42.871  34.808  33.738  1.00  0.00    -0.203 F 
ATOM     64  C   UNL A   1      43.624  36.980  33.236  1.00  0.00     0.198 A 
ATOM     65  C   UNL A   1      44.088  37.595  30.962  1.00  0.00     0.198 A 
ATOM     66  F   UNL A   1      43.753  36.042  29.228  1.00  0.00    -0.203 F 
ATOM     67  F   UNL A   1      43.537  37.308  34.532  1.00  0.00    -0.200 F 
ATOM     68  C   UNL A   1      44.033  37.926  32.308  1.00  0.00     0.200 A 
ATOM     69  F   UNL A   1      44.494  38.506  30.066  1.00  0.00    -0.200 F 
ATOM     70  F   UNL A   1      44.361  39.162  32.710  1.00  0.00    -0.200 F 
ENDBRANCH  37  60
ENDBRANCH  11  12
ENDBRANCH   4   6
ENDBRANCH   1   2
BRANCH   1  71
ATOM     71  C   UNL A   1      41.258  21.786  27.634  1.00  0.00     0.042 C 
BRANCH  71  72
ATOM     72  C   UNL A   1      42.338  22.750  28.091  1.00  0.00     0.117 C 
BRANCH  72  73
ATOM     73  N   UNL A   1      42.532  23.886  27.196  1.00  0.00    -0.355 N 
ATOM     74  C   UNL A   1      43.609  24.353  26.498  1.00  0.00     0.228 C 
ATOM     75  H   UNL A   1      41.719  24.427  27.068  1.00  0.00     0.163 HD
ATOM     76  O   UNL A   1      43.347  25.240  25.682  1.00  0.00    -0.274 OA
BRANCH  74  77
ATOM     77  C   UNL A   1      45.067  23.889  26.750  1.00  0.00     0.078 C 
ATOM     78  C   UNL A   1      45.998  25.096  26.632  1.00  0.00     0.048 C 
ATOM     79  C   UNL A   1      45.226  23.429  28.210  1.00  0.00     0.177 C 
ATOM     80  C   UNL A   1      46.875  25.041  27.861  1.00  0.00     0.161 C 
ATOM     81  O   UNL A   1      46.173  24.293  28.854  1.00  0.00    -0.380 OA
BRANCH  77  82
ATOM     82  C   UNL A   1      45.487  22.667  25.826  1.00  0.00     0.012 C 
ATOM     83  C   UNL A   1      45.722  23.061  24.335  1.00  0.00     0.033 C 
ATOM     84  C   UNL A   1      44.625  21.377  25.863  1.00  0.00     0.043 C 
ATOM     85  C   UNL A   1      44.696  22.451  23.394  1.00  0.00     0.161 C 
ATOM     86  C   UNL A   1      44.996  20.434  24.688  1.00  0.00     0.094 C 
ATOM     87  O   UNL A   1      44.687  21.031  23.425  1.00  0.00    -0.372 OA
ATOM     88  C   UNL A   1      46.450  19.967  24.695  1.00  0.00     0.066 C 
ATOM     89  C   UNL A   1      44.285  19.077  24.781  1.00  0.00     0.195 C 
ATOM     90  C   UNL A   1      46.433  18.773  25.618  1.00  0.00     0.163 C 
ATOM     91  O   UNL A   1      45.145  18.166  25.487  1.00  0.00    -0.378 OA
ENDBRANCH  77  82
ENDBRANCH  74  77
ENDBRANCH  72  73
ENDBRANCH  71  72
ENDBRANCH   1  71
TORSDOF 11
ENDMDL
