MODEL 1
REMARK VINA RESULT:     -12.9      0.000      0.000
REMARK SMILES Cc1ccc(Cl)c(Nc2ccccc2C(=O)NCC(=O)NCCCNC(=O)c2ccc(-c3c4nc(c(-c5c(F)c(F)c(F)c(F)c5F)c5ccc([nH]5)c(-c5c(F)c(F)c(F)c(F)c5F)c5nc(c(-c6c(F)c(F)c(F)c(F)c6F)c6ccc3[nH]6)C=C5)C=C4)cc2)c1Cl
REMARK SMILES IDX 22 1 21 2 19 3 20 4 18 6 17 7 15 8 16 9 14 11 9 12 10 13
REMARK SMILES IDX 11 14 13 15 12 16 8 17 7 19 1 20 2 21 3 22 91 23 4 24 92 25
REMARK SMILES IDX 5 26 6 27 23 28 24 29 25 30 26 31 27 33 28 34 29 35 90 36
REMARK SMILES IDX 30 37 89 38 31 39 32 40 33 41 83 42 34 43 88 44 82 45 84 46
REMARK SMILES IDX 35 47 87 48 81 49 80 50 36 52 68 53 48 54 67 55 49 56 52 57
REMARK SMILES IDX 66 58 85 59 50 60 51 61 65 63 86 64 53 65 37 66 38 67 46 68
REMARK SMILES IDX 39 69 40 70 44 71 47 72 41 73 42 74 45 75 43 76 69 77 70 78
REMARK SMILES IDX 78 79 71 80 72 81 76 82 79 83 73 84 74 85 77 86 75 87 54 88
REMARK SMILES IDX 55 89 63 90 56 91 57 92 61 93 64 94 58 95 59 96 62 97 60 98
REMARK H PARENT 21 5 17 10 8 18 25 32 84 51 52 62
REMARK Flexibility Score: inf
ROOT
ATOM      1  C   UNL A   1      31.238  30.834  26.472  1.00  0.00     0.117 C 
ENDROOT
BRANCH   1   2
ATOM      2  N   UNL A   1      32.358  30.176  25.842  1.00  0.00    -0.355 N 
ATOM      3  C   UNL A   1      33.025  29.080  26.304  1.00  0.00     0.239 C 
ATOM      4  O   UNL A   1      34.069  28.748  25.741  1.00  0.00    -0.273 OA
ATOM      5  H   UNL A   1      32.674  30.559  24.992  1.00  0.00     0.163 HD
BRANCH   3   6
ATOM      6  C   UNL A   1      32.329  28.167  27.306  1.00  0.00     0.216 C 
BRANCH   6   7
ATOM      7  N   UNL A   1      31.382  27.132  26.956  1.00  0.00    -0.343 N 
ATOM      8  C   UNL A   1      31.536  25.883  26.400  1.00  0.00     0.253 C 
ATOM      9  O   UNL A   1      30.634  25.087  26.686  1.00  0.00    -0.269 OA
ATOM     10  H   UNL A   1      30.447  27.367  27.154  1.00  0.00     0.164 HD
BRANCH   8  11
ATOM     11  C   UNL A   1      32.536  25.468  25.345  1.00  0.00     0.063 A 
ATOM     12  C   UNL A   1      32.474  25.464  23.930  1.00  0.00     0.051 A 
ATOM     13  C   UNL A   1      33.555  24.880  23.215  1.00  0.00     0.027 A 
ATOM     14  C   UNL A   1      34.699  24.390  23.841  1.00  0.00     0.002 A 
ATOM     15  C   UNL A   1      33.727  24.976  25.950  1.00  0.00     0.016 A 
ATOM     16  C   UNL A   1      34.796  24.461  25.216  1.00  0.00     0.001 A 
BRANCH  12  17
ATOM     17  N   UNL A   1      31.532  26.089  23.084  1.00  0.00    -0.352 N 
ATOM     18  H   UNL A   1      31.274  25.534  22.312  1.00  0.00     0.167 HD
BRANCH  17  19
ATOM     19  C   UNL A   1      30.878  27.348  23.112  1.00  0.00     0.077 A 
ATOM     20  C   UNL A   1      27.349  28.822  23.039  1.00  0.00     0.046 C 
ATOM     21  C   UNL A   1      28.845  28.697  22.954  1.00  0.00    -0.030 A 
ATOM     22  C   UNL A   1      29.597  29.763  22.436  1.00  0.00     0.006 A 
ATOM     23  C   UNL A   1      29.499  27.508  23.334  1.00  0.00     0.069 A 
ATOM     24  C   UNL A   1      30.981  29.671  22.336  1.00  0.00     0.023 A 
ATOM     25  Cl  UNL A   1      28.589  26.285  24.173  1.00  0.00    -0.082 Cl
ATOM     26  C   UNL A   1      31.616  28.481  22.684  1.00  0.00     0.066 A 
ATOM     27  Cl  UNL A   1      33.330  28.376  22.428  1.00  0.00    -0.082 Cl
ENDBRANCH  17  19
ENDBRANCH  12  17
ENDBRANCH   8  11
ENDBRANCH   6   7
ENDBRANCH   3   6
ENDBRANCH   1   2
BRANCH   1  28
ATOM     28  C   UNL A   1      31.401  32.343  26.390  1.00  0.00     0.042 C 
BRANCH  28  29
ATOM     29  C   UNL A   1      32.555  32.826  27.254  1.00  0.00     0.118 C 
BRANCH  29  30
ATOM     30  N   UNL A   1      32.400  34.222  27.633  1.00  0.00    -0.352 N 
ATOM     31  C   UNL A   1      33.039  34.912  28.629  1.00  0.00     0.251 C 
ATOM     32  H   UNL A   1      31.750  34.739  27.103  1.00  0.00     0.163 HD
ATOM     33  O   UNL A   1      32.645  36.018  28.972  1.00  0.00    -0.269 OA
BRANCH  31  34
ATOM     34  C   UNL A   1      34.198  34.288  29.292  1.00  0.00     0.039 A 
ATOM     35  C   UNL A   1      33.976  33.416  30.357  1.00  0.00     0.014 A 
ATOM     36  C   UNL A   1      35.496  34.548  28.840  1.00  0.00     0.014 A 
ATOM     37  C   UNL A   1      35.059  32.769  30.946  1.00  0.00     0.010 A 
ATOM     38  C   UNL A   1      36.562  33.831  29.364  1.00  0.00     0.010 A 
ATOM     39  C   UNL A   1      36.356  32.950  30.436  1.00  0.00    -0.014 A 
BRANCH  39  40
ATOM     40  C   UNL A   1      37.515  32.246  31.030  1.00  0.00     0.031 A 
ATOM     41  C   UNL A   1      37.995  32.623  32.403  1.00  0.00     0.074 A 
ATOM     42  C   UNL A   1      38.160  31.307  30.313  1.00  0.00     0.049 A 
ATOM     43  N   UNL A   1      39.013  32.157  33.080  1.00  0.00    -0.248 NA
ATOM     44  C   UNL A   1      37.251  33.687  33.096  1.00  0.00     0.031 C 
ATOM     45  C   UNL A   1      37.816  30.898  28.950  1.00  0.00     0.029 A 
ATOM     46  N   UNL A   1      39.243  30.528  30.630  1.00  0.00    -0.354 N 
ATOM     47  C   UNL A   1      39.037  32.879  34.267  1.00  0.00     0.074 A 
ATOM     48  C   UNL A   1      37.976  33.857  34.192  1.00  0.00     0.031 C 
ATOM     49  C   UNL A   1      38.651  29.923  28.559  1.00  0.00     0.029 A 
ATOM     50  C   UNL A   1      39.613  29.665  29.626  1.00  0.00     0.049 A 
ATOM     51  H   UNL A   1      39.711  30.582  31.494  1.00  0.00     0.167 HD
ATOM     52  C   UNL A   1      39.852  32.718  35.335  1.00  0.00     0.037 A 
ATOM     53  C   UNL A   1      40.618  28.774  29.576  1.00  0.00     0.037 A 
ATOM     54  C   UNL A   1      40.892  31.724  35.409  1.00  0.00     0.049 A 
ATOM     55  C   UNL A   1      41.515  28.619  30.775  1.00  0.00     0.074 A 
ATOM     56  C   UNL A   1      41.737  31.437  36.466  1.00  0.00     0.029 A 
ATOM     57  N   UNL A   1      41.229  30.859  34.378  1.00  0.00    -0.354 N 
ATOM     58  N   UNL A   1      41.481  29.252  31.922  1.00  0.00    -0.248 NA
ATOM     59  C   UNL A   1      42.586  27.618  30.674  1.00  0.00     0.031 C 
ATOM     60  C   UNL A   1      42.621  30.434  36.056  1.00  0.00     0.029 A 
ATOM     61  C   UNL A   1      42.287  30.054  34.766  1.00  0.00     0.049 A 
ATOM     62  H   UNL A   1      40.782  30.823  33.502  1.00  0.00     0.167 HD
ATOM     63  C   UNL A   1      42.503  28.708  32.690  1.00  0.00     0.074 A 
ATOM     64  C   UNL A   1      43.126  27.680  31.882  1.00  0.00     0.031 C 
ATOM     65  C   UNL A   1      42.890  29.030  33.949  1.00  0.00     0.037 A 
BRANCH  52  66
ATOM     66  C   UNL A   1      39.651  33.634  36.509  1.00  0.00     0.064 A 
ATOM     67  C   UNL A   1      40.264  34.896  36.573  1.00  0.00     0.173 A 
ATOM     68  C   UNL A   1      38.813  33.259  37.569  1.00  0.00     0.173 A 
ATOM     69  F   UNL A   1      41.085  35.299  35.592  1.00  0.00    -0.203 F 
ATOM     70  C   UNL A   1      40.068  35.733  37.667  1.00  0.00     0.198 A 
ATOM     71  C   UNL A   1      38.593  34.114  38.646  1.00  0.00     0.198 A 
ATOM     72  F   UNL A   1      38.199  32.067  37.558  1.00  0.00    -0.203 F 
ATOM     73  F   UNL A   1      40.708  36.909  37.732  1.00  0.00    -0.200 F 
ATOM     74  C   UNL A   1      39.228  35.345  38.699  1.00  0.00     0.200 A 
ATOM     75  F   UNL A   1      37.768  33.743  39.636  1.00  0.00    -0.200 F 
ATOM     76  F   UNL A   1      39.034  36.156  39.749  1.00  0.00    -0.200 F 
ENDBRANCH  52  66
BRANCH  53  77
ATOM     77  C   UNL A   1      40.813  27.939  28.361  1.00  0.00     0.064 A 
ATOM     78  C   UNL A   1      40.223  26.672  28.254  1.00  0.00     0.173 A 
ATOM     79  C   UNL A   1      41.596  28.386  27.286  1.00  0.00     0.173 A 
ATOM     80  F   UNL A   1      39.480  26.193  29.263  1.00  0.00    -0.203 F 
ATOM     81  C   UNL A   1      40.430  25.874  27.130  1.00  0.00     0.198 A 
ATOM     82  C   UNL A   1      41.775  27.600  26.150  1.00  0.00     0.198 A 
ATOM     83  F   UNL A   1      42.178  29.594  27.335  1.00  0.00    -0.203 F 
ATOM     84  F   UNL A   1      39.895  24.646  27.078  1.00  0.00    -0.200 F 
ATOM     85  C   UNL A   1      41.201  26.340  26.077  1.00  0.00     0.200 A 
ATOM     86  F   UNL A   1      42.508  28.061  25.127  1.00  0.00    -0.200 F 
ATOM     87  F   UNL A   1      41.396  25.573  24.997  1.00  0.00    -0.200 F 
ENDBRANCH  53  77
BRANCH  65  88
ATOM     88  C   UNL A   1      44.015  28.236  34.546  1.00  0.00     0.064 A 
ATOM     89  C   UNL A   1      45.347  28.669  34.469  1.00  0.00     0.173 A 
ATOM     90  C   UNL A   1      43.751  27.044  35.238  1.00  0.00     0.173 A 
ATOM     91  F   UNL A   1      45.655  29.794  33.807  1.00  0.00    -0.203 F 
ATOM     92  C   UNL A   1      46.376  27.922  35.037  1.00  0.00     0.198 A 
ATOM     93  C   UNL A   1      44.778  26.318  35.835  1.00  0.00     0.198 A 
ATOM     94  F   UNL A   1      42.494  26.590  35.348  1.00  0.00    -0.203 F 
ATOM     95  F   UNL A   1      47.647  28.326  34.903  1.00  0.00    -0.200 F 
ATOM     96  C   UNL A   1      46.089  26.752  35.726  1.00  0.00     0.200 A 
ATOM     97  F   UNL A   1      44.497  25.198  36.514  1.00  0.00    -0.200 F 
ATOM     98  F   UNL A   1      47.081  26.039  36.278  1.00  0.00    -0.200 F 
ENDBRANCH  65  88
ENDBRANCH  39  40
ENDBRANCH  31  34
ENDBRANCH  29  30
ENDBRANCH  28  29
ENDBRANCH   1  28
TORSDOF 14
ENDMDL
MODEL 2
REMARK VINA RESULT:     -12.7      0.787      7.156
REMARK SMILES Cc1ccc(Cl)c(Nc2ccccc2C(=O)NCC(=O)NCCCNC(=O)c2ccc(-c3c4nc(c(-c5c(F)c(F)c(F)c(F)c5F)c5ccc([nH]5)c(-c5c(F)c(F)c(F)c(F)c5F)c5nc(c(-c6c(F)c(F)c(F)c(F)c6F)c6ccc3[nH]6)C=C5)C=C4)cc2)c1Cl
REMARK SMILES IDX 22 1 21 2 19 3 20 4 18 6 17 7 15 8 16 9 14 11 9 12 10 13
REMARK SMILES IDX 11 14 13 15 12 16 8 17 7 19 1 20 2 21 3 22 91 23 4 24 92 25
REMARK SMILES IDX 5 26 6 27 23 28 24 29 25 30 26 31 27 33 28 34 29 35 90 36
REMARK SMILES IDX 30 37 89 38 31 39 32 40 33 41 83 42 34 43 88 44 82 45 84 46
REMARK SMILES IDX 35 47 87 48 81 49 80 50 36 52 68 53 48 54 67 55 49 56 52 57
REMARK SMILES IDX 66 58 85 59 50 60 51 61 65 63 86 64 53 65 37 66 38 67 46 68
REMARK SMILES IDX 39 69 40 70 44 71 47 72 41 73 42 74 45 75 43 76 69 77 70 78
REMARK SMILES IDX 78 79 71 80 72 81 76 82 79 83 73 84 74 85 77 86 75 87 54 88
REMARK SMILES IDX 55 89 63 90 56 91 57 92 61 93 64 94 58 95 59 96 62 97 60 98
REMARK H PARENT 21 5 17 10 8 18 25 32 84 51 52 62
REMARK Flexibility Score: inf
ROOT
ATOM      1  C   UNL A   1      31.801  30.778  26.687  1.00  0.00     0.117 C 
ENDROOT
BRANCH   1   2
ATOM      2  N   UNL A   1      33.137  30.451  27.126  1.00  0.00    -0.355 N 
ATOM      3  C   UNL A   1      33.747  29.235  27.047  1.00  0.00     0.239 C 
ATOM      4  O   UNL A   1      34.823  29.079  27.627  1.00  0.00    -0.273 OA
ATOM      5  H   UNL A   1      33.662  31.183  27.524  1.00  0.00     0.163 HD
BRANCH   3   6
ATOM      6  C   UNL A   1      33.222  28.215  26.044  1.00  0.00     0.216 C 
BRANCH   6   7
ATOM      7  N   UNL A   1      32.209  27.225  26.332  1.00  0.00    -0.343 N 
ATOM      8  C   UNL A   1      32.139  25.872  26.093  1.00  0.00     0.253 C 
ATOM      9  O   UNL A   1      31.405  25.256  26.876  1.00  0.00    -0.269 OA
ATOM     10  H   UNL A   1      31.416  27.590  26.788  1.00  0.00     0.164 HD
BRANCH   8  11
ATOM     11  C   UNL A   1      32.671  25.126  24.890  1.00  0.00     0.063 A 
ATOM     12  C   UNL A   1      32.188  24.997  23.565  1.00  0.00     0.051 A 
ATOM     13  C   UNL A   1      32.864  24.102  22.691  1.00  0.00     0.027 A 
ATOM     14  C   UNL A   1      34.020  23.417  23.058  1.00  0.00     0.002 A 
ATOM     15  C   UNL A   1      33.864  24.424  25.224  1.00  0.00     0.016 A 
ATOM     16  C   UNL A   1      34.538  23.598  24.324  1.00  0.00     0.001 A 
BRANCH  12  17
ATOM     17  N   UNL A   1      31.182  25.743  22.915  1.00  0.00    -0.352 N 
ATOM     18  H   UNL A   1      30.688  25.223  22.240  1.00  0.00     0.167 HD
BRANCH  17  19
ATOM     19  C   UNL A   1      30.732  27.084  23.027  1.00  0.00     0.077 A 
ATOM     20  C   UNL A   1      27.475  29.087  23.126  1.00  0.00     0.046 C 
ATOM     21  C   UNL A   1      28.932  28.737  22.996  1.00  0.00    -0.030 A 
ATOM     22  C   UNL A   1      29.830  29.703  22.517  1.00  0.00     0.006 A 
ATOM     23  C   UNL A   1      29.398  27.442  23.293  1.00  0.00     0.069 A 
ATOM     24  C   UNL A   1      31.182  29.404  22.376  1.00  0.00     0.023 A 
ATOM     25  Cl  UNL A   1      28.325  26.328  24.089  1.00  0.00    -0.082 Cl
ATOM     26  C   UNL A   1      31.630  28.112  22.642  1.00  0.00     0.066 A 
ATOM     27  Cl  UNL A   1      33.302  27.759  22.336  1.00  0.00    -0.082 Cl
ENDBRANCH  17  19
ENDBRANCH  12  17
ENDBRANCH   8  11
ENDBRANCH   6   7
ENDBRANCH   3   6
ENDBRANCH   1   2
BRANCH   1  28
ATOM     28  C   UNL A   1      31.545  32.267  26.847  1.00  0.00     0.042 C 
BRANCH  28  29
ATOM     29  C   UNL A   1      32.808  33.010  27.251  1.00  0.00     0.118 C 
BRANCH  29  30
ATOM     30  N   UNL A   1      32.523  34.374  27.668  1.00  0.00    -0.352 N 
ATOM     31  C   UNL A   1      33.026  35.062  28.741  1.00  0.00     0.251 C 
ATOM     32  H   UNL A   1      31.885  34.870  27.104  1.00  0.00     0.163 HD
ATOM     33  O   UNL A   1      32.528  36.122  29.090  1.00  0.00    -0.269 OA
BRANCH  31  34
ATOM     34  C   UNL A   1      34.167  34.489  29.477  1.00  0.00     0.039 A 
ATOM     35  C   UNL A   1      33.929  33.835  30.686  1.00  0.00     0.014 A 
ATOM     36  C   UNL A   1      35.462  34.579  28.957  1.00  0.00     0.014 A 
ATOM     37  C   UNL A   1      34.990  33.232  31.355  1.00  0.00     0.010 A 
ATOM     38  C   UNL A   1      36.499  33.895  29.575  1.00  0.00     0.010 A 
ATOM     39  C   UNL A   1      36.277  33.234  30.791  1.00  0.00    -0.014 A 
BRANCH  39  40
ATOM     40  C   UNL A   1      37.411  32.569  31.474  1.00  0.00     0.031 A 
ATOM     41  C   UNL A   1      38.109  31.414  30.814  1.00  0.00     0.074 A 
ATOM     42  C   UNL A   1      37.774  32.976  32.705  1.00  0.00     0.049 A 
ATOM     43  N   UNL A   1      39.091  30.675  31.262  1.00  0.00    -0.248 NA
ATOM     44  C   UNL A   1      37.618  31.016  29.484  1.00  0.00     0.031 C 
ATOM     45  C   UNL A   1      37.133  34.050  33.465  1.00  0.00     0.029 A 
ATOM     46  N   UNL A   1      38.770  32.530  33.535  1.00  0.00    -0.354 N 
ATOM     47  C   UNL A   1      39.324  29.722  30.279  1.00  0.00     0.074 A 
ATOM     48  C   UNL A   1      38.339  29.932  29.241  1.00  0.00     0.031 C 
ATOM     49  C   UNL A   1      37.771  34.201  34.636  1.00  0.00     0.029 A 
ATOM     50  C   UNL A   1      38.838  33.210  34.727  1.00  0.00     0.049 A 
ATOM     51  H   UNL A   1      39.378  31.793  33.300  1.00  0.00     0.167 HD
ATOM     52  C   UNL A   1      40.291  28.776  30.233  1.00  0.00     0.037 A 
ATOM     53  C   UNL A   1      39.666  33.044  35.774  1.00  0.00     0.037 A 
ATOM     54  C   UNL A   1      41.280  28.591  31.262  1.00  0.00     0.049 A 
ATOM     55  C   UNL A   1      40.728  31.981  35.701  1.00  0.00     0.074 A 
ATOM     56  C   UNL A   1      42.340  27.702  31.289  1.00  0.00     0.029 A 
ATOM     57  N   UNL A   1      41.327  29.307  32.450  1.00  0.00    -0.354 N 
ATOM     58  N   UNL A   1      40.989  31.136  34.734  1.00  0.00    -0.248 NA
ATOM     59  C   UNL A   1      41.618  31.854  36.864  1.00  0.00     0.031 C 
ATOM     60  C   UNL A   1      42.995  27.842  32.517  1.00  0.00     0.029 A 
ATOM     61  C   UNL A   1      42.382  28.862  33.228  1.00  0.00     0.049 A 
ATOM     62  H   UNL A   1      40.702  30.025  32.701  1.00  0.00     0.167 HD
ATOM     63  C   UNL A   1      42.088  30.398  35.156  1.00  0.00     0.074 A 
ATOM     64  C   UNL A   1      42.455  30.911  36.460  1.00  0.00     0.031 C 
ATOM     65  C   UNL A   1      42.736  29.390  34.522  1.00  0.00     0.037 A 
BRANCH  52  66
ATOM     66  C   UNL A   1      40.326  27.874  29.033  1.00  0.00     0.064 A 
ATOM     67  C   UNL A   1      41.072  28.198  27.888  1.00  0.00     0.173 A 
ATOM     68  C   UNL A   1      39.628  26.657  29.037  1.00  0.00     0.173 A 
ATOM     69  F   UNL A   1      41.747  29.355  27.826  1.00  0.00    -0.203 F 
ATOM     70  C   UNL A   1      41.094  27.352  26.783  1.00  0.00     0.198 A 
ATOM     71  C   UNL A   1      39.680  25.797  27.942  1.00  0.00     0.198 A 
ATOM     72  F   UNL A   1      38.903  26.296  30.105  1.00  0.00    -0.203 F 
ATOM     73  F   UNL A   1      41.768  27.709  25.681  1.00  0.00    -0.200 F 
ATOM     74  C   UNL A   1      40.404  26.150  26.813  1.00  0.00     0.200 A 
ATOM     75  F   UNL A   1      39.025  24.628  27.979  1.00  0.00    -0.200 F 
ATOM     76  F   UNL A   1      40.432  25.332  25.751  1.00  0.00    -0.200 F 
ENDBRANCH  52  66
BRANCH  53  77
ATOM     77  C   UNL A   1      39.543  33.923  36.967  1.00  0.00     0.064 A 
ATOM     78  C   UNL A   1      38.809  33.517  38.091  1.00  0.00     0.173 A 
ATOM     79  C   UNL A   1      40.149  35.188  37.008  1.00  0.00     0.173 A 
ATOM     80  F   UNL A   1      38.196  32.324  38.092  1.00  0.00    -0.203 F 
ATOM     81  C   UNL A   1      38.664  34.351  39.197  1.00  0.00     0.198 A 
ATOM     82  C   UNL A   1      40.030  36.007  38.128  1.00  0.00     0.198 A 
ATOM     83  F   UNL A   1      40.869  35.622  35.963  1.00  0.00    -0.203 F 
ATOM     84  F   UNL A   1      37.914  33.957  40.236  1.00  0.00    -0.200 F 
ATOM     85  C   UNL A   1      39.280  35.593  39.218  1.00  0.00     0.200 A 
ATOM     86  F   UNL A   1      40.640  37.200  38.151  1.00  0.00    -0.200 F 
ATOM     87  F   UNL A   1      39.143  36.393  40.284  1.00  0.00    -0.200 F 
ENDBRANCH  53  77
BRANCH  65  88
ATOM     88  C   UNL A   1      43.930  28.799  35.212  1.00  0.00     0.064 A 
ATOM     89  C   UNL A   1      45.226  29.294  35.000  1.00  0.00     0.173 A 
ATOM     90  C   UNL A   1      43.771  27.748  36.130  1.00  0.00     0.173 A 
ATOM     91  F   UNL A   1      45.435  30.287  34.123  1.00  0.00    -0.203 F 
ATOM     92  C   UNL A   1      46.320  28.737  35.657  1.00  0.00     0.198 A 
ATOM     93  C   UNL A   1      44.863  27.219  36.811  1.00  0.00     0.198 A 
ATOM     94  F   UNL A   1      42.552  27.245  36.375  1.00  0.00    -0.203 F 
ATOM     95  F   UNL A   1      47.556  29.188  35.397  1.00  0.00    -0.200 F 
ATOM     96  C   UNL A   1      46.137  27.706  36.567  1.00  0.00     0.200 A 
ATOM     97  F   UNL A   1      44.681  26.235  37.702  1.00  0.00    -0.200 F 
ATOM     98  F   UNL A   1      47.191  27.178  37.204  1.00  0.00    -0.200 F 
ENDBRANCH  65  88
ENDBRANCH  39  40
ENDBRANCH  31  34
ENDBRANCH  29  30
ENDBRANCH  28  29
ENDBRANCH   1  28
TORSDOF 14
ENDMDL
MODEL 3
REMARK VINA RESULT:     -12.6      5.732      9.789
REMARK SMILES Cc1ccc(Cl)c(Nc2ccccc2C(=O)NCC(=O)NCCCNC(=O)c2ccc(-c3c4nc(c(-c5c(F)c(F)c(F)c(F)c5F)c5ccc([nH]5)c(-c5c(F)c(F)c(F)c(F)c5F)c5nc(c(-c6c(F)c(F)c(F)c(F)c6F)c6ccc3[nH]6)C=C5)C=C4)cc2)c1Cl
REMARK SMILES IDX 22 1 21 2 19 3 20 4 18 6 17 7 15 8 16 9 14 11 9 12 10 13
REMARK SMILES IDX 11 14 13 15 12 16 8 17 7 19 1 20 2 21 3 22 91 23 4 24 92 25
REMARK SMILES IDX 5 26 6 27 23 28 24 29 25 30 26 31 27 33 28 34 29 35 90 36
REMARK SMILES IDX 30 37 89 38 31 39 32 40 33 41 83 42 34 43 88 44 82 45 84 46
REMARK SMILES IDX 35 47 87 48 81 49 80 50 36 52 68 53 48 54 67 55 49 56 52 57
REMARK SMILES IDX 66 58 85 59 50 60 51 61 65 63 86 64 53 65 37 66 38 67 46 68
REMARK SMILES IDX 39 69 40 70 44 71 47 72 41 73 42 74 45 75 43 76 69 77 70 78
REMARK SMILES IDX 78 79 71 80 72 81 76 82 79 83 73 84 74 85 77 86 75 87 54 88
REMARK SMILES IDX 55 89 63 90 56 91 57 92 61 93 64 94 58 95 59 96 62 97 60 98
REMARK H PARENT 21 5 17 10 8 18 25 32 84 51 52 62
REMARK Flexibility Score: inf
ROOT
ATOM      1  C   UNL A   1      37.664  20.831  24.769  1.00  0.00     0.117 C 
ENDROOT
BRANCH   1   2
ATOM      2  N   UNL A   1      38.193  21.974  25.475  1.00  0.00    -0.355 N 
ATOM      3  C   UNL A   1      37.587  23.184  25.638  1.00  0.00     0.239 C 
ATOM      4  O   UNL A   1      38.245  24.111  26.113  1.00  0.00    -0.273 OA
ATOM      5  H   UNL A   1      39.085  21.869  25.878  1.00  0.00     0.163 HD
BRANCH   3   6
ATOM      6  C   UNL A   1      36.073  23.272  25.483  1.00  0.00     0.216 C 
BRANCH   6   7
ATOM      7  N   UNL A   1      35.118  22.819  26.470  1.00  0.00    -0.343 N 
ATOM      8  C   UNL A   1      34.346  21.684  26.561  1.00  0.00     0.253 C 
ATOM      9  O   UNL A   1      34.034  21.375  27.717  1.00  0.00    -0.269 OA
ATOM     10  H   UNL A   1      34.997  23.444  27.221  1.00  0.00     0.164 HD
BRANCH   8  11
ATOM     11  C   UNL A   1      33.687  20.932  25.427  1.00  0.00     0.063 A 
ATOM     12  C   UNL A   1      32.618  21.269  24.561  1.00  0.00     0.051 A 
ATOM     13  C   UNL A   1      32.142  20.272  23.666  1.00  0.00     0.027 A 
ATOM     14  C   UNL A   1      32.732  19.016  23.551  1.00  0.00     0.002 A 
ATOM     15  C   UNL A   1      34.276  19.646  25.269  1.00  0.00     0.016 A 
ATOM     16  C   UNL A   1      33.822  18.709  24.340  1.00  0.00     0.001 A 
BRANCH  12  17
ATOM     17  N   UNL A   1      32.015  22.528  24.349  1.00  0.00    -0.352 N 
ATOM     18  H   UNL A   1      31.058  22.468  24.126  1.00  0.00     0.167 HD
BRANCH  17  19
ATOM     19  C   UNL A   1      32.498  23.861  24.389  1.00  0.00     0.077 A 
ATOM     20  C   UNL A   1      31.948  27.123  26.310  1.00  0.00     0.046 C 
ATOM     21  C   UNL A   1      32.378  26.147  25.250  1.00  0.00    -0.030 A 
ATOM     22  C   UNL A   1      32.878  26.629  24.031  1.00  0.00     0.006 A 
ATOM     23  C   UNL A   1      32.233  24.758  25.440  1.00  0.00     0.069 A 
ATOM     24  C   UNL A   1      33.273  25.749  23.029  1.00  0.00     0.023 A 
ATOM     25  Cl  UNL A   1      31.823  24.168  27.024  1.00  0.00    -0.082 Cl
ATOM     26  C   UNL A   1      33.098  24.379  23.212  1.00  0.00     0.066 A 
ATOM     27  Cl  UNL A   1      33.494  23.331  21.886  1.00  0.00    -0.082 Cl
ENDBRANCH  17  19
ENDBRANCH  12  17
ENDBRANCH   8  11
ENDBRANCH   6   7
ENDBRANCH   3   6
ENDBRANCH   1   2
BRANCH   1  28
ATOM     28  C   UNL A   1      38.525  19.606  25.033  1.00  0.00     0.042 C 
BRANCH  28  29
ATOM     29  C   UNL A   1      39.592  19.889  26.078  1.00  0.00     0.118 C 
BRANCH  29  30
ATOM     30  N   UNL A   1      40.646  18.887  26.060  1.00  0.00    -0.352 N 
ATOM     31  C   UNL A   1      42.003  19.075  26.058  1.00  0.00     0.251 C 
ATOM     32  H   UNL A   1      40.345  17.949  26.049  1.00  0.00     0.163 HD
ATOM     33  O   UNL A   1      42.760  18.145  25.818  1.00  0.00    -0.269 OA
BRANCH  31  34
ATOM     34  C   UNL A   1      42.531  20.424  26.331  1.00  0.00     0.039 A 
ATOM     35  C   UNL A   1      42.980  21.200  25.263  1.00  0.00     0.014 A 
ATOM     36  C   UNL A   1      42.556  20.923  27.637  1.00  0.00     0.014 A 
ATOM     37  C   UNL A   1      43.418  22.500  25.502  1.00  0.00     0.010 A 
ATOM     38  C   UNL A   1      42.900  22.248  27.859  1.00  0.00     0.010 A 
ATOM     39  C   UNL A   1      43.355  23.043  26.797  1.00  0.00    -0.014 A 
BRANCH  39  40
ATOM     40  C   UNL A   1      43.786  24.434  27.063  1.00  0.00     0.031 A 
ATOM     41  C   UNL A   1      42.790  25.444  27.559  1.00  0.00     0.074 A 
ATOM     42  C   UNL A   1      45.059  24.794  26.811  1.00  0.00     0.049 A 
ATOM     43  N   UNL A   1      42.958  26.717  27.811  1.00  0.00    -0.248 NA
ATOM     44  C   UNL A   1      41.414  24.968  27.771  1.00  0.00     0.031 C 
ATOM     45  C   UNL A   1      46.097  23.912  26.276  1.00  0.00     0.029 A 
ATOM     46  N   UNL A   1      45.694  25.999  26.966  1.00  0.00    -0.354 N 
ATOM     47  C   UNL A   1      41.711  27.191  28.197  1.00  0.00     0.074 A 
ATOM     48  C   UNL A   1      40.782  26.090  28.082  1.00  0.00     0.031 C 
ATOM     49  C   UNL A   1      47.247  24.596  26.178  1.00  0.00     0.029 A 
ATOM     50  C   UNL A   1      47.018  25.974  26.603  1.00  0.00     0.049 A 
ATOM     51  H   UNL A   1      45.243  26.806  27.306  1.00  0.00     0.167 HD
ATOM     52  C   UNL A   1      41.378  28.428  28.636  1.00  0.00     0.037 A 
ATOM     53  C   UNL A   1      47.938  26.955  26.609  1.00  0.00     0.037 A 
ATOM     54  C   UNL A   1      42.316  29.511  28.768  1.00  0.00     0.049 A 
ATOM     55  C   UNL A   1      47.541  28.323  27.095  1.00  0.00     0.074 A 
ATOM     56  C   UNL A   1      42.098  30.787  29.257  1.00  0.00     0.029 A 
ATOM     57  N   UNL A   1      43.654  29.445  28.403  1.00  0.00    -0.354 N 
ATOM     58  N   UNL A   1      46.378  28.742  27.530  1.00  0.00    -0.248 NA
ATOM     59  C   UNL A   1      48.588  29.353  27.098  1.00  0.00     0.031 C 
ATOM     60  C   UNL A   1      43.289  31.509  29.138  1.00  0.00     0.029 A 
ATOM     61  C   UNL A   1      44.266  30.666  28.633  1.00  0.00     0.049 A 
ATOM     62  H   UNL A   1      44.100  28.649  28.035  1.00  0.00     0.167 HD
ATOM     63  C   UNL A   1      46.558  30.072  27.887  1.00  0.00     0.074 A 
ATOM     64  C   UNL A   1      47.950  30.383  27.633  1.00  0.00     0.031 C 
ATOM     65  C   UNL A   1      45.656  30.955  28.380  1.00  0.00     0.037 A 
BRANCH  52  66
ATOM     66  C   UNL A   1      39.943  28.672  29.006  1.00  0.00     0.064 A 
ATOM     67  C   UNL A   1      39.469  28.448  30.308  1.00  0.00     0.173 A 
ATOM     68  C   UNL A   1      39.037  29.163  28.055  1.00  0.00     0.173 A 
ATOM     69  F   UNL A   1      40.290  27.967  31.254  1.00  0.00    -0.203 F 
ATOM     70  C   UNL A   1      38.136  28.678  30.636  1.00  0.00     0.198 A 
ATOM     71  C   UNL A   1      37.711  29.424  28.395  1.00  0.00     0.198 A 
ATOM     72  F   UNL A   1      39.436  29.398  26.797  1.00  0.00    -0.203 F 
ATOM     73  F   UNL A   1      37.694  28.405  31.871  1.00  0.00    -0.200 F 
ATOM     74  C   UNL A   1      37.260  29.172  29.681  1.00  0.00     0.200 A 
ATOM     75  F   UNL A   1      36.870  29.916  27.474  1.00  0.00    -0.200 F 
ATOM     76  F   UNL A   1      35.978  29.401  30.000  1.00  0.00    -0.200 F 
ENDBRANCH  52  66
BRANCH  53  77
ATOM     77  C   UNL A   1      49.330  26.674  26.167  1.00  0.00     0.064 A 
ATOM     78  C   UNL A   1      50.280  26.157  27.059  1.00  0.00     0.173 A 
ATOM     79  C   UNL A   1      49.741  26.919  24.848  1.00  0.00     0.173 A 
ATOM     80  F   UNL A   1      49.940  25.923  28.335  1.00  0.00    -0.203 F 
ATOM     81  C   UNL A   1      51.593  25.923  26.658  1.00  0.00     0.198 A 
ATOM     82  C   UNL A   1      51.046  26.653  24.440  1.00  0.00     0.198 A 
ATOM     83  F   UNL A   1      48.870  27.406  23.952  1.00  0.00    -0.203 F 
ATOM     84  F   UNL A   1      52.493  25.478  27.546  1.00  0.00    -0.200 F 
ATOM     85  C   UNL A   1      51.974  26.165  25.347  1.00  0.00     0.200 A 
ATOM     86  F   UNL A   1      51.406  26.874  23.168  1.00  0.00    -0.200 F 
ATOM     87  F   UNL A   1      53.236  25.936  24.961  1.00  0.00    -0.200 F 
ENDBRANCH  53  77
BRANCH  65  88
ATOM     88  C   UNL A   1      46.153  32.331  28.715  1.00  0.00     0.064 A 
ATOM     89  C   UNL A   1      46.683  32.639  29.977  1.00  0.00     0.173 A 
ATOM     90  C   UNL A   1      46.135  33.346  27.744  1.00  0.00     0.173 A 
ATOM     91  F   UNL A   1      46.709  31.710  30.943  1.00  0.00    -0.203 F 
ATOM     92  C   UNL A   1      47.146  33.920  30.264  1.00  0.00     0.198 A 
ATOM     93  C   UNL A   1      46.633  34.615  28.025  1.00  0.00     0.198 A 
ATOM     94  F   UNL A   1      45.648  33.101  26.519  1.00  0.00    -0.203 F 
ATOM     95  F   UNL A   1      47.596  34.207  31.494  1.00  0.00    -0.200 F 
ATOM     96  C   UNL A   1      47.128  34.904  29.286  1.00  0.00     0.200 A 
ATOM     97  F   UNL A   1      46.631  35.558  27.073  1.00  0.00    -0.200 F 
ATOM     98  F   UNL A   1      47.583  36.133  29.563  1.00  0.00    -0.200 F 
ENDBRANCH  65  88
ENDBRANCH  39  40
ENDBRANCH  31  34
ENDBRANCH  29  30
ENDBRANCH  28  29
ENDBRANCH   1  28
TORSDOF 14
ENDMDL
