MODEL 1
REMARK VINA RESULT:     -13.3      0.000      0.000
REMARK SMILES C[C@H](C(=O)NCCCNC(=O)c1ccc(-c2c3nc(c(-c4c(F)c(F)c(F)c(F)c4F)c4ccc([nH]4)c(-c4c(F)c(F)c(F)c(F)c4F)c4nc(c(-c5c(F)c(F)c(F)c(F)c5F)c5ccc2[nH]5)C=C4)C=C3)cc1)c1ccc2c3cc(Cl)ccc3n(C(=O)c3cocn3)c2c1
REMARK SMILES IDX 6 1 5 2 3 3 4 4 2 6 1 7 75 8 76 9 95 10 77 11 94 12 78 13
REMARK SMILES IDX 86 14 79 15 85 16 80 17 84 18 81 19 83 20 82 21 87 22 88 23
REMARK SMILES IDX 89 24 90 25 93 26 91 27 92 28 7 29 8 30 9 31 10 32 11 34
REMARK SMILES IDX 12 35 13 36 74 37 14 38 73 39 15 40 16 41 17 42 67 43 18 44
REMARK SMILES IDX 72 45 66 46 68 47 19 48 71 49 65 50 64 51 20 53 52 54 32 55
REMARK SMILES IDX 51 56 33 57 36 58 50 59 69 60 34 61 35 62 49 64 70 65 37 66
REMARK SMILES IDX 21 67 22 68 30 69 23 70 24 71 28 72 31 73 25 74 26 75 29 76
REMARK SMILES IDX 27 77 53 78 54 79 62 80 55 81 56 82 60 83 63 84 57 85 58 86
REMARK SMILES IDX 61 87 59 88 38 89 39 90 47 91 40 92 41 93 45 94 48 95 42 96
REMARK SMILES IDX 43 97 46 98 44 99
REMARK H PARENT 5 5 9 33 68 52 36 63
REMARK Flexibility Score: inf
ROOT
ATOM      1  C   UNL A   1      34.010  33.937  27.999  1.00  0.00     0.117 C 
ENDROOT
BRANCH   1   2
ATOM      2  N   UNL A   1      34.457  32.557  27.925  1.00  0.00    -0.356 N 
ATOM      3  C   UNL A   1      33.821  31.444  27.466  1.00  0.00     0.227 C 
ATOM      4  O   UNL A   1      34.557  30.470  27.251  1.00  0.00    -0.274 OA
ATOM      5  H   UNL A   1      35.368  32.401  28.262  1.00  0.00     0.163 HD
BRANCH   3   6
ATOM      6  C   UNL A   1      32.297  31.280  27.320  1.00  0.00     0.105 C 
ATOM      7  C   UNL A   1      31.820  32.492  26.501  1.00  0.00     0.023 C 
BRANCH   6   8
ATOM      8  C   UNL A   1      31.778  29.930  26.837  1.00  0.00    -0.034 A 
ATOM      9  C   UNL A   1      31.613  28.881  27.749  1.00  0.00     0.005 A 
ATOM     10  C   UNL A   1      31.534  29.683  25.473  1.00  0.00     0.032 A 
ATOM     11  C   UNL A   1      31.413  27.563  27.309  1.00  0.00     0.011 A 
ATOM     12  C   UNL A   1      31.325  28.361  25.037  1.00  0.00     0.058 A 
ATOM     13  C   UNL A   1      31.319  27.293  25.927  1.00  0.00     0.008 A 
ATOM     14  N   UNL A   1      31.067  27.858  23.760  1.00  0.00    -0.274 N 
ATOM     15  C   UNL A   1      31.302  26.098  25.150  1.00  0.00     0.009 A 
ATOM     16  C   UNL A   1      31.163  26.465  23.806  1.00  0.00     0.057 A 
ATOM     17  C   UNL A   1      31.462  24.734  25.479  1.00  0.00     0.031 A 
ATOM     18  C   UNL A   1      31.211  25.504  22.776  1.00  0.00     0.029 A 
ATOM     19  C   UNL A   1      31.521  23.786  24.457  1.00  0.00     0.041 A 
ATOM     20  C   UNL A   1      31.395  24.162  23.125  1.00  0.00     0.023 A 
ATOM     21  Cl  UNL A   1      31.801  22.134  24.851  1.00  0.00    -0.084 Cl
BRANCH  14  22
ATOM     22  C   UNL A   1      30.810  28.655  22.622  1.00  0.00     0.284 C 
ATOM     23  O   UNL A   1      31.790  28.922  21.919  1.00  0.00    -0.266 OA
BRANCH  22  24
ATOM     24  C   UNL A   1      29.498  29.216  22.317  1.00  0.00     0.167 A 
ATOM     25  C   UNL A   1      28.328  29.113  23.042  1.00  0.00     0.231 A 
ATOM     26  N   UNL A   1      29.278  30.080  21.254  1.00  0.00    -0.211 NA
ATOM     27  O   UNL A   1      27.381  29.895  22.448  1.00  0.00    -0.451 OA
ATOM     28  C   UNL A   1      28.028  30.453  21.392  1.00  0.00     0.308 A 
ENDBRANCH  22  24
ENDBRANCH  14  22
ENDBRANCH   6   8
ENDBRANCH   3   6
ENDBRANCH   1   2
BRANCH   1  29
ATOM     29  C   UNL A   1      33.477  34.370  29.351  1.00  0.00     0.042 C 
BRANCH  29  30
ATOM     30  C   UNL A   1      33.106  35.835  29.464  1.00  0.00     0.118 C 
BRANCH  30  31
ATOM     31  N   UNL A   1      32.368  36.178  30.673  1.00  0.00    -0.352 N 
ATOM     32  C   UNL A   1      32.593  35.890  32.000  1.00  0.00     0.251 C 
ATOM     33  H   UNL A   1      31.559  36.713  30.511  1.00  0.00     0.163 HD
ATOM     34  O   UNL A   1      31.755  36.229  32.833  1.00  0.00    -0.269 OA
BRANCH  32  35
ATOM     35  C   UNL A   1      33.796  35.145  32.445  1.00  0.00     0.039 A 
ATOM     36  C   UNL A   1      33.653  33.822  32.881  1.00  0.00     0.014 A 
ATOM     37  C   UNL A   1      35.060  35.729  32.464  1.00  0.00     0.014 A 
ATOM     38  C   UNL A   1      34.779  33.078  33.251  1.00  0.00     0.010 A 
ATOM     39  C   UNL A   1      36.190  34.948  32.683  1.00  0.00     0.010 A 
ATOM     40  C   UNL A   1      36.065  33.621  33.111  1.00  0.00    -0.014 A 
BRANCH  40  41
ATOM     41  C   UNL A   1      37.292  32.854  33.461  1.00  0.00     0.031 A 
ATOM     42  C   UNL A   1      38.007  33.135  34.761  1.00  0.00     0.074 A 
ATOM     43  C   UNL A   1      37.811  31.967  32.590  1.00  0.00     0.049 A 
ATOM     44  N   UNL A   1      39.149  32.668  35.201  1.00  0.00    -0.248 NA
ATOM     45  C   UNL A   1      37.380  34.115  35.663  1.00  0.00     0.031 C 
ATOM     46  C   UNL A   1      37.262  31.652  31.270  1.00  0.00     0.029 A 
ATOM     47  N   UNL A   1      38.926  31.172  32.682  1.00  0.00    -0.354 N 
ATOM     48  C   UNL A   1      39.386  33.323  36.403  1.00  0.00     0.074 A 
ATOM     49  C   UNL A   1      38.314  34.275  36.586  1.00  0.00     0.031 C 
ATOM     50  C   UNL A   1      38.023  30.709  30.691  1.00  0.00     0.029 A 
ATOM     51  C   UNL A   1      39.131  30.378  31.580  1.00  0.00     0.049 A 
ATOM     52  H   UNL A   1      39.524  31.171  33.465  1.00  0.00     0.167 HD
ATOM     53  C   UNL A   1      40.384  33.125  37.297  1.00  0.00     0.037 A 
ATOM     54  C   UNL A   1      40.103  29.483  31.319  1.00  0.00     0.037 A 
ATOM     55  C   UNL A   1      41.416  32.136  37.144  1.00  0.00     0.049 A 
ATOM     56  C   UNL A   1      41.169  29.236  32.352  1.00  0.00     0.074 A 
ATOM     57  C   UNL A   1      42.436  31.806  38.019  1.00  0.00     0.029 A 
ATOM     58  N   UNL A   1      41.547  31.303  36.043  1.00  0.00    -0.354 N 
ATOM     59  N   UNL A   1      41.347  29.818  33.513  1.00  0.00    -0.248 NA
ATOM     60  C   UNL A   1      42.159  28.195  32.046  1.00  0.00     0.031 C 
ATOM     61  C   UNL A   1      43.202  30.793  37.434  1.00  0.00     0.029 A 
ATOM     62  C   UNL A   1      42.632  30.460  36.216  1.00  0.00     0.049 A 
ATOM     63  H   UNL A   1      40.956  31.308  35.256  1.00  0.00     0.167 HD
ATOM     64  C   UNL A   1      42.447  29.197  34.088  1.00  0.00     0.074 A 
ATOM     65  C   UNL A   1      42.886  28.180  33.154  1.00  0.00     0.031 C 
ATOM     66  C   UNL A   1      43.043  29.445  35.280  1.00  0.00     0.037 A 
BRANCH  53  67
ATOM     67  C   UNL A   1      40.388  33.984  38.531  1.00  0.00     0.064 A 
ATOM     68  C   UNL A   1      41.120  35.180  38.593  1.00  0.00     0.173 A 
ATOM     69  C   UNL A   1      39.646  33.613  39.663  1.00  0.00     0.173 A 
ATOM     70  F   UNL A   1      41.859  35.574  37.544  1.00  0.00    -0.203 F 
ATOM     71  C   UNL A   1      41.144  35.950  39.753  1.00  0.00     0.198 A 
ATOM     72  C   UNL A   1      39.643  34.405  40.810  1.00  0.00     0.198 A 
ATOM     73  F   UNL A   1      38.923  32.484  39.659  1.00  0.00    -0.203 F 
ATOM     74  F   UNL A   1      41.904  37.052  39.808  1.00  0.00    -0.200 F 
ATOM     75  C   UNL A   1      40.400  35.566  40.858  1.00  0.00     0.200 A 
ATOM     76  F   UNL A   1      38.913  34.040  41.873  1.00  0.00    -0.200 F 
ATOM     77  F   UNL A   1      40.421  36.308  41.972  1.00  0.00    -0.200 F 
ENDBRANCH  53  67
BRANCH  54  78
ATOM     78  C   UNL A   1      40.083  28.718  30.044  1.00  0.00     0.064 A 
ATOM     79  C   UNL A   1      39.465  27.461  29.971  1.00  0.00     0.173 A 
ATOM     80  C   UNL A   1      40.672  29.223  28.877  1.00  0.00     0.173 A 
ATOM     81  F   UNL A   1      38.903  26.928  31.065  1.00  0.00    -0.203 F 
ATOM     82  C   UNL A   1      39.458  26.730  28.785  1.00  0.00     0.198 A 
ATOM     83  C   UNL A   1      40.640  28.504  27.685  1.00  0.00     0.198 A 
ATOM     84  F   UNL A   1      41.269  30.425  28.892  1.00  0.00    -0.203 F 
ATOM     85  F   UNL A   1      38.900  25.512  28.756  1.00  0.00    -0.200 F 
ATOM     86  C   UNL A   1      40.040  27.254  27.642  1.00  0.00     0.200 A 
ATOM     87  F   UNL A   1      41.190  29.020  26.577  1.00  0.00    -0.200 F 
ATOM     88  F   UNL A   1      40.028  26.552  26.501  1.00  0.00    -0.200 F 
ENDBRANCH  54  78
BRANCH  66  89
ATOM     89  C   UNL A   1      44.204  28.575  35.662  1.00  0.00     0.064 A 
ATOM     90  C   UNL A   1      44.030  27.391  36.393  1.00  0.00     0.173 A 
ATOM     91  C   UNL A   1      45.505  28.917  35.260  1.00  0.00     0.173 A 
ATOM     92  F   UNL A   1      42.809  27.029  36.811  1.00  0.00    -0.203 F 
ATOM     93  C   UNL A   1      45.121  26.594  36.731  1.00  0.00     0.198 A 
ATOM     94  C   UNL A   1      46.588  28.102  35.575  1.00  0.00     0.198 A 
ATOM     95  F   UNL A   1      45.723  30.036  34.552  1.00  0.00    -0.203 F 
ATOM     96  F   UNL A   1      44.938  25.493  37.473  1.00  0.00    -0.200 F 
ATOM     97  C   UNL A   1      46.397  26.947  36.317  1.00  0.00     0.200 A 
ATOM     98  F   UNL A   1      47.818  28.437  35.161  1.00  0.00    -0.200 F 
ATOM     99  F   UNL A   1      47.444  26.176  36.640  1.00  0.00    -0.200 F 
ENDBRANCH  66  89
ENDBRANCH  40  41
ENDBRANCH  32  35
ENDBRANCH  30  31
ENDBRANCH  29  30
ENDBRANCH   1  29
TORSDOF 13
ENDMDL
MODEL 2
REMARK VINA RESULT:     -13.3      0.761      2.058
REMARK SMILES C[C@H](C(=O)NCCCNC(=O)c1ccc(-c2c3nc(c(-c4c(F)c(F)c(F)c(F)c4F)c4ccc([nH]4)c(-c4c(F)c(F)c(F)c(F)c4F)c4nc(c(-c5c(F)c(F)c(F)c(F)c5F)c5ccc2[nH]5)C=C4)C=C3)cc1)c1ccc2c3cc(Cl)ccc3n(C(=O)c3cocn3)c2c1
REMARK SMILES IDX 6 1 5 2 3 3 4 4 2 6 1 7 75 8 76 9 95 10 77 11 94 12 78 13
REMARK SMILES IDX 86 14 79 15 85 16 80 17 84 18 81 19 83 20 82 21 87 22 88 23
REMARK SMILES IDX 89 24 90 25 93 26 91 27 92 28 7 29 8 30 9 31 10 32 11 34
REMARK SMILES IDX 12 35 13 36 74 37 14 38 73 39 15 40 16 41 17 42 67 43 18 44
REMARK SMILES IDX 72 45 66 46 68 47 19 48 71 49 65 50 64 51 20 53 52 54 32 55
REMARK SMILES IDX 51 56 33 57 36 58 50 59 69 60 34 61 35 62 49 64 70 65 37 66
REMARK SMILES IDX 21 67 22 68 30 69 23 70 24 71 28 72 31 73 25 74 26 75 29 76
REMARK SMILES IDX 27 77 53 78 54 79 62 80 55 81 56 82 60 83 63 84 57 85 58 86
REMARK SMILES IDX 61 87 59 88 38 89 39 90 47 91 40 92 41 93 45 94 48 95 42 96
REMARK SMILES IDX 43 97 46 98 44 99
REMARK H PARENT 5 5 9 33 68 52 36 63
REMARK Flexibility Score: inf
ROOT
ATOM      1  C   UNL A   1      33.578  33.899  28.141  1.00  0.00     0.117 C 
ENDROOT
BRANCH   1   2
ATOM      2  N   UNL A   1      34.330  32.664  28.007  1.00  0.00    -0.356 N 
ATOM      3  C   UNL A   1      33.962  31.453  27.506  1.00  0.00     0.227 C 
ATOM      4  O   UNL A   1      34.900  30.685  27.246  1.00  0.00    -0.274 OA
ATOM      5  H   UNL A   1      35.258  32.711  28.331  1.00  0.00     0.163 HD
BRANCH   3   6
ATOM      6  C   UNL A   1      32.515  30.946  27.363  1.00  0.00     0.105 C 
ATOM      7  C   UNL A   1      31.710  32.127  26.792  1.00  0.00     0.023 C 
BRANCH   6   8
ATOM      8  C   UNL A   1      32.304  29.615  26.649  1.00  0.00    -0.034 A 
ATOM      9  C   UNL A   1      32.802  28.435  27.216  1.00  0.00     0.005 A 
ATOM     10  C   UNL A   1      31.686  29.549  25.387  1.00  0.00     0.032 A 
ATOM     11  C   UNL A   1      32.878  27.250  26.469  1.00  0.00     0.011 A 
ATOM     12  C   UNL A   1      31.756  28.355  24.645  1.00  0.00     0.058 A 
ATOM     13  C   UNL A   1      32.393  27.224  25.144  1.00  0.00     0.008 A 
ATOM     14  N   UNL A   1      31.236  28.037  23.389  1.00  0.00    -0.274 N 
ATOM     15  C   UNL A   1      32.474  26.282  24.077  1.00  0.00     0.009 A 
ATOM     16  C   UNL A   1      31.767  26.808  22.988  1.00  0.00     0.057 A 
ATOM     17  C   UNL A   1      33.152  25.053  23.928  1.00  0.00     0.031 A 
ATOM     18  C   UNL A   1      31.744  26.150  21.743  1.00  0.00     0.029 A 
ATOM     19  C   UNL A   1      33.139  24.408  22.690  1.00  0.00     0.041 A 
ATOM     20  C   UNL A   1      32.445  24.945  21.614  1.00  0.00     0.023 A 
ATOM     21  Cl  UNL A   1      34.035  22.953  22.485  1.00  0.00    -0.084 Cl
BRANCH  14  22
ATOM     22  C   UNL A   1      30.363  28.867  22.649  1.00  0.00     0.284 C 
ATOM     23  O   UNL A   1      30.878  29.493  21.717  1.00  0.00    -0.266 OA
BRANCH  22  24
ATOM     24  C   UNL A   1      28.959  29.061  22.994  1.00  0.00     0.167 A 
ATOM     25  C   UNL A   1      28.261  30.245  23.126  1.00  0.00     0.231 A 
ATOM     26  N   UNL A   1      28.064  28.010  23.126  1.00  0.00    -0.211 NA
ATOM     27  O   UNL A   1      26.947  29.950  23.339  1.00  0.00    -0.451 OA
ATOM     28  C   UNL A   1      26.904  28.592  23.311  1.00  0.00     0.308 A 
ENDBRANCH  22  24
ENDBRANCH  14  22
ENDBRANCH   6   8
ENDBRANCH   3   6
ENDBRANCH   1   2
BRANCH   1  29
ATOM     29  C   UNL A   1      33.764  34.627  29.457  1.00  0.00     0.042 C 
BRANCH  29  30
ATOM     30  C   UNL A   1      33.146  36.010  29.528  1.00  0.00     0.118 C 
BRANCH  30  31
ATOM     31  N   UNL A   1      32.349  36.252  30.724  1.00  0.00    -0.352 N 
ATOM     32  C   UNL A   1      32.527  35.884  32.037  1.00  0.00     0.251 C 
ATOM     33  H   UNL A   1      31.532  36.776  30.561  1.00  0.00     0.163 HD
ATOM     34  O   UNL A   1      31.645  36.145  32.854  1.00  0.00    -0.269 OA
BRANCH  32  35
ATOM     35  C   UNL A   1      33.731  35.144  32.486  1.00  0.00     0.039 A 
ATOM     36  C   UNL A   1      33.593  33.818  32.915  1.00  0.00     0.014 A 
ATOM     37  C   UNL A   1      34.992  35.735  32.514  1.00  0.00     0.014 A 
ATOM     38  C   UNL A   1      34.722  33.079  33.288  1.00  0.00     0.010 A 
ATOM     39  C   UNL A   1      36.124  34.959  32.736  1.00  0.00     0.010 A 
ATOM     40  C   UNL A   1      36.005  33.629  33.157  1.00  0.00    -0.014 A 
BRANCH  40  41
ATOM     41  C   UNL A   1      37.234  32.868  33.511  1.00  0.00     0.031 A 
ATOM     42  C   UNL A   1      37.941  33.148  34.815  1.00  0.00     0.074 A 
ATOM     43  C   UNL A   1      37.762  31.987  32.639  1.00  0.00     0.049 A 
ATOM     44  N   UNL A   1      39.084  32.685  35.259  1.00  0.00    -0.248 NA
ATOM     45  C   UNL A   1      37.305  34.121  35.718  1.00  0.00     0.031 C 
ATOM     46  C   UNL A   1      37.222  31.673  31.315  1.00  0.00     0.029 A 
ATOM     47  N   UNL A   1      38.881  31.197  32.734  1.00  0.00    -0.354 N 
ATOM     48  C   UNL A   1      39.312  33.337  36.465  1.00  0.00     0.074 A 
ATOM     49  C   UNL A   1      38.234  34.283  36.646  1.00  0.00     0.031 C 
ATOM     50  C   UNL A   1      37.990  30.737  30.736  1.00  0.00     0.029 A 
ATOM     51  C   UNL A   1      39.095  30.408  31.630  1.00  0.00     0.049 A 
ATOM     52  H   UNL A   1      39.476  31.196  33.520  1.00  0.00     0.167 HD
ATOM     53  C   UNL A   1      40.306  33.141  37.363  1.00  0.00     0.037 A 
ATOM     54  C   UNL A   1      40.073  29.519  31.371  1.00  0.00     0.037 A 
ATOM     55  C   UNL A   1      41.344  32.158  37.211  1.00  0.00     0.049 A 
ATOM     56  C   UNL A   1      41.135  29.274  32.408  1.00  0.00     0.074 A 
ATOM     57  C   UNL A   1      42.362  31.830  38.090  1.00  0.00     0.029 A 
ATOM     58  N   UNL A   1      41.484  31.329  36.108  1.00  0.00    -0.354 N 
ATOM     59  N   UNL A   1      41.305  29.853  33.572  1.00  0.00    -0.248 NA
ATOM     60  C   UNL A   1      42.132  28.239  32.102  1.00  0.00     0.031 C 
ATOM     61  C   UNL A   1      43.136  30.824  37.505  1.00  0.00     0.029 A 
ATOM     62  C   UNL A   1      42.574  30.492  36.283  1.00  0.00     0.049 A 
ATOM     63  H   UNL A   1      40.897  31.335  35.318  1.00  0.00     0.167 HD
ATOM     64  C   UNL A   1      42.406  29.235  34.149  1.00  0.00     0.074 A 
ATOM     65  C   UNL A   1      42.854  28.224  33.214  1.00  0.00     0.031 C 
ATOM     66  C   UNL A   1      42.994  29.483  35.345  1.00  0.00     0.037 A 
BRANCH  53  67
ATOM     67  C   UNL A   1      40.300  33.995  38.600  1.00  0.00     0.064 A 
ATOM     68  C   UNL A   1      39.596  33.614  39.753  1.00  0.00     0.173 A 
ATOM     69  C   UNL A   1      41.011  35.203  38.639  1.00  0.00     0.173 A 
ATOM     70  F   UNL A   1      38.886  32.475  39.766  1.00  0.00    -0.203 F 
ATOM     71  C   UNL A   1      39.568  34.429  40.882  1.00  0.00     0.198 A 
ATOM     72  C   UNL A   1      41.012  35.999  39.783  1.00  0.00     0.198 A 
ATOM     73  F   UNL A   1      41.707  35.615  37.569  1.00  0.00    -0.203 F 
ATOM     74  F   UNL A   1      38.835  34.074  41.945  1.00  0.00    -0.200 F 
ATOM     75  C   UNL A   1      40.282  35.618  40.898  1.00  0.00     0.200 A 
ATOM     76  F   UNL A   1      41.713  37.142  39.802  1.00  0.00    -0.200 F 
ATOM     77  F   UNL A   1      40.258  36.400  41.985  1.00  0.00    -0.200 F 
ENDBRANCH  53  67
BRANCH  54  78
ATOM     78  C   UNL A   1      40.063  28.759  30.093  1.00  0.00     0.064 A 
ATOM     79  C   UNL A   1      40.666  29.284  28.940  1.00  0.00     0.173 A 
ATOM     80  C   UNL A   1      39.457  27.499  29.994  1.00  0.00     0.173 A 
ATOM     81  F   UNL A   1      41.243  30.494  28.981  1.00  0.00    -0.203 F 
ATOM     82  C   UNL A   1      40.645  28.588  27.734  1.00  0.00     0.198 A 
ATOM     83  C   UNL A   1      39.460  26.790  28.794  1.00  0.00     0.198 A 
ATOM     84  F   UNL A   1      38.873  26.949  31.069  1.00  0.00    -0.203 F 
ATOM     85  F   UNL A   1      41.190  29.133  26.639  1.00  0.00    -0.200 F 
ATOM     86  C   UNL A   1      40.047  27.339  27.664  1.00  0.00     0.200 A 
ATOM     87  F   UNL A   1      38.895  25.577  28.733  1.00  0.00    -0.200 F 
ATOM     88  F   UNL A   1      40.031  26.667  26.504  1.00  0.00    -0.200 F 
ENDBRANCH  54  78
BRANCH  66  89
ATOM     89  C   UNL A   1      44.158  28.617  35.730  1.00  0.00     0.064 A 
ATOM     90  C   UNL A   1      45.476  28.962  35.395  1.00  0.00     0.173 A 
ATOM     91  C   UNL A   1      43.953  27.445  36.474  1.00  0.00     0.173 A 
ATOM     92  F   UNL A   1      45.722  30.065  34.673  1.00  0.00    -0.203 F 
ATOM     93  C   UNL A   1      46.543  28.149  35.767  1.00  0.00     0.198 A 
ATOM     94  C   UNL A   1      45.024  26.651  36.869  1.00  0.00     0.198 A 
ATOM     95  F   UNL A   1      42.711  27.077  36.826  1.00  0.00    -0.203 F 
ATOM     96  F   UNL A   1      47.789  28.471  35.394  1.00  0.00    -0.200 F 
ATOM     97  C   UNL A   1      46.317  26.998  36.509  1.00  0.00     0.200 A 
ATOM     98  F   UNL A   1      44.805  25.548  37.598  1.00  0.00    -0.200 F 
ATOM     99  F   UNL A   1      47.346  26.220  36.870  1.00  0.00    -0.200 F 
ENDBRANCH  66  89
ENDBRANCH  40  41
ENDBRANCH  32  35
ENDBRANCH  30  31
ENDBRANCH  29  30
ENDBRANCH   1  29
TORSDOF 13
ENDMDL
MODEL 3
REMARK VINA RESULT:     -12.9      7.490     12.871
REMARK SMILES C[C@H](C(=O)NCCCNC(=O)c1ccc(-c2c3nc(c(-c4c(F)c(F)c(F)c(F)c4F)c4ccc([nH]4)c(-c4c(F)c(F)c(F)c(F)c4F)c4nc(c(-c5c(F)c(F)c(F)c(F)c5F)c5ccc2[nH]5)C=C4)C=C3)cc1)c1ccc2c3cc(Cl)ccc3n(C(=O)c3cocn3)c2c1
REMARK SMILES IDX 6 1 5 2 3 3 4 4 2 6 1 7 75 8 76 9 95 10 77 11 94 12 78 13
REMARK SMILES IDX 86 14 79 15 85 16 80 17 84 18 81 19 83 20 82 21 87 22 88 23
REMARK SMILES IDX 89 24 90 25 93 26 91 27 92 28 7 29 8 30 9 31 10 32 11 34
REMARK SMILES IDX 12 35 13 36 74 37 14 38 73 39 15 40 16 41 17 42 67 43 18 44
REMARK SMILES IDX 72 45 66 46 68 47 19 48 71 49 65 50 64 51 20 53 52 54 32 55
REMARK SMILES IDX 51 56 33 57 36 58 50 59 69 60 34 61 35 62 49 64 70 65 37 66
REMARK SMILES IDX 21 67 22 68 30 69 23 70 24 71 28 72 31 73 25 74 26 75 29 76
REMARK SMILES IDX 27 77 53 78 54 79 62 80 55 81 56 82 60 83 63 84 57 85 58 86
REMARK SMILES IDX 61 87 59 88 38 89 39 90 47 91 40 92 41 93 45 94 48 95 42 96
REMARK SMILES IDX 43 97 46 98 44 99
REMARK H PARENT 5 5 9 33 68 52 36 63
REMARK Flexibility Score: inf
ROOT
ATOM      1  C   UNL A   1      41.188  20.259  26.847  1.00  0.00     0.117 C 
ENDROOT
BRANCH   1   2
ATOM      2  N   UNL A   1      40.156  19.537  26.126  1.00  0.00    -0.356 N 
ATOM      3  C   UNL A   1      38.990  19.973  25.574  1.00  0.00     0.227 C 
ATOM      4  O   UNL A   1      38.465  19.191  24.768  1.00  0.00    -0.274 OA
ATOM      5  H   UNL A   1      40.327  18.574  26.018  1.00  0.00     0.163 HD
BRANCH   3   6
ATOM      6  C   UNL A   1      38.245  21.264  25.962  1.00  0.00     0.105 C 
ATOM      7  C   UNL A   1      39.337  22.313  26.235  1.00  0.00     0.023 C 
BRANCH   6   8
ATOM      8  C   UNL A   1      37.119  21.728  25.044  1.00  0.00    -0.034 A 
ATOM      9  C   UNL A   1      37.318  22.828  24.200  1.00  0.00     0.005 A 
ATOM     10  C   UNL A   1      35.848  21.126  25.080  1.00  0.00     0.032 A 
ATOM     11  C   UNL A   1      36.237  23.453  23.560  1.00  0.00     0.011 A 
ATOM     12  C   UNL A   1      34.768  21.752  24.427  1.00  0.00     0.058 A 
ATOM     13  C   UNL A   1      34.934  22.936  23.717  1.00  0.00     0.008 A 
ATOM     14  N   UNL A   1      33.431  21.366  24.316  1.00  0.00    -0.274 N 
ATOM     15  C   UNL A   1      33.633  23.406  23.376  1.00  0.00     0.009 A 
ATOM     16  C   UNL A   1      32.709  22.430  23.769  1.00  0.00     0.057 A 
ATOM     17  C   UNL A   1      33.161  24.617  22.823  1.00  0.00     0.031 A 
ATOM     18  C   UNL A   1      31.321  22.645  23.651  1.00  0.00     0.029 A 
ATOM     19  C   UNL A   1      31.787  24.833  22.719  1.00  0.00     0.041 A 
ATOM     20  C   UNL A   1      30.879  23.863  23.124  1.00  0.00     0.023 A 
ATOM     21  Cl  UNL A   1      31.211  26.343  22.124  1.00  0.00    -0.084 Cl
BRANCH  14  22
ATOM     22  C   UNL A   1      32.917  20.121  24.744  1.00  0.00     0.284 C 
ATOM     23  O   UNL A   1      32.388  20.113  25.860  1.00  0.00    -0.266 OA
BRANCH  22  24
ATOM     24  C   UNL A   1      33.065  18.888  23.979  1.00  0.00     0.167 A 
ATOM     25  C   UNL A   1      32.399  18.499  22.834  1.00  0.00     0.231 A 
ATOM     26  N   UNL A   1      34.042  17.943  24.258  1.00  0.00    -0.211 NA
ATOM     27  O   UNL A   1      32.942  17.328  22.395  1.00  0.00    -0.451 OA
ATOM     28  C   UNL A   1      33.930  17.064  23.291  1.00  0.00     0.308 A 
ENDBRANCH  22  24
ENDBRANCH  14  22
ENDBRANCH   6   8
ENDBRANCH   3   6
ENDBRANCH   1   2
BRANCH   1  29
ATOM     29  C   UNL A   1      42.570  20.197  26.228  1.00  0.00     0.042 C 
BRANCH  29  30
ATOM     30  C   UNL A   1      43.166  18.808  26.108  1.00  0.00     0.118 C 
BRANCH  30  31
ATOM     31  N   UNL A   1      43.963  18.597  24.906  1.00  0.00    -0.352 N 
ATOM     32  C   UNL A   1      44.761  19.444  24.171  1.00  0.00     0.251 C 
ATOM     33  H   UNL A   1      43.923  17.679  24.554  1.00  0.00     0.163 HD
ATOM     34  O   UNL A   1      45.265  19.033  23.128  1.00  0.00    -0.269 OA
BRANCH  32  35
ATOM     35  C   UNL A   1      44.993  20.851  24.581  1.00  0.00     0.039 A 
ATOM     36  C   UNL A   1      44.528  21.884  23.758  1.00  0.00     0.014 A 
ATOM     37  C   UNL A   1      45.679  21.175  25.748  1.00  0.00     0.014 A 
ATOM     38  C   UNL A   1      44.683  23.219  24.150  1.00  0.00     0.010 A 
ATOM     39  C   UNL A   1      45.697  22.487  26.210  1.00  0.00     0.010 A 
ATOM     40  C   UNL A   1      45.228  23.531  25.404  1.00  0.00    -0.014 A 
BRANCH  40  41
ATOM     41  C   UNL A   1      45.381  24.935  25.874  1.00  0.00     0.031 A 
ATOM     42  C   UNL A   1      46.727  25.612  25.791  1.00  0.00     0.074 A 
ATOM     43  C   UNL A   1      44.343  25.576  26.446  1.00  0.00     0.049 A 
ATOM     44  N   UNL A   1      47.102  26.781  26.250  1.00  0.00    -0.248 NA
ATOM     45  C   UNL A   1      47.813  24.850  25.152  1.00  0.00     0.031 C 
ATOM     46  C   UNL A   1      43.008  25.015  26.656  1.00  0.00     0.029 A 
ATOM     47  N   UNL A   1      44.253  26.844  26.966  1.00  0.00    -0.354 N 
ATOM     48  C   UNL A   1      48.464  26.870  25.988  1.00  0.00     0.074 A 
ATOM     49  C   UNL A   1      48.866  25.611  25.402  1.00  0.00     0.031 C 
ATOM     50  C   UNL A   1      42.224  25.943  27.229  1.00  0.00     0.029 A 
ATOM     51  C   UNL A   1      43.009  27.151  27.460  1.00  0.00     0.049 A 
ATOM     52  H   UNL A   1      45.010  27.475  26.984  1.00  0.00     0.167 HD
ATOM     53  C   UNL A   1      49.300  27.918  26.179  1.00  0.00     0.037 A 
ATOM     54  C   UNL A   1      42.553  28.282  28.033  1.00  0.00     0.037 A 
ATOM     55  C   UNL A   1      48.886  29.191  26.705  1.00  0.00     0.049 A 
ATOM     56  C   UNL A   1      43.484  29.455  28.182  1.00  0.00     0.074 A 
ATOM     57  C   UNL A   1      49.635  30.341  26.879  1.00  0.00     0.029 A 
ATOM     58  N   UNL A   1      47.598  29.483  27.129  1.00  0.00    -0.354 N 
ATOM     59  N   UNL A   1      44.754  29.548  27.872  1.00  0.00    -0.248 NA
ATOM     60  C   UNL A   1      42.912  30.686  28.743  1.00  0.00     0.031 C 
ATOM     61  C   UNL A   1      48.808  31.321  27.436  1.00  0.00     0.029 A 
ATOM     62  C   UNL A   1      47.532  30.796  27.566  1.00  0.00     0.049 A 
ATOM     63  H   UNL A   1      46.842  28.852  27.121  1.00  0.00     0.167 HD
ATOM     64  C   UNL A   1      45.126  30.851  28.173  1.00  0.00     0.074 A 
ATOM     65  C   UNL A   1      43.942  31.518  28.674  1.00  0.00     0.031 C 
ATOM     66  C   UNL A   1      46.339  31.444  28.047  1.00  0.00     0.037 A 
BRANCH  53  67
ATOM     67  C   UNL A   1      50.740  27.734  25.792  1.00  0.00     0.064 A 
ATOM     68  C   UNL A   1      51.172  27.893  24.466  1.00  0.00     0.173 A 
ATOM     69  C   UNL A   1      51.703  27.403  26.757  1.00  0.00     0.173 A 
ATOM     70  F   UNL A   1      50.290  28.195  23.500  1.00  0.00    -0.203 F 
ATOM     71  C   UNL A   1      52.503  27.686  24.112  1.00  0.00     0.198 A 
ATOM     72  C   UNL A   1      53.042  27.234  26.406  1.00  0.00     0.198 A 
ATOM     73  F   UNL A   1      51.350  27.244  28.041  1.00  0.00    -0.203 F 
ATOM     74  F   UNL A   1      52.876  27.780  22.829  1.00  0.00    -0.200 F 
ATOM     75  C   UNL A   1      53.438  27.364  25.084  1.00  0.00     0.200 A 
ATOM     76  F   UNL A   1      53.947  26.934  27.349  1.00  0.00    -0.200 F 
ATOM     77  F   UNL A   1      54.719  27.168  24.744  1.00  0.00    -0.200 F 
ENDBRANCH  53  67
BRANCH  54  78
ATOM     78  C   UNL A   1      41.133  28.374  28.463  1.00  0.00     0.064 A 
ATOM     79  C   UNL A   1      40.154  28.891  27.601  1.00  0.00     0.173 A 
ATOM     80  C   UNL A   1      40.722  27.948  29.734  1.00  0.00     0.173 A 
ATOM     81  F   UNL A   1      40.501  29.327  26.382  1.00  0.00    -0.203 F 
ATOM     82  C   UNL A   1      38.824  28.998  28.002  1.00  0.00     0.198 A 
ATOM     83  C   UNL A   1      39.387  28.029  30.124  1.00  0.00     0.198 A 
ATOM     84  F   UNL A   1      41.618  27.439  30.593  1.00  0.00    -0.203 F 
ATOM     85  F   UNL A   1      37.919  29.537  27.175  1.00  0.00    -0.200 F 
ATOM     86  C   UNL A   1      38.441  28.562  29.261  1.00  0.00     0.200 A 
ATOM     87  F   UNL A   1      39.017  27.593  31.336  1.00  0.00    -0.200 F 
ATOM     88  F   UNL A   1      37.161  28.660  29.644  1.00  0.00    -0.200 F 
ENDBRANCH  54  78
BRANCH  66  89
ATOM     89  C   UNL A   1      46.436  32.895  28.415  1.00  0.00     0.064 A 
ATOM     90  C   UNL A   1      46.200  33.911  27.478  1.00  0.00     0.173 A 
ATOM     91  C   UNL A   1      46.735  33.271  29.734  1.00  0.00     0.173 A 
ATOM     92  F   UNL A   1      45.924  33.603  26.203  1.00  0.00    -0.203 F 
ATOM     93  C   UNL A   1      46.288  35.253  27.842  1.00  0.00     0.198 A 
ATOM     94  C   UNL A   1      46.793  34.612  30.100  1.00  0.00     0.198 A 
ATOM     95  F   UNL A   1      46.961  32.336  30.669  1.00  0.00    -0.203 F 
ATOM     96  F   UNL A   1      46.108  36.208  26.919  1.00  0.00    -0.200 F 
ATOM     97  C   UNL A   1      46.578  35.602  29.153  1.00  0.00     0.200 A 
ATOM     98  F   UNL A   1      47.059  34.947  31.370  1.00  0.00    -0.200 F 
ATOM     99  F   UNL A   1      46.657  36.893  29.502  1.00  0.00    -0.200 F 
ENDBRANCH  66  89
ENDBRANCH  40  41
ENDBRANCH  32  35
ENDBRANCH  30  31
ENDBRANCH  29  30
ENDBRANCH   1  29
TORSDOF 13
ENDMDL
