MODEL 1
REMARK VINA RESULT:     -12.6      0.000      0.000
REMARK SMILES N#Cc1ccccc1S(=O)(=O)N1CCC(C(=O)NCCCNC(=O)c2ccc(-c3c4nc(c(-c5c(F)c(F)c(F)c(F)c5F)c5ccc([nH]5)c(-c5c(F)c(F)c(F)c(F)c5F)c5nc(c(-c6c(F)c(F)c(F)c(F)c6F)c6ccc3[nH]6)C=C5)C=C4)cc2)CC1
REMARK SMILES IDX 19 1 18 2 16 3 17 4 15 6 12 7 13 8 89 9 14 10 88 11 9 12
REMARK SMILES IDX 10 13 11 14 8 15 3 16 4 17 5 18 7 19 6 20 2 21 1 22 20 23
REMARK SMILES IDX 21 24 22 25 23 26 24 28 25 29 26 30 87 31 27 32 86 33 28 34
REMARK SMILES IDX 29 35 30 36 80 37 31 38 85 39 79 40 81 41 32 42 84 43 78 44
REMARK SMILES IDX 77 45 33 47 65 48 45 49 64 50 46 51 49 52 63 53 82 54 47 55
REMARK SMILES IDX 48 56 62 58 83 59 50 60 34 61 35 62 43 63 36 64 37 65 41 66
REMARK SMILES IDX 44 67 38 68 39 69 42 70 40 71 66 72 67 73 75 74 68 75 69 76
REMARK SMILES IDX 73 77 76 78 70 79 71 80 74 81 72 82 51 83 52 84 60 85 53 86
REMARK SMILES IDX 54 87 58 88 61 89 55 90 56 91 59 92 57 93
REMARK H PARENT 18 5 22 27 81 46 49 57
REMARK Flexibility Score: inf
ROOT
ATOM      1  C   UNL A   1      31.381  30.642  25.759  1.00  0.00     0.117 C 
ENDROOT
BRANCH   1   2
ATOM      2  N   UNL A   1      30.600  30.513  24.537  1.00  0.00    -0.356 N 
ATOM      3  C   UNL A   1      30.423  29.454  23.701  1.00  0.00     0.223 C 
ATOM      4  O   UNL A   1      29.755  29.631  22.682  1.00  0.00    -0.275 OA
ATOM      5  H   UNL A   1      30.120  31.330  24.271  1.00  0.00     0.163 HD
BRANCH   3   6
ATOM      6  C   UNL A   1      31.024  28.095  24.022  1.00  0.00     0.081 C 
ATOM      7  N   UNL A   1      31.982  25.487  23.143  1.00  0.00    -0.198 NA
ATOM      8  C   UNL A   1      30.590  25.586  23.608  1.00  0.00     0.103 C 
ATOM      9  C   UNL A   1      32.965  26.562  23.352  1.00  0.00     0.103 C 
ATOM     10  C   UNL A   1      30.030  26.985  23.715  1.00  0.00     0.030 C 
ATOM     11  C   UNL A   1      32.393  27.961  23.369  1.00  0.00     0.030 C 
BRANCH   7  12
ATOM     12  S   UNL A   1      32.606  23.916  23.016  1.00  0.00     0.244 S 
ATOM     13  O   UNL A   1      33.318  23.850  21.755  1.00  0.00    -0.207 OA
ATOM     14  O   UNL A   1      31.528  22.993  23.304  1.00  0.00    -0.207 OA
BRANCH  12  15
ATOM     15  C   UNL A   1      33.842  23.610  24.269  1.00  0.00     0.100 A 
ATOM     16  C   UNL A   1      33.705  23.666  25.658  1.00  0.00     0.072 A 
ATOM     17  C   UNL A   1      34.833  23.431  26.470  1.00  0.00     0.021 A 
ATOM     18  C   UNL A   1      36.073  23.123  25.921  1.00  0.00     0.001 A 
ATOM     19  C   UNL A   1      35.105  23.288  23.725  1.00  0.00     0.023 A 
ATOM     20  C   UNL A   1      36.207  23.043  24.544  1.00  0.00     0.001 A 
BRANCH  16  21
ATOM     21  C   UNL A   1      32.513  23.922  26.400  1.00  0.00     0.101 C 
ATOM     22  N   UNL A   1      31.564  24.038  27.048  1.00  0.00    -0.192 NA
ENDBRANCH  16  21
ENDBRANCH  12  15
ENDBRANCH   7  12
ENDBRANCH   3   6
ENDBRANCH   1   2
BRANCH   1  23
ATOM     23  C   UNL A   1      31.275  32.034  26.356  1.00  0.00     0.042 C 
BRANCH  23  24
ATOM     24  C   UNL A   1      32.529  32.462  27.091  1.00  0.00     0.118 C 
BRANCH  24  25
ATOM     25  N   UNL A   1      32.461  33.848  27.526  1.00  0.00    -0.352 N 
ATOM     26  C   UNL A   1      33.147  34.486  28.527  1.00  0.00     0.251 C 
ATOM     27  H   UNL A   1      31.829  34.413  27.028  1.00  0.00     0.163 HD
ATOM     28  O   UNL A   1      32.776  35.588  28.916  1.00  0.00    -0.269 OA
BRANCH  26  29
ATOM     29  C   UNL A   1      34.326  33.840  29.137  1.00  0.00     0.039 A 
ATOM     30  C   UNL A   1      35.599  34.323  28.825  1.00  0.00     0.014 A 
ATOM     31  C   UNL A   1      34.183  32.744  29.991  1.00  0.00     0.014 A 
ATOM     32  C   UNL A   1      36.719  33.722  29.395  1.00  0.00     0.010 A 
ATOM     33  C   UNL A   1      35.287  32.230  30.654  1.00  0.00     0.010 A 
ATOM     34  C   UNL A   1      36.571  32.685  30.332  1.00  0.00    -0.014 A 
BRANCH  34  35
ATOM     35  C   UNL A   1      37.754  32.026  30.934  1.00  0.00     0.031 A 
ATOM     36  C   UNL A   1      38.191  32.395  32.328  1.00  0.00     0.074 A 
ATOM     37  C   UNL A   1      38.447  31.120  30.220  1.00  0.00     0.049 A 
ATOM     38  N   UNL A   1      39.198  31.937  33.029  1.00  0.00    -0.248 NA
ATOM     39  C   UNL A   1      37.415  33.441  33.015  1.00  0.00     0.031 C 
ATOM     40  C   UNL A   1      38.152  30.725  28.842  1.00  0.00     0.029 A 
ATOM     41  N   UNL A   1      39.539  30.362  30.558  1.00  0.00    -0.354 N 
ATOM     42  C   UNL A   1      39.176  32.643  34.224  1.00  0.00     0.074 A 
ATOM     43  C   UNL A   1      38.111  33.614  34.127  1.00  0.00     0.031 C 
ATOM     44  C   UNL A   1      39.014  29.767  28.466  1.00  0.00     0.029 A 
ATOM     45  C   UNL A   1      39.944  29.510  29.560  1.00  0.00     0.049 A 
ATOM     46  H   UNL A   1      39.989  30.423  31.430  1.00  0.00     0.167 HD
ATOM     47  C   UNL A   1      39.953  32.474  35.321  1.00  0.00     0.037 A 
ATOM     48  C   UNL A   1      40.953  28.619  29.538  1.00  0.00     0.037 A 
ATOM     49  C   UNL A   1      40.999  31.490  35.418  1.00  0.00     0.049 A 
ATOM     50  C   UNL A   1      41.802  28.452  30.769  1.00  0.00     0.074 A 
ATOM     51  C   UNL A   1      41.816  31.203  36.496  1.00  0.00     0.029 A 
ATOM     52  N   UNL A   1      41.374  30.636  34.391  1.00  0.00    -0.354 N 
ATOM     53  N   UNL A   1      41.728  29.074  31.921  1.00  0.00    -0.248 NA
ATOM     54  C   UNL A   1      42.866  27.443  30.700  1.00  0.00     0.031 C 
ATOM     55  C   UNL A   1      42.724  30.214  36.103  1.00  0.00     0.029 A 
ATOM     56  C   UNL A   1      42.424  29.833  34.805  1.00  0.00     0.049 A 
ATOM     57  H   UNL A   1      40.954  30.604  33.501  1.00  0.00     0.167 HD
ATOM     58  C   UNL A   1      42.707  28.507  32.726  1.00  0.00     0.074 A 
ATOM     59  C   UNL A   1      43.349  27.478  31.933  1.00  0.00     0.031 C 
ATOM     60  C   UNL A   1      43.044  28.807  34.005  1.00  0.00     0.037 A 
BRANCH  47  61
ATOM     61  C   UNL A   1      39.695  33.370  36.501  1.00  0.00     0.064 A 
ATOM     62  C   UNL A   1      38.776  33.024  37.506  1.00  0.00     0.173 A 
ATOM     63  C   UNL A   1      40.391  34.579  36.642  1.00  0.00     0.173 A 
ATOM     64  F   UNL A   1      38.071  31.885  37.415  1.00  0.00    -0.203 F 
ATOM     65  C   UNL A   1      38.541  33.870  38.586  1.00  0.00     0.198 A 
ATOM     66  C   UNL A   1      40.180  35.405  37.743  1.00  0.00     0.198 A 
ATOM     67  F   UNL A   1      41.282  34.960  35.714  1.00  0.00    -0.203 F 
ATOM     68  F   UNL A   1      37.616  33.546  39.499  1.00  0.00    -0.200 F 
ATOM     69  C   UNL A   1      39.249  35.055  38.709  1.00  0.00     0.200 A 
ATOM     70  F   UNL A   1      40.878  36.543  37.868  1.00  0.00    -0.200 F 
ATOM     71  F   UNL A   1      39.028  35.865  39.754  1.00  0.00    -0.200 F 
ENDBRANCH  47  61
BRANCH  48  72
ATOM     72  C   UNL A   1      41.190  27.791  28.325  1.00  0.00     0.064 A 
ATOM     73  C   UNL A   1      40.550  26.555  28.158  1.00  0.00     0.173 A 
ATOM     74  C   UNL A   1      42.069  28.210  27.317  1.00  0.00     0.173 A 
ATOM     75  F   UNL A   1      39.712  26.101  29.101  1.00  0.00    -0.203 F 
ATOM     76  C   UNL A   1      40.808  25.755  27.046  1.00  0.00     0.198 A 
ATOM     77  C   UNL A   1      42.299  27.426  26.189  1.00  0.00     0.198 A 
ATOM     78  F   UNL A   1      42.699  29.390  27.423  1.00  0.00    -0.203 F 
ATOM     79  F   UNL A   1      40.228  24.551  26.942  1.00  0.00    -0.200 F 
ATOM     80  C   UNL A   1      41.677  26.193  26.060  1.00  0.00     0.200 A 
ATOM     81  F   UNL A   1      43.126  27.862  25.229  1.00  0.00    -0.200 F 
ATOM     82  F   UNL A   1      41.923  25.425  24.991  1.00  0.00    -0.200 F 
ENDBRANCH  48  72
BRANCH  60  83
ATOM     83  C   UNL A   1      44.116  27.969  34.646  1.00  0.00     0.064 A 
ATOM     84  C   UNL A   1      45.469  28.336  34.611  1.00  0.00     0.173 A 
ATOM     85  C   UNL A   1      43.776  26.783  35.315  1.00  0.00     0.173 A 
ATOM     86  F   UNL A   1      45.850  29.455  33.975  1.00  0.00    -0.203 F 
ATOM     87  C   UNL A   1      46.447  27.522  35.178  1.00  0.00     0.198 A 
ATOM     88  C   UNL A   1      44.751  25.993  35.918  1.00  0.00     0.198 A 
ATOM     89  F   UNL A   1      42.495  26.390  35.391  1.00  0.00    -0.203 F 
ATOM     90  F   UNL A   1      47.740  27.855  35.065  1.00  0.00    -0.200 F 
ATOM     91  C   UNL A   1      46.087  26.356  35.835  1.00  0.00     0.200 A 
ATOM     92  F   UNL A   1      44.399  24.877  36.570  1.00  0.00    -0.200 F 
ATOM     93  F   UNL A   1      47.029  25.574  36.379  1.00  0.00    -0.200 F 
ENDBRANCH  60  83
ENDBRANCH  34  35
ENDBRANCH  26  29
ENDBRANCH  24  25
ENDBRANCH  23  24
ENDBRANCH   1  23
TORSDOF 13
ENDMDL
MODEL 2
REMARK VINA RESULT:     -12.5      0.108      1.596
REMARK SMILES N#Cc1ccccc1S(=O)(=O)N1CCC(C(=O)NCCCNC(=O)c2ccc(-c3c4nc(c(-c5c(F)c(F)c(F)c(F)c5F)c5ccc([nH]5)c(-c5c(F)c(F)c(F)c(F)c5F)c5nc(c(-c6c(F)c(F)c(F)c(F)c6F)c6ccc3[nH]6)C=C5)C=C4)cc2)CC1
REMARK SMILES IDX 19 1 18 2 16 3 17 4 15 6 12 7 13 8 89 9 14 10 88 11 9 12
REMARK SMILES IDX 10 13 11 14 8 15 3 16 4 17 5 18 7 19 6 20 2 21 1 22 20 23
REMARK SMILES IDX 21 24 22 25 23 26 24 28 25 29 26 30 87 31 27 32 86 33 28 34
REMARK SMILES IDX 29 35 30 36 80 37 31 38 85 39 79 40 81 41 32 42 84 43 78 44
REMARK SMILES IDX 77 45 33 47 65 48 45 49 64 50 46 51 49 52 63 53 82 54 47 55
REMARK SMILES IDX 48 56 62 58 83 59 50 60 34 61 35 62 43 63 36 64 37 65 41 66
REMARK SMILES IDX 44 67 38 68 39 69 42 70 40 71 66 72 67 73 75 74 68 75 69 76
REMARK SMILES IDX 73 77 76 78 70 79 71 80 74 81 72 82 51 83 52 84 60 85 53 86
REMARK SMILES IDX 54 87 58 88 61 89 55 90 56 91 59 92 57 93
REMARK H PARENT 18 5 22 27 81 46 49 57
REMARK Flexibility Score: inf
ROOT
ATOM      1  C   UNL A   1      31.424  30.659  25.825  1.00  0.00     0.117 C 
ENDROOT
BRANCH   1   2
ATOM      2  N   UNL A   1      30.636  30.536  24.607  1.00  0.00    -0.356 N 
ATOM      3  C   UNL A   1      30.456  29.482  23.765  1.00  0.00     0.223 C 
ATOM      4  O   UNL A   1      29.780  29.664  22.752  1.00  0.00    -0.275 OA
ATOM      5  H   UNL A   1      30.151  31.353  24.350  1.00  0.00     0.163 HD
BRANCH   3   6
ATOM      6  C   UNL A   1      31.062  28.123  24.073  1.00  0.00     0.081 C 
ATOM      7  N   UNL A   1      32.024  25.524  23.168  1.00  0.00    -0.198 NA
ATOM      8  C   UNL A   1      30.634  25.615  23.641  1.00  0.00     0.103 C 
ATOM      9  C   UNL A   1      33.004  26.602  23.382  1.00  0.00     0.103 C 
ATOM     10  C   UNL A   1      30.071  27.012  23.762  1.00  0.00     0.030 C 
ATOM     11  C   UNL A   1      32.428  27.998  23.413  1.00  0.00     0.030 C 
BRANCH   7  12
ATOM     12  S   UNL A   1      32.653  23.957  23.027  1.00  0.00     0.244 S 
ATOM     13  O   UNL A   1      33.393  23.915  21.781  1.00  0.00    -0.207 OA
ATOM     14  O   UNL A   1      31.569  23.028  23.274  1.00  0.00    -0.207 OA
BRANCH  12  15
ATOM     15  C   UNL A   1      33.861  23.628  24.301  1.00  0.00     0.100 A 
ATOM     16  C   UNL A   1      33.686  23.633  25.687  1.00  0.00     0.072 A 
ATOM     17  C   UNL A   1      34.796  23.389  26.521  1.00  0.00     0.021 A 
ATOM     18  C   UNL A   1      36.055  23.122  25.996  1.00  0.00     0.001 A 
ATOM     19  C   UNL A   1      35.143  23.347  23.781  1.00  0.00     0.023 A 
ATOM     20  C   UNL A   1      36.228  23.092  24.620  1.00  0.00     0.001 A 
BRANCH  16  21
ATOM     21  C   UNL A   1      32.470  23.843  26.405  1.00  0.00     0.101 C 
ATOM     22  N   UNL A   1      31.539  24.081  27.046  1.00  0.00    -0.192 NA
ENDBRANCH  16  21
ENDBRANCH  12  15
ENDBRANCH   7  12
ENDBRANCH   3   6
ENDBRANCH   1   2
BRANCH   1  23
ATOM     23  C   UNL A   1      31.304  32.041  26.442  1.00  0.00     0.042 C 
BRANCH  23  24
ATOM     24  C   UNL A   1      32.527  32.442  27.242  1.00  0.00     0.118 C 
BRANCH  24  25
ATOM     25  N   UNL A   1      32.500  33.849  27.610  1.00  0.00    -0.352 N 
ATOM     26  C   UNL A   1      33.223  34.519  28.563  1.00  0.00     0.251 C 
ATOM     27  H   UNL A   1      31.870  34.405  27.097  1.00  0.00     0.163 HD
ATOM     28  O   UNL A   1      32.886  35.647  28.906  1.00  0.00    -0.269 OA
BRANCH  26  29
ATOM     29  C   UNL A   1      34.400  33.875  29.180  1.00  0.00     0.039 A 
ATOM     30  C   UNL A   1      35.675  34.330  28.839  1.00  0.00     0.014 A 
ATOM     31  C   UNL A   1      34.251  32.807  30.068  1.00  0.00     0.014 A 
ATOM     32  C   UNL A   1      36.794  33.731  29.415  1.00  0.00     0.010 A 
ATOM     33  C   UNL A   1      35.356  32.297  30.734  1.00  0.00     0.010 A 
ATOM     34  C   UNL A   1      36.642  32.725  30.384  1.00  0.00    -0.014 A 
BRANCH  34  35
ATOM     35  C   UNL A   1      37.823  32.068  30.993  1.00  0.00     0.031 A 
ATOM     36  C   UNL A   1      38.262  32.449  32.382  1.00  0.00     0.074 A 
ATOM     37  C   UNL A   1      38.513  31.152  30.287  1.00  0.00     0.049 A 
ATOM     38  N   UNL A   1      39.266  31.995  33.089  1.00  0.00    -0.248 NA
ATOM     39  C   UNL A   1      37.489  33.505  33.059  1.00  0.00     0.031 C 
ATOM     40  C   UNL A   1      38.216  30.744  28.913  1.00  0.00     0.029 A 
ATOM     41  N   UNL A   1      39.602  30.394  30.633  1.00  0.00    -0.354 N 
ATOM     42  C   UNL A   1      39.247  32.712  34.277  1.00  0.00     0.074 A 
ATOM     43  C   UNL A   1      38.185  33.686  34.170  1.00  0.00     0.031 C 
ATOM     44  C   UNL A   1      39.075  29.780  28.547  1.00  0.00     0.029 A 
ATOM     45  C   UNL A   1      40.004  29.530  29.644  1.00  0.00     0.049 A 
ATOM     46  H   UNL A   1      40.052  30.462  31.505  1.00  0.00     0.167 HD
ATOM     47  C   UNL A   1      40.023  32.551  35.375  1.00  0.00     0.037 A 
ATOM     48  C   UNL A   1      41.009  28.635  29.631  1.00  0.00     0.037 A 
ATOM     49  C   UNL A   1      41.066  31.565  35.482  1.00  0.00     0.049 A 
ATOM     50  C   UNL A   1      41.858  28.478  30.863  1.00  0.00     0.074 A 
ATOM     51  C   UNL A   1      41.882  31.285  36.562  1.00  0.00     0.029 A 
ATOM     52  N   UNL A   1      41.438  30.699  34.464  1.00  0.00    -0.354 N 
ATOM     53  N   UNL A   1      41.786  29.112  32.009  1.00  0.00    -0.248 NA
ATOM     54  C   UNL A   1      42.919  27.465  30.805  1.00  0.00     0.031 C 
ATOM     55  C   UNL A   1      42.787  30.289  36.180  1.00  0.00     0.029 A 
ATOM     56  C   UNL A   1      42.485  29.897  34.886  1.00  0.00     0.049 A 
ATOM     57  H   UNL A   1      41.018  30.659  33.574  1.00  0.00     0.167 HD
ATOM     58  C   UNL A   1      42.763  28.549  32.819  1.00  0.00     0.074 A 
ATOM     59  C   UNL A   1      43.401  27.510  32.037  1.00  0.00     0.031 C 
ATOM     60  C   UNL A   1      43.101  28.860  34.096  1.00  0.00     0.037 A 
BRANCH  47  61
ATOM     61  C   UNL A   1      39.768  33.460  36.546  1.00  0.00     0.064 A 
ATOM     62  C   UNL A   1      40.438  34.686  36.690  1.00  0.00     0.173 A 
ATOM     63  C   UNL A   1      38.826  33.112  37.525  1.00  0.00     0.173 A 
ATOM     64  F   UNL A   1      41.360  35.063  35.791  1.00  0.00    -0.203 F 
ATOM     65  C   UNL A   1      40.199  35.511  37.786  1.00  0.00     0.198 A 
ATOM     66  C   UNL A   1      38.562  33.957  38.600  1.00  0.00     0.198 A 
ATOM     67  F   UNL A   1      38.154  31.954  37.438  1.00  0.00    -0.203 F 
ATOM     68  F   UNL A   1      40.894  36.646  37.932  1.00  0.00    -0.200 F 
ATOM     69  C   UNL A   1      39.255  35.151  38.735  1.00  0.00     0.200 A 
ATOM     70  F   UNL A   1      37.638  33.614  39.508  1.00  0.00    -0.200 F 
ATOM     71  F   UNL A   1      39.019  35.949  39.786  1.00  0.00    -0.200 F 
ENDBRANCH  47  61
BRANCH  48  72
ATOM     72  C   UNL A   1      41.244  27.795  28.426  1.00  0.00     0.064 A 
ATOM     73  C   UNL A   1      42.154  28.190  27.435  1.00  0.00     0.173 A 
ATOM     74  C   UNL A   1      40.554  26.590  28.232  1.00  0.00     0.173 A 
ATOM     75  F   UNL A   1      42.827  29.343  27.565  1.00  0.00    -0.203 F 
ATOM     76  C   UNL A   1      42.339  27.431  26.282  1.00  0.00     0.198 A 
ATOM     77  C   UNL A   1      40.766  25.813  27.096  1.00  0.00     0.198 A 
ATOM     78  F   UNL A   1      39.679  26.161  29.154  1.00  0.00    -0.203 F 
ATOM     79  F   UNL A   1      43.171  27.863  25.325  1.00  0.00    -0.200 F 
ATOM     80  C   UNL A   1      41.650  26.240  26.116  1.00  0.00     0.200 A 
ATOM     81  F   UNL A   1      40.111  24.654  26.947  1.00  0.00    -0.200 F 
ATOM     82  F   UNL A   1      41.829  25.508  25.008  1.00  0.00    -0.200 F 
ENDBRANCH  48  72
BRANCH  60  83
ATOM     83  C   UNL A   1      44.170  28.025  34.745  1.00  0.00     0.064 A 
ATOM     84  C   UNL A   1      45.521  28.403  34.732  1.00  0.00     0.173 A 
ATOM     85  C   UNL A   1      43.830  26.831  35.398  1.00  0.00     0.173 A 
ATOM     86  F   UNL A   1      45.903  29.530  34.112  1.00  0.00    -0.203 F 
ATOM     87  C   UNL A   1      46.497  27.592  35.307  1.00  0.00     0.198 A 
ATOM     88  C   UNL A   1      44.803  26.043  36.008  1.00  0.00     0.198 A 
ATOM     89  F   UNL A   1      42.552  26.428  35.452  1.00  0.00    -0.203 F 
ATOM     90  F   UNL A   1      47.789  27.936  35.216  1.00  0.00    -0.200 F 
ATOM     91  C   UNL A   1      46.136  26.417  35.948  1.00  0.00     0.200 A 
ATOM     92  F   UNL A   1      44.449  24.919  36.645  1.00  0.00    -0.200 F 
ATOM     93  F   UNL A   1      47.076  25.637  36.499  1.00  0.00    -0.200 F 
ENDBRANCH  60  83
ENDBRANCH  34  35
ENDBRANCH  26  29
ENDBRANCH  24  25
ENDBRANCH  23  24
ENDBRANCH   1  23
TORSDOF 13
ENDMDL
MODEL 3
REMARK VINA RESULT:     -12.5      0.156      1.680
REMARK SMILES N#Cc1ccccc1S(=O)(=O)N1CCC(C(=O)NCCCNC(=O)c2ccc(-c3c4nc(c(-c5c(F)c(F)c(F)c(F)c5F)c5ccc([nH]5)c(-c5c(F)c(F)c(F)c(F)c5F)c5nc(c(-c6c(F)c(F)c(F)c(F)c6F)c6ccc3[nH]6)C=C5)C=C4)cc2)CC1
REMARK SMILES IDX 19 1 18 2 16 3 17 4 15 6 12 7 13 8 89 9 14 10 88 11 9 12
REMARK SMILES IDX 10 13 11 14 8 15 3 16 4 17 5 18 7 19 6 20 2 21 1 22 20 23
REMARK SMILES IDX 21 24 22 25 23 26 24 28 25 29 26 30 87 31 27 32 86 33 28 34
REMARK SMILES IDX 29 35 30 36 80 37 31 38 85 39 79 40 81 41 32 42 84 43 78 44
REMARK SMILES IDX 77 45 33 47 65 48 45 49 64 50 46 51 49 52 63 53 82 54 47 55
REMARK SMILES IDX 48 56 62 58 83 59 50 60 34 61 35 62 43 63 36 64 37 65 41 66
REMARK SMILES IDX 44 67 38 68 39 69 42 70 40 71 66 72 67 73 75 74 68 75 69 76
REMARK SMILES IDX 73 77 76 78 70 79 71 80 74 81 72 82 51 83 52 84 60 85 53 86
REMARK SMILES IDX 54 87 58 88 61 89 55 90 56 91 59 92 57 93
REMARK H PARENT 18 5 22 27 81 46 49 57
REMARK Flexibility Score: inf
ROOT
ATOM      1  C   UNL A   1      31.406  30.568  25.917  1.00  0.00     0.117 C 
ENDROOT
BRANCH   1   2
ATOM      2  N   UNL A   1      30.729  30.495  24.630  1.00  0.00    -0.356 N 
ATOM      3  C   UNL A   1      30.593  29.463  23.754  1.00  0.00     0.223 C 
ATOM      4  O   UNL A   1      30.019  29.686  22.687  1.00  0.00    -0.275 OA
ATOM      5  H   UNL A   1      30.297  31.333  24.347  1.00  0.00     0.163 HD
BRANCH   3   6
ATOM      6  C   UNL A   1      31.124  28.078  24.087  1.00  0.00     0.081 C 
ATOM      7  N   UNL A   1      32.079  25.465  23.219  1.00  0.00    -0.198 NA
ATOM      8  C   UNL A   1      30.655  25.595  23.565  1.00  0.00     0.103 C 
ATOM      9  C   UNL A   1      33.070  26.504  23.544  1.00  0.00     0.103 C 
ATOM     10  C   UNL A   1      30.129  27.008  23.663  1.00  0.00     0.030 C 
ATOM     11  C   UNL A   1      32.540  27.918  23.552  1.00  0.00     0.030 C 
BRANCH   7  12
ATOM     12  S   UNL A   1      32.666  23.879  23.103  1.00  0.00     0.244 S 
ATOM     13  O   UNL A   1      33.385  23.792  21.847  1.00  0.00    -0.207 OA
ATOM     14  O   UNL A   1      31.564  22.984  23.387  1.00  0.00    -0.207 OA
BRANCH  12  15
ATOM     15  C   UNL A   1      33.886  23.548  24.365  1.00  0.00     0.100 A 
ATOM     16  C   UNL A   1      33.722  23.545  25.753  1.00  0.00     0.072 A 
ATOM     17  C   UNL A   1      34.840  23.301  26.577  1.00  0.00     0.021 A 
ATOM     18  C   UNL A   1      36.096  23.041  26.039  1.00  0.00     0.001 A 
ATOM     19  C   UNL A   1      35.165  23.274  23.833  1.00  0.00     0.023 A 
ATOM     20  C   UNL A   1      36.257  23.019  24.663  1.00  0.00     0.001 A 
BRANCH  16  21
ATOM     21  C   UNL A   1      32.511  23.747  26.482  1.00  0.00     0.101 C 
ATOM     22  N   UNL A   1      31.561  23.831  27.134  1.00  0.00    -0.192 NA
ENDBRANCH  16  21
ENDBRANCH  12  15
ENDBRANCH   7  12
ENDBRANCH   3   6
ENDBRANCH   1   2
BRANCH   1  23
ATOM     23  C   UNL A   1      31.297  31.950  26.538  1.00  0.00     0.042 C 
BRANCH  23  24
ATOM     24  C   UNL A   1      32.637  32.519  26.959  1.00  0.00     0.118 C 
BRANCH  24  25
ATOM     25  N   UNL A   1      32.518  33.876  27.468  1.00  0.00    -0.352 N 
ATOM     26  C   UNL A   1      33.164  34.478  28.516  1.00  0.00     0.251 C 
ATOM     27  H   UNL A   1      31.877  34.449  26.988  1.00  0.00     0.163 HD
ATOM     28  O   UNL A   1      32.752  35.545  28.957  1.00  0.00    -0.269 OA
BRANCH  26  29
ATOM     29  C   UNL A   1      34.351  33.835  29.114  1.00  0.00     0.039 A 
ATOM     30  C   UNL A   1      34.169  32.767  29.995  1.00  0.00     0.014 A 
ATOM     31  C   UNL A   1      35.638  34.300  28.834  1.00  0.00     0.014 A 
ATOM     32  C   UNL A   1      35.281  32.151  30.566  1.00  0.00     0.010 A 
ATOM     33  C   UNL A   1      36.745  33.608  29.302  1.00  0.00     0.010 A 
ATOM     34  C   UNL A   1      36.579  32.552  30.207  1.00  0.00    -0.014 A 
BRANCH  34  35
ATOM     35  C   UNL A   1      37.770  31.918  30.818  1.00  0.00     0.031 A 
ATOM     36  C   UNL A   1      38.203  32.313  32.206  1.00  0.00     0.074 A 
ATOM     37  C   UNL A   1      38.475  31.010  30.117  1.00  0.00     0.049 A 
ATOM     38  N   UNL A   1      39.215  31.879  32.913  1.00  0.00    -0.248 NA
ATOM     39  C   UNL A   1      37.413  33.360  32.877  1.00  0.00     0.031 C 
ATOM     40  C   UNL A   1      38.184  30.590  28.745  1.00  0.00     0.029 A 
ATOM     41  N   UNL A   1      39.576  30.272  30.466  1.00  0.00    -0.354 N 
ATOM     42  C   UNL A   1      39.185  32.603  34.098  1.00  0.00     0.074 A 
ATOM     43  C   UNL A   1      38.107  33.558  33.987  1.00  0.00     0.031 C 
ATOM     44  C   UNL A   1      39.059  29.638  28.384  1.00  0.00     0.029 A 
ATOM     45  C   UNL A   1      39.992  29.410  29.481  1.00  0.00     0.049 A 
ATOM     46  H   UNL A   1      40.026  30.352  31.337  1.00  0.00     0.167 HD
ATOM     47  C   UNL A   1      39.964  32.460  35.197  1.00  0.00     0.037 A 
ATOM     48  C   UNL A   1      41.013  28.532  29.472  1.00  0.00     0.037 A 
ATOM     49  C   UNL A   1      41.023  31.492  35.308  1.00  0.00     0.049 A 
ATOM     50  C   UNL A   1      41.864  28.395  30.705  1.00  0.00     0.074 A 
ATOM     51  C   UNL A   1      41.844  31.231  36.390  1.00  0.00     0.029 A 
ATOM     52  N   UNL A   1      41.408  30.627  34.294  1.00  0.00    -0.354 N 
ATOM     53  N   UNL A   1      41.782  29.033  31.848  1.00  0.00    -0.248 NA
ATOM     54  C   UNL A   1      42.942  27.399  30.651  1.00  0.00     0.031 C 
ATOM     55  C   UNL A   1      42.765  30.249  36.012  1.00  0.00     0.029 A 
ATOM     56  C   UNL A   1      42.469  29.844  34.720  1.00  0.00     0.049 A 
ATOM     57  H   UNL A   1      40.989  30.576  33.405  1.00  0.00     0.167 HD
ATOM     58  C   UNL A   1      42.769  28.491  32.660  1.00  0.00     0.074 A 
ATOM     59  C   UNL A   1      43.424  27.458  31.883  1.00  0.00     0.031 C 
ATOM     60  C   UNL A   1      43.102  28.814  33.935  1.00  0.00     0.037 A 
BRANCH  47  61
ATOM     61  C   UNL A   1      39.694  33.370  36.363  1.00  0.00     0.064 A 
ATOM     62  C   UNL A   1      40.333  34.615  36.493  1.00  0.00     0.173 A 
ATOM     63  C   UNL A   1      38.770  33.006  37.352  1.00  0.00     0.173 A 
ATOM     64  F   UNL A   1      41.238  35.009  35.584  1.00  0.00    -0.203 F 
ATOM     65  C   UNL A   1      40.081  35.441  37.585  1.00  0.00     0.198 A 
ATOM     66  C   UNL A   1      38.492  33.852  38.423  1.00  0.00     0.198 A 
ATOM     67  F   UNL A   1      38.127  31.829  37.278  1.00  0.00    -0.203 F 
ATOM     68  F   UNL A   1      40.748  36.596  37.717  1.00  0.00    -0.200 F 
ATOM     69  C   UNL A   1      39.154  35.064  38.544  1.00  0.00     0.200 A 
ATOM     70  F   UNL A   1      37.584  33.491  39.341  1.00  0.00    -0.200 F 
ATOM     71  F   UNL A   1      38.906  35.864  39.591  1.00  0.00    -0.200 F 
ENDBRANCH  47  61
BRANCH  48  72
ATOM     72  C   UNL A   1      41.260  27.689  28.271  1.00  0.00     0.064 A 
ATOM     73  C   UNL A   1      40.621  26.451  28.114  1.00  0.00     0.173 A 
ATOM     74  C   UNL A   1      42.149  28.095  27.266  1.00  0.00     0.173 A 
ATOM     75  F   UNL A   1      39.774  26.009  29.055  1.00  0.00    -0.203 F 
ATOM     76  C   UNL A   1      40.888  25.637  27.015  1.00  0.00     0.198 A 
ATOM     77  C   UNL A   1      42.388  27.297  26.150  1.00  0.00     0.198 A 
ATOM     78  F   UNL A   1      42.779  29.275  27.363  1.00  0.00    -0.203 F 
ATOM     79  F   UNL A   1      40.309  24.433  26.920  1.00  0.00    -0.200 F 
ATOM     80  C   UNL A   1      41.766  26.063  26.031  1.00  0.00     0.200 A 
ATOM     81  F   UNL A   1      43.224  27.720  25.193  1.00  0.00    -0.200 F 
ATOM     82  F   UNL A   1      42.022  25.281  24.973  1.00  0.00    -0.200 F 
ENDBRANCH  48  72
BRANCH  60  83
ATOM     83  C   UNL A   1      44.185  28.000  34.588  1.00  0.00     0.064 A 
ATOM     84  C   UNL A   1      43.912  26.801  35.263  1.00  0.00     0.173 A 
ATOM     85  C   UNL A   1      45.520  28.427  34.525  1.00  0.00     0.173 A 
ATOM     86  F   UNL A   1      42.650  26.353  35.361  1.00  0.00    -0.203 F 
ATOM     87  C   UNL A   1      44.927  26.086  35.893  1.00  0.00     0.198 A 
ATOM     88  C   UNL A   1      46.540  27.688  35.120  1.00  0.00     0.198 A 
ATOM     89  F   UNL A   1      45.841  29.559  33.882  1.00  0.00    -0.203 F 
ATOM     90  F   UNL A   1      44.631  24.984  36.596  1.00  0.00    -0.200 F 
ATOM     91  C   UNL A   1      46.240  26.527  35.816  1.00  0.00     0.200 A 
ATOM     92  F   UNL A   1      47.809  28.105  35.027  1.00  0.00    -0.200 F 
ATOM     93  F   UNL A   1      47.215  25.838  36.424  1.00  0.00    -0.200 F 
ENDBRANCH  60  83
ENDBRANCH  34  35
ENDBRANCH  26  29
ENDBRANCH  24  25
ENDBRANCH  23  24
ENDBRANCH   1  23
TORSDOF 13
ENDMDL
