MODEL 1
REMARK VINA RESULT:     -13.8      0.000      0.000
REMARK SMILES COc1ccccc1C(=O)N1[C@@H](C(=O)NCCCNC(=O)c2ccc(-c3c4nc(c(-c5c(F)c(F)c(F)c(F)c5F)c5ccc([nH]5)c(-c5c(F)c(F)c(F)c(F)c5F)c5nc(c(-c6c(F)c(F)c(F)c(F)c6F)c6ccc3[nH]6)C=C5)C=C4)cc2)COC12CC[NH+](Cc1ccccc1)CC2
REMARK SMILES IDX 16 1 15 2 13 3 14 4 12 6 11 7 87 8 85 9 86 10 88 11 99 12
REMARK SMILES IDX 89 13 98 14 90 15 9 17 10 18 8 19 3 20 4 21 5 22 7 23 6 24
REMARK SMILES IDX 2 25 1 26 91 27 92 28 93 29 97 30 94 31 96 32 95 33 17 34
REMARK SMILES IDX 18 35 19 36 20 37 21 39 22 40 23 41 84 42 24 43 83 44 25 45
REMARK SMILES IDX 26 46 27 47 77 48 28 49 82 50 76 51 78 52 29 53 81 54 75 55
REMARK SMILES IDX 74 56 30 58 62 59 42 60 61 61 43 62 46 63 60 64 79 65 44 66
REMARK SMILES IDX 45 67 59 69 80 70 47 71 31 72 32 73 40 74 33 75 34 76 38 77
REMARK SMILES IDX 41 78 35 79 36 80 39 81 37 82 63 83 64 84 72 85 65 86 66 87
REMARK SMILES IDX 70 88 73 89 67 90 68 91 71 92 69 93 48 94 49 95 57 96 50 97
REMARK SMILES IDX 51 98 55 99 58 100 52 101 53 102 56 103 54 104
REMARK H PARENT 15 5 90 16 19 38 78 57 46 68
REMARK Flexibility Score: inf
ROOT
ATOM      1  C   UNL A   1      32.248  29.031  25.141  1.00  0.00     0.117 C 
ENDROOT
BRANCH   1   2
ATOM      2  N   UNL A   1      31.702  28.168  26.154  1.00  0.00    -0.354 N 
ATOM      3  C   UNL A   1      31.938  26.838  26.360  1.00  0.00     0.245 C 
ATOM      4  O   UNL A   1      31.454  26.356  27.389  1.00  0.00    -0.273 OA
ATOM      5  H   UNL A   1      31.074  28.593  26.782  1.00  0.00     0.163 HD
BRANCH   3   6
ATOM      6  C   UNL A   1      32.627  25.934  25.309  1.00  0.00     0.203 C 
ATOM      7  N   UNL A   1      31.906  24.740  24.873  1.00  0.00    -0.295 N 
ATOM      8  C   UNL A   1      32.732  23.544  25.127  1.00  0.00     0.155 C 
ATOM      9  C   UNL A   1      33.935  25.405  25.856  1.00  0.00     0.198 C 
ATOM     10  O   UNL A   1      33.690  24.009  26.124  1.00  0.00    -0.352 OA
ATOM     11  C   UNL A   1      31.995  22.314  25.676  1.00  0.00     0.120 C 
ATOM     12  C   UNL A   1      33.578  23.112  23.919  1.00  0.00     0.120 C 
ATOM     13  C   UNL A   1      32.948  21.168  26.003  1.00  0.00     0.267 C 
ATOM     14  C   UNL A   1      34.495  21.928  24.293  1.00  0.00     0.267 C 
ATOM     15  N   UNL A   1      33.815  20.785  24.897  1.00  0.00    -0.331 N 
ATOM     16  H   UNL A   1      34.572  20.249  25.320  1.00  0.00     0.348 HD
BRANCH   7  17
ATOM     17  C   UNL A   1      30.875  24.930  23.957  1.00  0.00     0.260 C 
ATOM     18  O   UNL A   1      30.366  23.966  23.378  1.00  0.00    -0.269 OA
BRANCH  17  19
ATOM     19  C   UNL A   1      30.390  26.267  23.520  1.00  0.00     0.082 A 
ATOM     20  C   UNL A   1      31.005  27.032  22.522  1.00  0.00     0.131 A 
ATOM     21  C   UNL A   1      30.459  28.252  22.096  1.00  0.00     0.047 A 
ATOM     22  C   UNL A   1      29.197  28.637  22.534  1.00  0.00     0.004 A 
ATOM     23  C   UNL A   1      29.101  26.654  23.922  1.00  0.00     0.018 A 
ATOM     24  C   UNL A   1      28.499  27.816  23.415  1.00  0.00     0.001 A 
BRANCH  20  25
ATOM     25  O   UNL A   1      32.088  26.578  21.816  1.00  0.00    -0.496 OA
ATOM     26  C   UNL A   1      33.208  27.421  22.120  1.00  0.00     0.278 C 
ENDBRANCH  20  25
ENDBRANCH  17  19
ENDBRANCH   7  17
BRANCH  15  27
ATOM     27  C   UNL A   1      33.296  19.751  23.994  1.00  0.00     0.299 C 
BRANCH  27  28
ATOM     28  C   UNL A   1      33.477  18.311  24.413  1.00  0.00     0.006 A 
ATOM     29  C   UNL A   1      34.707  17.664  24.266  1.00  0.00     0.009 A 
ATOM     30  C   UNL A   1      32.408  17.603  24.992  1.00  0.00     0.009 A 
ATOM     31  C   UNL A   1      34.877  16.363  24.739  1.00  0.00     0.001 A 
ATOM     32  C   UNL A   1      32.597  16.327  25.518  1.00  0.00     0.001 A 
ATOM     33  C   UNL A   1      33.837  15.709  25.398  1.00  0.00     0.000 A 
ENDBRANCH  27  28
ENDBRANCH  15  27
ENDBRANCH   3   6
ENDBRANCH   1   2
BRANCH   1  34
ATOM     34  C   UNL A   1      33.014  30.228  25.662  1.00  0.00     0.042 C 
BRANCH  34  35
ATOM     35  C   UNL A   1      32.461  30.677  27.002  1.00  0.00     0.118 C 
BRANCH  35  36
ATOM     36  N   UNL A   1      32.523  32.126  27.210  1.00  0.00    -0.352 N 
ATOM     37  C   UNL A   1      33.547  32.896  27.706  1.00  0.00     0.251 C 
ATOM     38  H   UNL A   1      31.711  32.622  26.956  1.00  0.00     0.163 HD
ATOM     39  O   UNL A   1      33.401  34.105  27.849  1.00  0.00    -0.269 OA
BRANCH  37  40
ATOM     40  C   UNL A   1      34.800  32.241  28.129  1.00  0.00     0.039 A 
ATOM     41  C   UNL A   1      35.976  32.992  28.149  1.00  0.00     0.014 A 
ATOM     42  C   UNL A   1      34.794  30.925  28.590  1.00  0.00     0.014 A 
ATOM     43  C   UNL A   1      37.124  32.447  28.724  1.00  0.00     0.010 A 
ATOM     44  C   UNL A   1      35.891  30.441  29.285  1.00  0.00     0.010 A 
ATOM     45  C   UNL A   1      37.073  31.190  29.348  1.00  0.00    -0.014 A 
BRANCH  45  46
ATOM     46  C   UNL A   1      38.253  30.630  30.050  1.00  0.00     0.031 A 
ATOM     47  C   UNL A   1      38.515  31.001  31.486  1.00  0.00     0.074 A 
ATOM     48  C   UNL A   1      39.112  29.837  29.381  1.00  0.00     0.049 A 
ATOM     49  N   UNL A   1      39.509  30.651  32.263  1.00  0.00    -0.248 NA
ATOM     50  C   UNL A   1      37.562  31.925  32.122  1.00  0.00     0.031 C 
ATOM     51  C   UNL A   1      39.013  29.482  27.963  1.00  0.00     0.029 A 
ATOM     52  N   UNL A   1      40.237  29.179  29.807  1.00  0.00    -0.354 N 
ATOM     53  C   UNL A   1      39.305  31.326  33.459  1.00  0.00     0.074 A 
ATOM     54  C   UNL A   1      38.148  32.171  33.282  1.00  0.00     0.031 C 
ATOM     55  C   UNL A   1      40.000  28.624  27.652  1.00  0.00     0.029 A 
ATOM     56  C   UNL A   1      40.816  28.394  28.838  1.00  0.00     0.049 A 
ATOM     57  H   UNL A   1      40.596  29.259  30.720  1.00  0.00     0.167 HD
ATOM     58  C   UNL A   1      39.992  31.215  34.619  1.00  0.00     0.037 A 
ATOM     59  C   UNL A   1      41.876  27.567  28.913  1.00  0.00     0.037 A 
ATOM     60  C   UNL A   1      41.110  30.332  34.807  1.00  0.00     0.049 A 
ATOM     61  C   UNL A   1      42.585  27.420  30.233  1.00  0.00     0.074 A 
ATOM     62  C   UNL A   1      41.853  30.105  35.951  1.00  0.00     0.029 A 
ATOM     63  N   UNL A   1      41.633  29.511  33.818  1.00  0.00    -0.354 N 
ATOM     64  N   UNL A   1      42.340  28.012  31.377  1.00  0.00    -0.248 NA
ATOM     65  C   UNL A   1      43.707  26.473  30.274  1.00  0.00     0.031 C 
ATOM     66  C   UNL A   1      42.839  29.160  35.649  1.00  0.00     0.029 A 
ATOM     67  C   UNL A   1      42.686  28.772  34.328  1.00  0.00     0.049 A 
ATOM     68  H   UNL A   1      41.303  29.461  32.892  1.00  0.00     0.167 HD
ATOM     69  C   UNL A   1      43.256  27.490  32.278  1.00  0.00     0.074 A 
ATOM     70  C   UNL A   1      44.044  26.514  31.555  1.00  0.00     0.031 C 
ATOM     71  C   UNL A   1      43.439  27.794  33.587  1.00  0.00     0.037 A 
BRANCH  58  72
ATOM     72  C   UNL A   1      39.522  32.040  35.782  1.00  0.00     0.064 A 
ATOM     73  C   UNL A   1      38.538  31.563  36.663  1.00  0.00     0.173 A 
ATOM     74  C   UNL A   1      40.068  33.307  36.033  1.00  0.00     0.173 A 
ATOM     75  F   UNL A   1      37.968  30.366  36.456  1.00  0.00    -0.203 F 
ATOM     76  C   UNL A   1      38.098  32.337  37.733  1.00  0.00     0.198 A 
ATOM     77  C   UNL A   1      39.648  34.065  37.123  1.00  0.00     0.198 A 
ATOM     78  F   UNL A   1      41.011  33.810  35.221  1.00  0.00    -0.203 F 
ATOM     79  F   UNL A   1      37.118  31.883  38.527  1.00  0.00    -0.200 F 
ATOM     80  C   UNL A   1      38.658  33.583  37.968  1.00  0.00     0.200 A 
ATOM     81  F   UNL A   1      40.196  35.266  37.353  1.00  0.00    -0.200 F 
ATOM     82  F   UNL A   1      38.238  34.324  39.002  1.00  0.00    -0.200 F 
ENDBRANCH  58  72
BRANCH  59  83
ATOM     83  C   UNL A   1      42.294  26.768  27.731  1.00  0.00     0.064 A 
ATOM     84  C   UNL A   1      41.721  25.513  27.479  1.00  0.00     0.173 A 
ATOM     85  C   UNL A   1      43.289  27.219  26.854  1.00  0.00     0.173 A 
ATOM     86  F   UNL A   1      40.777  25.031  28.300  1.00  0.00    -0.203 F 
ATOM     87  C   UNL A   1      42.152  24.725  26.414  1.00  0.00     0.198 A 
ATOM     88  C   UNL A   1      43.699  26.442  25.772  1.00  0.00     0.198 A 
ATOM     89  F   UNL A   1      43.863  28.416  27.045  1.00  0.00    -0.203 F 
ATOM     90  F   UNL A   1      41.629  23.504  26.232  1.00  0.00    -0.200 F 
ATOM     91  C   UNL A   1      43.140  25.190  25.560  1.00  0.00     0.200 A 
ATOM     92  F   UNL A   1      44.644  26.900  24.939  1.00  0.00    -0.200 F 
ATOM     93  F   UNL A   1      43.560  24.428  24.540  1.00  0.00    -0.200 F 
ENDBRANCH  59  83
BRANCH  71  94
ATOM     94  C   UNL A   1      44.503  27.032  34.317  1.00  0.00     0.064 A 
ATOM     95  C   UNL A   1      45.820  27.507  34.401  1.00  0.00     0.173 A 
ATOM     96  C   UNL A   1      44.197  25.819  34.951  1.00  0.00     0.173 A 
ATOM     97  F   UNL A   1      46.163  28.655  33.799  1.00  0.00    -0.203 F 
ATOM     98  C   UNL A   1      46.801  26.774  35.060  1.00  0.00     0.198 A 
ATOM     99  C   UNL A   1      45.174  25.104  35.635  1.00  0.00     0.198 A 
ATOM    100  F   UNL A   1      42.948  25.328  34.907  1.00  0.00    -0.203 F 
ATOM    101  F   UNL A   1      48.066  27.217  35.077  1.00  0.00    -0.200 F 
ATOM    102  C   UNL A   1      46.477  25.576  35.681  1.00  0.00     0.200 A 
ATOM    103  F   UNL A   1      44.858  23.953  36.245  1.00  0.00    -0.200 F 
ATOM    104  F   UNL A   1      47.424  24.871  36.313  1.00  0.00    -0.200 F 
ENDBRANCH  71  94
ENDBRANCH  45  46
ENDBRANCH  37  40
ENDBRANCH  35  36
ENDBRANCH  34  35
ENDBRANCH   1  34
TORSDOF 15
ENDMDL
MODEL 2
REMARK VINA RESULT:     -13.1      0.718      1.808
REMARK SMILES COc1ccccc1C(=O)N1[C@@H](C(=O)NCCCNC(=O)c2ccc(-c3c4nc(c(-c5c(F)c(F)c(F)c(F)c5F)c5ccc([nH]5)c(-c5c(F)c(F)c(F)c(F)c5F)c5nc(c(-c6c(F)c(F)c(F)c(F)c6F)c6ccc3[nH]6)C=C5)C=C4)cc2)COC12CC[NH+](Cc1ccccc1)CC2
REMARK SMILES IDX 16 1 15 2 13 3 14 4 12 6 11 7 87 8 85 9 86 10 88 11 99 12
REMARK SMILES IDX 89 13 98 14 90 15 9 17 10 18 8 19 3 20 4 21 5 22 7 23 6 24
REMARK SMILES IDX 2 25 1 26 91 27 92 28 93 29 97 30 94 31 96 32 95 33 17 34
REMARK SMILES IDX 18 35 19 36 20 37 21 39 22 40 23 41 84 42 24 43 83 44 25 45
REMARK SMILES IDX 26 46 27 47 77 48 28 49 82 50 76 51 78 52 29 53 81 54 75 55
REMARK SMILES IDX 74 56 30 58 62 59 42 60 61 61 43 62 46 63 60 64 79 65 44 66
REMARK SMILES IDX 45 67 59 69 80 70 47 71 31 72 32 73 40 74 33 75 34 76 38 77
REMARK SMILES IDX 41 78 35 79 36 80 39 81 37 82 63 83 64 84 72 85 65 86 66 87
REMARK SMILES IDX 70 88 73 89 67 90 68 91 71 92 69 93 48 94 49 95 57 96 50 97
REMARK SMILES IDX 51 98 55 99 58 100 52 101 53 102 56 103 54 104
REMARK H PARENT 15 5 90 16 19 38 78 57 46 68
REMARK Flexibility Score: inf
ROOT
ATOM      1  C   UNL A   1      32.496  29.182  25.332  1.00  0.00     0.117 C 
ENDROOT
BRANCH   1   2
ATOM      2  N   UNL A   1      31.750  28.326  26.214  1.00  0.00    -0.354 N 
ATOM      3  C   UNL A   1      31.830  26.969  26.357  1.00  0.00     0.245 C 
ATOM      4  O   UNL A   1      31.179  26.483  27.288  1.00  0.00    -0.273 OA
ATOM      5  H   UNL A   1      31.092  28.777  26.791  1.00  0.00     0.163 HD
BRANCH   3   6
ATOM      6  C   UNL A   1      32.554  26.058  25.336  1.00  0.00     0.203 C 
ATOM      7  N   UNL A   1      31.860  24.847  24.905  1.00  0.00    -0.295 N 
ATOM      8  C   UNL A   1      32.697  23.667  25.196  1.00  0.00     0.155 C 
ATOM      9  C   UNL A   1      33.858  25.557  25.918  1.00  0.00     0.198 C 
ATOM     10  O   UNL A   1      33.627  24.163  26.204  1.00  0.00    -0.352 OA
ATOM     11  C   UNL A   1      31.967  22.436  25.750  1.00  0.00     0.120 C 
ATOM     12  C   UNL A   1      33.575  23.228  24.013  1.00  0.00     0.120 C 
ATOM     13  C   UNL A   1      32.929  21.310  26.116  1.00  0.00     0.267 C 
ATOM     14  C   UNL A   1      34.500  22.064  24.425  1.00  0.00     0.267 C 
ATOM     15  N   UNL A   1      33.824  20.921  25.035  1.00  0.00    -0.331 N 
ATOM     16  H   UNL A   1      34.580  20.403  25.482  1.00  0.00     0.348 HD
BRANCH   7  17
ATOM     17  C   UNL A   1      30.845  25.006  23.965  1.00  0.00     0.260 C 
ATOM     18  O   UNL A   1      30.412  24.034  23.340  1.00  0.00    -0.269 OA
BRANCH  17  19
ATOM     19  C   UNL A   1      30.294  26.326  23.556  1.00  0.00     0.082 A 
ATOM     20  C   UNL A   1      30.909  27.176  22.630  1.00  0.00     0.131 A 
ATOM     21  C   UNL A   1      30.304  28.375  22.225  1.00  0.00     0.047 A 
ATOM     22  C   UNL A   1      28.995  28.653  22.602  1.00  0.00     0.004 A 
ATOM     23  C   UNL A   1      28.959  26.607  23.897  1.00  0.00     0.018 A 
ATOM     24  C   UNL A   1      28.308  27.747  23.404  1.00  0.00     0.001 A 
BRANCH  20  25
ATOM     25  O   UNL A   1      32.060  26.830  21.972  1.00  0.00    -0.496 OA
ATOM     26  C   UNL A   1      33.012  27.888  22.143  1.00  0.00     0.278 C 
ENDBRANCH  20  25
ENDBRANCH  17  19
ENDBRANCH   7  17
BRANCH  15  27
ATOM     27  C   UNL A   1      33.339  19.865  24.139  1.00  0.00     0.299 C 
BRANCH  27  28
ATOM     28  C   UNL A   1      33.499  18.436  24.602  1.00  0.00     0.006 A 
ATOM     29  C   UNL A   1      32.436  17.743  25.190  1.00  0.00     0.009 A 
ATOM     30  C   UNL A   1      34.721  17.766  24.419  1.00  0.00     0.009 A 
ATOM     31  C   UNL A   1      32.578  16.398  25.531  1.00  0.00     0.001 A 
ATOM     32  C   UNL A   1      34.841  16.406  24.704  1.00  0.00     0.001 A 
ATOM     33  C   UNL A   1      33.764  15.720  25.253  1.00  0.00     0.000 A 
ENDBRANCH  27  28
ENDBRANCH  15  27
ENDBRANCH   3   6
ENDBRANCH   1   2
BRANCH   1  34
ATOM     34  C   UNL A   1      33.500  30.086  26.013  1.00  0.00     0.042 C 
BRANCH  34  35
ATOM     35  C   UNL A   1      32.919  30.669  27.289  1.00  0.00     0.118 C 
BRANCH  35  36
ATOM     36  N   UNL A   1      32.698  32.116  27.229  1.00  0.00    -0.352 N 
ATOM     37  C   UNL A   1      33.435  33.137  27.779  1.00  0.00     0.251 C 
ATOM     38  H   UNL A   1      31.905  32.400  26.719  1.00  0.00     0.163 HD
ATOM     39  O   UNL A   1      33.069  34.302  27.658  1.00  0.00    -0.269 OA
BRANCH  37  40
ATOM     40  C   UNL A   1      34.634  32.812  28.576  1.00  0.00     0.039 A 
ATOM     41  C   UNL A   1      34.495  31.983  29.690  1.00  0.00     0.014 A 
ATOM     42  C   UNL A   1      35.896  33.245  28.171  1.00  0.00     0.014 A 
ATOM     43  C   UNL A   1      35.637  31.514  30.338  1.00  0.00     0.010 A 
ATOM     44  C   UNL A   1      37.026  32.667  28.725  1.00  0.00     0.010 A 
ATOM     45  C   UNL A   1      36.912  31.806  29.824  1.00  0.00    -0.014 A 
BRANCH  45  46
ATOM     46  C   UNL A   1      38.137  31.240  30.438  1.00  0.00     0.031 A 
ATOM     47  C   UNL A   1      38.575  31.705  31.801  1.00  0.00     0.074 A 
ATOM     48  C   UNL A   1      38.880  30.354  29.746  1.00  0.00     0.049 A 
ATOM     49  N   UNL A   1      39.634  31.364  32.492  1.00  0.00    -0.248 NA
ATOM     50  C   UNL A   1      37.740  32.724  32.459  1.00  0.00     0.031 C 
ATOM     51  C   UNL A   1      38.607  29.898  28.380  1.00  0.00     0.029 A 
ATOM     52  N   UNL A   1      40.016  29.673  30.099  1.00  0.00    -0.354 N 
ATOM     53  C   UNL A   1      39.595  32.138  33.644  1.00  0.00     0.074 A 
ATOM     54  C   UNL A   1      38.464  33.026  33.525  1.00  0.00     0.031 C 
ATOM     55  C   UNL A   1      39.514  28.969  28.035  1.00  0.00     0.029 A 
ATOM     56  C   UNL A   1      40.447  28.787  29.141  1.00  0.00     0.049 A 
ATOM     57  H   UNL A   1      40.479  29.804  30.958  1.00  0.00     0.167 HD
ATOM     58  C   UNL A   1      40.403  32.080  34.728  1.00  0.00     0.037 A 
ATOM     59  C   UNL A   1      41.472  27.914  29.167  1.00  0.00     0.037 A 
ATOM     60  C   UNL A   1      41.495  31.156  34.864  1.00  0.00     0.049 A 
ATOM     61  C   UNL A   1      42.318  27.830  30.410  1.00  0.00     0.074 A 
ATOM     62  C   UNL A   1      42.352  30.979  35.936  1.00  0.00     0.029 A 
ATOM     63  N   UNL A   1      41.866  30.236  33.895  1.00  0.00    -0.354 N 
ATOM     64  N   UNL A   1      42.229  28.520  31.521  1.00  0.00    -0.248 NA
ATOM     65  C   UNL A   1      43.394  26.832  30.406  1.00  0.00     0.031 C 
ATOM     66  C   UNL A   1      43.254  29.962  35.607  1.00  0.00     0.029 A 
ATOM     67  C   UNL A   1      42.937  29.484  34.346  1.00  0.00     0.049 A 
ATOM     68  H   UNL A   1      41.433  30.133  33.017  1.00  0.00     0.167 HD
ATOM     69  C   UNL A   1      43.217  28.021  32.358  1.00  0.00     0.074 A 
ATOM     70  C   UNL A   1      43.875  26.952  31.635  1.00  0.00     0.031 C 
ATOM     71  C   UNL A   1      43.558  28.414  33.610  1.00  0.00     0.037 A 
BRANCH  58  72
ATOM     72  C   UNL A   1      40.103  33.015  35.863  1.00  0.00     0.064 A 
ATOM     73  C   UNL A   1      40.717  34.275  35.952  1.00  0.00     0.173 A 
ATOM     74  C   UNL A   1      39.183  32.663  36.861  1.00  0.00     0.173 A 
ATOM     75  F   UNL A   1      41.621  34.652  35.035  1.00  0.00    -0.203 F 
ATOM     76  C   UNL A   1      40.443  35.133  37.013  1.00  0.00     0.198 A 
ATOM     77  C   UNL A   1      38.887  33.537  37.904  1.00  0.00     0.198 A 
ATOM     78  F   UNL A   1      38.568  31.470  36.824  1.00  0.00    -0.203 F 
ATOM     79  F   UNL A   1      41.084  36.307  37.105  1.00  0.00    -0.200 F 
ATOM     80  C   UNL A   1      39.523  34.768  37.983  1.00  0.00     0.200 A 
ATOM     81  F   UNL A   1      37.991  33.187  38.836  1.00  0.00    -0.200 F 
ATOM     82  F   UNL A   1      39.255  35.597  39.000  1.00  0.00    -0.200 F 
ENDBRANCH  58  72
BRANCH  59  83
ATOM     83  C   UNL A   1      41.719  27.006  28.016  1.00  0.00     0.064 A 
ATOM     84  C   UNL A   1      41.036  25.786  27.909  1.00  0.00     0.173 A 
ATOM     85  C   UNL A   1      42.657  27.317  27.023  1.00  0.00     0.173 A 
ATOM     86  F   UNL A   1      40.141  25.435  28.845  1.00  0.00    -0.203 F 
ATOM     87  C   UNL A   1      41.308  24.895  26.873  1.00  0.00     0.198 A 
ATOM     88  C   UNL A   1      42.908  26.439  25.970  1.00  0.00     0.198 A 
ATOM     89  F   UNL A   1      43.331  28.476  27.073  1.00  0.00    -0.203 F 
ATOM     90  F   UNL A   1      40.685  23.710  26.830  1.00  0.00    -0.200 F 
ATOM     91  C   UNL A   1      42.243  25.223  25.902  1.00  0.00     0.200 A 
ATOM     92  F   UNL A   1      43.801  26.764  25.026  1.00  0.00    -0.200 F 
ATOM     93  F   UNL A   1      42.509  24.363  24.909  1.00  0.00    -0.200 F 
ENDBRANCH  59  83
BRANCH  71  94
ATOM     94  C   UNL A   1      44.664  27.655  34.280  1.00  0.00     0.064 A 
ATOM     95  C   UNL A   1      44.410  26.502  35.036  1.00  0.00     0.173 A 
ATOM     96  C   UNL A   1      45.994  28.080  34.150  1.00  0.00     0.173 A 
ATOM     97  F   UNL A   1      43.152  26.065  35.200  1.00  0.00    -0.203 F 
ATOM     98  C   UNL A   1      45.445  25.825  35.673  1.00  0.00     0.198 A 
ATOM     99  C   UNL A   1      47.030  27.383  34.763  1.00  0.00     0.198 A 
ATOM    100  F   UNL A   1      46.288  29.172  33.428  1.00  0.00    -0.203 F 
ATOM    101  F   UNL A   1      45.173  24.761  36.441  1.00  0.00    -0.200 F 
ATOM    102  C   UNL A   1      46.754  26.262  35.532  1.00  0.00     0.200 A 
ATOM    103  F   UNL A   1      48.295  27.799  34.616  1.00  0.00    -0.200 F 
ATOM    104  F   UNL A   1      47.749  25.610  36.147  1.00  0.00    -0.200 F 
ENDBRANCH  71  94
ENDBRANCH  45  46
ENDBRANCH  37  40
ENDBRANCH  35  36
ENDBRANCH  34  35
ENDBRANCH   1  34
TORSDOF 15
ENDMDL
MODEL 3
REMARK VINA RESULT:     -13.0      1.812      3.637
REMARK SMILES COc1ccccc1C(=O)N1[C@@H](C(=O)NCCCNC(=O)c2ccc(-c3c4nc(c(-c5c(F)c(F)c(F)c(F)c5F)c5ccc([nH]5)c(-c5c(F)c(F)c(F)c(F)c5F)c5nc(c(-c6c(F)c(F)c(F)c(F)c6F)c6ccc3[nH]6)C=C5)C=C4)cc2)COC12CC[NH+](Cc1ccccc1)CC2
REMARK SMILES IDX 16 1 15 2 13 3 14 4 12 6 11 7 87 8 85 9 86 10 88 11 99 12
REMARK SMILES IDX 89 13 98 14 90 15 9 17 10 18 8 19 3 20 4 21 5 22 7 23 6 24
REMARK SMILES IDX 2 25 1 26 91 27 92 28 93 29 97 30 94 31 96 32 95 33 17 34
REMARK SMILES IDX 18 35 19 36 20 37 21 39 22 40 23 41 84 42 24 43 83 44 25 45
REMARK SMILES IDX 26 46 27 47 77 48 28 49 82 50 76 51 78 52 29 53 81 54 75 55
REMARK SMILES IDX 74 56 30 58 62 59 42 60 61 61 43 62 46 63 60 64 79 65 44 66
REMARK SMILES IDX 45 67 59 69 80 70 47 71 31 72 32 73 40 74 33 75 34 76 38 77
REMARK SMILES IDX 41 78 35 79 36 80 39 81 37 82 63 83 64 84 72 85 65 86 66 87
REMARK SMILES IDX 70 88 73 89 67 90 68 91 71 92 69 93 48 94 49 95 57 96 50 97
REMARK SMILES IDX 51 98 55 99 58 100 52 101 53 102 56 103 54 104
REMARK H PARENT 15 5 90 16 19 38 78 57 46 68
REMARK Flexibility Score: inf
ROOT
ATOM      1  C   UNL A   1      32.800  26.510  25.804  1.00  0.00     0.117 C 
ENDROOT
BRANCH   1   2
ATOM      2  N   UNL A   1      31.604  26.285  25.039  1.00  0.00    -0.354 N 
ATOM      3  C   UNL A   1      31.345  25.297  24.131  1.00  0.00     0.245 C 
ATOM      4  O   UNL A   1      30.184  25.238  23.711  1.00  0.00    -0.273 OA
ATOM      5  H   UNL A   1      30.875  26.929  25.188  1.00  0.00     0.163 HD
BRANCH   3   6
ATOM      6  C   UNL A   1      32.452  24.397  23.529  1.00  0.00     0.203 C 
ATOM      7  N   UNL A   1      33.009  23.353  24.387  1.00  0.00    -0.295 N 
ATOM      8  C   UNL A   1      34.468  23.534  24.501  1.00  0.00     0.155 C 
ATOM      9  C   UNL A   1      33.647  25.236  23.135  1.00  0.00     0.198 C 
ATOM     10  O   UNL A   1      34.661  24.927  24.113  1.00  0.00    -0.352 OA
ATOM     11  C   UNL A   1      35.073  23.314  25.895  1.00  0.00     0.120 C 
ATOM     12  C   UNL A   1      35.273  22.712  23.482  1.00  0.00     0.120 C 
ATOM     13  C   UNL A   1      36.566  23.626  25.934  1.00  0.00     0.267 C 
ATOM     14  C   UNL A   1      36.778  23.037  23.587  1.00  0.00     0.267 C 
ATOM     15  N   UNL A   1      37.345  22.915  24.929  1.00  0.00    -0.331 N 
ATOM     16  H   UNL A   1      38.229  23.420  24.865  1.00  0.00     0.348 HD
BRANCH   7  17
ATOM     17  C   UNL A   1      32.240  22.205  24.556  1.00  0.00     0.260 C 
ATOM     18  O   UNL A   1      31.481  22.096  25.523  1.00  0.00    -0.269 OA
BRANCH  17  19
ATOM     19  C   UNL A   1      32.344  21.001  23.688  1.00  0.00     0.082 A 
ATOM     20  C   UNL A   1      32.482  19.697  24.175  1.00  0.00     0.131 A 
ATOM     21  C   UNL A   1      32.498  18.592  23.311  1.00  0.00     0.047 A 
ATOM     22  C   UNL A   1      32.198  18.761  21.964  1.00  0.00     0.004 A 
ATOM     23  C   UNL A   1      32.006  21.147  22.331  1.00  0.00     0.018 A 
ATOM     24  C   UNL A   1      31.909  20.034  21.482  1.00  0.00     0.001 A 
BRANCH  20  25
ATOM     25  O   UNL A   1      32.474  19.412  25.515  1.00  0.00    -0.496 OA
ATOM     26  C   UNL A   1      32.774  18.019  25.681  1.00  0.00     0.278 C 
ENDBRANCH  20  25
ENDBRANCH  17  19
ENDBRANCH   7  17
BRANCH  15  27
ATOM     27  C   UNL A   1      37.873  21.605  25.325  1.00  0.00     0.299 C 
BRANCH  27  28
ATOM     28  C   UNL A   1      39.182  21.584  26.078  1.00  0.00     0.006 A 
ATOM     29  C   UNL A   1      39.603  22.687  26.828  1.00  0.00     0.009 A 
ATOM     30  C   UNL A   1      39.989  20.433  26.061  1.00  0.00     0.009 A 
ATOM     31  C   UNL A   1      40.772  22.615  27.586  1.00  0.00     0.001 A 
ATOM     32  C   UNL A   1      41.123  20.343  26.866  1.00  0.00     0.001 A 
ATOM     33  C   UNL A   1      41.510  21.433  27.636  1.00  0.00     0.000 A 
ENDBRANCH  27  28
ENDBRANCH  15  27
ENDBRANCH   3   6
ENDBRANCH   1   2
BRANCH   1  34
ATOM     34  C   UNL A   1      32.775  27.739  26.687  1.00  0.00     0.042 C 
BRANCH  34  35
ATOM     35  C   UNL A   1      33.376  28.931  25.964  1.00  0.00     0.118 C 
BRANCH  35  36
ATOM     36  N   UNL A   1      32.911  30.224  26.470  1.00  0.00    -0.352 N 
ATOM     37  C   UNL A   1      33.567  31.147  27.248  1.00  0.00     0.251 C 
ATOM     38  H   UNL A   1      31.992  30.469  26.217  1.00  0.00     0.163 HD
ATOM     39  O   UNL A   1      32.996  32.169  27.615  1.00  0.00    -0.269 OA
BRANCH  37  40
ATOM     40  C   UNL A   1      34.946  30.863  27.693  1.00  0.00     0.039 A 
ATOM     41  C   UNL A   1      35.827  31.930  27.870  1.00  0.00     0.014 A 
ATOM     42  C   UNL A   1      35.333  29.564  28.021  1.00  0.00     0.014 A 
ATOM     43  C   UNL A   1      37.065  31.700  28.470  1.00  0.00     0.010 A 
ATOM     44  C   UNL A   1      36.500  29.363  28.742  1.00  0.00     0.010 A 
ATOM     45  C   UNL A   1      37.386  30.424  28.962  1.00  0.00    -0.014 A 
BRANCH  45  46
ATOM     46  C   UNL A   1      38.655  30.176  29.688  1.00  0.00     0.031 A 
ATOM     47  C   UNL A   1      38.831  30.701  31.088  1.00  0.00     0.074 A 
ATOM     48  C   UNL A   1      39.661  29.527  29.069  1.00  0.00     0.049 A 
ATOM     49  N   UNL A   1      39.874  30.624  31.876  1.00  0.00    -0.248 NA
ATOM     50  C   UNL A   1      37.706  31.455  31.665  1.00  0.00     0.031 C 
ATOM     51  C   UNL A   1      39.641  29.052  27.683  1.00  0.00     0.029 A 
ATOM     52  N   UNL A   1      40.896  29.150  29.528  1.00  0.00    -0.354 N 
ATOM     53  C   UNL A   1      39.533  31.333  33.020  1.00  0.00     0.074 A 
ATOM     54  C   UNL A   1      38.226  31.904  32.796  1.00  0.00     0.031 C 
ATOM     55  C   UNL A   1      40.784  28.395  27.424  1.00  0.00     0.029 A 
ATOM     56  C   UNL A   1      41.627  28.430  28.613  1.00  0.00     0.049 A 
ATOM     57  H   UNL A   1      41.229  29.373  30.427  1.00  0.00     0.167 HD
ATOM     58  C   UNL A   1      40.225  31.455  34.176  1.00  0.00     0.037 A 
ATOM     59  C   UNL A   1      42.835  27.848  28.736  1.00  0.00     0.037 A 
ATOM     60  C   UNL A   1      41.501  30.839  34.415  1.00  0.00     0.049 A 
ATOM     61  C   UNL A   1      43.556  27.951  30.053  1.00  0.00     0.074 A 
ATOM     62  C   UNL A   1      42.273  30.858  35.562  1.00  0.00     0.029 A 
ATOM     63  N   UNL A   1      42.184  30.069  33.483  1.00  0.00    -0.354 N 
ATOM     64  N   UNL A   1      43.192  28.566  31.152  1.00  0.00    -0.248 NA
ATOM     65  C   UNL A   1      44.849  27.262  30.151  1.00  0.00     0.031 C 
ATOM     66  C   UNL A   1      43.433  30.116  35.319  1.00  0.00     0.029 A 
ATOM     67  C   UNL A   1      43.366  29.605  34.033  1.00  0.00     0.049 A 
ATOM     68  H   UNL A   1      41.874  29.882  32.568  1.00  0.00     0.167 HD
ATOM     69  C   UNL A   1      44.194  28.315  32.078  1.00  0.00     0.074 A 
ATOM     70  C   UNL A   1      45.168  27.469  31.419  1.00  0.00     0.031 C 
ATOM     71  C   UNL A   1      44.306  28.749  33.358  1.00  0.00     0.037 A 
BRANCH  58  72
ATOM     72  C   UNL A   1      39.592  32.252  35.279  1.00  0.00     0.064 A 
ATOM     73  C   UNL A   1      38.776  31.639  36.245  1.00  0.00     0.173 A 
ATOM     74  C   UNL A   1      39.813  33.632  35.388  1.00  0.00     0.173 A 
ATOM     75  F   UNL A   1      38.516  30.325  36.174  1.00  0.00    -0.203 F 
ATOM     76  C   UNL A   1      38.183  32.385  37.260  1.00  0.00     0.198 A 
ATOM     77  C   UNL A   1      39.243  34.370  36.423  1.00  0.00     0.198 A 
ATOM     78  F   UNL A   1      40.584  34.267  34.491  1.00  0.00    -0.203 F 
ATOM     79  F   UNL A   1      37.364  31.787  38.136  1.00  0.00    -0.200 F 
ATOM     80  C   UNL A   1      38.423  33.747  37.353  1.00  0.00     0.200 A 
ATOM     81  F   UNL A   1      39.483  35.684  36.518  1.00  0.00    -0.200 F 
ATOM     82  F   UNL A   1      37.857  34.462  38.334  1.00  0.00    -0.200 F 
ENDBRANCH  58  72
BRANCH  59  83
ATOM     83  C   UNL A   1      43.412  27.064  27.612  1.00  0.00     0.064 A 
ATOM     84  C   UNL A   1      43.289  25.667  27.579  1.00  0.00     0.173 A 
ATOM     85  C   UNL A   1      44.120  27.681  26.573  1.00  0.00     0.173 A 
ATOM     86  F   UNL A   1      42.635  25.029  28.560  1.00  0.00    -0.203 F 
ATOM     87  C   UNL A   1      43.883  24.915  26.567  1.00  0.00     0.198 A 
ATOM     88  C   UNL A   1      44.690  26.930  25.546  1.00  0.00     0.198 A 
ATOM     89  F   UNL A   1      44.259  29.015  26.552  1.00  0.00    -0.203 F 
ATOM     90  F   UNL A   1      43.801  23.577  26.594  1.00  0.00    -0.200 F 
ATOM     91  C   UNL A   1      44.582  25.547  25.550  1.00  0.00     0.200 A 
ATOM     92  F   UNL A   1      45.352  27.544  24.556  1.00  0.00    -0.200 F 
ATOM     93  F   UNL A   1      45.160  24.823  24.582  1.00  0.00    -0.200 F 
ENDBRANCH  59  83
BRANCH  71  94
ATOM     94  C   UNL A   1      45.504  28.281  34.128  1.00  0.00     0.064 A 
ATOM     95  C   UNL A   1      46.696  29.019  34.152  1.00  0.00     0.173 A 
ATOM     96  C   UNL A   1      45.450  27.088  34.863  1.00  0.00     0.173 A 
ATOM     97  F   UNL A   1      46.798  30.159  33.454  1.00  0.00    -0.203 F 
ATOM     98  C   UNL A   1      47.807  28.557  34.851  1.00  0.00     0.198 A 
ATOM     99  C   UNL A   1      46.553  26.644  35.586  1.00  0.00     0.198 A 
ATOM    100  F   UNL A   1      44.328  26.352  34.879  1.00  0.00    -0.203 F 
ATOM    101  F   UNL A   1      48.955  29.246  34.811  1.00  0.00    -0.200 F 
ATOM    102  C   UNL A   1      47.733  27.373  35.571  1.00  0.00     0.200 A 
ATOM    103  F   UNL A   1      46.477  25.507  36.291  1.00  0.00    -0.200 F 
ATOM    104  F   UNL A   1      48.804  26.929  36.242  1.00  0.00    -0.200 F 
ENDBRANCH  71  94
ENDBRANCH  45  46
ENDBRANCH  37  40
ENDBRANCH  35  36
ENDBRANCH  34  35
ENDBRANCH   1  34
TORSDOF 15
ENDMDL
