MODEL 1
REMARK VINA RESULT:     -12.3      0.000      0.000
REMARK SMILES O=C(NCCCNC(=O)c1cccc2cccc(C(=O)NC3COC3)c12)c1ccc(-c2c3nc(c(-c4c(F)c(F)c(F)c(F)c4F)c4ccc([nH]4)c(-c4c(F)c(F)c(F)c(F)c4F)c4nc(c(-c5c(F)c(F)c(F)c(F)c5F)c5ccc2[nH]5)C=C4)C=C3)cc1
REMARK SMILES IDX 5 1 4 2 3 3 1 4 2 5 27 7 28 8 89 9 29 10 88 11 30 12 31 13
REMARK SMILES IDX 32 14 82 15 33 16 87 17 81 18 83 19 34 20 86 21 80 22 79 23
REMARK SMILES IDX 35 25 67 26 47 27 66 28 48 29 51 30 65 31 84 32 49 33 50 34
REMARK SMILES IDX 64 36 85 37 52 38 36 39 37 40 45 41 38 42 39 43 43 44 46 45
REMARK SMILES IDX 40 46 41 47 44 48 42 49 68 50 69 51 77 52 70 53 71 54 75 55
REMARK SMILES IDX 78 56 72 57 73 58 76 59 74 60 53 61 54 62 62 63 55 64 56 65
REMARK SMILES IDX 60 66 63 67 57 68 58 69 61 70 59 71 6 72 7 73 8 74 9 76
REMARK SMILES IDX 10 77 11 78 26 79 12 80 14 81 18 82 13 83 15 84 17 85 16 86
REMARK SMILES IDX 19 87 20 88 21 89 22 91 23 92 25 93 24 94
REMARK H PARENT 3 6 83 24 51 35 7 75 21 90
REMARK Flexibility Score: inf
ROOT
ATOM      1  C   UNL A   1      34.021  28.983  23.824  1.00  0.00     0.042 C 
ENDROOT
BRANCH   1   2
ATOM      2  C   UNL A   1      33.350  28.855  25.188  1.00  0.00     0.118 C 
BRANCH   2   3
ATOM      3  N   UNL A   1      32.828  30.125  25.674  1.00  0.00    -0.352 N 
ATOM      4  O   UNL A   1      32.501  31.832  27.104  1.00  0.00    -0.269 OA
ATOM      5  C   UNL A   1      33.215  30.897  26.741  1.00  0.00     0.251 C 
ATOM      6  H   UNL A   1      32.077  30.488  25.152  1.00  0.00     0.163 HD
BRANCH   5   7
ATOM      7  C   UNL A   1      34.459  30.604  27.485  1.00  0.00     0.039 A 
ATOM      8  C   UNL A   1      34.715  29.331  27.994  1.00  0.00     0.014 A 
ATOM      9  C   UNL A   1      35.420  31.610  27.627  1.00  0.00     0.014 A 
ATOM     10  C   UNL A   1      35.842  29.107  28.778  1.00  0.00     0.010 A 
ATOM     11  C   UNL A   1      36.604  31.356  28.329  1.00  0.00     0.010 A 
ATOM     12  C   UNL A   1      36.809  30.112  28.942  1.00  0.00    -0.014 A 
BRANCH  12  13
ATOM     13  C   UNL A   1      38.044  29.809  29.713  1.00  0.00     0.031 A 
ATOM     14  C   UNL A   1      38.242  30.338  31.105  1.00  0.00     0.074 A 
ATOM     15  C   UNL A   1      38.978  29.013  29.156  1.00  0.00     0.049 A 
ATOM     16  N   UNL A   1      39.240  30.138  31.929  1.00  0.00    -0.248 NA
ATOM     17  C   UNL A   1      37.189  31.212  31.643  1.00  0.00     0.031 C 
ATOM     18  C   UNL A   1      38.909  28.455  27.803  1.00  0.00     0.029 A 
ATOM     19  N   UNL A   1      40.152  28.514  29.659  1.00  0.00    -0.354 N 
ATOM     20  C   UNL A   1      38.948  30.875  33.069  1.00  0.00     0.074 A 
ATOM     21  C   UNL A   1      37.690  31.547  32.824  1.00  0.00     0.031 C 
ATOM     22  C   UNL A   1      39.964  27.653  27.603  1.00  0.00     0.029 A 
ATOM     23  C   UNL A   1      40.815  27.685  28.787  1.00  0.00     0.049 A 
ATOM     24  H   UNL A   1      40.489  28.730  30.559  1.00  0.00     0.167 HD
ATOM     25  C   UNL A   1      39.661  30.972  34.217  1.00  0.00     0.037 A 
ATOM     26  C   UNL A   1      41.983  27.031  28.919  1.00  0.00     0.037 A 
ATOM     27  C   UNL A   1      40.902  30.281  34.467  1.00  0.00     0.049 A 
ATOM     28  C   UNL A   1      42.752  27.159  30.201  1.00  0.00     0.074 A 
ATOM     29  C   UNL A   1      41.673  30.281  35.617  1.00  0.00     0.029 A 
ATOM     30  N   UNL A   1      41.553  29.470  33.549  1.00  0.00    -0.354 N 
ATOM     31  N   UNL A   1      42.445  27.829  31.284  1.00  0.00    -0.248 NA
ATOM     32  C   UNL A   1      44.034  26.445  30.278  1.00  0.00     0.031 C 
ATOM     33  C   UNL A   1      42.813  29.504  35.380  1.00  0.00     0.029 A 
ATOM     34  C   UNL A   1      42.729  28.983  34.099  1.00  0.00     0.049 A 
ATOM     35  H   UNL A   1      41.228  29.270  32.642  1.00  0.00     0.167 HD
ATOM     36  C   UNL A   1      43.486  27.613  32.174  1.00  0.00     0.074 A 
ATOM     37  C   UNL A   1      44.423  26.727  31.514  1.00  0.00     0.031 C 
ATOM     38  C   UNL A   1      43.653  28.108  33.424  1.00  0.00     0.037 A 
BRANCH  25  39
ATOM     39  C   UNL A   1      39.129  31.872  35.295  1.00  0.00     0.064 A 
ATOM     40  C   UNL A   1      38.357  31.377  36.356  1.00  0.00     0.173 A 
ATOM     41  C   UNL A   1      39.437  33.241  35.291  1.00  0.00     0.173 A 
ATOM     42  F   UNL A   1      38.026  30.078  36.402  1.00  0.00    -0.203 F 
ATOM     43  C   UNL A   1      37.895  32.224  37.362  1.00  0.00     0.198 A 
ATOM     44  C   UNL A   1      38.995  34.080  36.311  1.00  0.00     0.198 A 
ATOM     45  F   UNL A   1      40.177  33.765  34.302  1.00  0.00    -0.203 F 
ATOM     46  F   UNL A   1      37.126  31.736  38.345  1.00  0.00    -0.200 F 
ATOM     47  C   UNL A   1      38.220  33.572  37.342  1.00  0.00     0.200 A 
ATOM     48  F   UNL A   1      39.320  35.381  36.296  1.00  0.00    -0.200 F 
ATOM     49  F   UNL A   1      37.781  34.383  38.314  1.00  0.00    -0.200 F 
ENDBRANCH  25  39
BRANCH  26  50
ATOM     50  C   UNL A   1      42.489  26.203  27.795  1.00  0.00     0.064 A 
ATOM     51  C   UNL A   1      43.423  26.713  26.883  1.00  0.00     0.173 A 
ATOM     52  C   UNL A   1      42.067  24.876  27.625  1.00  0.00     0.173 A 
ATOM     53  F   UNL A   1      43.841  27.983  26.992  1.00  0.00    -0.203 F 
ATOM     54  C   UNL A   1      43.910  25.928  25.839  1.00  0.00     0.198 A 
ATOM     55  C   UNL A   1      42.576  24.084  26.599  1.00  0.00     0.198 A 
ATOM     56  F   UNL A   1      41.178  24.341  28.475  1.00  0.00    -0.203 F 
ATOM     57  F   UNL A   1      44.778  26.449  24.961  1.00  0.00    -0.200 F 
ATOM     58  C   UNL A   1      43.494  24.612  25.704  1.00  0.00     0.200 A 
ATOM     59  F   UNL A   1      42.184  22.808  26.483  1.00  0.00    -0.200 F 
ATOM     60  F   UNL A   1      43.972  23.854  24.708  1.00  0.00    -0.200 F 
ENDBRANCH  26  50
BRANCH  38  61
ATOM     61  C   UNL A   1      44.892  27.692  34.161  1.00  0.00     0.064 A 
ATOM     62  C   UNL A   1      44.928  26.520  34.930  1.00  0.00     0.173 A 
ATOM     63  C   UNL A   1      46.062  28.462  34.078  1.00  0.00     0.173 A 
ATOM     64  F   UNL A   1      43.828  25.761  35.053  1.00  0.00    -0.203 F 
ATOM     65  C   UNL A   1      46.084  26.146  35.609  1.00  0.00     0.198 A 
ATOM     66  C   UNL A   1      47.224  28.071  34.737  1.00  0.00     0.198 A 
ATOM     67  F   UNL A   1      46.079  29.590  33.353  1.00  0.00    -0.203 F 
ATOM     68  F   UNL A   1      46.082  25.046  36.375  1.00  0.00    -0.200 F 
ATOM     69  C   UNL A   1      47.231  26.917  35.507  1.00  0.00     0.200 A 
ATOM     70  F   UNL A   1      48.335  28.812  34.631  1.00  0.00    -0.200 F 
ATOM     71  F   UNL A   1      48.344  26.554  36.160  1.00  0.00    -0.200 F 
ENDBRANCH  38  61
ENDBRANCH  12  13
ENDBRANCH   5   7
ENDBRANCH   2   3
ENDBRANCH   1   2
BRANCH   1  72
ATOM     72  C   UNL A   1      33.262  28.238  22.739  1.00  0.00     0.118 C 
BRANCH  72  73
ATOM     73  N   UNL A   1      33.350  26.807  22.924  1.00  0.00    -0.352 N 
ATOM     74  C   UNL A   1      32.270  26.035  22.647  1.00  0.00     0.251 C 
ATOM     75  H   UNL A   1      34.185  26.397  23.248  1.00  0.00     0.163 HD
ATOM     76  O   UNL A   1      31.717  25.993  21.536  1.00  0.00    -0.269 OA
BRANCH  74  77
ATOM     77  C   UNL A   1      31.631  25.429  23.807  1.00  0.00     0.048 A 
ATOM     78  C   UNL A   1      30.840  26.349  24.525  1.00  0.00     0.014 A 
ATOM     79  C   UNL A   1      31.765  24.054  24.171  1.00  0.00     0.007 A 
ATOM     80  C   UNL A   1      30.163  25.953  25.659  1.00  0.00     0.001 A 
ATOM     81  C   UNL A   1      31.030  23.693  25.346  1.00  0.00    -0.017 A 
ATOM     82  C   UNL A   1      32.547  23.012  23.539  1.00  0.00     0.048 A 
ATOM     83  C   UNL A   1      30.264  24.633  26.065  1.00  0.00     0.009 A 
ATOM     84  C   UNL A   1      31.077  22.392  25.857  1.00  0.00     0.009 A 
ATOM     85  C   UNL A   1      32.544  21.707  24.083  1.00  0.00     0.014 A 
ATOM     86  C   UNL A   1      31.818  21.401  25.231  1.00  0.00     0.001 A 
BRANCH  82  87
ATOM     87  C   UNL A   1      33.770  23.265  22.741  1.00  0.00     0.252 C 
ATOM     88  O   UNL A   1      33.605  23.328  21.515  1.00  0.00    -0.269 OA
ATOM     89  N   UNL A   1      35.065  23.472  23.143  1.00  0.00    -0.345 N 
ATOM     90  H   UNL A   1      35.662  23.462  22.359  1.00  0.00     0.164 HD
BRANCH  89  91
ATOM     91  C   UNL A   1      35.853  23.703  24.364  1.00  0.00     0.134 C 
ATOM     92  C   UNL A   1      35.461  23.302  25.776  1.00  0.00     0.187 C 
ATOM     93  C   UNL A   1      37.028  22.722  24.577  1.00  0.00     0.187 C 
ATOM     94  O   UNL A   1      36.778  22.719  26.005  1.00  0.00    -0.377 OA
ENDBRANCH  89  91
ENDBRANCH  82  87
ENDBRANCH  74  77
ENDBRANCH  72  73
ENDBRANCH   1  72
TORSDOF 12
ENDMDL
MODEL 2
REMARK VINA RESULT:     -12.2      3.933      9.318
REMARK SMILES O=C(NCCCNC(=O)c1cccc2cccc(C(=O)NC3COC3)c12)c1ccc(-c2c3nc(c(-c4c(F)c(F)c(F)c(F)c4F)c4ccc([nH]4)c(-c4c(F)c(F)c(F)c(F)c4F)c4nc(c(-c5c(F)c(F)c(F)c(F)c5F)c5ccc2[nH]5)C=C4)C=C3)cc1
REMARK SMILES IDX 5 1 4 2 3 3 1 4 2 5 27 7 28 8 89 9 29 10 88 11 30 12 31 13
REMARK SMILES IDX 32 14 82 15 33 16 87 17 81 18 83 19 34 20 86 21 80 22 79 23
REMARK SMILES IDX 35 25 67 26 47 27 66 28 48 29 51 30 65 31 84 32 49 33 50 34
REMARK SMILES IDX 64 36 85 37 52 38 36 39 37 40 45 41 38 42 39 43 43 44 46 45
REMARK SMILES IDX 40 46 41 47 44 48 42 49 68 50 69 51 77 52 70 53 71 54 75 55
REMARK SMILES IDX 78 56 72 57 73 58 76 59 74 60 53 61 54 62 62 63 55 64 56 65
REMARK SMILES IDX 60 66 63 67 57 68 58 69 61 70 59 71 6 72 7 73 8 74 9 76
REMARK SMILES IDX 10 77 11 78 26 79 12 80 14 81 18 82 13 83 15 84 17 85 16 86
REMARK SMILES IDX 19 87 20 88 21 89 22 91 23 92 25 93 24 94
REMARK H PARENT 3 6 83 24 51 35 7 75 21 90
REMARK Flexibility Score: inf
ROOT
ATOM      1  C   UNL A   1      34.960  22.521  27.224  1.00  0.00     0.042 C 
ENDROOT
BRANCH   1   2
ATOM      2  C   UNL A   1      35.863  22.654  26.002  1.00  0.00     0.118 C 
BRANCH   2   3
ATOM      3  N   UNL A   1      36.825  21.566  25.898  1.00  0.00    -0.352 N 
ATOM      4  O   UNL A   1      38.831  20.576  25.643  1.00  0.00    -0.269 OA
ATOM      5  C   UNL A   1      38.197  21.579  25.969  1.00  0.00     0.251 C 
ATOM      6  H   UNL A   1      36.428  20.677  25.754  1.00  0.00     0.163 HD
BRANCH   5   7
ATOM      7  C   UNL A   1      38.927  22.791  26.399  1.00  0.00     0.039 A 
ATOM      8  C   UNL A   1      38.503  24.064  26.018  1.00  0.00     0.014 A 
ATOM      9  C   UNL A   1      40.028  22.656  27.251  1.00  0.00     0.014 A 
ATOM     10  C   UNL A   1      39.266  25.180  26.348  1.00  0.00     0.010 A 
ATOM     11  C   UNL A   1      40.736  23.789  27.668  1.00  0.00     0.010 A 
ATOM     12  C   UNL A   1      40.382  25.059  27.190  1.00  0.00    -0.014 A 
BRANCH  12  13
ATOM     13  C   UNL A   1      41.121  26.285  27.594  1.00  0.00     0.031 A 
ATOM     14  C   UNL A   1      42.536  26.523  27.148  1.00  0.00     0.074 A 
ATOM     15  C   UNL A   1      40.486  27.209  28.342  1.00  0.00     0.049 A 
ATOM     16  N   UNL A   1      43.310  27.555  27.378  1.00  0.00    -0.248 NA
ATOM     17  C   UNL A   1      43.170  25.466  26.348  1.00  0.00     0.031 C 
ATOM     18  C   UNL A   1      39.119  27.081  28.854  1.00  0.00     0.029 A 
ATOM     19  N   UNL A   1      40.889  28.443  28.783  1.00  0.00    -0.354 N 
ATOM     20  C   UNL A   1      44.525  27.263  26.772  1.00  0.00     0.074 A 
ATOM     21  C   UNL A   1      44.395  25.947  26.183  1.00  0.00     0.031 C 
ATOM     22  C   UNL A   1      38.781  28.210  29.493  1.00  0.00     0.029 A 
ATOM     23  C   UNL A   1      39.923  29.117  29.488  1.00  0.00     0.049 A 
ATOM     24  H   UNL A   1      41.786  28.811  28.610  1.00  0.00     0.167 HD
ATOM     25  C   UNL A   1      45.640  28.029  26.706  1.00  0.00     0.037 A 
ATOM     26  C   UNL A   1      39.954  30.325  30.079  1.00  0.00     0.037 A 
ATOM     27  C   UNL A   1      45.757  29.349  27.272  1.00  0.00     0.049 A 
ATOM     28  C   UNL A   1      41.204  31.151  29.991  1.00  0.00     0.074 A 
ATOM     29  C   UNL A   1      46.832  30.220  27.217  1.00  0.00     0.029 A 
ATOM     30  N   UNL A   1      44.764  29.987  28.002  1.00  0.00    -0.354 N 
ATOM     31  N   UNL A   1      42.332  30.878  29.382  1.00  0.00    -0.248 NA
ATOM     32  C   UNL A   1      41.189  32.450  30.677  1.00  0.00     0.031 C 
ATOM     33  C   UNL A   1      46.506  31.367  27.948  1.00  0.00     0.029 A 
ATOM     34  C   UNL A   1      45.211  31.231  28.422  1.00  0.00     0.049 A 
ATOM     35  H   UNL A   1      43.874  29.611  28.193  1.00  0.00     0.167 HD
ATOM     36  C   UNL A   1      43.158  31.970  29.602  1.00  0.00     0.074 A 
ATOM     37  C   UNL A   1      42.392  32.923  30.379  1.00  0.00     0.031 C 
ATOM     38  C   UNL A   1      44.437  32.163  29.201  1.00  0.00     0.037 A 
BRANCH  25  39
ATOM     39  C   UNL A   1      46.840  27.454  26.008  1.00  0.00     0.064 A 
ATOM     40  C   UNL A   1      47.026  27.594  24.625  1.00  0.00     0.173 A 
ATOM     41  C   UNL A   1      47.840  26.799  26.742  1.00  0.00     0.173 A 
ATOM     42  F   UNL A   1      46.095  28.203  23.876  1.00  0.00    -0.203 F 
ATOM     43  C   UNL A   1      48.159  27.078  23.999  1.00  0.00     0.198 A 
ATOM     44  C   UNL A   1      48.984  26.307  26.117  1.00  0.00     0.198 A 
ATOM     45  F   UNL A   1      47.715  26.644  28.068  1.00  0.00    -0.203 F 
ATOM     46  F   UNL A   1      48.297  27.188  22.670  1.00  0.00    -0.200 F 
ATOM     47  C   UNL A   1      49.140  26.442  24.746  1.00  0.00     0.200 A 
ATOM     48  F   UNL A   1      49.936  25.703  26.842  1.00  0.00    -0.200 F 
ATOM     49  F   UNL A   1      50.232  25.953  24.143  1.00  0.00    -0.200 F 
ENDBRANCH  25  39
BRANCH  26  50
ATOM     50  C   UNL A   1      38.756  30.816  30.808  1.00  0.00     0.064 A 
ATOM     51  C   UNL A   1      38.631  30.646  32.193  1.00  0.00     0.173 A 
ATOM     52  C   UNL A   1      37.723  31.485  30.135  1.00  0.00     0.173 A 
ATOM     53  F   UNL A   1      39.583  29.993  32.876  1.00  0.00    -0.203 F 
ATOM     54  C   UNL A   1      37.514  31.121  32.878  1.00  0.00     0.198 A 
ATOM     55  C   UNL A   1      36.621  31.986  30.825  1.00  0.00     0.198 A 
ATOM     56  F   UNL A   1      37.798  31.677  28.810  1.00  0.00    -0.203 F 
ATOM     57  F   UNL A   1      37.403  30.917  34.197  1.00  0.00    -0.200 F 
ATOM     58  C   UNL A   1      36.515  31.799  32.194  1.00  0.00     0.200 A 
ATOM     59  F   UNL A   1      35.667  32.655  30.163  1.00  0.00    -0.200 F 
ATOM     60  F   UNL A   1      35.448  32.268  32.855  1.00  0.00    -0.200 F 
ENDBRANCH  26  50
BRANCH  38  61
ATOM     61  C   UNL A   1      45.084  33.460  29.588  1.00  0.00     0.064 A 
ATOM     62  C   UNL A   1      44.991  34.596  28.771  1.00  0.00     0.173 A 
ATOM     63  C   UNL A   1      45.782  33.574  30.800  1.00  0.00     0.173 A 
ATOM     64  F   UNL A   1      44.349  34.531  27.595  1.00  0.00    -0.203 F 
ATOM     65  C   UNL A   1      45.596  35.794  29.143  1.00  0.00     0.198 A 
ATOM     66  C   UNL A   1      46.363  34.781  31.180  1.00  0.00     0.198 A 
ATOM     67  F   UNL A   1      45.895  32.516  31.617  1.00  0.00    -0.203 F 
ATOM     68  F   UNL A   1      45.535  36.855  28.325  1.00  0.00    -0.200 F 
ATOM     69  C   UNL A   1      46.275  35.887  30.348  1.00  0.00     0.200 A 
ATOM     70  F   UNL A   1      47.011  34.871  32.349  1.00  0.00    -0.200 F 
ATOM     71  F   UNL A   1      46.855  37.042  30.705  1.00  0.00    -0.200 F 
ENDBRANCH  38  61
ENDBRANCH  12  13
ENDBRANCH   5   7
ENDBRANCH   2   3
ENDBRANCH   1   2
BRANCH   1  72
ATOM     72  C   UNL A   1      33.536  22.148  26.848  1.00  0.00     0.118 C 
BRANCH  72  73
ATOM     73  N   UNL A   1      32.773  23.313  26.460  1.00  0.00    -0.352 N 
ATOM     74  C   UNL A   1      31.789  23.183  25.536  1.00  0.00     0.251 C 
ATOM     75  H   UNL A   1      32.965  24.191  26.863  1.00  0.00     0.163 HD
ATOM     76  O   UNL A   1      30.816  22.422  25.663  1.00  0.00    -0.269 OA
BRANCH  74  77
ATOM     77  C   UNL A   1      32.062  23.816  24.253  1.00  0.00     0.048 A 
ATOM     78  C   UNL A   1      32.979  23.077  23.476  1.00  0.00     0.014 A 
ATOM     79  C   UNL A   1      31.457  25.032  23.812  1.00  0.00     0.007 A 
ATOM     80  C   UNL A   1      33.361  23.528  22.231  1.00  0.00     0.001 A 
ATOM     81  C   UNL A   1      31.877  25.446  22.506  1.00  0.00    -0.017 A 
ATOM     82  C   UNL A   1      30.520  25.891  24.504  1.00  0.00     0.048 A 
ATOM     83  C   UNL A   1      32.813  24.708  21.754  1.00  0.00     0.009 A 
ATOM     84  C   UNL A   1      31.403  26.632  21.937  1.00  0.00     0.009 A 
ATOM     85  C   UNL A   1      30.054  27.069  23.876  1.00  0.00     0.014 A 
ATOM     86  C   UNL A   1      30.493  27.436  22.606  1.00  0.00     0.001 A 
BRANCH  82  87
ATOM     87  C   UNL A   1      30.421  25.987  25.979  1.00  0.00     0.252 C 
ATOM     88  O   UNL A   1      29.528  25.305  26.501  1.00  0.00    -0.269 OA
ATOM     89  N   UNL A   1      31.182  26.694  26.876  1.00  0.00    -0.345 N 
ATOM     90  H   UNL A   1      30.762  26.660  27.767  1.00  0.00     0.164 HD
BRANCH  89  91
ATOM     91  C   UNL A   1      32.421  27.485  26.941  1.00  0.00     0.134 C 
ATOM     92  C   UNL A   1      33.628  27.339  26.030  1.00  0.00     0.187 C 
ATOM     93  C   UNL A   1      32.323  28.900  26.328  1.00  0.00     0.187 C 
ATOM     94  O   UNL A   1      33.673  28.781  25.814  1.00  0.00    -0.377 OA
ENDBRANCH  89  91
ENDBRANCH  82  87
ENDBRANCH  74  77
ENDBRANCH  72  73
ENDBRANCH   1  72
TORSDOF 12
ENDMDL
MODEL 3
REMARK VINA RESULT:     -12.2      5.554     10.573
REMARK SMILES O=C(NCCCNC(=O)c1cccc2cccc(C(=O)NC3COC3)c12)c1ccc(-c2c3nc(c(-c4c(F)c(F)c(F)c(F)c4F)c4ccc([nH]4)c(-c4c(F)c(F)c(F)c(F)c4F)c4nc(c(-c5c(F)c(F)c(F)c(F)c5F)c5ccc2[nH]5)C=C4)C=C3)cc1
REMARK SMILES IDX 5 1 4 2 3 3 1 4 2 5 27 7 28 8 89 9 29 10 88 11 30 12 31 13
REMARK SMILES IDX 32 14 82 15 33 16 87 17 81 18 83 19 34 20 86 21 80 22 79 23
REMARK SMILES IDX 35 25 67 26 47 27 66 28 48 29 51 30 65 31 84 32 49 33 50 34
REMARK SMILES IDX 64 36 85 37 52 38 36 39 37 40 45 41 38 42 39 43 43 44 46 45
REMARK SMILES IDX 40 46 41 47 44 48 42 49 68 50 69 51 77 52 70 53 71 54 75 55
REMARK SMILES IDX 78 56 72 57 73 58 76 59 74 60 53 61 54 62 62 63 55 64 56 65
REMARK SMILES IDX 60 66 63 67 57 68 58 69 61 70 59 71 6 72 7 73 8 74 9 76
REMARK SMILES IDX 10 77 11 78 26 79 12 80 14 81 18 82 13 83 15 84 17 85 16 86
REMARK SMILES IDX 19 87 20 88 21 89 22 91 23 92 25 93 24 94
REMARK H PARENT 3 6 83 24 51 35 7 75 21 90
REMARK Flexibility Score: inf
ROOT
ATOM      1  C   UNL A   1      48.808  26.023  33.158  1.00  0.00     0.042 C 
ENDROOT
BRANCH   1   2
ATOM      2  C   UNL A   1      49.038  26.985  34.320  1.00  0.00     0.118 C 
BRANCH   2   3
ATOM      3  N   UNL A   1      48.595  26.438  35.594  1.00  0.00    -0.352 N 
ATOM      4  O   UNL A   1      47.276  26.165  37.397  1.00  0.00    -0.269 OA
ATOM      5  C   UNL A   1      47.377  26.520  36.223  1.00  0.00     0.251 C 
ATOM      6  H   UNL A   1      49.279  25.927  36.083  1.00  0.00     0.163 HD
BRANCH   5   7
ATOM      7  C   UNL A   1      46.191  27.059  35.523  1.00  0.00     0.039 A 
ATOM      8  C   UNL A   1      46.274  28.212  34.742  1.00  0.00     0.014 A 
ATOM      9  C   UNL A   1      44.979  26.365  35.603  1.00  0.00     0.014 A 
ATOM     10  C   UNL A   1      45.124  28.757  34.180  1.00  0.00     0.010 A 
ATOM     11  C   UNL A   1      43.844  26.858  34.951  1.00  0.00     0.010 A 
ATOM     12  C   UNL A   1      43.898  28.079  34.264  1.00  0.00    -0.014 A 
BRANCH  12  13
ATOM     13  C   UNL A   1      42.708  28.647  33.575  1.00  0.00     0.031 A 
ATOM     14  C   UNL A   1      41.805  29.630  34.265  1.00  0.00     0.074 A 
ATOM     15  C   UNL A   1      42.470  28.296  32.296  1.00  0.00     0.049 A 
ATOM     16  N   UNL A   1      40.749  30.249  33.797  1.00  0.00    -0.248 NA
ATOM     17  C   UNL A   1      42.117  29.955  35.664  1.00  0.00     0.031 C 
ATOM     18  C   UNL A   1      43.263  27.335  31.526  1.00  0.00     0.029 A 
ATOM     19  N   UNL A   1      41.511  28.718  31.410  1.00  0.00    -0.354 N 
ATOM     20  C   UNL A   1      40.262  31.018  34.845  1.00  0.00     0.074 A 
ATOM     21  C   UNL A   1      41.121  30.770  35.983  1.00  0.00     0.031 C 
ATOM     22  C   UNL A   1      42.792  27.280  30.272  1.00  0.00     0.029 A 
ATOM     23  C   UNL A   1      41.630  28.154  30.163  1.00  0.00     0.049 A 
ATOM     24  H   UNL A   1      40.806  29.363  31.645  1.00  0.00     0.167 HD
ATOM     25  C   UNL A   1      39.200  31.859  34.852  1.00  0.00     0.037 A 
ATOM     26  C   UNL A   1      40.879  28.310  29.058  1.00  0.00     0.037 A 
ATOM     27  C   UNL A   1      38.361  32.122  33.709  1.00  0.00     0.049 A 
ATOM     28  C   UNL A   1      39.708  29.248  29.095  1.00  0.00     0.074 A 
ATOM     29  C   UNL A   1      37.290  32.994  33.607  1.00  0.00     0.029 A 
ATOM     30  N   UNL A   1      38.498  31.511  32.471  1.00  0.00    -0.354 N 
ATOM     31  N   UNL A   1      39.282  29.996  30.082  1.00  0.00    -0.248 NA
ATOM     32  C   UNL A   1      38.910  29.358  27.867  1.00  0.00     0.031 C 
ATOM     33  C   UNL A   1      36.752  32.879  32.320  1.00  0.00     0.029 A 
ATOM     34  C   UNL A   1      37.516  31.970  31.606  1.00  0.00     0.049 A 
ATOM     35  H   UNL A   1      39.190  30.850  32.241  1.00  0.00     0.167 HD
ATOM     36  C   UNL A   1      38.173  30.672  29.596  1.00  0.00     0.074 A 
ATOM     37  C   UNL A   1      38.007  30.265  28.216  1.00  0.00     0.031 C 
ATOM     38  C   UNL A   1      37.362  31.548  30.238  1.00  0.00     0.037 A 
BRANCH  25  39
ATOM     39  C   UNL A   1      38.867  32.552  36.142  1.00  0.00     0.064 A 
ATOM     40  C   UNL A   1      38.138  31.914  37.156  1.00  0.00     0.173 A 
ATOM     41  C   UNL A   1      39.329  33.855  36.386  1.00  0.00     0.173 A 
ATOM     42  F   UNL A   1      37.666  30.673  36.969  1.00  0.00    -0.203 F 
ATOM     43  C   UNL A   1      37.863  32.564  38.358  1.00  0.00     0.198 A 
ATOM     44  C   UNL A   1      39.074  34.492  37.599  1.00  0.00     0.198 A 
ATOM     45  F   UNL A   1      40.037  34.508  35.453  1.00  0.00    -0.203 F 
ATOM     46  F   UNL A   1      37.130  31.950  39.297  1.00  0.00    -0.200 F 
ATOM     47  C   UNL A   1      38.337  33.848  38.581  1.00  0.00     0.200 A 
ATOM     48  F   UNL A   1      39.543  35.729  37.816  1.00  0.00    -0.200 F 
ATOM     49  F   UNL A   1      38.077  34.468  39.740  1.00  0.00    -0.200 F 
ENDBRANCH  25  39
BRANCH  26  50
ATOM     50  C   UNL A   1      41.221  27.551  27.827  1.00  0.00     0.064 A 
ATOM     51  C   UNL A   1      41.942  28.150  26.785  1.00  0.00     0.173 A 
ATOM     52  C   UNL A   1      40.855  26.205  27.681  1.00  0.00     0.173 A 
ATOM     53  F   UNL A   1      42.297  29.440  26.871  1.00  0.00    -0.203 F 
ATOM     54  C   UNL A   1      42.277  27.432  25.639  1.00  0.00     0.198 A 
ATOM     55  C   UNL A   1      41.216  25.480  26.547  1.00  0.00     0.198 A 
ATOM     56  F   UNL A   1      40.169  25.586  28.652  1.00  0.00    -0.203 F 
ATOM     57  F   UNL A   1      42.938  28.036  24.642  1.00  0.00    -0.200 F 
ATOM     58  C   UNL A   1      41.922  26.096  25.525  1.00  0.00     0.200 A 
ATOM     59  F   UNL A   1      40.885  24.185  26.450  1.00  0.00    -0.200 F 
ATOM     60  F   UNL A   1      42.256  25.402  24.428  1.00  0.00    -0.200 F 
ENDBRANCH  26  50
BRANCH  38  61
ATOM     61  C   UNL A   1      36.229  32.131  29.446  1.00  0.00     0.064 A 
ATOM     62  C   UNL A   1      35.154  31.340  29.016  1.00  0.00     0.173 A 
ATOM     63  C   UNL A   1      36.207  33.499  29.136  1.00  0.00     0.173 A 
ATOM     64  F   UNL A   1      35.139  30.024  29.274  1.00  0.00    -0.203 F 
ATOM     65  C   UNL A   1      34.108  31.894  28.283  1.00  0.00     0.198 A 
ATOM     66  C   UNL A   1      35.147  34.055  28.425  1.00  0.00     0.198 A 
ATOM     67  F   UNL A   1      37.211  34.298  29.529  1.00  0.00    -0.203 F 
ATOM     68  F   UNL A   1      33.113  31.112  27.841  1.00  0.00    -0.200 F 
ATOM     69  C   UNL A   1      34.103  33.251  27.993  1.00  0.00     0.200 A 
ATOM     70  F   UNL A   1      35.139  35.366  28.154  1.00  0.00    -0.200 F 
ATOM     71  F   UNL A   1      33.095  33.783  27.288  1.00  0.00    -0.200 F 
ENDBRANCH  38  61
ENDBRANCH  12  13
ENDBRANCH   5   7
ENDBRANCH   2   3
ENDBRANCH   1   2
BRANCH   1  72
ATOM     72  C   UNL A   1      48.996  26.696  31.809  1.00  0.00     0.118 C 
BRANCH  72  73
ATOM     73  N   UNL A   1      48.359  25.942  30.752  1.00  0.00    -0.352 N 
ATOM     74  C   UNL A   1      47.117  26.299  30.339  1.00  0.00     0.251 C 
ATOM     75  H   UNL A   1      48.821  25.177  30.338  1.00  0.00     0.163 HD
ATOM     76  O   UNL A   1      46.834  27.422  29.892  1.00  0.00    -0.269 OA
BRANCH  74  77
ATOM     77  C   UNL A   1      46.061  25.356  30.678  1.00  0.00     0.048 A 
ATOM     78  C   UNL A   1      45.891  25.219  32.071  1.00  0.00     0.014 A 
ATOM     79  C   UNL A   1      45.265  24.662  29.716  1.00  0.00     0.007 A 
ATOM     80  C   UNL A   1      44.937  24.362  32.578  1.00  0.00     0.001 A 
ATOM     81  C   UNL A   1      44.280  23.798  30.296  1.00  0.00    -0.017 A 
ATOM     82  C   UNL A   1      45.338  24.697  28.271  1.00  0.00     0.048 A 
ATOM     83  C   UNL A   1      44.141  23.656  31.691  1.00  0.00     0.009 A 
ATOM     84  C   UNL A   1      43.437  23.023  29.494  1.00  0.00     0.009 A 
ATOM     85  C   UNL A   1      44.449  23.909  27.504  1.00  0.00     0.014 A 
ATOM     86  C   UNL A   1      43.509  23.080  28.111  1.00  0.00     0.001 A 
BRANCH  82  87
ATOM     87  C   UNL A   1      46.572  25.014  27.514  1.00  0.00     0.252 C 
ATOM     88  O   UNL A   1      47.413  24.107  27.456  1.00  0.00    -0.269 OA
ATOM     89  N   UNL A   1      46.929  26.152  26.834  1.00  0.00    -0.345 N 
ATOM     90  H   UNL A   1      47.875  26.096  26.566  1.00  0.00     0.164 HD
BRANCH  89  91
ATOM     91  C   UNL A   1      46.358  27.428  26.376  1.00  0.00     0.134 C 
ATOM     92  C   UNL A   1      47.107  28.740  26.212  1.00  0.00     0.187 C 
ATOM     93  C   UNL A   1      46.145  27.536  24.850  1.00  0.00     0.187 C 
ATOM     94  O   UNL A   1      46.532  28.933  24.885  1.00  0.00    -0.377 OA
ENDBRANCH  89  91
ENDBRANCH  82  87
ENDBRANCH  74  77
ENDBRANCH  72  73
ENDBRANCH   1  72
TORSDOF 12
ENDMDL
