MODEL 1
REMARK VINA RESULT:     -13.5      0.000      0.000
REMARK SMILES CC1=Nc2ncnn2[C@H](c2ccc(F)cc2)[C@@H]1C(=O)NCCCNC(=O)c1ccc(-c2c3nc(c(-c4c(F)c(F)c(F)c(F)c4F)c4ccc([nH]4)c(-c4c(F)c(F)c(F)c(F)c4F)c4nc(c(-c5c(F)c(F)c(F)c(F)c5F)c5ccc2[nH]5)C=C4)C=C3)cc1
REMARK SMILES IDX 22 1 21 2 20 3 18 4 19 5 17 7 1 8 2 9 3 10 4 11 9 12 5 13
REMARK SMILES IDX 8 14 6 15 7 16 10 17 11 18 16 19 12 20 15 21 13 22 14 23
REMARK SMILES IDX 23 24 24 25 25 26 26 28 27 29 28 30 89 31 29 32 88 33 30 34
REMARK SMILES IDX 31 35 32 36 82 37 33 38 87 39 81 40 83 41 34 42 86 43 80 44
REMARK SMILES IDX 79 45 35 47 67 48 47 49 66 50 48 51 51 52 65 53 84 54 49 55
REMARK SMILES IDX 50 56 64 58 85 59 52 60 36 61 37 62 45 63 38 64 39 65 43 66
REMARK SMILES IDX 46 67 40 68 41 69 44 70 42 71 68 72 69 73 77 74 70 75 71 76
REMARK SMILES IDX 75 77 78 78 72 79 73 80 76 81 74 82 53 83 54 84 62 85 55 86
REMARK SMILES IDX 56 87 60 88 63 89 57 90 58 91 61 92 59 93
REMARK H PARENT 20 6 24 27 83 46 51 57
REMARK Flexibility Score: inf
ROOT
ATOM      1  C   UNL A   1      38.462  22.051  25.535  1.00  0.00     0.042 C 
ENDROOT
BRANCH   1   2
ATOM      2  C   UNL A   1      37.709  23.364  25.794  1.00  0.00     0.117 C 
BRANCH   2   3
ATOM      3  N   UNL A   1      36.862  23.711  24.661  1.00  0.00    -0.355 N 
ATOM      4  C   UNL A   1      35.591  23.323  24.376  1.00  0.00     0.231 C 
ATOM      5  O   UNL A   1      35.272  23.243  23.189  1.00  0.00    -0.274 OA
ATOM      6  H   UNL A   1      37.272  24.317  24.002  1.00  0.00     0.163 HD
BRANCH   4   7
ATOM      7  C   UNL A   1      34.605  23.006  25.477  1.00  0.00     0.152 C 
ATOM      8  C   UNL A   1      35.014  20.490  24.928  1.00  0.00     0.063 C 
ATOM      9  C   UNL A   1      34.039  21.604  25.254  1.00  0.00     0.034 C 
ATOM     10  N   UNL A   1      32.795  21.266  25.345  1.00  0.00    -0.220 NA
ATOM     11  C   UNL A   1      31.892  22.202  25.691  1.00  0.00     0.248 A 
ATOM     12  C   UNL A   1      33.534  24.111  25.748  1.00  0.00     0.159 C 
ATOM     13  N   UNL A   1      30.630  22.022  26.016  1.00  0.00    -0.198 NA
ATOM     14  N   UNL A   1      32.185  23.536  25.830  1.00  0.00    -0.221 N 
ATOM     15  C   UNL A   1      30.214  23.251  26.421  1.00  0.00     0.248 A 
ATOM     16  N   UNL A   1      31.144  24.204  26.380  1.00  0.00    -0.157 NA
BRANCH  12  17
ATOM     17  C   UNL A   1      33.517  25.508  25.076  1.00  0.00    -0.022 A 
ATOM     18  C   UNL A   1      33.847  26.635  25.873  1.00  0.00     0.009 A 
ATOM     19  C   UNL A   1      33.184  25.780  23.740  1.00  0.00     0.009 A 
ATOM     20  C   UNL A   1      33.857  27.938  25.362  1.00  0.00     0.039 A 
ATOM     21  C   UNL A   1      33.257  27.077  23.207  1.00  0.00     0.039 A 
ATOM     22  C   UNL A   1      33.584  28.145  24.024  1.00  0.00     0.123 A 
ATOM     23  F   UNL A   1      33.619  29.384  23.516  1.00  0.00    -0.207 F 
ENDBRANCH  12  17
ENDBRANCH   4   7
ENDBRANCH   2   3
ENDBRANCH   1   2
BRANCH   1  24
ATOM     24  C   UNL A   1      39.567  21.793  26.549  1.00  0.00     0.118 C 
BRANCH  24  25
ATOM     25  N   UNL A   1      40.894  21.701  25.937  1.00  0.00    -0.352 N 
ATOM     26  C   UNL A   1      41.849  22.698  25.802  1.00  0.00     0.251 C 
ATOM     27  H   UNL A   1      41.141  20.819  25.576  1.00  0.00     0.163 HD
ATOM     28  O   UNL A   1      42.745  22.608  24.985  1.00  0.00    -0.269 OA
BRANCH  26  29
ATOM     29  C   UNL A   1      41.756  23.871  26.688  1.00  0.00     0.039 A 
ATOM     30  C   UNL A   1      42.377  23.906  27.942  1.00  0.00     0.014 A 
ATOM     31  C   UNL A   1      41.048  24.966  26.210  1.00  0.00     0.014 A 
ATOM     32  C   UNL A   1      42.330  25.089  28.678  1.00  0.00     0.010 A 
ATOM     33  C   UNL A   1      41.177  26.173  26.832  1.00  0.00     0.010 A 
ATOM     34  C   UNL A   1      41.733  26.219  28.106  1.00  0.00    -0.014 A 
BRANCH  34  35
ATOM     35  C   UNL A   1      41.706  27.510  28.778  1.00  0.00     0.031 A 
ATOM     36  C   UNL A   1      42.791  28.450  28.387  1.00  0.00     0.074 A 
ATOM     37  C   UNL A   1      40.611  27.907  29.464  1.00  0.00     0.049 A 
ATOM     38  N   UNL A   1      43.703  28.971  29.139  1.00  0.00    -0.248 NA
ATOM     39  C   UNL A   1      42.947  28.769  26.958  1.00  0.00     0.031 C 
ATOM     40  C   UNL A   1      39.329  27.200  29.622  1.00  0.00     0.029 A 
ATOM     41  N   UNL A   1      40.360  29.098  30.063  1.00  0.00    -0.354 N 
ATOM     42  C   UNL A   1      44.438  29.826  28.318  1.00  0.00     0.074 A 
ATOM     43  C   UNL A   1      44.050  29.521  26.968  1.00  0.00     0.031 C 
ATOM     44  C   UNL A   1      38.383  28.064  30.048  1.00  0.00     0.029 A 
ATOM     45  C   UNL A   1      39.023  29.324  30.364  1.00  0.00     0.049 A 
ATOM     46  H   UNL A   1      41.069  29.750  30.266  1.00  0.00     0.167 HD
ATOM     47  C   UNL A   1      45.130  30.879  28.837  1.00  0.00     0.037 A 
ATOM     48  C   UNL A   1      38.485  30.488  30.805  1.00  0.00     0.037 A 
ATOM     49  C   UNL A   1      45.291  30.736  30.263  1.00  0.00     0.049 A 
ATOM     50  C   UNL A   1      39.604  31.304  31.340  1.00  0.00     0.074 A 
ATOM     51  C   UNL A   1      45.905  29.808  31.080  1.00  0.00     0.029 A 
ATOM     52  N   UNL A   1      44.439  31.443  31.076  1.00  0.00    -0.354 N 
ATOM     53  N   UNL A   1      40.302  30.978  32.394  1.00  0.00    -0.248 NA
ATOM     54  C   UNL A   1      40.247  32.237  30.427  1.00  0.00     0.031 C 
ATOM     55  C   UNL A   1      45.038  29.681  32.205  1.00  0.00     0.029 A 
ATOM     56  C   UNL A   1      43.987  30.585  32.043  1.00  0.00     0.049 A 
ATOM     57  H   UNL A   1      44.198  32.393  30.979  1.00  0.00     0.167 HD
ATOM     58  C   UNL A   1      41.607  31.321  32.074  1.00  0.00     0.074 A 
ATOM     59  C   UNL A   1      41.499  32.167  30.887  1.00  0.00     0.031 C 
ATOM     60  C   UNL A   1      42.663  30.649  32.618  1.00  0.00     0.037 A 
BRANCH  47  61
ATOM     61  C   UNL A   1      45.344  32.206  28.144  1.00  0.00     0.064 A 
ATOM     62  C   UNL A   1      46.535  32.576  27.483  1.00  0.00     0.173 A 
ATOM     63  C   UNL A   1      44.225  33.020  27.868  1.00  0.00     0.173 A 
ATOM     64  F   UNL A   1      47.656  31.852  27.570  1.00  0.00    -0.203 F 
ATOM     65  C   UNL A   1      46.597  33.652  26.599  1.00  0.00     0.198 A 
ATOM     66  C   UNL A   1      44.277  34.064  26.938  1.00  0.00     0.198 A 
ATOM     67  F   UNL A   1      43.034  32.761  28.427  1.00  0.00    -0.203 F 
ATOM     68  F   UNL A   1      47.753  33.927  25.978  1.00  0.00    -0.200 F 
ATOM     69  C   UNL A   1      45.462  34.374  26.299  1.00  0.00     0.200 A 
ATOM     70  F   UNL A   1      43.156  34.720  26.612  1.00  0.00    -0.200 F 
ATOM     71  F   UNL A   1      45.503  35.331  25.363  1.00  0.00    -0.200 F 
ENDBRANCH  47  61
BRANCH  48  72
ATOM     72  C   UNL A   1      37.158  31.066  30.480  1.00  0.00     0.064 A 
ATOM     73  C   UNL A   1      36.864  31.550  29.190  1.00  0.00     0.173 A 
ATOM     74  C   UNL A   1      36.257  31.417  31.498  1.00  0.00     0.173 A 
ATOM     75  F   UNL A   1      37.699  31.330  28.164  1.00  0.00    -0.203 F 
ATOM     76  C   UNL A   1      35.755  32.362  28.941  1.00  0.00     0.198 A 
ATOM     77  C   UNL A   1      35.149  32.236  31.248  1.00  0.00     0.198 A 
ATOM     78  F   UNL A   1      36.486  31.031  32.761  1.00  0.00    -0.203 F 
ATOM     79  F   UNL A   1      35.552  32.851  27.709  1.00  0.00    -0.200 F 
ATOM     80  C   UNL A   1      34.907  32.717  29.973  1.00  0.00     0.200 A 
ATOM     81  F   UNL A   1      34.350  32.606  32.259  1.00  0.00    -0.200 F 
ATOM     82  F   UNL A   1      33.886  33.556  29.747  1.00  0.00    -0.200 F 
ENDBRANCH  48  72
BRANCH  60  83
ATOM     83  C   UNL A   1      42.391  29.705  33.760  1.00  0.00     0.064 A 
ATOM     84  C   UNL A   1      42.599  30.172  35.064  1.00  0.00     0.173 A 
ATOM     85  C   UNL A   1      42.129  28.333  33.601  1.00  0.00     0.173 A 
ATOM     86  F   UNL A   1      42.905  31.462  35.273  1.00  0.00    -0.203 F 
ATOM     87  C   UNL A   1      42.565  29.308  36.155  1.00  0.00     0.198 A 
ATOM     88  C   UNL A   1      42.060  27.475  34.698  1.00  0.00     0.198 A 
ATOM     89  F   UNL A   1      42.009  27.789  32.386  1.00  0.00    -0.203 F 
ATOM     90  F   UNL A   1      42.838  29.775  37.381  1.00  0.00    -0.200 F 
ATOM     91  C   UNL A   1      42.292  27.962  35.973  1.00  0.00     0.200 A 
ATOM     92  F   UNL A   1      41.817  26.169  34.516  1.00  0.00    -0.200 F 
ATOM     93  F   UNL A   1      42.283  27.128  37.023  1.00  0.00    -0.200 F 
ENDBRANCH  60  83
ENDBRANCH  34  35
ENDBRANCH  26  29
ENDBRANCH  24  25
ENDBRANCH   1  24
TORSDOF 11
ENDMDL
MODEL 2
REMARK VINA RESULT:     -13.4      3.343      8.570
REMARK SMILES CC1=Nc2ncnn2[C@H](c2ccc(F)cc2)[C@@H]1C(=O)NCCCNC(=O)c1ccc(-c2c3nc(c(-c4c(F)c(F)c(F)c(F)c4F)c4ccc([nH]4)c(-c4c(F)c(F)c(F)c(F)c4F)c4nc(c(-c5c(F)c(F)c(F)c(F)c5F)c5ccc2[nH]5)C=C4)C=C3)cc1
REMARK SMILES IDX 22 1 21 2 20 3 18 4 19 5 17 7 1 8 2 9 3 10 4 11 9 12 5 13
REMARK SMILES IDX 8 14 6 15 7 16 10 17 11 18 16 19 12 20 15 21 13 22 14 23
REMARK SMILES IDX 23 24 24 25 25 26 26 28 27 29 28 30 89 31 29 32 88 33 30 34
REMARK SMILES IDX 31 35 32 36 82 37 33 38 87 39 81 40 83 41 34 42 86 43 80 44
REMARK SMILES IDX 79 45 35 47 67 48 47 49 66 50 48 51 51 52 65 53 84 54 49 55
REMARK SMILES IDX 50 56 64 58 85 59 52 60 36 61 37 62 45 63 38 64 39 65 43 66
REMARK SMILES IDX 46 67 40 68 41 69 44 70 42 71 68 72 69 73 77 74 70 75 71 76
REMARK SMILES IDX 75 77 78 78 72 79 73 80 76 81 74 82 53 83 54 84 62 85 55 86
REMARK SMILES IDX 56 87 60 88 63 89 57 90 58 91 61 92 59 93
REMARK H PARENT 20 6 24 27 83 46 51 57
REMARK Flexibility Score: inf
ROOT
ATOM      1  C   UNL A   1      34.054  30.963  27.600  1.00  0.00     0.042 C 
ENDROOT
BRANCH   1   2
ATOM      2  C   UNL A   1      34.713  29.583  27.458  1.00  0.00     0.117 C 
BRANCH   2   3
ATOM      3  N   UNL A   1      33.738  28.519  27.655  1.00  0.00    -0.355 N 
ATOM      4  C   UNL A   1      32.765  28.068  26.820  1.00  0.00     0.231 C 
ATOM      5  O   UNL A   1      31.744  27.605  27.333  1.00  0.00    -0.274 OA
ATOM      6  H   UNL A   1      33.792  28.056  28.522  1.00  0.00     0.163 HD
BRANCH   4   7
ATOM      7  C   UNL A   1      32.931  28.129  25.319  1.00  0.00     0.152 C 
ATOM      8  C   UNL A   1      31.363  30.211  25.370  1.00  0.00     0.063 C 
ATOM      9  C   UNL A   1      31.759  28.902  24.716  1.00  0.00     0.034 C 
ATOM     10  N   UNL A   1      31.082  28.556  23.672  1.00  0.00    -0.220 NA
ATOM     11  C   UNL A   1      31.428  27.434  23.015  1.00  0.00     0.248 A 
ATOM     12  C   UNL A   1      33.241  26.762  24.629  1.00  0.00     0.159 C 
ATOM     13  N   UNL A   1      30.994  27.019  21.844  1.00  0.00    -0.198 NA
ATOM     14  N   UNL A   1      32.381  26.551  23.457  1.00  0.00    -0.221 N 
ATOM     15  C   UNL A   1      31.762  25.929  21.574  1.00  0.00     0.248 A 
ATOM     16  N   UNL A   1      32.667  25.631  22.505  1.00  0.00    -0.157 NA
BRANCH  12  17
ATOM     17  C   UNL A   1      33.513  25.434  25.382  1.00  0.00    -0.022 A 
ATOM     18  C   UNL A   1      34.846  24.948  25.417  1.00  0.00     0.009 A 
ATOM     19  C   UNL A   1      32.556  24.638  26.029  1.00  0.00     0.009 A 
ATOM     20  C   UNL A   1      35.194  23.759  26.066  1.00  0.00     0.039 A 
ATOM     21  C   UNL A   1      32.911  23.480  26.738  1.00  0.00     0.039 A 
ATOM     22  C   UNL A   1      34.224  23.045  26.743  1.00  0.00     0.123 A 
ATOM     23  F   UNL A   1      34.550  21.921  27.394  1.00  0.00    -0.207 F 
ENDBRANCH  12  17
ENDBRANCH   4   7
ENDBRANCH   2   3
ENDBRANCH   1   2
BRANCH   1  24
ATOM     24  C   UNL A   1      35.037  32.047  28.021  1.00  0.00     0.118 C 
BRANCH  24  25
ATOM     25  N   UNL A   1      34.705  32.649  29.314  1.00  0.00    -0.352 N 
ATOM     26  C   UNL A   1      35.149  32.276  30.574  1.00  0.00     0.251 C 
ATOM     27  H   UNL A   1      34.090  33.416  29.285  1.00  0.00     0.163 HD
ATOM     28  O   UNL A   1      34.549  32.608  31.578  1.00  0.00    -0.269 OA
BRANCH  26  29
ATOM     29  C   UNL A   1      36.380  31.473  30.666  1.00  0.00     0.039 A 
ATOM     30  C   UNL A   1      36.353  30.075  30.730  1.00  0.00     0.014 A 
ATOM     31  C   UNL A   1      37.585  32.164  30.654  1.00  0.00     0.014 A 
ATOM     32  C   UNL A   1      37.562  29.382  30.712  1.00  0.00     0.010 A 
ATOM     33  C   UNL A   1      38.747  31.485  30.430  1.00  0.00     0.010 A 
ATOM     34  C   UNL A   1      38.753  30.101  30.552  1.00  0.00    -0.014 A 
BRANCH  34  35
ATOM     35  C   UNL A   1      40.049  29.447  30.451  1.00  0.00     0.031 A 
ATOM     36  C   UNL A   1      40.746  29.217  31.745  1.00  0.00     0.074 A 
ATOM     37  C   UNL A   1      40.425  28.838  29.303  1.00  0.00     0.049 A 
ATOM     38  N   UNL A   1      41.894  29.672  32.123  1.00  0.00    -0.248 NA
ATOM     39  C   UNL A   1      40.026  28.477  32.795  1.00  0.00     0.031 C 
ATOM     40  C   UNL A   1      39.659  28.693  28.055  1.00  0.00     0.029 A 
ATOM     41  N   UNL A   1      41.534  28.098  29.050  1.00  0.00    -0.354 N 
ATOM     42  C   UNL A   1      42.129  29.127  33.385  1.00  0.00     0.074 A 
ATOM     43  C   UNL A   1      40.880  28.561  33.818  1.00  0.00     0.031 C 
ATOM     44  C   UNL A   1      40.211  27.724  27.292  1.00  0.00     0.029 A 
ATOM     45  C   UNL A   1      41.458  27.315  27.905  1.00  0.00     0.049 A 
ATOM     46  H   UNL A   1      42.328  28.114  29.633  1.00  0.00     0.167 HD
ATOM     47  C   UNL A   1      43.396  28.980  33.865  1.00  0.00     0.037 A 
ATOM     48  C   UNL A   1      42.348  26.368  27.520  1.00  0.00     0.037 A 
ATOM     49  C   UNL A   1      44.329  29.770  33.103  1.00  0.00     0.049 A 
ATOM     50  C   UNL A   1      43.608  26.636  28.258  1.00  0.00     0.074 A 
ATOM     51  C   UNL A   1      44.479  31.120  32.855  1.00  0.00     0.029 A 
ATOM     52  N   UNL A   1      45.074  29.131  32.143  1.00  0.00    -0.354 N 
ATOM     53  N   UNL A   1      44.341  27.701  28.082  1.00  0.00    -0.248 NA
ATOM     54  C   UNL A   1      43.801  25.945  29.524  1.00  0.00     0.031 C 
ATOM     55  C   UNL A   1      44.887  31.199  31.491  1.00  0.00     0.029 A 
ATOM     56  C   UNL A   1      45.030  29.896  31.008  1.00  0.00     0.049 A 
ATOM     57  H   UNL A   1      45.552  28.276  32.252  1.00  0.00     0.167 HD
ATOM     58  C   UNL A   1      44.766  28.052  29.355  1.00  0.00     0.074 A 
ATOM     59  C   UNL A   1      44.473  26.889  30.189  1.00  0.00     0.031 C 
ATOM     60  C   UNL A   1      45.038  29.352  29.670  1.00  0.00     0.037 A 
BRANCH  47  61
ATOM     61  C   UNL A   1      43.858  27.860  34.770  1.00  0.00     0.064 A 
ATOM     62  C   UNL A   1      44.132  28.011  36.147  1.00  0.00     0.173 A 
ATOM     63  C   UNL A   1      43.739  26.527  34.323  1.00  0.00     0.173 A 
ATOM     64  F   UNL A   1      44.183  29.208  36.739  1.00  0.00    -0.203 F 
ATOM     65  C   UNL A   1      44.248  26.922  37.010  1.00  0.00     0.198 A 
ATOM     66  C   UNL A   1      43.800  25.441  35.202  1.00  0.00     0.198 A 
ATOM     67  F   UNL A   1      43.468  26.257  33.038  1.00  0.00    -0.203 F 
ATOM     68  F   UNL A   1      44.474  27.138  38.315  1.00  0.00    -0.200 F 
ATOM     69  C   UNL A   1      44.048  25.640  36.547  1.00  0.00     0.200 A 
ATOM     70  F   UNL A   1      43.547  24.205  34.751  1.00  0.00    -0.200 F 
ATOM     71  F   UNL A   1      44.046  24.610  37.402  1.00  0.00    -0.200 F 
ENDBRANCH  47  61
BRANCH  48  72
ATOM     72  C   UNL A   1      42.077  25.076  26.844  1.00  0.00     0.064 A 
ATOM     73  C   UNL A   1      41.255  24.095  27.435  1.00  0.00     0.173 A 
ATOM     74  C   UNL A   1      42.847  24.663  25.744  1.00  0.00     0.173 A 
ATOM     75  F   UNL A   1      40.536  24.369  28.532  1.00  0.00    -0.203 F 
ATOM     76  C   UNL A   1      41.230  22.777  26.973  1.00  0.00     0.198 A 
ATOM     77  C   UNL A   1      42.825  23.340  25.286  1.00  0.00     0.198 A 
ATOM     78  F   UNL A   1      43.686  25.525  25.150  1.00  0.00    -0.203 F 
ATOM     79  F   UNL A   1      40.481  21.864  27.608  1.00  0.00    -0.200 F 
ATOM     80  C   UNL A   1      42.027  22.397  25.910  1.00  0.00     0.200 A 
ATOM     81  F   UNL A   1      43.626  22.969  24.278  1.00  0.00    -0.200 F 
ATOM     82  F   UNL A   1      42.058  21.116  25.517  1.00  0.00    -0.200 F 
ENDBRANCH  48  72
BRANCH  60  83
ATOM     83  C   UNL A   1      45.115  30.354  28.549  1.00  0.00     0.064 A 
ATOM     84  C   UNL A   1      46.362  30.580  27.952  1.00  0.00     0.173 A 
ATOM     85  C   UNL A   1      44.063  31.214  28.190  1.00  0.00     0.173 A 
ATOM     86  F   UNL A   1      47.416  29.824  28.295  1.00  0.00    -0.203 F 
ATOM     87  C   UNL A   1      46.554  31.627  27.054  1.00  0.00     0.198 A 
ATOM     88  C   UNL A   1      44.248  32.240  27.263  1.00  0.00     0.198 A 
ATOM     89  F   UNL A   1      42.866  31.125  28.778  1.00  0.00    -0.203 F 
ATOM     90  F   UNL A   1      47.776  31.859  26.555  1.00  0.00    -0.200 F 
ATOM     91  C   UNL A   1      45.497  32.453  26.706  1.00  0.00     0.200 A 
ATOM     92  F   UNL A   1      43.228  33.051  26.946  1.00  0.00    -0.200 F 
ATOM     93  F   UNL A   1      45.691  33.474  25.859  1.00  0.00    -0.200 F 
ENDBRANCH  60  83
ENDBRANCH  34  35
ENDBRANCH  26  29
ENDBRANCH  24  25
ENDBRANCH   1  24
TORSDOF 11
ENDMDL
MODEL 3
REMARK VINA RESULT:     -13.2      3.251      6.546
REMARK SMILES CC1=Nc2ncnn2[C@H](c2ccc(F)cc2)[C@@H]1C(=O)NCCCNC(=O)c1ccc(-c2c3nc(c(-c4c(F)c(F)c(F)c(F)c4F)c4ccc([nH]4)c(-c4c(F)c(F)c(F)c(F)c4F)c4nc(c(-c5c(F)c(F)c(F)c(F)c5F)c5ccc2[nH]5)C=C4)C=C3)cc1
REMARK SMILES IDX 22 1 21 2 20 3 18 4 19 5 17 7 1 8 2 9 3 10 4 11 9 12 5 13
REMARK SMILES IDX 8 14 6 15 7 16 10 17 11 18 16 19 12 20 15 21 13 22 14 23
REMARK SMILES IDX 23 24 24 25 25 26 26 28 27 29 28 30 89 31 29 32 88 33 30 34
REMARK SMILES IDX 31 35 32 36 82 37 33 38 87 39 81 40 83 41 34 42 86 43 80 44
REMARK SMILES IDX 79 45 35 47 67 48 47 49 66 50 48 51 51 52 65 53 84 54 49 55
REMARK SMILES IDX 50 56 64 58 85 59 52 60 36 61 37 62 45 63 38 64 39 65 43 66
REMARK SMILES IDX 46 67 40 68 41 69 44 70 42 71 68 72 69 73 77 74 70 75 71 76
REMARK SMILES IDX 75 77 78 78 72 79 73 80 76 81 74 82 53 83 54 84 62 85 55 86
REMARK SMILES IDX 56 87 60 88 63 89 57 90 58 91 61 92 59 93
REMARK H PARENT 20 6 24 27 83 46 51 57
REMARK Flexibility Score: inf
ROOT
ATOM      1  C   UNL A   1      41.765  21.033  26.495  1.00  0.00     0.042 C 
ENDROOT
BRANCH   1   2
ATOM      2  C   UNL A   1      42.947  21.734  25.812  1.00  0.00     0.117 C 
BRANCH   2   3
ATOM      3  N   UNL A   1      43.964  22.108  26.785  1.00  0.00    -0.355 N 
ATOM      4  C   UNL A   1      45.027  22.944  26.652  1.00  0.00     0.231 C 
ATOM      5  O   UNL A   1      46.028  22.705  27.330  1.00  0.00    -0.274 OA
ATOM      6  H   UNL A   1      43.867  21.694  27.673  1.00  0.00     0.163 HD
BRANCH   4   7
ATOM      7  C   UNL A   1      44.981  24.125  25.710  1.00  0.00     0.152 C 
ATOM      8  C   UNL A   1      46.213  22.615  23.978  1.00  0.00     0.063 C 
ATOM      9  C   UNL A   1      46.072  23.965  24.652  1.00  0.00     0.034 C 
ATOM     10  N   UNL A   1      46.878  24.891  24.251  1.00  0.00    -0.220 NA
ATOM     11  C   UNL A   1      46.759  26.127  24.771  1.00  0.00     0.248 A 
ATOM     12  C   UNL A   1      44.936  25.525  26.402  1.00  0.00     0.159 C 
ATOM     13  N   UNL A   1      47.347  27.232  24.365  1.00  0.00    -0.198 NA
ATOM     14  N   UNL A   1      45.914  26.445  25.804  1.00  0.00    -0.221 N 
ATOM     15  C   UNL A   1      46.775  28.207  25.121  1.00  0.00     0.248 A 
ATOM     16  N   UNL A   1      45.849  27.786  25.981  1.00  0.00    -0.157 NA
BRANCH  12  17
ATOM     17  C   UNL A   1      44.802  25.752  27.929  1.00  0.00    -0.022 A 
ATOM     18  C   UNL A   1      43.497  25.837  28.478  1.00  0.00     0.009 A 
ATOM     19  C   UNL A   1      45.859  25.903  28.840  1.00  0.00     0.009 A 
ATOM     20  C   UNL A   1      43.268  26.043  29.844  1.00  0.00     0.039 A 
ATOM     21  C   UNL A   1      45.636  26.044  30.219  1.00  0.00     0.039 A 
ATOM     22  C   UNL A   1      44.344  26.121  30.708  1.00  0.00     0.123 A 
ATOM     23  F   UNL A   1      44.139  26.289  32.021  1.00  0.00    -0.207 F 
ENDBRANCH  12  17
ENDBRANCH   4   7
ENDBRANCH   2   3
ENDBRANCH   1   2
BRANCH   1  24
ATOM     24  C   UNL A   1      40.807  22.007  27.167  1.00  0.00     0.118 C 
BRANCH  24  25
ATOM     25  N   UNL A   1      39.617  22.287  26.360  1.00  0.00    -0.352 N 
ATOM     26  C   UNL A   1      38.823  23.423  26.366  1.00  0.00     0.251 C 
ATOM     27  H   UNL A   1      39.348  21.578  25.732  1.00  0.00     0.163 HD
ATOM     28  O   UNL A   1      37.689  23.404  25.927  1.00  0.00    -0.269 OA
BRANCH  26  29
ATOM     29  C   UNL A   1      39.395  24.667  26.911  1.00  0.00     0.039 A 
ATOM     30  C   UNL A   1      40.150  25.545  26.125  1.00  0.00     0.014 A 
ATOM     31  C   UNL A   1      39.126  24.952  28.244  1.00  0.00     0.014 A 
ATOM     32  C   UNL A   1      40.570  26.749  26.685  1.00  0.00     0.010 A 
ATOM     33  C   UNL A   1      39.358  26.209  28.722  1.00  0.00     0.010 A 
ATOM     34  C   UNL A   1      40.159  27.073  27.985  1.00  0.00    -0.014 A 
BRANCH  34  35
ATOM     35  C   UNL A   1      40.495  28.342  28.614  1.00  0.00     0.031 A 
ATOM     36  C   UNL A   1      41.709  29.013  28.078  1.00  0.00     0.074 A 
ATOM     37  C   UNL A   1      39.598  28.979  29.400  1.00  0.00     0.049 A 
ATOM     38  N   UNL A   1      42.793  29.321  28.709  1.00  0.00    -0.248 NA
ATOM     39  C   UNL A   1      41.771  29.277  26.631  1.00  0.00     0.031 C 
ATOM     40  C   UNL A   1      38.218  28.578  29.719  1.00  0.00     0.029 A 
ATOM     41  N   UNL A   1      39.686  30.201  29.984  1.00  0.00    -0.354 N 
ATOM     42  C   UNL A   1      43.602  29.984  27.787  1.00  0.00     0.074 A 
ATOM     43  C   UNL A   1      43.007  29.763  26.497  1.00  0.00     0.031 C 
ATOM     44  C   UNL A   1      37.540  29.635  30.216  1.00  0.00     0.029 A 
ATOM     45  C   UNL A   1      38.475  30.722  30.420  1.00  0.00     0.049 A 
ATOM     46  H   UNL A   1      40.541  30.679  30.088  1.00  0.00     0.167 HD
ATOM     47  C   UNL A   1      44.564  30.860  28.195  1.00  0.00     0.037 A 
ATOM     48  C   UNL A   1      38.261  31.980  30.879  1.00  0.00     0.037 A 
ATOM     49  C   UNL A   1      44.848  30.696  29.598  1.00  0.00     0.049 A 
ATOM     50  C   UNL A   1      39.586  32.529  31.263  1.00  0.00     0.074 A 
ATOM     51  C   UNL A   1      45.329  29.660  30.374  1.00  0.00     0.029 A 
ATOM     52  N   UNL A   1      44.271  31.581  30.475  1.00  0.00    -0.354 N 
ATOM     53  N   UNL A   1      40.308  32.063  32.246  1.00  0.00    -0.248 NA
ATOM     54  C   UNL A   1      40.312  33.288  30.256  1.00  0.00     0.031 C 
ATOM     55  C   UNL A   1      44.587  29.738  31.590  1.00  0.00     0.029 A 
ATOM     56  C   UNL A   1      43.751  30.854  31.513  1.00  0.00     0.049 A 
ATOM     57  H   UNL A   1      44.236  32.560  30.374  1.00  0.00     0.167 HD
ATOM     58  C   UNL A   1      41.612  32.103  31.775  1.00  0.00     0.074 A 
ATOM     59  C   UNL A   1      41.562  32.943  30.581  1.00  0.00     0.031 C 
ATOM     60  C   UNL A   1      42.547  31.216  32.225  1.00  0.00     0.037 A 
BRANCH  47  61
ATOM     61  C   UNL A   1      44.987  32.100  27.439  1.00  0.00     0.064 A 
ATOM     62  C   UNL A   1      44.293  33.329  27.477  1.00  0.00     0.173 A 
ATOM     63  C   UNL A   1      46.288  32.160  26.897  1.00  0.00     0.173 A 
ATOM     64  F   UNL A   1      43.089  33.455  28.043  1.00  0.00    -0.203 F 
ATOM     65  C   UNL A   1      44.862  34.523  27.035  1.00  0.00     0.198 A 
ATOM     66  C   UNL A   1      46.876  33.367  26.508  1.00  0.00     0.198 A 
ATOM     67  F   UNL A   1      47.049  31.058  26.821  1.00  0.00    -0.203 F 
ATOM     68  F   UNL A   1      44.161  35.662  27.132  1.00  0.00    -0.200 F 
ATOM     69  C   UNL A   1      46.165  34.550  26.584  1.00  0.00     0.200 A 
ATOM     70  F   UNL A   1      48.160  33.390  26.127  1.00  0.00    -0.200 F 
ATOM     71  F   UNL A   1      46.743  35.716  26.272  1.00  0.00    -0.200 F 
ENDBRANCH  47  61
BRANCH  48  72
ATOM     72  C   UNL A   1      37.067  32.838  30.680  1.00  0.00     0.064 A 
ATOM     73  C   UNL A   1      36.092  32.986  31.686  1.00  0.00     0.173 A 
ATOM     74  C   UNL A   1      36.716  33.297  29.400  1.00  0.00     0.173 A 
ATOM     75  F   UNL A   1      36.303  32.516  32.924  1.00  0.00    -0.203 F 
ATOM     76  C   UNL A   1      34.833  33.529  31.421  1.00  0.00     0.198 A 
ATOM     77  C   UNL A   1      35.451  33.836  29.134  1.00  0.00     0.198 A 
ATOM     78  F   UNL A   1      37.572  33.156  28.377  1.00  0.00    -0.203 F 
ATOM     79  F   UNL A   1      33.916  33.590  32.397  1.00  0.00    -0.200 F 
ATOM     80  C   UNL A   1      34.508  33.939  30.141  1.00  0.00     0.200 A 
ATOM     81  F   UNL A   1      35.130  34.198  27.884  1.00  0.00    -0.200 F 
ATOM     82  F   UNL A   1      33.275  34.390  29.873  1.00  0.00    -0.200 F 
ENDBRANCH  48  72
BRANCH  60  83
ATOM     83  C   UNL A   1      42.204  30.366  33.419  1.00  0.00     0.064 A 
ATOM     84  C   UNL A   1      42.556  30.840  34.688  1.00  0.00     0.173 A 
ATOM     85  C   UNL A   1      41.728  29.045  33.333  1.00  0.00     0.173 A 
ATOM     86  F   UNL A   1      43.065  32.075  34.825  1.00  0.00    -0.203 F 
ATOM     87  C   UNL A   1      42.455  30.030  35.817  1.00  0.00     0.198 A 
ATOM     88  C   UNL A   1      41.594  28.247  34.469  1.00  0.00     0.198 A 
ATOM     89  F   UNL A   1      41.455  28.485  32.151  1.00  0.00    -0.203 F 
ATOM     90  F   UNL A   1      42.867  30.492  37.005  1.00  0.00    -0.200 F 
ATOM     91  C   UNL A   1      41.971  28.737  35.708  1.00  0.00     0.200 A 
ATOM     92  F   UNL A   1      41.145  26.988  34.357  1.00  0.00    -0.200 F 
ATOM     93  F   UNL A   1      41.898  27.951  36.792  1.00  0.00    -0.200 F 
ENDBRANCH  60  83
ENDBRANCH  34  35
ENDBRANCH  26  29
ENDBRANCH  24  25
ENDBRANCH   1  24
TORSDOF 11
ENDMDL
