MODEL 1
REMARK VINA RESULT:     -11.9      0.000      0.000
REMARK SMILES O=C(NCCCNC(=O)c1cc(S(=O)(=O)C/C(Cl)=C/Cl)ccc1Cl)c1ccc(-c2c3nc(c(-c4c(F)c(F)c(F)c(F)c4F)c4ccc([nH]4)c(-c4c(F)c(F)c(F)c(F)c4F)c4nc(c(-c5c(F)c(F)c(F)c(F)c5F)c5ccc2[nH]5)C=C4)C=C3)cc1
REMARK SMILES IDX 5 1 4 2 3 3 1 4 2 5 25 7 26 8 87 9 27 10 86 11 28 12 29 13
REMARK SMILES IDX 30 14 80 15 31 16 85 17 79 18 81 19 32 20 84 21 78 22 77 23
REMARK SMILES IDX 33 25 65 26 45 27 64 28 46 29 49 30 63 31 82 32 47 33 48 34
REMARK SMILES IDX 62 36 83 37 50 38 34 39 35 40 43 41 36 42 37 43 41 44 44 45
REMARK SMILES IDX 38 46 39 47 42 48 40 49 66 50 67 51 75 52 68 53 69 54 73 55
REMARK SMILES IDX 76 56 70 57 71 58 74 59 72 60 51 61 52 62 60 63 53 64 54 65
REMARK SMILES IDX 58 66 61 67 55 68 56 69 59 70 57 71 6 72 7 73 8 74 9 76
REMARK SMILES IDX 10 77 11 78 23 79 12 80 22 81 24 82 21 83 13 84 14 85 15 86
REMARK SMILES IDX 16 87 17 88 18 89 19 90 20 91
REMARK H PARENT 3 6 81 24 49 35 7 75
REMARK Flexibility Score: inf
ROOT
ATOM      1  C   UNL A   1      31.372  31.840  26.571  1.00  0.00     0.042 C 
ENDROOT
BRANCH   1   2
ATOM      2  C   UNL A   1      32.673  32.514  26.980  1.00  0.00     0.118 C 
BRANCH   2   3
ATOM      3  N   UNL A   1      32.476  33.863  27.496  1.00  0.00    -0.352 N 
ATOM      4  O   UNL A   1      32.654  35.604  28.914  1.00  0.00    -0.269 OA
ATOM      5  C   UNL A   1      33.098  34.527  28.526  1.00  0.00     0.251 C 
ATOM      6  H   UNL A   1      31.782  34.384  27.031  1.00  0.00     0.163 HD
BRANCH   5   7
ATOM      7  C   UNL A   1      34.287  33.945  29.186  1.00  0.00     0.039 A 
ATOM      8  C   UNL A   1      35.570  34.401  28.885  1.00  0.00     0.014 A 
ATOM      9  C   UNL A   1      34.113  32.945  30.148  1.00  0.00     0.014 A 
ATOM     10  C   UNL A   1      36.678  33.746  29.406  1.00  0.00     0.010 A 
ATOM     11  C   UNL A   1      35.228  32.361  30.757  1.00  0.00     0.010 A 
ATOM     12  C   UNL A   1      36.522  32.733  30.364  1.00  0.00    -0.014 A 
BRANCH  12  13
ATOM     13  C   UNL A   1      37.732  32.136  30.985  1.00  0.00     0.031 A 
ATOM     14  C   UNL A   1      38.173  32.527  32.367  1.00  0.00     0.074 A 
ATOM     15  C   UNL A   1      38.410  31.197  30.297  1.00  0.00     0.049 A 
ATOM     16  N   UNL A   1      39.192  32.084  33.062  1.00  0.00    -0.248 NA
ATOM     17  C   UNL A   1      37.377  33.551  33.059  1.00  0.00     0.031 C 
ATOM     18  C   UNL A   1      38.078  30.746  28.942  1.00  0.00     0.029 A 
ATOM     19  N   UNL A   1      39.498  30.439  30.640  1.00  0.00    -0.354 N 
ATOM     20  C   UNL A   1      39.169  32.783  34.262  1.00  0.00     0.074 A 
ATOM     21  C   UNL A   1      38.053  33.703  34.190  1.00  0.00     0.031 C 
ATOM     22  C   UNL A   1      38.910  29.755  28.592  1.00  0.00     0.029 A 
ATOM     23  C   UNL A   1      39.875  29.549  29.664  1.00  0.00     0.049 A 
ATOM     24  H   UNL A   1      39.965  30.524  31.503  1.00  0.00     0.167 HD
ATOM     25  C   UNL A   1      39.998  32.659  35.326  1.00  0.00     0.037 A 
ATOM     26  C   UNL A   1      40.897  28.675  29.626  1.00  0.00     0.037 A 
ATOM     27  C   UNL A   1      41.100  31.732  35.393  1.00  0.00     0.049 A 
ATOM     28  C   UNL A   1      41.817  28.584  30.809  1.00  0.00     0.074 A 
ATOM     29  C   UNL A   1      41.983  31.513  36.437  1.00  0.00     0.029 A 
ATOM     30  N   UNL A   1      41.471  30.870  34.370  1.00  0.00    -0.354 N 
ATOM     31  N   UNL A   1      41.767  29.231  31.947  1.00  0.00    -0.248 NA
ATOM     32  C   UNL A   1      42.938  27.642  30.700  1.00  0.00     0.031 C 
ATOM     33  C   UNL A   1      42.915  30.553  36.029  1.00  0.00     0.029 A 
ATOM     34  C   UNL A   1      42.583  30.135  34.751  1.00  0.00     0.049 A 
ATOM     35  H   UNL A   1      41.012  30.792  33.502  1.00  0.00     0.167 HD
ATOM     36  C   UNL A   1      42.838  28.767  32.696  1.00  0.00     0.074 A 
ATOM     37  C   UNL A   1      43.506  27.763  31.891  1.00  0.00     0.031 C 
ATOM     38  C   UNL A   1      43.235  29.140  33.937  1.00  0.00     0.037 A 
BRANCH  25  39
ATOM     39  C   UNL A   1      39.760  33.559  36.506  1.00  0.00     0.064 A 
ATOM     40  C   UNL A   1      40.344  34.832  36.592  1.00  0.00     0.173 A 
ATOM     41  C   UNL A   1      38.894  33.165  37.537  1.00  0.00     0.173 A 
ATOM     42  F   UNL A   1      41.188  35.253  35.637  1.00  0.00    -0.203 F 
ATOM     43  C   UNL A   1      40.088  35.665  37.678  1.00  0.00     0.198 A 
ATOM     44  C   UNL A   1      38.619  34.012  38.608  1.00  0.00     0.198 A 
ATOM     45  F   UNL A   1      38.302  31.961  37.501  1.00  0.00    -0.203 F 
ATOM     46  F   UNL A   1      40.689  36.861  37.759  1.00  0.00    -0.200 F 
ATOM     47  C   UNL A   1      39.220  35.259  38.680  1.00  0.00     0.200 A 
ATOM     48  F   UNL A   1      37.769  33.623  39.568  1.00  0.00    -0.200 F 
ATOM     49  F   UNL A   1      38.969  36.067  39.719  1.00  0.00    -0.200 F 
ENDBRANCH  25  39
BRANCH  26  50
ATOM     50  C   UNL A   1      41.103  27.832  28.422  1.00  0.00     0.064 A 
ATOM     51  C   UNL A   1      40.464  26.591  28.291  1.00  0.00     0.173 A 
ATOM     52  C   UNL A   1      41.931  28.253  27.371  1.00  0.00     0.173 A 
ATOM     53  F   UNL A   1      39.676  26.136  29.277  1.00  0.00    -0.203 F 
ATOM     54  C   UNL A   1      40.660  25.797  27.163  1.00  0.00     0.198 A 
ATOM     55  C   UNL A   1      42.102  27.475  26.230  1.00  0.00     0.198 A 
ATOM     56  F   UNL A   1      42.560  29.436  27.446  1.00  0.00    -0.203 F 
ATOM     57  F   UNL A   1      40.073  24.596  27.082  1.00  0.00    -0.200 F 
ATOM     58  C   UNL A   1      41.473  26.243  26.131  1.00  0.00     0.200 A 
ATOM     59  F   UNL A   1      42.872  27.917  25.228  1.00  0.00    -0.200 F 
ATOM     60  F   UNL A   1      41.655  25.483  25.042  1.00  0.00    -0.200 F 
ENDBRANCH  26  50
BRANCH  38  61
ATOM     61  C   UNL A   1      44.432  28.438  34.506  1.00  0.00     0.064 A 
ATOM     62  C   UNL A   1      45.727  28.952  34.353  1.00  0.00     0.173 A 
ATOM     63  C   UNL A   1      44.277  27.246  35.231  1.00  0.00     0.173 A 
ATOM     64  F   UNL A   1      45.928  30.079  33.653  1.00  0.00    -0.203 F 
ATOM     65  C   UNL A   1      46.829  28.284  34.881  1.00  0.00     0.198 A 
ATOM     66  C   UNL A   1      45.378  26.597  35.783  1.00  0.00     0.198 A 
ATOM     67  F   UNL A   1      43.058  26.715  35.409  1.00  0.00    -0.203 F 
ATOM     68  F   UNL A   1      48.063  28.766  34.678  1.00  0.00    -0.200 F 
ATOM     69  C   UNL A   1      46.652  27.112  35.601  1.00  0.00     0.200 A 
ATOM     70  F   UNL A   1      45.205  25.470  36.487  1.00  0.00    -0.200 F 
ATOM     71  F   UNL A   1      47.713  26.471  36.110  1.00  0.00    -0.200 F 
ENDBRANCH  38  61
ENDBRANCH  12  13
ENDBRANCH   5   7
ENDBRANCH   2   3
ENDBRANCH   1   2
BRANCH   1  72
ATOM     72  C   UNL A   1      31.521  30.359  26.257  1.00  0.00     0.118 C 
BRANCH  72  73
ATOM     73  N   UNL A   1      32.465  30.118  25.178  1.00  0.00    -0.352 N 
ATOM     74  C   UNL A   1      32.471  29.125  24.234  1.00  0.00     0.252 C 
ATOM     75  H   UNL A   1      33.209  30.760  25.118  1.00  0.00     0.163 HD
ATOM     76  O   UNL A   1      33.415  29.011  23.458  1.00  0.00    -0.269 OA
BRANCH  74  77
ATOM     77  C   UNL A   1      31.371  28.149  24.180  1.00  0.00     0.059 A 
ATOM     78  C   UNL A   1      31.566  26.934  24.851  1.00  0.00     0.035 A 
ATOM     79  C   UNL A   1      30.201  28.367  23.447  1.00  0.00     0.053 A 
ATOM     80  C   UNL A   1      30.569  25.950  24.813  1.00  0.00     0.068 A 
ATOM     81  C   UNL A   1      29.195  27.395  23.450  1.00  0.00     0.022 A 
ATOM     82  Cl  UNL A   1      29.944  29.774  22.477  1.00  0.00    -0.083 Cl
ATOM     83  C   UNL A   1      29.379  26.182  24.125  1.00  0.00     0.022 A 
BRANCH  80  84
ATOM     84  S   UNL A   1      30.932  24.401  25.606  1.00  0.00     0.183 S 
ATOM     85  O   UNL A   1      30.089  24.383  26.792  1.00  0.00    -0.223 OA
ATOM     86  O   UNL A   1      30.780  23.378  24.591  1.00  0.00    -0.223 OA
BRANCH  84  87
ATOM     87  C   UNL A   1      32.616  24.387  26.173  1.00  0.00     0.191 C 
BRANCH  87  88
ATOM     88  C   UNL A   1      33.531  23.598  25.279  1.00  0.00     0.045 C 
ATOM     89  Cl  UNL A   1      34.076  24.468  23.873  1.00  0.00    -0.087 Cl
ATOM     90  C   UNL A   1      34.011  22.381  25.566  1.00  0.00     0.097 C 
ATOM     91  Cl  UNL A   1      35.109  21.484  24.599  1.00  0.00    -0.092 Cl
ENDBRANCH  87  88
ENDBRANCH  84  87
ENDBRANCH  80  84
ENDBRANCH  74  77
ENDBRANCH  72  73
ENDBRANCH   1  72
TORSDOF 13
ENDMDL
MODEL 2
REMARK VINA RESULT:     -11.9      5.373     10.817
REMARK SMILES O=C(NCCCNC(=O)c1cc(S(=O)(=O)C/C(Cl)=C/Cl)ccc1Cl)c1ccc(-c2c3nc(c(-c4c(F)c(F)c(F)c(F)c4F)c4ccc([nH]4)c(-c4c(F)c(F)c(F)c(F)c4F)c4nc(c(-c5c(F)c(F)c(F)c(F)c5F)c5ccc2[nH]5)C=C4)C=C3)cc1
REMARK SMILES IDX 5 1 4 2 3 3 1 4 2 5 25 7 26 8 87 9 27 10 86 11 28 12 29 13
REMARK SMILES IDX 30 14 80 15 31 16 85 17 79 18 81 19 32 20 84 21 78 22 77 23
REMARK SMILES IDX 33 25 65 26 45 27 64 28 46 29 49 30 63 31 82 32 47 33 48 34
REMARK SMILES IDX 62 36 83 37 50 38 34 39 35 40 43 41 36 42 37 43 41 44 44 45
REMARK SMILES IDX 38 46 39 47 42 48 40 49 66 50 67 51 75 52 68 53 69 54 73 55
REMARK SMILES IDX 76 56 70 57 71 58 74 59 72 60 51 61 52 62 60 63 53 64 54 65
REMARK SMILES IDX 58 66 61 67 55 68 56 69 59 70 57 71 6 72 7 73 8 74 9 76
REMARK SMILES IDX 10 77 11 78 23 79 12 80 22 81 24 82 21 83 13 84 14 85 15 86
REMARK SMILES IDX 16 87 17 88 18 89 19 90 20 91
REMARK H PARENT 3 6 81 24 49 35 7 75
REMARK Flexibility Score: inf
ROOT
ATOM      1  C   UNL A   1      38.020  19.684  24.862  1.00  0.00     0.042 C 
ENDROOT
BRANCH   1   2
ATOM      2  C   UNL A   1      39.045  20.066  25.919  1.00  0.00     0.118 C 
BRANCH   2   3
ATOM      3  N   UNL A   1      40.188  19.163  25.955  1.00  0.00    -0.352 N 
ATOM      4  O   UNL A   1      42.347  18.524  25.911  1.00  0.00    -0.269 OA
ATOM      5  C   UNL A   1      41.531  19.424  26.086  1.00  0.00     0.251 C 
ATOM      6  H   UNL A   1      39.962  18.209  25.870  1.00  0.00     0.163 HD
BRANCH   5   7
ATOM      7  C   UNL A   1      42.003  20.786  26.416  1.00  0.00     0.039 A 
ATOM      8  C   UNL A   1      42.308  21.142  27.729  1.00  0.00     0.014 A 
ATOM      9  C   UNL A   1      42.175  21.718  25.386  1.00  0.00     0.014 A 
ATOM     10  C   UNL A   1      42.610  22.462  28.038  1.00  0.00     0.010 A 
ATOM     11  C   UNL A   1      42.588  23.020  25.685  1.00  0.00     0.010 A 
ATOM     12  C   UNL A   1      42.775  23.412  27.019  1.00  0.00    -0.014 A 
BRANCH  12  13
ATOM     13  C   UNL A   1      43.212  24.785  27.378  1.00  0.00     0.031 A 
ATOM     14  C   UNL A   1      44.613  25.254  27.105  1.00  0.00     0.074 A 
ATOM     15  C   UNL A   1      42.310  25.625  27.920  1.00  0.00     0.049 A 
ATOM     16  N   UNL A   1      45.149  26.428  27.336  1.00  0.00    -0.248 NA
ATOM     17  C   UNL A   1      45.539  24.283  26.503  1.00  0.00     0.031 C 
ATOM     18  C   UNL A   1      40.922  25.275  28.239  1.00  0.00     0.029 A 
ATOM     19  N   UNL A   1      42.408  26.944  28.279  1.00  0.00    -0.354 N 
ATOM     20  C   UNL A   1      46.471  26.332  26.923  1.00  0.00     0.074 A 
ATOM     21  C   UNL A   1      46.669  24.977  26.455  1.00  0.00     0.031 C 
ATOM     22  C   UNL A   1      40.287  26.363  28.695  1.00  0.00     0.029 A 
ATOM     23  C   UNL A   1      41.236  27.467  28.768  1.00  0.00     0.049 A 
ATOM     24  H   UNL A   1      43.239  27.466  28.195  1.00  0.00     0.167 HD
ATOM     25  C   UNL A   1      47.427  27.293  26.927  1.00  0.00     0.037 A 
ATOM     26  C   UNL A   1      40.958  28.695  29.241  1.00  0.00     0.037 A 
ATOM     27  C   UNL A   1      47.219  28.644  27.384  1.00  0.00     0.049 A 
ATOM     28  C   UNL A   1      42.047  29.728  29.261  1.00  0.00     0.074 A 
ATOM     29  C   UNL A   1      48.117  29.698  27.406  1.00  0.00     0.029 A 
ATOM     30  N   UNL A   1      46.026  29.127  27.905  1.00  0.00    -0.354 N 
ATOM     31  N   UNL A   1      43.285  29.632  28.843  1.00  0.00    -0.248 NA
ATOM     32  C   UNL A   1      41.700  31.039  29.823  1.00  0.00     0.031 C 
ATOM     33  C   UNL A   1      47.482  30.804  27.980  1.00  0.00     0.029 A 
ATOM     34  C   UNL A   1      46.172  30.457  28.269  1.00  0.00     0.049 A 
ATOM     35  H   UNL A   1      45.197  28.603  28.000  1.00  0.00     0.167 HD
ATOM     36  C   UNL A   1      43.862  30.871  29.075  1.00  0.00     0.074 A 
ATOM     37  C   UNL A   1      42.830  31.711  29.650  1.00  0.00     0.031 C 
ATOM     38  C   UNL A   1      45.134  31.277  28.839  1.00  0.00     0.037 A 
BRANCH  25  39
ATOM     39  C   UNL A   1      48.796  26.917  26.436  1.00  0.00     0.064 A 
ATOM     40  C   UNL A   1      49.761  26.367  27.293  1.00  0.00     0.173 A 
ATOM     41  C   UNL A   1      49.130  27.060  25.081  1.00  0.00     0.173 A 
ATOM     42  F   UNL A   1      49.497  26.218  28.600  1.00  0.00    -0.203 F 
ATOM     43  C   UNL A   1      51.016  25.995  26.816  1.00  0.00     0.198 A 
ATOM     44  C   UNL A   1      50.375  26.662  24.601  1.00  0.00     0.198 A 
ATOM     45  F   UNL A   1      48.242  27.574  24.216  1.00  0.00    -0.203 F 
ATOM     46  F   UNL A   1      51.936  25.509  27.661  1.00  0.00    -0.200 F 
ATOM     47  C   UNL A   1      51.319  26.135  25.470  1.00  0.00     0.200 A 
ATOM     48  F   UNL A   1      50.662  26.786  23.298  1.00  0.00    -0.200 F 
ATOM     49  F   UNL A   1      52.524  25.769  25.011  1.00  0.00    -0.200 F 
ENDBRANCH  25  39
BRANCH  26  50
ATOM     50  C   UNL A   1      39.594  29.002  29.741  1.00  0.00     0.064 A 
ATOM     51  C   UNL A   1      39.234  28.736  31.069  1.00  0.00     0.173 A 
ATOM     52  C   UNL A   1      38.626  29.579  28.906  1.00  0.00     0.173 A 
ATOM     53  F   UNL A   1      40.119  28.167  31.902  1.00  0.00    -0.203 F 
ATOM     54  C   UNL A   1      37.953  29.020  31.537  1.00  0.00     0.198 A 
ATOM     55  C   UNL A   1      37.357  29.893  29.382  1.00  0.00     0.198 A 
ATOM     56  F   UNL A   1      38.923  29.859  27.627  1.00  0.00    -0.203 F 
ATOM     57  F   UNL A   1      37.621  28.716  32.799  1.00  0.00    -0.200 F 
ATOM     58  C   UNL A   1      37.018  29.605  30.695  1.00  0.00     0.200 A 
ATOM     59  F   UNL A   1      36.463  30.474  28.571  1.00  0.00    -0.200 F 
ATOM     60  F   UNL A   1      35.789  29.886  31.148  1.00  0.00    -0.200 F 
ENDBRANCH  26  50
BRANCH  38  61
ATOM     61  C   UNL A   1      45.466  32.700  29.178  1.00  0.00     0.064 A 
ATOM     62  C   UNL A   1      45.271  33.739  28.257  1.00  0.00     0.173 A 
ATOM     63  C   UNL A   1      45.966  33.029  30.447  1.00  0.00     0.173 A 
ATOM     64  F   UNL A   1      44.812  33.472  27.024  1.00  0.00    -0.203 F 
ATOM     65  C   UNL A   1      45.592  35.053  28.583  1.00  0.00     0.198 A 
ATOM     66  C   UNL A   1      46.258  34.349  30.780  1.00  0.00     0.198 A 
ATOM     67  F   UNL A   1      46.167  32.072  31.365  1.00  0.00    -0.203 F 
ATOM     68  F   UNL A   1      45.447  36.024  27.670  1.00  0.00    -0.200 F 
ATOM     69  C   UNL A   1      46.078  35.358  29.846  1.00  0.00     0.200 A 
ATOM     70  F   UNL A   1      46.718  34.643  32.004  1.00  0.00    -0.200 F 
ATOM     71  F   UNL A   1      46.385  36.624  30.160  1.00  0.00    -0.200 F 
ENDBRANCH  38  61
ENDBRANCH  12  13
ENDBRANCH   5   7
ENDBRANCH   2   3
ENDBRANCH   1   2
BRANCH   1  72
ATOM     72  C   UNL A   1      36.928  20.723  24.662  1.00  0.00     0.118 C 
BRANCH  72  73
ATOM     73  N   UNL A   1      36.199  20.999  25.890  1.00  0.00    -0.352 N 
ATOM     74  C   UNL A   1      34.895  21.379  26.061  1.00  0.00     0.252 C 
ATOM     75  H   UNL A   1      36.720  20.899  26.720  1.00  0.00     0.163 HD
ATOM     76  O   UNL A   1      34.475  21.676  27.174  1.00  0.00    -0.269 OA
BRANCH  74  77
ATOM     77  C   UNL A   1      34.000  21.492  24.898  1.00  0.00     0.059 A 
ATOM     78  C   UNL A   1      33.956  22.732  24.246  1.00  0.00     0.035 A 
ATOM     79  C   UNL A   1      33.168  20.449  24.479  1.00  0.00     0.053 A 
ATOM     80  C   UNL A   1      33.102  22.913  23.151  1.00  0.00     0.068 A 
ATOM     81  C   UNL A   1      32.349  20.628  23.359  1.00  0.00     0.022 A 
ATOM     82  Cl  UNL A   1      33.054  18.940  25.314  1.00  0.00    -0.083 Cl
ATOM     83  C   UNL A   1      32.307  21.861  22.698  1.00  0.00     0.022 A 
BRANCH  80  84
ATOM     84  S   UNL A   1      33.033  24.542  22.440  1.00  0.00     0.183 S 
ATOM     85  O   UNL A   1      33.990  25.325  23.208  1.00  0.00    -0.223 OA
ATOM     86  O   UNL A   1      33.213  24.371  21.013  1.00  0.00    -0.223 OA
BRANCH  84  87
ATOM     87  C   UNL A   1      31.434  25.263  22.725  1.00  0.00     0.191 C 
BRANCH  87  88
ATOM     88  C   UNL A   1      31.177  25.574  24.172  1.00  0.00     0.045 C 
ATOM     89  Cl  UNL A   1      30.708  24.194  25.124  1.00  0.00    -0.087 Cl
ATOM     90  C   UNL A   1      31.402  26.763  24.746  1.00  0.00     0.097 C 
ATOM     91  Cl  UNL A   1      31.182  27.131  26.408  1.00  0.00    -0.092 Cl
ENDBRANCH  87  88
ENDBRANCH  84  87
ENDBRANCH  80  84
ENDBRANCH  74  77
ENDBRANCH  72  73
ENDBRANCH   1  72
TORSDOF 13
ENDMDL
MODEL 3
REMARK VINA RESULT:     -11.8      5.362     10.875
REMARK SMILES O=C(NCCCNC(=O)c1cc(S(=O)(=O)C/C(Cl)=C/Cl)ccc1Cl)c1ccc(-c2c3nc(c(-c4c(F)c(F)c(F)c(F)c4F)c4ccc([nH]4)c(-c4c(F)c(F)c(F)c(F)c4F)c4nc(c(-c5c(F)c(F)c(F)c(F)c5F)c5ccc2[nH]5)C=C4)C=C3)cc1
REMARK SMILES IDX 5 1 4 2 3 3 1 4 2 5 25 7 26 8 87 9 27 10 86 11 28 12 29 13
REMARK SMILES IDX 30 14 80 15 31 16 85 17 79 18 81 19 32 20 84 21 78 22 77 23
REMARK SMILES IDX 33 25 65 26 45 27 64 28 46 29 49 30 63 31 82 32 47 33 48 34
REMARK SMILES IDX 62 36 83 37 50 38 34 39 35 40 43 41 36 42 37 43 41 44 44 45
REMARK SMILES IDX 38 46 39 47 42 48 40 49 66 50 67 51 75 52 68 53 69 54 73 55
REMARK SMILES IDX 76 56 70 57 71 58 74 59 72 60 51 61 52 62 60 63 53 64 54 65
REMARK SMILES IDX 58 66 61 67 55 68 56 69 59 70 57 71 6 72 7 73 8 74 9 76
REMARK SMILES IDX 10 77 11 78 23 79 12 80 22 81 24 82 21 83 13 84 14 85 15 86
REMARK SMILES IDX 16 87 17 88 18 89 19 90 20 91
REMARK H PARENT 3 6 81 24 49 35 7 75
REMARK Flexibility Score: inf
ROOT
ATOM      1  C   UNL A   1      37.844  19.507  24.977  1.00  0.00     0.042 C 
ENDROOT
BRANCH   1   2
ATOM      2  C   UNL A   1      39.013  20.101  25.749  1.00  0.00     0.118 C 
BRANCH   2   3
ATOM      3  N   UNL A   1      40.123  19.169  25.904  1.00  0.00    -0.352 N 
ATOM      4  O   UNL A   1      42.260  18.471  26.043  1.00  0.00    -0.269 OA
ATOM      5  C   UNL A   1      41.461  19.399  26.122  1.00  0.00     0.251 C 
ATOM      6  H   UNL A   1      39.875  18.219  25.841  1.00  0.00     0.163 HD
BRANCH   5   7
ATOM      7  C   UNL A   1      41.948  20.761  26.431  1.00  0.00     0.039 A 
ATOM      8  C   UNL A   1      42.226  21.143  27.743  1.00  0.00     0.014 A 
ATOM      9  C   UNL A   1      42.163  21.663  25.384  1.00  0.00     0.014 A 
ATOM     10  C   UNL A   1      42.544  22.465  28.027  1.00  0.00     0.010 A 
ATOM     11  C   UNL A   1      42.592  22.965  25.661  1.00  0.00     0.010 A 
ATOM     12  C   UNL A   1      42.752  23.387  26.989  1.00  0.00    -0.014 A 
BRANCH  12  13
ATOM     13  C   UNL A   1      43.204  24.760  27.326  1.00  0.00     0.031 A 
ATOM     14  C   UNL A   1      44.604  25.216  27.027  1.00  0.00     0.074 A 
ATOM     15  C   UNL A   1      42.316  25.613  27.873  1.00  0.00     0.049 A 
ATOM     16  N   UNL A   1      45.152  26.388  27.236  1.00  0.00    -0.248 NA
ATOM     17  C   UNL A   1      45.513  24.232  26.422  1.00  0.00     0.031 C 
ATOM     18  C   UNL A   1      40.931  25.277  28.217  1.00  0.00     0.029 A 
ATOM     19  N   UNL A   1      42.429  26.935  28.215  1.00  0.00    -0.354 N 
ATOM     20  C   UNL A   1      46.467  26.278  26.804  1.00  0.00     0.074 A 
ATOM     21  C   UNL A   1      46.647  24.916  26.348  1.00  0.00     0.031 C 
ATOM     22  C   UNL A   1      40.311  26.375  28.670  1.00  0.00     0.029 A 
ATOM     23  C   UNL A   1      41.269  27.472  28.716  1.00  0.00     0.049 A 
ATOM     24  H   UNL A   1      43.263  27.450  28.112  1.00  0.00     0.167 HD
ATOM     25  C   UNL A   1      47.429  27.232  26.783  1.00  0.00     0.037 A 
ATOM     26  C   UNL A   1      41.007  28.707  29.179  1.00  0.00     0.037 A 
ATOM     27  C   UNL A   1      47.238  28.589  27.228  1.00  0.00     0.049 A 
ATOM     28  C   UNL A   1      42.104  29.733  29.171  1.00  0.00     0.074 A 
ATOM     29  C   UNL A   1      48.144  29.637  27.224  1.00  0.00     0.029 A 
ATOM     30  N   UNL A   1      46.057  29.087  27.761  1.00  0.00    -0.354 N 
ATOM     31  N   UNL A   1      43.335  29.623  28.735  1.00  0.00    -0.248 NA
ATOM     32  C   UNL A   1      41.775  31.053  29.723  1.00  0.00     0.031 C 
ATOM     33  C   UNL A   1      47.526  30.754  27.795  1.00  0.00     0.029 A 
ATOM     34  C   UNL A   1      46.219  30.420  28.108  1.00  0.00     0.049 A 
ATOM     35  H   UNL A   1      45.226  28.571  27.874  1.00  0.00     0.167 HD
ATOM     36  C   UNL A   1      43.924  30.861  28.945  1.00  0.00     0.074 A 
ATOM     37  C   UNL A   1      42.906  31.714  29.525  1.00  0.00     0.031 C 
ATOM     38  C   UNL A   1      45.194  31.254  28.685  1.00  0.00     0.037 A 
BRANCH  25  39
ATOM     39  C   UNL A   1      48.789  26.841  26.276  1.00  0.00     0.064 A 
ATOM     40  C   UNL A   1      49.149  27.008  24.930  1.00  0.00     0.173 A 
ATOM     41  C   UNL A   1      49.761  26.344  27.157  1.00  0.00     0.173 A 
ATOM     42  F   UNL A   1      48.254  27.470  24.044  1.00  0.00    -0.203 F 
ATOM     43  C   UNL A   1      50.424  26.669  24.482  1.00  0.00     0.198 A 
ATOM     44  C   UNL A   1      51.043  26.032  26.711  1.00  0.00     0.198 A 
ATOM     45  F   UNL A   1      49.472  26.172  28.456  1.00  0.00    -0.203 F 
ATOM     46  F   UNL A   1      50.733  26.799  23.184  1.00  0.00    -0.200 F 
ATOM     47  C   UNL A   1      51.372  26.190  25.373  1.00  0.00     0.200 A 
ATOM     48  F   UNL A   1      51.961  25.581  27.577  1.00  0.00    -0.200 F 
ATOM     49  F   UNL A   1      52.600  25.873  24.942  1.00  0.00    -0.200 F 
ENDBRANCH  25  39
BRANCH  26  50
ATOM     50  C   UNL A   1      39.653  29.030  29.696  1.00  0.00     0.064 A 
ATOM     51  C   UNL A   1      39.337  28.860  31.051  1.00  0.00     0.173 A 
ATOM     52  C   UNL A   1      38.651  29.527  28.850  1.00  0.00     0.173 A 
ATOM     53  F   UNL A   1      40.256  28.369  31.897  1.00  0.00    -0.203 F 
ATOM     54  C   UNL A   1      38.066  29.159  31.536  1.00  0.00     0.198 A 
ATOM     55  C   UNL A   1      37.391  29.857  29.340  1.00  0.00     0.198 A 
ATOM     56  F   UNL A   1      38.905  29.715  27.546  1.00  0.00    -0.203 F 
ATOM     57  F   UNL A   1      37.776  28.945  32.826  1.00  0.00    -0.200 F 
ATOM     58  C   UNL A   1      37.096  29.663  30.682  1.00  0.00     0.200 A 
ATOM     59  F   UNL A   1      36.463  30.361  28.517  1.00  0.00    -0.200 F 
ATOM     60  F   UNL A   1      35.876  29.959  31.150  1.00  0.00    -0.200 F 
ENDBRANCH  26  50
BRANCH  38  61
ATOM     61  C   UNL A   1      45.542  32.678  29.002  1.00  0.00     0.064 A 
ATOM     62  C   UNL A   1      46.107  33.040  30.234  1.00  0.00     0.173 A 
ATOM     63  C   UNL A   1      45.326  33.690  28.054  1.00  0.00     0.173 A 
ATOM     64  F   UNL A   1      46.316  32.111  31.179  1.00  0.00    -0.203 F 
ATOM     65  C   UNL A   1      46.417  34.367  30.516  1.00  0.00     0.198 A 
ATOM     66  C   UNL A   1      45.665  35.012  28.329  1.00  0.00     0.198 A 
ATOM     67  F   UNL A   1      44.791  33.395  26.859  1.00  0.00    -0.203 F 
ATOM     68  F   UNL A   1      46.908  34.698  31.719  1.00  0.00    -0.200 F 
ATOM     69  C   UNL A   1      46.202  35.350  29.561  1.00  0.00     0.200 A 
ATOM     70  F   UNL A   1      45.466  35.959  27.402  1.00  0.00    -0.200 F 
ATOM     71  F   UNL A   1      46.503  36.627  29.834  1.00  0.00    -0.200 F 
ENDBRANCH  38  61
ENDBRANCH  12  13
ENDBRANCH   5   7
ENDBRANCH   2   3
ENDBRANCH   1   2
BRANCH   1  72
ATOM     72  C   UNL A   1      36.724  20.498  24.703  1.00  0.00     0.118 C 
BRANCH  72  73
ATOM     73  N   UNL A   1      36.002  20.862  25.911  1.00  0.00    -0.352 N 
ATOM     74  C   UNL A   1      34.717  21.314  26.054  1.00  0.00     0.252 C 
ATOM     75  H   UNL A   1      36.512  20.771  26.749  1.00  0.00     0.163 HD
ATOM     76  O   UNL A   1      34.305  21.678  27.151  1.00  0.00    -0.269 OA
BRANCH  74  77
ATOM     77  C   UNL A   1      33.837  21.422  24.880  1.00  0.00     0.059 A 
ATOM     78  C   UNL A   1      33.705  22.690  24.297  1.00  0.00     0.035 A 
ATOM     79  C   UNL A   1      33.099  20.342  24.385  1.00  0.00     0.053 A 
ATOM     80  C   UNL A   1      32.858  22.865  23.196  1.00  0.00     0.068 A 
ATOM     81  C   UNL A   1      32.289  20.520  23.259  1.00  0.00     0.022 A 
ATOM     82  Cl  UNL A   1      33.092  18.783  25.132  1.00  0.00    -0.083 Cl
ATOM     83  C   UNL A   1      32.159  21.781  22.667  1.00  0.00     0.022 A 
BRANCH  80  84
ATOM     84  S   UNL A   1      32.672  24.521  22.575  1.00  0.00     0.183 S 
ATOM     85  O   UNL A   1      33.280  24.495  21.254  1.00  0.00    -0.223 OA
ATOM     86  O   UNL A   1      31.270  24.857  22.725  1.00  0.00    -0.223 OA
BRANCH  84  87
ATOM     87  C   UNL A   1      33.629  25.650  23.559  1.00  0.00     0.191 C 
BRANCH  87  88
ATOM     88  C   UNL A   1      32.789  26.487  24.481  1.00  0.00     0.045 C 
ATOM     89  Cl  UNL A   1      32.437  25.727  26.008  1.00  0.00    -0.087 Cl
ATOM     90  C   UNL A   1      32.429  27.755  24.243  1.00  0.00     0.097 C 
ATOM     91  Cl  UNL A   1      31.527  28.757  25.306  1.00  0.00    -0.092 Cl
ENDBRANCH  87  88
ENDBRANCH  84  87
ENDBRANCH  80  84
ENDBRANCH  74  77
ENDBRANCH  72  73
ENDBRANCH   1  72
TORSDOF 13
ENDMDL
