MODEL 1
REMARK VINA RESULT:     -12.3      0.000      0.000
REMARK SMILES COc1ccc(-c2noc(CC(=O)NCCCNC(=O)c3ccc(-c4c5nc(c(-c6c(F)c(F)c(F)c(F)c6F)c6ccc([nH]6)c(-c6c(F)c(F)c(F)c(F)c6F)c6nc(c(-c7c(F)c(F)c(F)c(F)c7F)c7ccc4[nH]7)C=C6)C=C5)cc3)c2-c2ccc(OC)cc2)cc1
REMARK SMILES IDX 15 1 14 2 12 3 13 4 11 6 10 7 7 8 8 9 84 10 9 11 6 12 3 13
REMARK SMILES IDX 4 14 94 15 5 16 93 17 2 18 1 19 85 20 86 21 92 22 87 23
REMARK SMILES IDX 91 24 88 25 89 26 90 27 16 28 17 29 18 30 19 31 20 33 21 34
REMARK SMILES IDX 22 35 83 36 23 37 82 38 24 39 25 40 26 41 76 42 27 43 81 44
REMARK SMILES IDX 75 45 77 46 28 47 80 48 74 49 73 50 29 52 61 53 41 54 60 55
REMARK SMILES IDX 42 56 45 57 59 58 78 59 43 60 44 61 58 63 79 64 46 65 30 66
REMARK SMILES IDX 31 67 39 68 32 69 33 70 37 71 40 72 34 73 35 74 38 75 36 76
REMARK SMILES IDX 62 77 63 78 71 79 64 80 65 81 69 82 72 83 66 84 67 85 70 86
REMARK SMILES IDX 68 87 47 88 48 89 56 90 49 91 50 92 54 93 57 94 51 95 52 96
REMARK SMILES IDX 55 97 53 98
REMARK H PARENT 14 5 18 32 77 51 45 62
REMARK Flexibility Score: inf
ROOT
ATOM      1  C   UNL A   1      34.890  23.649  23.874  1.00  0.00     0.117 C 
ENDROOT
BRANCH   1   2
ATOM      2  N   UNL A   1      34.188  22.433  24.235  1.00  0.00    -0.356 N 
ATOM      3  C   UNL A   1      33.200  22.247  25.160  1.00  0.00     0.227 C 
ATOM      4  O   UNL A   1      32.776  21.102  25.329  1.00  0.00    -0.275 OA
ATOM      5  H   UNL A   1      34.462  21.626  23.742  1.00  0.00     0.163 HD
BRANCH   3   6
ATOM      6  C   UNL A   1      32.590  23.430  25.886  1.00  0.00     0.179 C 
BRANCH   6   7
ATOM      7  C   UNL A   1      31.760  24.267  24.987  1.00  0.00     0.154 A 
ATOM      8  C   UNL A   1      30.551  25.718  23.822  1.00  0.00     0.122 A 
ATOM      9  N   UNL A   1      30.202  24.499  23.390  1.00  0.00    -0.079 NA
ATOM     10  C   UNL A   1      31.558  25.624  24.832  1.00  0.00     0.053 A 
ATOM     11  O   UNL A   1      30.974  23.600  24.099  1.00  0.00    -0.360 OA
BRANCH   8  12
ATOM     12  C   UNL A   1      29.906  26.928  23.324  1.00  0.00     0.005 A 
ATOM     13  C   UNL A   1      28.728  29.366  22.570  1.00  0.00     0.118 A 
ATOM     14  C   UNL A   1      27.979  28.391  23.233  1.00  0.00     0.047 A 
ATOM     15  C   UNL A   1      30.066  29.113  22.269  1.00  0.00     0.047 A 
ATOM     16  C   UNL A   1      28.558  27.174  23.600  1.00  0.00     0.014 A 
ATOM     17  C   UNL A   1      30.650  27.898  22.642  1.00  0.00     0.014 A 
BRANCH  13  18
ATOM     18  O   UNL A   1      28.053  30.524  22.295  1.00  0.00    -0.497 OA
ATOM     19  C   UNL A   1      27.596  31.272  23.416  1.00  0.00     0.278 C 
ENDBRANCH  13  18
ENDBRANCH   8  12
BRANCH  10  20
ATOM     20  C   UNL A   1      32.157  26.655  25.657  1.00  0.00    -0.012 A 
ATOM     21  C   UNL A   1      33.468  27.074  25.402  1.00  0.00     0.013 A 
ATOM     22  C   UNL A   1      31.454  27.233  26.718  1.00  0.00     0.013 A 
ATOM     23  C   UNL A   1      34.058  28.063  26.189  1.00  0.00     0.047 A 
ATOM     24  C   UNL A   1      32.050  28.226  27.506  1.00  0.00     0.047 A 
ATOM     25  C   UNL A   1      33.354  28.646  27.243  1.00  0.00     0.118 A 
BRANCH  25  26
ATOM     26  O   UNL A   1      34.052  29.599  27.929  1.00  0.00    -0.497 OA
ATOM     27  C   UNL A   1      34.098  30.900  27.360  1.00  0.00     0.278 C 
ENDBRANCH  25  26
ENDBRANCH  10  20
ENDBRANCH   6   7
ENDBRANCH   3   6
ENDBRANCH   1   2
BRANCH   1  28
ATOM     28  C   UNL A   1      36.379  23.568  24.208  1.00  0.00     0.042 C 
BRANCH  28  29
ATOM     29  C   UNL A   1      36.674  23.469  25.702  1.00  0.00     0.118 C 
BRANCH  29  30
ATOM     30  N   UNL A   1      37.756  22.538  25.992  1.00  0.00    -0.352 N 
ATOM     31  C   UNL A   1      39.022  22.768  26.464  1.00  0.00     0.251 C 
ATOM     32  H   UNL A   1      37.544  21.592  25.819  1.00  0.00     0.163 HD
ATOM     33  O   UNL A   1      39.842  21.850  26.460  1.00  0.00    -0.269 OA
BRANCH  31  34
ATOM     34  C   UNL A   1      39.424  24.101  26.964  1.00  0.00     0.039 A 
ATOM     35  C   UNL A   1      39.148  24.426  28.297  1.00  0.00     0.014 A 
ATOM     36  C   UNL A   1      40.018  25.048  26.127  1.00  0.00     0.014 A 
ATOM     37  C   UNL A   1      39.514  25.676  28.801  1.00  0.00     0.010 A 
ATOM     38  C   UNL A   1      40.441  26.272  26.647  1.00  0.00     0.010 A 
ATOM     39  C   UNL A   1      40.190  26.598  27.988  1.00  0.00    -0.014 A 
BRANCH  39  40
ATOM     40  C   UNL A   1      40.643  27.908  28.524  1.00  0.00     0.031 A 
ATOM     41  C   UNL A   1      42.086  28.125  28.878  1.00  0.00     0.074 A 
ATOM     42  C   UNL A   1      39.738  28.878  28.754  1.00  0.00     0.049 A 
ATOM     43  N   UNL A   1      42.656  29.167  29.432  1.00  0.00    -0.248 NA
ATOM     44  C   UNL A   1      43.011  27.017  28.594  1.00  0.00     0.031 C 
ATOM     45  C   UNL A   1      38.302  28.773  28.493  1.00  0.00     0.029 A 
ATOM     46  N   UNL A   1      39.891  30.139  29.274  1.00  0.00    -0.354 N 
ATOM     47  C   UNL A   1      43.996  28.832  29.581  1.00  0.00     0.074 A 
ATOM     48  C   UNL A   1      44.148  27.477  29.097  1.00  0.00     0.031 C 
ATOM     49  C   UNL A   1      37.707  29.926  28.842  1.00  0.00     0.029 A 
ATOM     50  C   UNL A   1      38.712  30.836  29.382  1.00  0.00     0.049 A 
ATOM     51  H   UNL A   1      40.762  30.509  29.544  1.00  0.00     0.167 HD
ATOM     52  C   UNL A   1      45.008  29.592  30.061  1.00  0.00     0.037 A 
ATOM     53  C   UNL A   1      38.467  32.066  29.873  1.00  0.00     0.037 A 
ATOM     54  C   UNL A   1      44.859  30.951  30.514  1.00  0.00     0.049 A 
ATOM     55  C   UNL A   1      39.611  32.892  30.393  1.00  0.00     0.074 A 
ATOM     56  C   UNL A   1      45.838  31.826  30.955  1.00  0.00     0.029 A 
ATOM     57  N   UNL A   1      43.654  31.632  30.584  1.00  0.00    -0.354 N 
ATOM     58  N   UNL A   1      40.884  32.589  30.467  1.00  0.00    -0.248 NA
ATOM     59  C   UNL A   1      39.285  34.236  30.890  1.00  0.00     0.031 C 
ATOM     60  C   UNL A   1      45.218  33.023  31.329  1.00  0.00     0.029 A 
ATOM     61  C   UNL A   1      43.859  32.910  31.079  1.00  0.00     0.049 A 
ATOM     62  H   UNL A   1      42.780  31.262  30.321  1.00  0.00     0.167 HD
ATOM     63  C   UNL A   1      41.513  33.707  30.995  1.00  0.00     0.074 A 
ATOM     64  C   UNL A   1      40.484  34.703  31.210  1.00  0.00     0.031 C 
ATOM     65  C   UNL A   1      42.826  33.892  31.279  1.00  0.00     0.037 A 
BRANCH  52  66
ATOM     66  C   UNL A   1      46.375  28.973  30.121  1.00  0.00     0.064 A 
ATOM     67  C   UNL A   1      46.822  28.290  31.261  1.00  0.00     0.173 A 
ATOM     68  C   UNL A   1      47.230  29.028  29.010  1.00  0.00     0.173 A 
ATOM     69  F   UNL A   1      46.046  28.217  32.353  1.00  0.00    -0.203 F 
ATOM     70  C   UNL A   1      48.086  27.707  31.297  1.00  0.00     0.198 A 
ATOM     71  C   UNL A   1      48.483  28.421  29.039  1.00  0.00     0.198 A 
ATOM     72  F   UNL A   1      46.847  29.663  27.892  1.00  0.00    -0.203 F 
ATOM     73  F   UNL A   1      48.510  27.097  32.412  1.00  0.00    -0.200 F 
ATOM     74  C   UNL A   1      48.912  27.767  30.184  1.00  0.00     0.200 A 
ATOM     75  F   UNL A   1      49.275  28.467  27.959  1.00  0.00    -0.200 F 
ATOM     76  F   UNL A   1      50.126  27.198  30.218  1.00  0.00    -0.200 F 
ENDBRANCH  52  66
BRANCH  53  77
ATOM     77  C   UNL A   1      37.081  32.599  29.872  1.00  0.00     0.064 A 
ATOM     78  C   UNL A   1      36.613  33.380  28.807  1.00  0.00     0.173 A 
ATOM     79  C   UNL A   1      36.198  32.339  30.930  1.00  0.00     0.173 A 
ATOM     80  F   UNL A   1      37.427  33.671  27.782  1.00  0.00    -0.203 F 
ATOM     81  C   UNL A   1      35.318  33.894  28.807  1.00  0.00     0.198 A 
ATOM     82  C   UNL A   1      34.897  32.834  30.918  1.00  0.00     0.198 A 
ATOM     83  F   UNL A   1      36.600  31.594  31.971  1.00  0.00    -0.203 F 
ATOM     84  F   UNL A   1      34.909  34.672  27.796  1.00  0.00    -0.200 F 
ATOM     85  C   UNL A   1      34.460  33.617  29.861  1.00  0.00     0.200 A 
ATOM     86  F   UNL A   1      34.066  32.555  31.932  1.00  0.00    -0.200 F 
ATOM     87  F   UNL A   1      33.214  34.111  29.859  1.00  0.00    -0.200 F 
ENDBRANCH  53  77
BRANCH  65  88
ATOM     88  C   UNL A   1      43.229  35.231  31.820  1.00  0.00     0.064 A 
ATOM     89  C   UNL A   1      43.703  36.250  30.981  1.00  0.00     0.173 A 
ATOM     90  C   UNL A   1      43.102  35.511  33.190  1.00  0.00     0.173 A 
ATOM     91  F   UNL A   1      43.858  36.027  29.667  1.00  0.00    -0.203 F 
ATOM     92  C   UNL A   1      44.057  37.495  31.497  1.00  0.00     0.198 A 
ATOM     93  C   UNL A   1      43.431  36.765  33.697  1.00  0.00     0.198 A 
ATOM     94  F   UNL A   1      42.649  34.572  34.032  1.00  0.00    -0.203 F 
ATOM     95  F   UNL A   1      44.548  38.440  30.685  1.00  0.00    -0.200 F 
ATOM     96  C   UNL A   1      43.913  37.754  32.852  1.00  0.00     0.200 A 
ATOM     97  F   UNL A   1      43.282  37.016  35.005  1.00  0.00    -0.200 F 
ATOM     98  F   UNL A   1      44.247  38.953  33.346  1.00  0.00    -0.200 F 
ENDBRANCH  65  88
ENDBRANCH  39  40
ENDBRANCH  31  34
ENDBRANCH  29  30
ENDBRANCH  28  29
ENDBRANCH   1  28
TORSDOF 15
ENDMDL
MODEL 2
REMARK VINA RESULT:     -12.3      3.931      7.534
REMARK SMILES COc1ccc(-c2noc(CC(=O)NCCCNC(=O)c3ccc(-c4c5nc(c(-c6c(F)c(F)c(F)c(F)c6F)c6ccc([nH]6)c(-c6c(F)c(F)c(F)c(F)c6F)c6nc(c(-c7c(F)c(F)c(F)c(F)c7F)c7ccc4[nH]7)C=C6)C=C5)cc3)c2-c2ccc(OC)cc2)cc1
REMARK SMILES IDX 15 1 14 2 12 3 13 4 11 6 10 7 7 8 8 9 84 10 9 11 6 12 3 13
REMARK SMILES IDX 4 14 94 15 5 16 93 17 2 18 1 19 85 20 86 21 92 22 87 23
REMARK SMILES IDX 91 24 88 25 89 26 90 27 16 28 17 29 18 30 19 31 20 33 21 34
REMARK SMILES IDX 22 35 83 36 23 37 82 38 24 39 25 40 26 41 76 42 27 43 81 44
REMARK SMILES IDX 75 45 77 46 28 47 80 48 74 49 73 50 29 52 61 53 41 54 60 55
REMARK SMILES IDX 42 56 45 57 59 58 78 59 43 60 44 61 58 63 79 64 46 65 30 66
REMARK SMILES IDX 31 67 39 68 32 69 33 70 37 71 40 72 34 73 35 74 38 75 36 76
REMARK SMILES IDX 62 77 63 78 71 79 64 80 65 81 69 82 72 83 66 84 67 85 70 86
REMARK SMILES IDX 68 87 47 88 48 89 56 90 49 91 50 92 54 93 57 94 51 95 52 96
REMARK SMILES IDX 55 97 53 98
REMARK H PARENT 14 5 18 32 77 51 45 62
REMARK Flexibility Score: inf
ROOT
ATOM      1  C   UNL A   1      33.965  28.898  22.762  1.00  0.00     0.117 C 
ENDROOT
BRANCH   1   2
ATOM      2  N   UNL A   1      33.687  27.811  21.844  1.00  0.00    -0.356 N 
ATOM      3  C   UNL A   1      33.493  26.485  22.107  1.00  0.00     0.227 C 
ATOM      4  O   UNL A   1      33.311  25.727  21.152  1.00  0.00    -0.275 OA
ATOM      5  H   UNL A   1      33.627  28.066  20.894  1.00  0.00     0.163 HD
BRANCH   3   6
ATOM      6  C   UNL A   1      33.418  25.985  23.537  1.00  0.00     0.179 C 
BRANCH   6   7
ATOM      7  C   UNL A   1      32.877  24.607  23.617  1.00  0.00     0.154 A 
ATOM      8  C   UNL A   1      32.324  22.462  23.745  1.00  0.00     0.122 A 
ATOM      9  N   UNL A   1      31.258  23.100  23.242  1.00  0.00    -0.079 NA
ATOM     10  C   UNL A   1      33.380  23.386  24.018  1.00  0.00     0.053 A 
ATOM     11  O   UNL A   1      31.597  24.437  23.187  1.00  0.00    -0.360 OA
BRANCH   8  12
ATOM     12  C   UNL A   1      32.350  21.013  23.909  1.00  0.00     0.005 A 
ATOM     13  C   UNL A   1      32.638  18.231  24.191  1.00  0.00     0.118 A 
ATOM     14  C   UNL A   1      32.362  18.793  22.942  1.00  0.00     0.047 A 
ATOM     15  C   UNL A   1      32.754  19.062  25.304  1.00  0.00     0.047 A 
ATOM     16  C   UNL A   1      32.207  20.174  22.799  1.00  0.00     0.014 A 
ATOM     17  C   UNL A   1      32.607  20.446  25.164  1.00  0.00     0.014 A 
BRANCH  13  18
ATOM     18  O   UNL A   1      32.797  16.872  24.188  1.00  0.00    -0.497 OA
ATOM     19  C   UNL A   1      34.055  16.382  23.739  1.00  0.00     0.278 C 
ENDBRANCH  13  18
ENDBRANCH   8  12
BRANCH  10  20
ATOM     20  C   UNL A   1      34.740  23.149  24.461  1.00  0.00    -0.012 A 
ATOM     21  C   UNL A   1      35.117  23.494  25.764  1.00  0.00     0.013 A 
ATOM     22  C   UNL A   1      35.694  22.594  23.603  1.00  0.00     0.013 A 
ATOM     23  C   UNL A   1      36.423  23.276  26.202  1.00  0.00     0.047 A 
ATOM     24  C   UNL A   1      37.006  22.376  24.047  1.00  0.00     0.047 A 
ATOM     25  C   UNL A   1      37.373  22.714  25.349  1.00  0.00     0.118 A 
BRANCH  25  26
ATOM     26  O   UNL A   1      38.610  22.557  25.908  1.00  0.00    -0.497 OA
ATOM     27  C   UNL A   1      39.174  21.253  25.871  1.00  0.00     0.278 C 
ENDBRANCH  25  26
ENDBRANCH  10  20
ENDBRANCH   6   7
ENDBRANCH   3   6
ENDBRANCH   1   2
BRANCH   1  28
ATOM     28  C   UNL A   1      32.848  29.078  23.788  1.00  0.00     0.042 C 
BRANCH  28  29
ATOM     29  C   UNL A   1      33.345  29.327  25.208  1.00  0.00     0.118 C 
BRANCH  29  30
ATOM     30  N   UNL A   1      32.798  30.550  25.780  1.00  0.00    -0.352 N 
ATOM     31  C   UNL A   1      33.175  31.255  26.893  1.00  0.00     0.251 C 
ATOM     32  H   UNL A   1      32.035  30.931  25.288  1.00  0.00     0.163 HD
ATOM     33  O   UNL A   1      32.454  32.164  27.302  1.00  0.00    -0.269 OA
BRANCH  31  34
ATOM     34  C   UNL A   1      34.423  30.934  27.620  1.00  0.00     0.039 A 
ATOM     35  C   UNL A   1      35.361  31.952  27.820  1.00  0.00     0.014 A 
ATOM     36  C   UNL A   1      34.703  29.636  28.056  1.00  0.00     0.014 A 
ATOM     37  C   UNL A   1      36.550  31.683  28.502  1.00  0.00     0.010 A 
ATOM     38  C   UNL A   1      35.860  29.382  28.792  1.00  0.00     0.010 A 
ATOM     39  C   UNL A   1      36.796  30.402  29.019  1.00  0.00    -0.014 A 
BRANCH  39  40
ATOM     40  C   UNL A   1      38.026  30.112  29.800  1.00  0.00     0.031 A 
ATOM     41  C   UNL A   1      39.076  29.190  29.248  1.00  0.00     0.074 A 
ATOM     42  C   UNL A   1      38.164  30.629  31.035  1.00  0.00     0.049 A 
ATOM     43  N   UNL A   1      40.175  28.753  29.812  1.00  0.00    -0.248 NA
ATOM     44  C   UNL A   1      38.851  28.669  27.890  1.00  0.00     0.031 C 
ATOM     45  C   UNL A   1      37.195  31.502  31.699  1.00  0.00     0.029 A 
ATOM     46  N   UNL A   1      39.167  30.481  31.960  1.00  0.00    -0.354 N 
ATOM     47  C   UNL A   1      40.759  27.894  28.890  1.00  0.00     0.074 A 
ATOM     48  C   UNL A   1      39.874  27.839  27.746  1.00  0.00     0.031 C 
ATOM     49  C   UNL A   1      37.657  31.824  32.918  1.00  0.00     0.029 A 
ATOM     50  C   UNL A   1      38.935  31.153  33.135  1.00  0.00     0.049 A 
ATOM     51  H   UNL A   1      39.978  29.946  31.797  1.00  0.00     0.167 HD
ATOM     52  C   UNL A   1      41.934  27.227  28.983  1.00  0.00     0.037 A 
ATOM     53  C   UNL A   1      39.665  31.211  34.266  1.00  0.00     0.037 A 
ATOM     54  C   UNL A   1      42.826  27.308  30.109  1.00  0.00     0.049 A 
ATOM     55  C   UNL A   1      40.969  30.467  34.340  1.00  0.00     0.074 A 
ATOM     56  C   UNL A   1      44.071  26.722  30.268  1.00  0.00     0.029 A 
ATOM     57  N   UNL A   1      42.568  28.019  31.271  1.00  0.00    -0.354 N 
ATOM     58  N   UNL A   1      41.543  29.711  33.436  1.00  0.00    -0.248 NA
ATOM     59  C   UNL A   1      41.733  30.591  35.590  1.00  0.00     0.031 C 
ATOM     60  C   UNL A   1      44.548  27.048  31.543  1.00  0.00     0.029 A 
ATOM     61  C   UNL A   1      43.621  27.872  32.160  1.00  0.00     0.049 A 
ATOM     62  H   UNL A   1      41.756  28.550  31.440  1.00  0.00     0.167 HD
ATOM     63  C   UNL A   1      42.741  29.289  33.994  1.00  0.00     0.074 A 
ATOM     64  C   UNL A   1      42.820  29.885  35.312  1.00  0.00     0.031 C 
ATOM     65  C   UNL A   1      43.689  28.479  33.464  1.00  0.00     0.037 A 
BRANCH  52  66
ATOM     66  C   UNL A   1      42.327  26.349  27.831  1.00  0.00     0.064 A 
ATOM     67  C   UNL A   1      41.865  25.030  27.722  1.00  0.00     0.173 A 
ATOM     68  C   UNL A   1      43.143  26.846  26.803  1.00  0.00     0.173 A 
ATOM     69  F   UNL A   1      41.090  24.503  28.682  1.00  0.00    -0.203 F 
ATOM     70  C   UNL A   1      42.226  24.231  26.639  1.00  0.00     0.198 A 
ATOM     71  C   UNL A   1      43.480  26.054  25.708  1.00  0.00     0.198 A 
ATOM     72  F   UNL A   1      43.606  28.104  26.855  1.00  0.00    -0.203 F 
ATOM     73  F   UNL A   1      41.807  22.959  26.578  1.00  0.00    -0.200 F 
ATOM     74  C   UNL A   1      43.026  24.746  25.631  1.00  0.00     0.200 A 
ATOM     75  F   UNL A   1      44.243  26.556  24.728  1.00  0.00    -0.200 F 
ATOM     76  F   UNL A   1      43.367  23.977  24.586  1.00  0.00    -0.200 F 
ENDBRANCH  52  66
BRANCH  53  77
ATOM     77  C   UNL A   1      39.186  32.026  35.413  1.00  0.00     0.064 A 
ATOM     78  C   UNL A   1      38.419  31.447  36.433  1.00  0.00     0.173 A 
ATOM     79  C   UNL A   1      39.484  33.392  35.513  1.00  0.00     0.173 A 
ATOM     80  F   UNL A   1      38.091  30.148  36.370  1.00  0.00    -0.203 F 
ATOM     81  C   UNL A   1      37.955  32.208  37.503  1.00  0.00     0.198 A 
ATOM     82  C   UNL A   1      39.040  34.147  36.596  1.00  0.00     0.198 A 
ATOM     83  F   UNL A   1      40.218  33.990  34.562  1.00  0.00    -0.203 F 
ATOM     84  F   UNL A   1      37.189  31.640  38.444  1.00  0.00    -0.200 F 
ATOM     85  C   UNL A   1      38.269  33.556  37.586  1.00  0.00     0.200 A 
ATOM     86  F   UNL A   1      39.356  35.446  36.679  1.00  0.00    -0.200 F 
ATOM     87  F   UNL A   1      37.824  34.288  38.617  1.00  0.00    -0.200 F 
ENDBRANCH  53  77
BRANCH  65  88
ATOM     88  C   UNL A   1      44.910  28.216  34.295  1.00  0.00     0.064 A 
ATOM     89  C   UNL A   1      44.987  27.116  35.160  1.00  0.00     0.173 A 
ATOM     90  C   UNL A   1      46.032  29.054  34.193  1.00  0.00     0.173 A 
ATOM     91  F   UNL A   1      43.935  26.295  35.305  1.00  0.00    -0.203 F 
ATOM     92  C   UNL A   1      46.135  26.875  35.912  1.00  0.00     0.198 A 
ATOM     93  C   UNL A   1      47.187  28.795  34.926  1.00  0.00     0.198 A 
ATOM     94  F   UNL A   1      46.010  30.116  33.375  1.00  0.00    -0.203 F 
ATOM     95  F   UNL A   1      46.171  25.843  36.765  1.00  0.00    -0.200 F 
ATOM     96  C   UNL A   1      47.236  27.710  35.788  1.00  0.00     0.200 A 
ATOM     97  F   UNL A   1      48.253  29.596  34.797  1.00  0.00    -0.200 F 
ATOM     98  F   UNL A   1      48.341  27.474  36.507  1.00  0.00    -0.200 F 
ENDBRANCH  65  88
ENDBRANCH  39  40
ENDBRANCH  31  34
ENDBRANCH  29  30
ENDBRANCH  28  29
ENDBRANCH   1  28
TORSDOF 15
ENDMDL
MODEL 3
REMARK VINA RESULT:     -12.1      3.910      9.010
REMARK SMILES COc1ccc(-c2noc(CC(=O)NCCCNC(=O)c3ccc(-c4c5nc(c(-c6c(F)c(F)c(F)c(F)c6F)c6ccc([nH]6)c(-c6c(F)c(F)c(F)c(F)c6F)c6nc(c(-c7c(F)c(F)c(F)c(F)c7F)c7ccc4[nH]7)C=C6)C=C5)cc3)c2-c2ccc(OC)cc2)cc1
REMARK SMILES IDX 15 1 14 2 12 3 13 4 11 6 10 7 7 8 8 9 84 10 9 11 6 12 3 13
REMARK SMILES IDX 4 14 94 15 5 16 93 17 2 18 1 19 85 20 86 21 92 22 87 23
REMARK SMILES IDX 91 24 88 25 89 26 90 27 16 28 17 29 18 30 19 31 20 33 21 34
REMARK SMILES IDX 22 35 83 36 23 37 82 38 24 39 25 40 26 41 76 42 27 43 81 44
REMARK SMILES IDX 75 45 77 46 28 47 80 48 74 49 73 50 29 52 61 53 41 54 60 55
REMARK SMILES IDX 42 56 45 57 59 58 78 59 43 60 44 61 58 63 79 64 46 65 30 66
REMARK SMILES IDX 31 67 39 68 32 69 33 70 37 71 40 72 34 73 35 74 38 75 36 76
REMARK SMILES IDX 62 77 63 78 71 79 64 80 65 81 69 82 72 83 66 84 67 85 70 86
REMARK SMILES IDX 68 87 47 88 48 89 56 90 49 91 50 92 54 93 57 94 51 95 52 96
REMARK SMILES IDX 55 97 53 98
REMARK H PARENT 14 5 18 32 77 51 45 62
REMARK Flexibility Score: inf
ROOT
ATOM      1  C   UNL A   1      33.904  28.800  22.910  1.00  0.00     0.117 C 
ENDROOT
BRANCH   1   2
ATOM      2  N   UNL A   1      33.622  27.727  21.976  1.00  0.00    -0.356 N 
ATOM      3  C   UNL A   1      33.506  26.387  22.208  1.00  0.00     0.227 C 
ATOM      4  O   UNL A   1      33.304  25.649  21.242  1.00  0.00    -0.275 OA
ATOM      5  H   UNL A   1      33.496  28.006  21.040  1.00  0.00     0.163 HD
BRANCH   3   6
ATOM      6  C   UNL A   1      33.539  25.843  23.624  1.00  0.00     0.179 C 
BRANCH   6   7
ATOM      7  C   UNL A   1      32.999  24.465  23.702  1.00  0.00     0.154 A 
ATOM      8  C   UNL A   1      32.448  22.320  23.832  1.00  0.00     0.122 A 
ATOM      9  N   UNL A   1      31.386  22.954  23.317  1.00  0.00    -0.079 NA
ATOM     10  C   UNL A   1      33.499  23.245  24.113  1.00  0.00     0.053 A 
ATOM     11  O   UNL A   1      31.723  24.291  23.261  1.00  0.00    -0.360 OA
BRANCH   8  12
ATOM     12  C   UNL A   1      32.475  20.871  24.001  1.00  0.00     0.005 A 
ATOM     13  C   UNL A   1      32.763  18.090  24.288  1.00  0.00     0.118 A 
ATOM     14  C   UNL A   1      32.466  18.647  23.041  1.00  0.00     0.047 A 
ATOM     15  C   UNL A   1      32.900  18.925  25.396  1.00  0.00     0.047 A 
ATOM     16  C   UNL A   1      32.311  20.028  22.897  1.00  0.00     0.014 A 
ATOM     17  C   UNL A   1      32.753  20.308  25.253  1.00  0.00     0.014 A 
BRANCH  13  18
ATOM     18  O   UNL A   1      32.920  16.730  24.287  1.00  0.00    -0.497 OA
ATOM     19  C   UNL A   1      34.199  16.239  24.672  1.00  0.00     0.278 C 
ENDBRANCH  13  18
ENDBRANCH   8  12
BRANCH  10  20
ATOM     20  C   UNL A   1      34.856  23.013  24.569  1.00  0.00    -0.012 A 
ATOM     21  C   UNL A   1      35.723  22.229  23.799  1.00  0.00     0.013 A 
ATOM     22  C   UNL A   1      35.315  23.547  25.777  1.00  0.00     0.013 A 
ATOM     23  C   UNL A   1      37.030  21.994  24.227  1.00  0.00     0.047 A 
ATOM     24  C   UNL A   1      36.629  23.309  26.203  1.00  0.00     0.047 A 
ATOM     25  C   UNL A   1      37.492  22.533  25.428  1.00  0.00     0.118 A 
BRANCH  25  26
ATOM     26  O   UNL A   1      38.789  22.224  25.724  1.00  0.00    -0.497 OA
ATOM     27  C   UNL A   1      39.403  22.956  26.776  1.00  0.00     0.278 C 
ENDBRANCH  25  26
ENDBRANCH  10  20
ENDBRANCH   6   7
ENDBRANCH   3   6
ENDBRANCH   1   2
BRANCH   1  28
ATOM     28  C   UNL A   1      32.757  29.011  23.898  1.00  0.00     0.042 C 
BRANCH  28  29
ATOM     29  C   UNL A   1      33.212  29.238  25.336  1.00  0.00     0.118 C 
BRANCH  29  30
ATOM     30  N   UNL A   1      32.815  30.546  25.841  1.00  0.00    -0.352 N 
ATOM     31  C   UNL A   1      33.294  31.268  26.904  1.00  0.00     0.251 C 
ATOM     32  H   UNL A   1      32.086  30.979  25.341  1.00  0.00     0.163 HD
ATOM     33  O   UNL A   1      32.686  32.274  27.269  1.00  0.00    -0.269 OA
BRANCH  31  34
ATOM     34  C   UNL A   1      34.516  30.855  27.626  1.00  0.00     0.039 A 
ATOM     35  C   UNL A   1      35.531  31.798  27.817  1.00  0.00     0.014 A 
ATOM     36  C   UNL A   1      34.697  29.541  28.067  1.00  0.00     0.014 A 
ATOM     37  C   UNL A   1      36.699  31.441  28.494  1.00  0.00     0.010 A 
ATOM     38  C   UNL A   1      35.836  29.202  28.798  1.00  0.00     0.010 A 
ATOM     39  C   UNL A   1      36.848  30.147  29.016  1.00  0.00    -0.014 A 
BRANCH  39  40
ATOM     40  C   UNL A   1      38.056  29.766  29.793  1.00  0.00     0.031 A 
ATOM     41  C   UNL A   1      38.270  30.307  31.178  1.00  0.00     0.074 A 
ATOM     42  C   UNL A   1      38.993  28.986  29.221  1.00  0.00     0.049 A 
ATOM     43  N   UNL A   1      39.296  30.155  31.978  1.00  0.00    -0.248 NA
ATOM     44  C   UNL A   1      37.198  31.150  31.731  1.00  0.00     0.031 C 
ATOM     45  C   UNL A   1      38.923  28.435  27.868  1.00  0.00     0.029 A 
ATOM     46  N   UNL A   1      40.197  28.535  29.702  1.00  0.00    -0.354 N 
ATOM     47  C   UNL A   1      39.004  30.897  33.115  1.00  0.00     0.074 A 
ATOM     48  C   UNL A   1      37.723  31.532  32.887  1.00  0.00     0.031 C 
ATOM     49  C   UNL A   1      40.027  27.708  27.631  1.00  0.00     0.029 A 
ATOM     50  C   UNL A   1      40.898  27.772  28.801  1.00  0.00     0.049 A 
ATOM     51  H   UNL A   1      40.526  28.738  30.608  1.00  0.00     0.167 HD
ATOM     52  C   UNL A   1      39.729  31.023  34.251  1.00  0.00     0.037 A 
ATOM     53  C   UNL A   1      42.112  27.197  28.902  1.00  0.00     0.037 A 
ATOM     54  C   UNL A   1      40.988  30.367  34.488  1.00  0.00     0.049 A 
ATOM     55  C   UNL A   1      42.893  27.346  30.178  1.00  0.00     0.074 A 
ATOM     56  C   UNL A   1      41.766  30.379  35.633  1.00  0.00     0.029 A 
ATOM     57  N   UNL A   1      41.654  29.581  33.560  1.00  0.00    -0.354 N 
ATOM     58  N   UNL A   1      42.576  27.996  31.271  1.00  0.00    -0.248 NA
ATOM     59  C   UNL A   1      44.199  26.675  30.237  1.00  0.00     0.031 C 
ATOM     60  C   UNL A   1      42.923  29.632  35.384  1.00  0.00     0.029 A 
ATOM     61  C   UNL A   1      42.844  29.117  34.100  1.00  0.00     0.049 A 
ATOM     62  H   UNL A   1      41.330  29.381  32.652  1.00  0.00     0.167 HD
ATOM     63  C   UNL A   1      43.627  27.794  32.154  1.00  0.00     0.074 A 
ATOM     64  C   UNL A   1      44.586  26.948  31.475  1.00  0.00     0.031 C 
ATOM     65  C   UNL A   1      43.784  28.269  33.415  1.00  0.00     0.037 A 
BRANCH  52  66
ATOM     66  C   UNL A   1      39.178  31.905  35.334  1.00  0.00     0.064 A 
ATOM     67  C   UNL A   1      38.407  31.385  36.384  1.00  0.00     0.173 A 
ATOM     68  C   UNL A   1      39.458  33.280  35.343  1.00  0.00     0.173 A 
ATOM     69  F   UNL A   1      38.103  30.078  36.416  1.00  0.00    -0.203 F 
ATOM     70  C   UNL A   1      37.915  32.212  37.391  1.00  0.00     0.198 A 
ATOM     71  C   UNL A   1      38.987  34.100  36.366  1.00  0.00     0.198 A 
ATOM     72  F   UNL A   1      40.196  33.827  34.367  1.00  0.00    -0.203 F 
ATOM     73  F   UNL A   1      37.145  31.700  38.360  1.00  0.00    -0.200 F 
ATOM     74  C   UNL A   1      38.211  33.567  37.384  1.00  0.00     0.200 A 
ATOM     75  F   UNL A   1      39.284  35.407  36.367  1.00  0.00    -0.200 F 
ATOM     76  F   UNL A   1      37.742  34.361  38.358  1.00  0.00    -0.200 F 
ENDBRANCH  52  66
BRANCH  53  77
ATOM     77  C   UNL A   1      42.651  26.407  27.766  1.00  0.00     0.064 A 
ATOM     78  C   UNL A   1      42.421  25.027  27.678  1.00  0.00     0.173 A 
ATOM     79  C   UNL A   1      43.403  27.010  26.748  1.00  0.00     0.173 A 
ATOM     80  F   UNL A   1      41.724  24.402  28.639  1.00  0.00    -0.203 F 
ATOM     81  C   UNL A   1      42.937  24.278  26.623  1.00  0.00     0.198 A 
ATOM     82  C   UNL A   1      43.897  26.265  25.681  1.00  0.00     0.198 A 
ATOM     83  F   UNL A   1      43.648  28.329  26.787  1.00  0.00    -0.203 F 
ATOM     84  F   UNL A   1      42.737  22.953  26.585  1.00  0.00    -0.200 F 
ATOM     85  C   UNL A   1      43.670  24.898  25.623  1.00  0.00     0.200 A 
ATOM     86  F   UNL A   1      44.596  26.869  24.710  1.00  0.00    -0.200 F 
ATOM     87  F   UNL A   1      44.164  24.176  24.607  1.00  0.00    -0.200 F 
ENDBRANCH  53  77
BRANCH  65  88
ATOM     88  C   UNL A   1      45.022  27.857  34.154  1.00  0.00     0.064 A 
ATOM     89  C   UNL A   1      46.191  28.631  34.118  1.00  0.00     0.173 A 
ATOM     90  C   UNL A   1      45.027  26.694  34.939  1.00  0.00     0.173 A 
ATOM     91  F   UNL A   1      46.242  29.743  33.369  1.00  0.00    -0.203 F 
ATOM     92  C   UNL A   1      47.327  28.244  34.825  1.00  0.00     0.198 A 
ATOM     93  C   UNL A   1      46.156  26.325  35.665  1.00  0.00     0.198 A 
ATOM     94  F   UNL A   1      43.932  25.922  35.010  1.00  0.00    -0.203 F 
ATOM     95  F   UNL A   1      48.447  28.976  34.743  1.00  0.00    -0.200 F 
ATOM     96  C   UNL A   1      47.306  27.096  35.603  1.00  0.00     0.200 A 
ATOM     97  F   UNL A   1      46.129  25.221  36.425  1.00  0.00    -0.200 F 
ATOM     98  F   UNL A   1      48.398  26.729  36.287  1.00  0.00    -0.200 F 
ENDBRANCH  65  88
ENDBRANCH  39  40
ENDBRANCH  31  34
ENDBRANCH  29  30
ENDBRANCH  28  29
ENDBRANCH   1  28
TORSDOF 15
ENDMDL
