MODEL 1
REMARK VINA RESULT:     -12.1      0.000      0.000
REMARK SMILES O=C(CCC(=O)Nc1ncc([N+](=O)[O-])s1)NCCCNC(=O)c1ccc(-c2c3nc(c(-c4c(F)c(F)c(F)c(F)c4F)c4ccc([nH]4)c(-c4c(F)c(F)c(F)c(F)c4F)c4nc(c(-c5c(F)c(F)c(F)c(F)c5F)c5ccc2[nH]5)C=C4)C=C3)cc1
REMARK SMILES IDX 17 1 16 2 1 3 2 4 3 6 4 7 5 8 6 9 7 10 8 12 9 13 15 14 10 15
REMARK SMILES IDX 11 16 12 17 13 18 14 19 18 20 19 21 20 22 21 23 22 25 23 26
REMARK SMILES IDX 24 27 85 28 25 29 84 30 26 31 27 32 28 33 78 34 29 35 83 36
REMARK SMILES IDX 77 37 79 38 30 39 82 40 76 41 75 42 31 44 63 45 43 46 62 47
REMARK SMILES IDX 44 48 47 49 61 50 80 51 45 52 46 53 60 55 81 56 48 57 32 58
REMARK SMILES IDX 33 59 41 60 34 61 35 62 39 63 42 64 36 65 37 66 40 67 38 68
REMARK SMILES IDX 64 69 65 70 73 71 66 72 67 73 71 74 74 75 68 76 69 77 72 78
REMARK SMILES IDX 70 79 49 80 50 81 58 82 51 83 52 84 56 85 59 86 53 87 54 88
REMARK SMILES IDX 57 89 55 90
REMARK H PARENT 16 5 7 11 20 24 79 43 47 54
REMARK Flexibility Score: inf
ROOT
ATOM      1  C   UNL A   1      31.875  30.242  26.881  1.00  0.00     0.117 C 
ENDROOT
BRANCH   1   2
ATOM      2  N   UNL A   1      32.316  29.396  25.793  1.00  0.00    -0.356 N 
ATOM      3  O   UNL A   1      34.457  29.091  26.576  1.00  0.00    -0.275 OA
ATOM      4  C   UNL A   1      33.567  28.815  25.780  1.00  0.00     0.220 C 
ATOM      5  H   UNL A   1      31.706  29.231  25.039  1.00  0.00     0.163 HD
BRANCH   4   6
ATOM      6  C   UNL A   1      33.736  27.764  24.704  1.00  0.00     0.110 C 
BRANCH   6   7
ATOM      7  C   UNL A   1      33.614  28.345  23.297  1.00  0.00     0.110 C 
BRANCH   7   8
ATOM      8  C   UNL A   1      32.989  27.366  22.321  1.00  0.00     0.226 C 
ATOM      9  O   UNL A   1      33.706  26.533  21.752  1.00  0.00    -0.275 OA
ATOM     10  N   UNL A   1      31.674  27.397  21.976  1.00  0.00    -0.302 N 
ATOM     11  H   UNL A   1      31.329  26.624  21.473  1.00  0.00     0.172 HD
BRANCH  10  12
ATOM     12  C   UNL A   1      30.783  28.391  22.256  1.00  0.00     0.195 A 
ATOM     13  N   UNL A   1      30.683  29.576  21.717  1.00  0.00    -0.221 NA
ATOM     14  S   UNL A   1      29.543  27.946  23.346  1.00  0.00    -0.024 S 
ATOM     15  C   UNL A   1      29.463  30.133  22.054  1.00  0.00     0.212 A 
ATOM     16  C   UNL A   1      28.701  29.358  22.895  1.00  0.00     0.345 A 
BRANCH  16  17
ATOM     17  N   UNL A   1      27.364  29.613  23.322  1.00  0.00     0.076 N 
ATOM     18  O   UNL A   1      27.067  30.769  23.646  1.00  0.00    -0.257 OA
ATOM     19  O   UNL A   1      26.604  28.638  23.357  1.00  0.00    -0.257 OA
ENDBRANCH  16  17
ENDBRANCH  10  12
ENDBRANCH   7   8
ENDBRANCH   6   7
ENDBRANCH   4   6
ENDBRANCH   1   2
BRANCH   1  20
ATOM     20  C   UNL A   1      31.902  31.724  26.556  1.00  0.00     0.042 C 
BRANCH  20  21
ATOM     21  C   UNL A   1      32.859  32.551  27.403  1.00  0.00     0.118 C 
BRANCH  21  22
ATOM     22  N   UNL A   1      32.421  33.916  27.661  1.00  0.00    -0.352 N 
ATOM     23  C   UNL A   1      32.959  34.857  28.514  1.00  0.00     0.251 C 
ATOM     24  H   UNL A   1      31.628  34.209  27.156  1.00  0.00     0.163 HD
ATOM     25  O   UNL A   1      32.424  35.952  28.634  1.00  0.00    -0.269 OA
BRANCH  23  26
ATOM     26  C   UNL A   1      34.151  34.516  29.323  1.00  0.00     0.039 A 
ATOM     27  C   UNL A   1      33.968  34.049  30.627  1.00  0.00     0.014 A 
ATOM     28  C   UNL A   1      35.433  34.589  28.778  1.00  0.00     0.014 A 
ATOM     29  C   UNL A   1      35.062  33.553  31.344  1.00  0.00     0.010 A 
ATOM     30  C   UNL A   1      36.503  34.011  29.455  1.00  0.00     0.010 A 
ATOM     31  C   UNL A   1      36.327  33.475  30.739  1.00  0.00    -0.014 A 
BRANCH  31  32
ATOM     32  C   UNL A   1      37.475  32.816  31.416  1.00  0.00     0.031 A 
ATOM     33  C   UNL A   1      38.186  31.669  30.752  1.00  0.00     0.074 A 
ATOM     34  C   UNL A   1      37.816  33.182  32.667  1.00  0.00     0.049 A 
ATOM     35  N   UNL A   1      39.125  30.889  31.226  1.00  0.00    -0.248 NA
ATOM     36  C   UNL A   1      37.757  31.328  29.387  1.00  0.00     0.031 C 
ATOM     37  C   UNL A   1      37.163  34.233  33.452  1.00  0.00     0.029 A 
ATOM     38  N   UNL A   1      38.788  32.698  33.508  1.00  0.00    -0.354 N 
ATOM     39  C   UNL A   1      39.372  29.949  30.236  1.00  0.00     0.074 A 
ATOM     40  C   UNL A   1      38.454  30.226  29.151  1.00  0.00     0.031 C 
ATOM     41  C   UNL A   1      37.769  34.333  34.646  1.00  0.00     0.029 A 
ATOM     42  C   UNL A   1      38.828  33.331  34.727  1.00  0.00     0.049 A 
ATOM     43  H   UNL A   1      39.398  31.968  33.261  1.00  0.00     0.167 HD
ATOM     44  C   UNL A   1      40.295  28.958  30.219  1.00  0.00     0.037 A 
ATOM     45  C   UNL A   1      39.627  33.125  35.791  1.00  0.00     0.037 A 
ATOM     46  C   UNL A   1      41.243  28.716  31.273  1.00  0.00     0.049 A 
ATOM     47  C   UNL A   1      40.678  32.052  35.728  1.00  0.00     0.074 A 
ATOM     48  C   UNL A   1      42.268  27.786  31.316  1.00  0.00     0.029 A 
ATOM     49  N   UNL A   1      41.288  29.416  32.469  1.00  0.00    -0.354 N 
ATOM     50  N   UNL A   1      40.944  31.211  34.759  1.00  0.00    -0.248 NA
ATOM     51  C   UNL A   1      41.545  31.904  36.905  1.00  0.00     0.031 C 
ATOM     52  C   UNL A   1      42.918  27.907  32.548  1.00  0.00     0.029 A 
ATOM     53  C   UNL A   1      42.319  28.934  33.260  1.00  0.00     0.049 A 
ATOM     54  H   UNL A   1      40.678  30.147  32.719  1.00  0.00     0.167 HD
ATOM     55  C   UNL A   1      42.019  30.452  35.197  1.00  0.00     0.074 A 
ATOM     56  C   UNL A   1      42.368  30.941  36.515  1.00  0.00     0.031 C 
ATOM     57  C   UNL A   1      42.660  29.441  34.563  1.00  0.00     0.037 A 
BRANCH  44  58
ATOM     58  C   UNL A   1      40.331  28.070  29.012  1.00  0.00     0.064 A 
ATOM     59  C   UNL A   1      41.099  28.397  27.883  1.00  0.00     0.173 A 
ATOM     60  C   UNL A   1      39.612  26.865  28.991  1.00  0.00     0.173 A 
ATOM     61  F   UNL A   1      41.793  29.544  27.850  1.00  0.00    -0.203 F 
ATOM     62  C   UNL A   1      41.122  27.565  26.768  1.00  0.00     0.198 A 
ATOM     63  C   UNL A   1      39.660  26.023  27.884  1.00  0.00     0.198 A 
ATOM     64  F   UNL A   1      38.866  26.505  30.046  1.00  0.00    -0.203 F 
ATOM     65  F   UNL A   1      41.822  27.923  25.683  1.00  0.00    -0.200 F 
ATOM     66  C   UNL A   1      40.408  26.377  26.771  1.00  0.00     0.200 A 
ATOM     67  F   UNL A   1      38.977  24.870  27.892  1.00  0.00    -0.200 F 
ATOM     68  F   UNL A   1      40.433  25.576  25.696  1.00  0.00    -0.200 F 
ENDBRANCH  44  58
BRANCH  45  69
ATOM     69  C   UNL A   1      39.491  33.982  36.996  1.00  0.00     0.064 A 
ATOM     70  C   UNL A   1      40.123  35.233  37.058  1.00  0.00     0.173 A 
ATOM     71  C   UNL A   1      38.737  33.575  38.105  1.00  0.00     0.173 A 
ATOM     72  F   UNL A   1      40.873  35.654  36.030  1.00  0.00    -0.203 F 
ATOM     73  C   UNL A   1      40.019  36.036  38.192  1.00  0.00     0.198 A 
ATOM     74  C   UNL A   1      38.615  34.388  39.229  1.00  0.00     0.198 A 
ATOM     75  F   UNL A   1      38.110  32.389  38.092  1.00  0.00    -0.203 F 
ATOM     76  F   UNL A   1      40.666  37.208  38.241  1.00  0.00    -0.200 F 
ATOM     77  C   UNL A   1      39.261  35.616  39.274  1.00  0.00     0.200 A 
ATOM     78  F   UNL A   1      37.873  33.985  40.270  1.00  0.00    -0.200 F 
ATOM     79  F   UNL A   1      39.161  36.389  40.364  1.00  0.00    -0.200 F 
ENDBRANCH  45  69
BRANCH  57  80
ATOM     80  C   UNL A   1      43.825  28.816  35.270  1.00  0.00     0.064 A 
ATOM     81  C   UNL A   1      45.134  29.279  35.078  1.00  0.00     0.173 A 
ATOM     82  C   UNL A   1      43.621  27.768  36.181  1.00  0.00     0.173 A 
ATOM     83  F   UNL A   1      45.379  30.268  34.206  1.00  0.00    -0.203 F 
ATOM     84  C   UNL A   1      46.202  28.702  35.759  1.00  0.00     0.198 A 
ATOM     85  C   UNL A   1      44.689  27.209  36.878  1.00  0.00     0.198 A 
ATOM     86  F   UNL A   1      42.386  27.293  36.401  1.00  0.00    -0.203 F 
ATOM     87  F   UNL A   1      47.451  29.134  35.533  1.00  0.00    -0.200 F 
ATOM     88  C   UNL A   1      45.978  27.673  36.663  1.00  0.00     0.200 A 
ATOM     89  F   UNL A   1      44.470  26.221  37.756  1.00  0.00    -0.200 F 
ATOM     90  F   UNL A   1      47.008  27.123  37.321  1.00  0.00    -0.200 F 
ENDBRANCH  57  80
ENDBRANCH  31  32
ENDBRANCH  23  26
ENDBRANCH  21  22
ENDBRANCH  20  21
ENDBRANCH   1  20
TORSDOF 14
ENDMDL
MODEL 2
REMARK VINA RESULT:     -12.1      0.522      7.494
REMARK SMILES O=C(CCC(=O)Nc1ncc([N+](=O)[O-])s1)NCCCNC(=O)c1ccc(-c2c3nc(c(-c4c(F)c(F)c(F)c(F)c4F)c4ccc([nH]4)c(-c4c(F)c(F)c(F)c(F)c4F)c4nc(c(-c5c(F)c(F)c(F)c(F)c5F)c5ccc2[nH]5)C=C4)C=C3)cc1
REMARK SMILES IDX 17 1 16 2 1 3 2 4 3 6 4 7 5 8 6 9 7 10 8 12 9 13 15 14 10 15
REMARK SMILES IDX 11 16 12 17 13 18 14 19 18 20 19 21 20 22 21 23 22 25 23 26
REMARK SMILES IDX 24 27 85 28 25 29 84 30 26 31 27 32 28 33 78 34 29 35 83 36
REMARK SMILES IDX 77 37 79 38 30 39 82 40 76 41 75 42 31 44 63 45 43 46 62 47
REMARK SMILES IDX 44 48 47 49 61 50 80 51 45 52 46 53 60 55 81 56 48 57 32 58
REMARK SMILES IDX 33 59 41 60 34 61 35 62 39 63 42 64 36 65 37 66 40 67 38 68
REMARK SMILES IDX 64 69 65 70 73 71 66 72 67 73 71 74 74 75 68 76 69 77 72 78
REMARK SMILES IDX 70 79 49 80 50 81 58 82 51 83 52 84 56 85 59 86 53 87 54 88
REMARK SMILES IDX 57 89 55 90
REMARK H PARENT 16 5 7 11 20 24 79 43 47 54
REMARK Flexibility Score: inf
ROOT
ATOM      1  C   UNL A   1      31.773  30.439  26.787  1.00  0.00     0.117 C 
ENDROOT
BRANCH   1   2
ATOM      2  N   UNL A   1      32.438  29.762  25.695  1.00  0.00    -0.356 N 
ATOM      3  O   UNL A   1      34.263  29.073  26.911  1.00  0.00    -0.275 OA
ATOM      4  C   UNL A   1      33.606  29.053  25.877  1.00  0.00     0.220 C 
ATOM      5  H   UNL A   1      32.045  29.810  24.793  1.00  0.00     0.163 HD
BRANCH   4   6
ATOM      6  C   UNL A   1      33.993  28.204  24.684  1.00  0.00     0.110 C 
BRANCH   6   7
ATOM      7  C   UNL A   1      33.528  28.810  23.362  1.00  0.00     0.110 C 
BRANCH   7   8
ATOM      8  C   UNL A   1      32.999  27.761  22.402  1.00  0.00     0.226 C 
ATOM      9  O   UNL A   1      33.788  26.974  21.867  1.00  0.00    -0.275 OA
ATOM     10  N   UNL A   1      31.691  27.681  22.036  1.00  0.00    -0.302 N 
ATOM     11  H   UNL A   1      31.417  26.871  21.548  1.00  0.00     0.172 HD
BRANCH  10  12
ATOM     12  C   UNL A   1      30.721  28.608  22.275  1.00  0.00     0.195 A 
ATOM     13  N   UNL A   1      30.458  29.707  21.619  1.00  0.00    -0.221 NA
ATOM     14  S   UNL A   1      29.612  28.175  23.504  1.00  0.00    -0.024 S 
ATOM     15  C   UNL A   1      29.212  30.177  21.990  1.00  0.00     0.212 A 
ATOM     16  C   UNL A   1      28.596  29.436  22.970  1.00  0.00     0.345 A 
BRANCH  16  17
ATOM     17  N   UNL A   1      27.272  29.606  23.472  1.00  0.00     0.076 N 
ATOM     18  O   UNL A   1      26.529  28.617  23.501  1.00  0.00    -0.257 OA
ATOM     19  O   UNL A   1      26.960  30.750  23.821  1.00  0.00    -0.257 OA
ENDBRANCH  16  17
ENDBRANCH  10  12
ENDBRANCH   7   8
ENDBRANCH   6   7
ENDBRANCH   4   6
ENDBRANCH   1   2
BRANCH   1  20
ATOM     20  C   UNL A   1      31.670  31.942  26.606  1.00  0.00     0.042 C 
BRANCH  20  21
ATOM     21  C   UNL A   1      32.789  32.746  27.253  1.00  0.00     0.118 C 
BRANCH  21  22
ATOM     22  N   UNL A   1      32.428  34.109  27.619  1.00  0.00    -0.352 N 
ATOM     23  C   UNL A   1      33.004  34.942  28.555  1.00  0.00     0.251 C 
ATOM     24  H   UNL A   1      31.664  34.490  27.128  1.00  0.00     0.163 HD
ATOM     25  O   UNL A   1      32.533  36.053  28.760  1.00  0.00    -0.269 OA
BRANCH  23  26
ATOM     26  C   UNL A   1      34.157  34.462  29.350  1.00  0.00     0.039 A 
ATOM     27  C   UNL A   1      33.917  33.835  30.575  1.00  0.00     0.014 A 
ATOM     28  C   UNL A   1      35.460  34.567  28.861  1.00  0.00     0.014 A 
ATOM     29  C   UNL A   1      34.971  33.217  31.255  1.00  0.00     0.010 A 
ATOM     30  C   UNL A   1      36.490  33.875  29.490  1.00  0.00     0.010 A 
ATOM     31  C   UNL A   1      36.254  33.181  30.686  1.00  0.00    -0.014 A 
BRANCH  31  32
ATOM     32  C   UNL A   1      37.361  32.405  31.307  1.00  0.00     0.031 A 
ATOM     33  C   UNL A   1      37.842  32.749  32.689  1.00  0.00     0.074 A 
ATOM     34  C   UNL A   1      38.000  31.460  30.590  1.00  0.00     0.049 A 
ATOM     35  N   UNL A   1      38.867  32.275  33.352  1.00  0.00    -0.248 NA
ATOM     36  C   UNL A   1      37.095  33.793  33.407  1.00  0.00     0.031 C 
ATOM     37  C   UNL A   1      37.679  31.076  29.213  1.00  0.00     0.029 A 
ATOM     38  N   UNL A   1      39.065  30.657  30.915  1.00  0.00    -0.354 N 
ATOM     39  C   UNL A   1      38.907  32.983  34.544  1.00  0.00     0.074 A 
ATOM     40  C   UNL A   1      37.832  33.952  34.497  1.00  0.00     0.031 C 
ATOM     41  C   UNL A   1      38.509  30.096  28.823  1.00  0.00     0.029 A 
ATOM     42  C   UNL A   1      39.444  29.806  29.906  1.00  0.00     0.049 A 
ATOM     43  H   UNL A   1      39.515  30.688  31.790  1.00  0.00     0.167 HD
ATOM     44  C   UNL A   1      39.747  32.828  35.595  1.00  0.00     0.037 A 
ATOM     45  C   UNL A   1      40.436  28.896  29.857  1.00  0.00     0.037 A 
ATOM     46  C   UNL A   1      40.781  31.831  35.666  1.00  0.00     0.049 A 
ATOM     47  C   UNL A   1      41.324  28.707  31.056  1.00  0.00     0.074 A 
ATOM     48  C   UNL A   1      41.632  31.543  36.718  1.00  0.00     0.029 A 
ATOM     49  N   UNL A   1      41.097  30.949  34.643  1.00  0.00    -0.354 N 
ATOM     50  N   UNL A   1      41.309  29.342  32.203  1.00  0.00    -0.248 NA
ATOM     51  C   UNL A   1      42.361  27.671  30.956  1.00  0.00     0.031 C 
ATOM     52  C   UNL A   1      42.481  30.504  36.324  1.00  0.00     0.029 A 
ATOM     53  C   UNL A   1      42.135  30.122  35.037  1.00  0.00     0.049 A 
ATOM     54  H   UNL A   1      40.649  30.916  33.767  1.00  0.00     0.167 HD
ATOM     55  C   UNL A   1      42.315  28.768  32.967  1.00  0.00     0.074 A 
ATOM     56  C   UNL A   1      42.912  27.725  32.160  1.00  0.00     0.031 C 
ATOM     57  C   UNL A   1      42.708  29.079  34.226  1.00  0.00     0.037 A 
BRANCH  44  58
ATOM     58  C   UNL A   1      39.571  33.753  36.762  1.00  0.00     0.064 A 
ATOM     59  C   UNL A   1      38.778  33.400  37.865  1.00  0.00     0.173 A 
ATOM     60  C   UNL A   1      40.222  34.996  36.791  1.00  0.00     0.173 A 
ATOM     61  F   UNL A   1      38.124  32.229  37.877  1.00  0.00    -0.203 F 
ATOM     62  C   UNL A   1      38.619  34.270  38.940  1.00  0.00     0.198 A 
ATOM     63  C   UNL A   1      40.083  35.850  37.882  1.00  0.00     0.198 A 
ATOM     64  F   UNL A   1      40.995  35.379  35.764  1.00  0.00    -0.203 F 
ATOM     65  F   UNL A   1      37.817  33.932  39.959  1.00  0.00    -0.200 F 
ATOM     66  C   UNL A   1      39.276  35.490  38.951  1.00  0.00     0.200 A 
ATOM     67  F   UNL A   1      40.727  37.026  37.895  1.00  0.00    -0.200 F 
ATOM     68  F   UNL A   1      39.125  36.325  39.988  1.00  0.00    -0.200 F 
ENDBRANCH  44  58
BRANCH  45  69
ATOM     69  C   UNL A   1      40.618  28.063  28.642  1.00  0.00     0.064 A 
ATOM     70  C   UNL A   1      41.420  28.512  27.582  1.00  0.00     0.173 A 
ATOM     71  C   UNL A   1      40.001  26.812  28.510  1.00  0.00     0.173 A 
ATOM     72  F   UNL A   1      42.012  29.713  27.654  1.00  0.00    -0.203 F 
ATOM     73  C   UNL A   1      41.582  27.748  26.429  1.00  0.00     0.198 A 
ATOM     74  C   UNL A   1      40.181  26.038  27.366  1.00  0.00     0.198 A 
ATOM     75  F   UNL A   1      39.228  26.338  29.499  1.00  0.00    -0.203 F 
ATOM     76  F   UNL A   1      42.319  28.218  25.414  1.00  0.00    -0.200 F 
ATOM     77  C   UNL A   1      40.967  26.509  26.323  1.00  0.00     0.200 A 
ATOM     78  F   UNL A   1      39.595  24.837  27.272  1.00  0.00    -0.200 F 
ATOM     79  F   UNL A   1      41.123  25.773  25.214  1.00  0.00    -0.200 F 
ENDBRANCH  45  69
BRANCH  57  80
ATOM     80  C   UNL A   1      43.814  28.261  34.822  1.00  0.00     0.064 A 
ATOM     81  C   UNL A   1      45.157  28.651  34.711  1.00  0.00     0.173 A 
ATOM     82  C   UNL A   1      43.522  27.095  35.545  1.00  0.00     0.173 A 
ATOM     83  F   UNL A   1      45.484  29.750  34.015  1.00  0.00    -0.203 F 
ATOM     84  C   UNL A   1      46.170  27.891  35.288  1.00  0.00     0.198 A 
ATOM     85  C   UNL A   1      44.536  26.351  36.141  1.00  0.00     0.198 A 
ATOM     86  F   UNL A   1      42.252  26.683  35.682  1.00  0.00    -0.203 F 
ATOM     87  F   UNL A   1      47.449  28.261  35.138  1.00  0.00    -0.200 F 
ATOM     88  C   UNL A   1      45.859  26.747  36.008  1.00  0.00     0.200 A 
ATOM     89  F   UNL A   1      44.234  25.250  36.843  1.00  0.00    -0.200 F 
ATOM     90  F   UNL A   1      46.836  26.020  36.567  1.00  0.00    -0.200 F 
ENDBRANCH  57  80
ENDBRANCH  31  32
ENDBRANCH  23  26
ENDBRANCH  21  22
ENDBRANCH  20  21
ENDBRANCH   1  20
TORSDOF 14
ENDMDL
MODEL 3
REMARK VINA RESULT:     -12.1      6.991     12.034
REMARK SMILES O=C(CCC(=O)Nc1ncc([N+](=O)[O-])s1)NCCCNC(=O)c1ccc(-c2c3nc(c(-c4c(F)c(F)c(F)c(F)c4F)c4ccc([nH]4)c(-c4c(F)c(F)c(F)c(F)c4F)c4nc(c(-c5c(F)c(F)c(F)c(F)c5F)c5ccc2[nH]5)C=C4)C=C3)cc1
REMARK SMILES IDX 17 1 16 2 1 3 2 4 3 6 4 7 5 8 6 9 7 10 8 12 9 13 15 14 10 15
REMARK SMILES IDX 11 16 12 17 13 18 14 19 18 20 19 21 20 22 21 23 22 25 23 26
REMARK SMILES IDX 24 27 85 28 25 29 84 30 26 31 27 32 28 33 78 34 29 35 83 36
REMARK SMILES IDX 77 37 79 38 30 39 82 40 76 41 75 42 31 44 63 45 43 46 62 47
REMARK SMILES IDX 44 48 47 49 61 50 80 51 45 52 46 53 60 55 81 56 48 57 32 58
REMARK SMILES IDX 33 59 41 60 34 61 35 62 39 63 42 64 36 65 37 66 40 67 38 68
REMARK SMILES IDX 64 69 65 70 73 71 66 72 67 73 71 74 74 75 68 76 69 77 72 78
REMARK SMILES IDX 70 79 49 80 50 81 58 82 51 83 52 84 56 85 59 86 53 87 54 88
REMARK SMILES IDX 57 89 55 90
REMARK H PARENT 16 5 7 11 20 24 79 43 47 54
REMARK Flexibility Score: inf
ROOT
ATOM      1  C   UNL A   1      37.330  21.911  24.763  1.00  0.00     0.117 C 
ENDROOT
BRANCH   1   2
ATOM      2  N   UNL A   1      35.946  21.823  24.349  1.00  0.00    -0.356 N 
ATOM      3  O   UNL A   1      35.508  24.076  24.489  1.00  0.00    -0.275 OA
ATOM      4  C   UNL A   1      35.166  22.945  24.164  1.00  0.00     0.220 C 
ATOM      5  H   UNL A   1      35.549  20.935  24.197  1.00  0.00     0.163 HD
BRANCH   4   6
ATOM      6  C   UNL A   1      33.846  22.660  23.479  1.00  0.00     0.110 C 
BRANCH   6   7
ATOM      7  C   UNL A   1      33.130  21.450  24.074  1.00  0.00     0.110 C 
BRANCH   7   8
ATOM      8  C   UNL A   1      32.348  20.673  23.032  1.00  0.00     0.226 C 
ATOM      9  O   UNL A   1      31.695  21.287  22.179  1.00  0.00    -0.275 OA
ATOM     10  N   UNL A   1      32.265  19.315  23.024  1.00  0.00    -0.302 N 
ATOM     11  H   UNL A   1      31.881  18.900  22.219  1.00  0.00     0.172 HD
BRANCH  10  12
ATOM     12  C   UNL A   1      32.660  18.471  24.019  1.00  0.00     0.195 A 
ATOM     13  N   UNL A   1      32.170  18.338  25.223  1.00  0.00    -0.221 NA
ATOM     14  S   UNL A   1      33.850  17.333  23.555  1.00  0.00    -0.024 S 
ATOM     15  C   UNL A   1      32.640  17.164  25.783  1.00  0.00     0.212 A 
ATOM     16  C   UNL A   1      33.526  16.474  24.991  1.00  0.00     0.345 A 
BRANCH  16  17
ATOM     17  N   UNL A   1      34.087  15.188  25.248  1.00  0.00     0.076 N 
ATOM     18  O   UNL A   1      33.314  14.257  25.504  1.00  0.00    -0.257 OA
ATOM     19  O   UNL A   1      35.320  15.112  25.217  1.00  0.00    -0.257 OA
ENDBRANCH  16  17
ENDBRANCH  10  12
ENDBRANCH   7   8
ENDBRANCH   6   7
ENDBRANCH   4   6
ENDBRANCH   1   2
BRANCH   1  20
ATOM     20  C   UNL A   1      37.992  20.562  24.978  1.00  0.00     0.042 C 
BRANCH  20  21
ATOM     21  C   UNL A   1      39.154  20.566  25.962  1.00  0.00     0.118 C 
BRANCH  21  22
ATOM     22  N   UNL A   1      40.029  19.403  25.876  1.00  0.00    -0.352 N 
ATOM     23  C   UNL A   1      41.393  19.324  26.064  1.00  0.00     0.251 C 
ATOM     24  H   UNL A   1      39.583  18.555  25.654  1.00  0.00     0.163 HD
ATOM     25  O   UNL A   1      41.972  18.257  25.907  1.00  0.00    -0.269 OA
BRANCH  23  26
ATOM     26  C   UNL A   1      42.159  20.546  26.399  1.00  0.00     0.039 A 
ATOM     27  C   UNL A   1      42.672  21.325  25.360  1.00  0.00     0.014 A 
ATOM     28  C   UNL A   1      42.309  20.958  27.724  1.00  0.00     0.014 A 
ATOM     29  C   UNL A   1      43.240  22.571  25.644  1.00  0.00     0.010 A 
ATOM     30  C   UNL A   1      42.789  22.235  27.997  1.00  0.00     0.010 A 
ATOM     31  C   UNL A   1      43.247  23.061  26.960  1.00  0.00    -0.014 A 
BRANCH  31  32
ATOM     32  C   UNL A   1      43.704  24.440  27.276  1.00  0.00     0.031 A 
ATOM     33  C   UNL A   1      42.731  25.454  27.810  1.00  0.00     0.074 A 
ATOM     34  C   UNL A   1      44.968  24.809  26.991  1.00  0.00     0.049 A 
ATOM     35  N   UNL A   1      42.904  26.733  28.032  1.00  0.00    -0.248 NA
ATOM     36  C   UNL A   1      41.369  24.976  28.095  1.00  0.00     0.031 C 
ATOM     37  C   UNL A   1      45.995  23.943  26.407  1.00  0.00     0.029 A 
ATOM     38  N   UNL A   1      45.603  26.018  27.139  1.00  0.00    -0.354 N 
ATOM     39  C   UNL A   1      41.671  27.215  28.447  1.00  0.00     0.074 A 
ATOM     40  C   UNL A   1      40.745  26.103  28.404  1.00  0.00     0.031 C 
ATOM     41  C   UNL A   1      47.135  24.638  26.272  1.00  0.00     0.029 A 
ATOM     42  C   UNL A   1      46.912  26.008  26.725  1.00  0.00     0.049 A 
ATOM     43  H   UNL A   1      45.161  26.816  27.508  1.00  0.00     0.167 HD
ATOM     44  C   UNL A   1      41.342  28.466  28.850  1.00  0.00     0.037 A 
ATOM     45  C   UNL A   1      47.831  26.993  26.710  1.00  0.00     0.037 A 
ATOM     46  C   UNL A   1      42.272  29.558  28.945  1.00  0.00     0.049 A 
ATOM     47  C   UNL A   1      47.455  28.360  27.211  1.00  0.00     0.074 A 
ATOM     48  C   UNL A   1      42.053  30.841  29.416  1.00  0.00     0.029 A 
ATOM     49  N   UNL A   1      43.605  29.493  28.569  1.00  0.00    -0.354 N 
ATOM     50  N   UNL A   1      46.300  28.786  27.662  1.00  0.00    -0.248 NA
ATOM     51  C   UNL A   1      48.511  29.381  27.208  1.00  0.00     0.031 C 
ATOM     52  C   UNL A   1      43.247  31.560  29.302  1.00  0.00     0.029 A 
ATOM     53  C   UNL A   1      44.219  30.714  28.791  1.00  0.00     0.049 A 
ATOM     54  H   UNL A   1      44.050  28.695  28.199  1.00  0.00     0.167 HD
ATOM     55  C   UNL A   1      46.497  30.113  28.017  1.00  0.00     0.074 A 
ATOM     56  C   UNL A   1      47.885  30.420  27.742  1.00  0.00     0.031 C 
ATOM     57  C   UNL A   1      45.605  30.998  28.524  1.00  0.00     0.037 A 
BRANCH  44  58
ATOM     58  C   UNL A   1      39.914  28.713  29.235  1.00  0.00     0.064 A 
ATOM     59  C   UNL A   1      39.460  28.503  30.546  1.00  0.00     0.173 A 
ATOM     60  C   UNL A   1      38.994  29.190  28.289  1.00  0.00     0.173 A 
ATOM     61  F   UNL A   1      40.299  28.034  31.483  1.00  0.00    -0.203 F 
ATOM     62  C   UNL A   1      38.131  28.733  30.889  1.00  0.00     0.198 A 
ATOM     63  C   UNL A   1      37.672  29.446  28.644  1.00  0.00     0.198 A 
ATOM     64  F   UNL A   1      39.378  29.412  27.024  1.00  0.00    -0.203 F 
ATOM     65  F   UNL A   1      37.709  28.477  32.136  1.00  0.00    -0.200 F 
ATOM     66  C   UNL A   1      37.240  29.209  29.940  1.00  0.00     0.200 A 
ATOM     67  F   UNL A   1      36.813  29.916  27.728  1.00  0.00    -0.200 F 
ATOM     68  F   UNL A   1      35.961  29.433  30.273  1.00  0.00    -0.200 F 
ENDBRANCH  44  58
BRANCH  45  69
ATOM     69  C   UNL A   1      49.211  26.713  26.239  1.00  0.00     0.064 A 
ATOM     70  C   UNL A   1      49.576  26.962  24.908  1.00  0.00     0.173 A 
ATOM     71  C   UNL A   1      50.187  26.192  27.098  1.00  0.00     0.173 A 
ATOM     72  F   UNL A   1      48.668  27.440  24.045  1.00  0.00    -0.203 F 
ATOM     73  C   UNL A   1      50.862  26.684  24.451  1.00  0.00     0.198 A 
ATOM     74  C   UNL A   1      51.480  25.935  26.646  1.00  0.00     0.198 A 
ATOM     75  F   UNL A   1      49.888  25.941  28.381  1.00  0.00    -0.203 F 
ATOM     76  F   UNL A   1      51.173  26.894  23.165  1.00  0.00    -0.200 F 
ATOM     77  C   UNL A   1      51.815  26.176  25.321  1.00  0.00     0.200 A 
ATOM     78  F   UNL A   1      52.401  25.454  27.491  1.00  0.00    -0.200 F 
ATOM     79  F   UNL A   1      53.052  25.910  24.881  1.00  0.00    -0.200 F 
ENDBRANCH  45  69
BRANCH  57  80
ATOM     80  C   UNL A   1      46.110  32.372  28.848  1.00  0.00     0.064 A 
ATOM     81  C   UNL A   1      46.659  32.675  30.102  1.00  0.00     0.173 A 
ATOM     82  C   UNL A   1      46.078  33.385  27.878  1.00  0.00     0.173 A 
ATOM     83  F   UNL A   1      46.696  31.743  31.066  1.00  0.00    -0.203 F 
ATOM     84  C   UNL A   1      47.143  33.951  30.379  1.00  0.00     0.198 A 
ATOM     85  C   UNL A   1      46.585  34.653  28.151  1.00  0.00     0.198 A 
ATOM     86  F   UNL A   1      45.565  33.142  26.662  1.00  0.00    -0.203 F 
ATOM     87  F   UNL A   1      47.630  34.230  31.596  1.00  0.00    -0.200 F 
ATOM     88  C   UNL A   1      47.112  34.935  29.402  1.00  0.00     0.200 A 
ATOM     89  F   UNL A   1      46.561  35.600  27.204  1.00  0.00    -0.200 F 
ATOM     90  F   UNL A   1      47.584  36.161  29.670  1.00  0.00    -0.200 F 
ENDBRANCH  57  80
ENDBRANCH  31  32
ENDBRANCH  23  26
ENDBRANCH  21  22
ENDBRANCH  20  21
ENDBRANCH   1  20
TORSDOF 14
ENDMDL
