MODEL 1
REMARK VINA RESULT:     -12.9      0.000      0.000
REMARK SMILES Nc1ccc(-c2cc3ccccc3s2)c(C(=O)NCCCNC(=O)c2ccc(-c3c4nc(c(-c5c(F)c(F)c(F)c(F)c5F)c5ccc([nH]5)c(-c5c(F)c(F)c(F)c(F)c5F)c5nc(c(-c6c(F)c(F)c(F)c(F)c6F)c6ccc3[nH]6)C=C5)C=C4)cc2)n1
REMARK SMILES IDX 20 1 19 2 18 3 16 4 17 5 15 7 2 8 3 9 88 10 4 11 5 12 1 13
REMARK SMILES IDX 6 16 7 17 14 18 8 19 13 20 9 21 12 22 10 23 11 24 21 25
REMARK SMILES IDX 22 26 23 27 24 29 25 30 26 31 87 32 27 33 86 34 28 35 29 36
REMARK SMILES IDX 30 37 80 38 31 39 85 40 79 41 81 42 32 43 84 44 78 45 77 46
REMARK SMILES IDX 33 48 65 49 45 50 64 51 46 52 49 53 63 54 82 55 47 56 48 57
REMARK SMILES IDX 62 59 83 60 50 61 34 62 35 63 43 64 36 65 37 66 41 67 44 68
REMARK SMILES IDX 38 69 39 70 42 71 40 72 66 73 67 74 75 75 68 76 69 77 73 78
REMARK SMILES IDX 76 79 70 80 71 81 74 82 72 83 51 84 52 85 60 86 53 87 54 88
REMARK SMILES IDX 58 89 61 90 55 91 56 92 59 93 57 94
REMARK H PARENT 18 6 1 14 1 15 22 28 81 47 49 58
REMARK Flexibility Score: inf
ROOT
ATOM      1  C   UNL A   1      34.089  28.887  24.473  1.00  0.00     0.042 C 
ENDROOT
BRANCH   1   2
ATOM      2  C   UNL A   1      33.712  28.953  23.007  1.00  0.00     0.118 C 
BRANCH   2   3
ATOM      3  N   UNL A   1      33.869  27.754  22.223  1.00  0.00    -0.351 N 
ATOM      4  C   UNL A   1      32.987  26.701  22.062  1.00  0.00     0.270 C 
ATOM      5  O   UNL A   1      33.219  25.928  21.127  1.00  0.00    -0.267 OA
ATOM      6  H   UNL A   1      34.720  27.674  21.735  1.00  0.00     0.163 HD
BRANCH   4   7
ATOM      7  C   UNL A   1      31.846  26.390  23.004  1.00  0.00     0.139 A 
ATOM      8  C   UNL A   1      29.656  27.071  23.460  1.00  0.00     0.124 A 
ATOM      9  C   UNL A   1      29.553  26.162  24.493  1.00  0.00     0.047 A 
ATOM     10  N   UNL A   1      30.757  27.171  22.707  1.00  0.00    -0.225 NA
ATOM     11  C   UNL A   1      30.660  25.379  24.811  1.00  0.00     0.016 A 
ATOM     12  C   UNL A   1      31.856  25.491  24.082  1.00  0.00     0.023 A 
BRANCH   8  13
ATOM     13  N   UNL A   1      28.596  27.887  23.126  1.00  0.00    -0.384 N 
ATOM     14  H   UNL A   1      27.821  27.516  22.645  1.00  0.00     0.158 HD
ATOM     15  H   UNL A   1      28.613  28.841  23.368  1.00  0.00     0.158 HD
ENDBRANCH   8  13
BRANCH  12  16
ATOM     16  C   UNL A   1      32.998  24.669  24.494  1.00  0.00     0.038 A 
ATOM     17  C   UNL A   1      33.969  24.905  25.447  1.00  0.00     0.029 A 
ATOM     18  S   UNL A   1      33.287  23.167  23.701  1.00  0.00    -0.135 S 
ATOM     19  C   UNL A   1      35.109  24.033  25.300  1.00  0.00    -0.007 A 
ATOM     20  C   UNL A   1      34.893  23.078  24.304  1.00  0.00     0.035 A 
ATOM     21  C   UNL A   1      36.382  24.078  25.914  1.00  0.00     0.009 A 
ATOM     22  C   UNL A   1      35.911  22.203  23.876  1.00  0.00     0.019 A 
ATOM     23  C   UNL A   1      37.402  23.226  25.478  1.00  0.00     0.001 A 
ATOM     24  C   UNL A   1      37.172  22.309  24.462  1.00  0.00     0.001 A 
ENDBRANCH  12  16
ENDBRANCH   4   7
ENDBRANCH   2   3
ENDBRANCH   1   2
BRANCH   1  25
ATOM     25  C   UNL A   1      32.913  28.826  25.440  1.00  0.00     0.118 C 
BRANCH  25  26
ATOM     26  N   UNL A   1      32.468  30.111  25.976  1.00  0.00    -0.352 N 
ATOM     27  C   UNL A   1      33.031  31.023  26.839  1.00  0.00     0.251 C 
ATOM     28  H   UNL A   1      31.579  30.381  25.651  1.00  0.00     0.163 HD
ATOM     29  O   UNL A   1      32.431  32.071  27.081  1.00  0.00    -0.269 OA
BRANCH  27  30
ATOM     30  C   UNL A   1      34.316  30.771  27.528  1.00  0.00     0.039 A 
ATOM     31  C   UNL A   1      35.227  31.828  27.669  1.00  0.00     0.014 A 
ATOM     32  C   UNL A   1      34.665  29.511  28.001  1.00  0.00     0.014 A 
ATOM     33  C   UNL A   1      36.430  31.638  28.359  1.00  0.00     0.010 A 
ATOM     34  C   UNL A   1      35.796  29.351  28.792  1.00  0.00     0.010 A 
ATOM     35  C   UNL A   1      36.701  30.407  28.969  1.00  0.00    -0.014 A 
BRANCH  35  36
ATOM     36  C   UNL A   1      37.940  30.154  29.751  1.00  0.00     0.031 A 
ATOM     37  C   UNL A   1      38.982  29.219  29.197  1.00  0.00     0.074 A 
ATOM     38  C   UNL A   1      38.075  30.661  30.993  1.00  0.00     0.049 A 
ATOM     39  N   UNL A   1      40.024  28.688  29.788  1.00  0.00    -0.248 NA
ATOM     40  C   UNL A   1      38.797  28.780  27.804  1.00  0.00     0.031 C 
ATOM     41  C   UNL A   1      37.115  31.540  31.660  1.00  0.00     0.029 A 
ATOM     42  N   UNL A   1      39.066  30.482  31.926  1.00  0.00    -0.354 N 
ATOM     43  C   UNL A   1      40.579  27.819  28.857  1.00  0.00     0.074 A 
ATOM     44  C   UNL A   1      39.735  27.854  27.685  1.00  0.00     0.031 C 
ATOM     45  C   UNL A   1      37.570  31.838  32.889  1.00  0.00     0.029 A 
ATOM     46  C   UNL A   1      38.828  31.132  33.112  1.00  0.00     0.049 A 
ATOM     47  H   UNL A   1      39.871  29.940  31.761  1.00  0.00     0.167 HD
ATOM     48  C   UNL A   1      41.707  27.077  28.962  1.00  0.00     0.037 A 
ATOM     49  C   UNL A   1      39.537  31.142  34.258  1.00  0.00     0.037 A 
ATOM     50  C   UNL A   1      42.579  27.100  30.106  1.00  0.00     0.049 A 
ATOM     51  C   UNL A   1      40.812  30.344  34.335  1.00  0.00     0.074 A 
ATOM     52  C   UNL A   1      43.788  26.454  30.284  1.00  0.00     0.029 A 
ATOM     53  N   UNL A   1      42.334  27.823  31.265  1.00  0.00    -0.354 N 
ATOM     54  N   UNL A   1      41.355  29.563  33.432  1.00  0.00    -0.248 NA
ATOM     55  C   UNL A   1      41.574  30.432  35.588  1.00  0.00     0.031 C 
ATOM     56  C   UNL A   1      44.259  26.757  31.566  1.00  0.00     0.029 A 
ATOM     57  C   UNL A   1      43.366  27.629  32.167  1.00  0.00     0.049 A 
ATOM     58  H   UNL A   1      41.544  28.389  31.422  1.00  0.00     0.167 HD
ATOM     59  C   UNL A   1      42.533  29.091  33.994  1.00  0.00     0.074 A 
ATOM     60  C   UNL A   1      42.633  29.683  35.312  1.00  0.00     0.031 C 
ATOM     61  C   UNL A   1      43.449  28.241  33.469  1.00  0.00     0.037 A 
BRANCH  48  62
ATOM     62  C   UNL A   1      42.066  26.187  27.806  1.00  0.00     0.064 A 
ATOM     63  C   UNL A   1      43.055  26.546  26.875  1.00  0.00     0.173 A 
ATOM     64  C   UNL A   1      41.429  24.949  27.637  1.00  0.00     0.173 A 
ATOM     65  F   UNL A   1      43.686  27.726  26.983  1.00  0.00    -0.203 F 
ATOM     66  C   UNL A   1      43.364  25.717  25.801  1.00  0.00     0.198 A 
ATOM     67  C   UNL A   1      41.766  24.106  26.580  1.00  0.00     0.198 A 
ATOM     68  F   UNL A   1      40.481  24.552  28.499  1.00  0.00    -0.203 F 
ATOM     69  F   UNL A   1      44.268  26.110  24.893  1.00  0.00    -0.200 F 
ATOM     70  C   UNL A   1      42.725  24.495  25.657  1.00  0.00     0.200 A 
ATOM     71  F   UNL A   1      41.157  22.920  26.451  1.00  0.00    -0.200 F 
ATOM     72  F   UNL A   1      43.028  23.696  24.626  1.00  0.00    -0.200 F 
ENDBRANCH  48  62
BRANCH  49  73
ATOM     73  C   UNL A   1      39.074  31.954  35.413  1.00  0.00     0.064 A 
ATOM     74  C   UNL A   1      38.314  31.375  36.439  1.00  0.00     0.173 A 
ATOM     75  C   UNL A   1      39.380  33.319  35.520  1.00  0.00     0.173 A 
ATOM     76  F   UNL A   1      37.980  30.078  36.371  1.00  0.00    -0.203 F 
ATOM     77  C   UNL A   1      37.863  32.132  37.518  1.00  0.00     0.198 A 
ATOM     78  C   UNL A   1      38.951  34.069  36.615  1.00  0.00     0.198 A 
ATOM     79  F   UNL A   1      40.109  33.922  34.570  1.00  0.00    -0.203 F 
ATOM     80  F   UNL A   1      37.102  31.560  38.463  1.00  0.00    -0.200 F 
ATOM     81  C   UNL A   1      38.187  33.477  37.608  1.00  0.00     0.200 A 
ATOM     82  F   UNL A   1      39.278  35.365  36.706  1.00  0.00    -0.200 F 
ATOM     83  F   UNL A   1      37.757  34.203  38.650  1.00  0.00    -0.200 F 
ENDBRANCH  49  73
BRANCH  61  84
ATOM     84  C   UNL A   1      44.658  27.933  34.302  1.00  0.00     0.064 A 
ATOM     85  C   UNL A   1      44.695  26.828  35.165  1.00  0.00     0.173 A 
ATOM     86  C   UNL A   1      45.811  28.726  34.195  1.00  0.00     0.173 A 
ATOM     87  F   UNL A   1      43.613  26.049  35.311  1.00  0.00    -0.203 F 
ATOM     88  C   UNL A   1      45.836  26.542  35.908  1.00  0.00     0.198 A 
ATOM     89  C   UNL A   1      46.960  28.418  34.919  1.00  0.00     0.198 A 
ATOM     90  F   UNL A   1      45.828  29.788  33.378  1.00  0.00    -0.203 F 
ATOM     91  F   UNL A   1      45.836  25.506  36.760  1.00  0.00    -0.200 F 
ATOM     92  C   UNL A   1      46.970  27.331  35.780  1.00  0.00     0.200 A 
ATOM     93  F   UNL A   1      48.058  29.174  34.781  1.00  0.00    -0.200 F 
ATOM     94  F   UNL A   1      48.070  27.047  36.489  1.00  0.00    -0.200 F 
ENDBRANCH  61  84
ENDBRANCH  35  36
ENDBRANCH  27  30
ENDBRANCH  25  26
ENDBRANCH   1  25
TORSDOF 12
ENDMDL
MODEL 2
REMARK VINA RESULT:     -12.7      0.095      1.604
REMARK SMILES Nc1ccc(-c2cc3ccccc3s2)c(C(=O)NCCCNC(=O)c2ccc(-c3c4nc(c(-c5c(F)c(F)c(F)c(F)c5F)c5ccc([nH]5)c(-c5c(F)c(F)c(F)c(F)c5F)c5nc(c(-c6c(F)c(F)c(F)c(F)c6F)c6ccc3[nH]6)C=C5)C=C4)cc2)n1
REMARK SMILES IDX 20 1 19 2 18 3 16 4 17 5 15 7 2 8 3 9 88 10 4 11 5 12 1 13
REMARK SMILES IDX 6 16 7 17 14 18 8 19 13 20 9 21 12 22 10 23 11 24 21 25
REMARK SMILES IDX 22 26 23 27 24 29 25 30 26 31 87 32 27 33 86 34 28 35 29 36
REMARK SMILES IDX 30 37 80 38 31 39 85 40 79 41 81 42 32 43 84 44 78 45 77 46
REMARK SMILES IDX 33 48 65 49 45 50 64 51 46 52 49 53 63 54 82 55 47 56 48 57
REMARK SMILES IDX 62 59 83 60 50 61 34 62 35 63 43 64 36 65 37 66 41 67 44 68
REMARK SMILES IDX 38 69 39 70 42 71 40 72 66 73 67 74 75 75 68 76 69 77 73 78
REMARK SMILES IDX 76 79 70 80 71 81 74 82 72 83 51 84 52 85 60 86 53 87 54 88
REMARK SMILES IDX 58 89 61 90 55 91 56 92 59 93 57 94
REMARK H PARENT 18 6 1 14 1 15 22 28 81 47 49 58
REMARK Flexibility Score: inf
ROOT
ATOM      1  C   UNL A   1      34.027  28.689  24.759  1.00  0.00     0.042 C 
ENDROOT
BRANCH   1   2
ATOM      2  C   UNL A   1      33.787  28.908  23.279  1.00  0.00     0.118 C 
BRANCH   2   3
ATOM      3  N   UNL A   1      33.937  27.774  22.403  1.00  0.00    -0.351 N 
ATOM      4  C   UNL A   1      33.041  26.752  22.146  1.00  0.00     0.270 C 
ATOM      5  O   UNL A   1      33.275  26.053  21.156  1.00  0.00    -0.267 OA
ATOM      6  H   UNL A   1      34.793  27.718  21.922  1.00  0.00     0.163 HD
BRANCH   4   7
ATOM      7  C   UNL A   1      31.882  26.386  23.045  1.00  0.00     0.139 A 
ATOM      8  C   UNL A   1      29.666  27.008  23.463  1.00  0.00     0.124 A 
ATOM      9  C   UNL A   1      29.554  26.062  24.461  1.00  0.00     0.047 A 
ATOM     10  N   UNL A   1      30.785  27.155  22.745  1.00  0.00    -0.225 NA
ATOM     11  C   UNL A   1      30.667  25.289  24.781  1.00  0.00     0.016 A 
ATOM     12  C   UNL A   1      31.880  25.449  24.091  1.00  0.00     0.023 A 
BRANCH   8  13
ATOM     13  N   UNL A   1      28.599  27.815  23.128  1.00  0.00    -0.384 N 
ATOM     14  H   UNL A   1      28.600  28.302  22.273  1.00  0.00     0.158 HD
ATOM     15  H   UNL A   1      27.837  27.904  23.744  1.00  0.00     0.158 HD
ENDBRANCH   8  13
BRANCH  12  16
ATOM     16  C   UNL A   1      33.027  24.635  24.506  1.00  0.00     0.038 A 
ATOM     17  C   UNL A   1      33.942  24.836  25.519  1.00  0.00     0.029 A 
ATOM     18  S   UNL A   1      33.403  23.199  23.632  1.00  0.00    -0.135 S 
ATOM     19  C   UNL A   1      35.116  24.009  25.374  1.00  0.00    -0.007 A 
ATOM     20  C   UNL A   1      34.980  23.117  24.308  1.00  0.00     0.035 A 
ATOM     21  C   UNL A   1      36.355  24.050  26.053  1.00  0.00     0.009 A 
ATOM     22  C   UNL A   1      36.045  22.303  23.876  1.00  0.00     0.019 A 
ATOM     23  C   UNL A   1      37.423  23.259  25.615  1.00  0.00     0.001 A 
ATOM     24  C   UNL A   1      37.272  22.406  24.531  1.00  0.00     0.001 A 
ENDBRANCH  12  16
ENDBRANCH   4   7
ENDBRANCH   2   3
ENDBRANCH   1   2
BRANCH   1  25
ATOM     25  C   UNL A   1      32.780  28.751  25.632  1.00  0.00     0.118 C 
BRANCH  25  26
ATOM     26  N   UNL A   1      32.391  30.085  26.085  1.00  0.00    -0.352 N 
ATOM     27  C   UNL A   1      33.000  31.029  26.880  1.00  0.00     0.251 C 
ATOM     28  H   UNL A   1      31.509  30.367  25.753  1.00  0.00     0.163 HD
ATOM     29  O   UNL A   1      32.444  32.113  27.058  1.00  0.00    -0.269 OA
BRANCH  27  30
ATOM     30  C   UNL A   1      34.283  30.773  27.570  1.00  0.00     0.039 A 
ATOM     31  C   UNL A   1      35.215  31.816  27.674  1.00  0.00     0.014 A 
ATOM     32  C   UNL A   1      34.610  29.521  28.080  1.00  0.00     0.014 A 
ATOM     33  C   UNL A   1      36.418  31.624  28.363  1.00  0.00     0.010 A 
ATOM     34  C   UNL A   1      35.742  29.363  28.869  1.00  0.00     0.010 A 
ATOM     35  C   UNL A   1      36.669  30.407  29.010  1.00  0.00    -0.014 A 
BRANCH  35  36
ATOM     36  C   UNL A   1      37.907  30.153  29.793  1.00  0.00     0.031 A 
ATOM     37  C   UNL A   1      38.952  29.222  29.239  1.00  0.00     0.074 A 
ATOM     38  C   UNL A   1      38.039  30.656  31.037  1.00  0.00     0.049 A 
ATOM     39  N   UNL A   1      39.993  28.691  29.829  1.00  0.00    -0.248 NA
ATOM     40  C   UNL A   1      38.770  28.787  27.844  1.00  0.00     0.031 C 
ATOM     41  C   UNL A   1      37.076  31.532  31.706  1.00  0.00     0.029 A 
ATOM     42  N   UNL A   1      39.028  30.476  31.971  1.00  0.00    -0.354 N 
ATOM     43  C   UNL A   1      40.551  27.826  28.897  1.00  0.00     0.074 A 
ATOM     44  C   UNL A   1      39.709  27.862  27.723  1.00  0.00     0.031 C 
ATOM     45  C   UNL A   1      37.528  31.826  32.936  1.00  0.00     0.029 A 
ATOM     46  C   UNL A   1      38.787  31.122  33.159  1.00  0.00     0.049 A 
ATOM     47  H   UNL A   1      39.835  29.937  31.806  1.00  0.00     0.167 HD
ATOM     48  C   UNL A   1      41.681  27.086  29.001  1.00  0.00     0.037 A 
ATOM     49  C   UNL A   1      39.494  31.129  34.306  1.00  0.00     0.037 A 
ATOM     50  C   UNL A   1      42.550  27.107  30.146  1.00  0.00     0.049 A 
ATOM     51  C   UNL A   1      40.770  30.334  34.383  1.00  0.00     0.074 A 
ATOM     52  C   UNL A   1      43.760  26.461  30.325  1.00  0.00     0.029 A 
ATOM     53  N   UNL A   1      42.302  27.825  31.308  1.00  0.00    -0.354 N 
ATOM     54  N   UNL A   1      41.317  29.557  33.478  1.00  0.00    -0.248 NA
ATOM     55  C   UNL A   1      41.530  30.419  35.637  1.00  0.00     0.031 C 
ATOM     56  C   UNL A   1      44.229  26.761  31.608  1.00  0.00     0.029 A 
ATOM     57  C   UNL A   1      43.333  27.630  32.211  1.00  0.00     0.049 A 
ATOM     58  H   UNL A   1      41.511  28.389  31.465  1.00  0.00     0.167 HD
ATOM     59  C   UNL A   1      42.494  29.084  34.041  1.00  0.00     0.074 A 
ATOM     60  C   UNL A   1      42.591  29.673  35.361  1.00  0.00     0.031 C 
ATOM     61  C   UNL A   1      43.413  28.238  33.515  1.00  0.00     0.037 A 
BRANCH  48  62
ATOM     62  C   UNL A   1      42.044  26.200  27.843  1.00  0.00     0.064 A 
ATOM     63  C   UNL A   1      41.403  24.970  27.623  1.00  0.00     0.173 A 
ATOM     64  C   UNL A   1      43.031  26.595  26.927  1.00  0.00     0.173 A 
ATOM     65  F   UNL A   1      40.461  24.539  28.476  1.00  0.00    -0.203 F 
ATOM     66  C   UNL A   1      41.763  24.155  26.554  1.00  0.00     0.198 A 
ATOM     67  C   UNL A   1      43.363  25.793  25.839  1.00  0.00     0.198 A 
ATOM     68  F   UNL A   1      43.672  27.764  27.085  1.00  0.00    -0.203 F 
ATOM     69  F   UNL A   1      41.178  22.959  26.401  1.00  0.00    -0.200 F 
ATOM     70  C   UNL A   1      42.737  24.569  25.658  1.00  0.00     0.200 A 
ATOM     71  F   UNL A   1      44.296  26.200  24.967  1.00  0.00    -0.200 F 
ATOM     72  F   UNL A   1      43.077  23.785  24.627  1.00  0.00    -0.200 F 
ENDBRANCH  48  62
BRANCH  49  73
ATOM     73  C   UNL A   1      39.028  31.938  35.463  1.00  0.00     0.064 A 
ATOM     74  C   UNL A   1      39.352  33.298  35.565  1.00  0.00     0.173 A 
ATOM     75  C   UNL A   1      38.249  31.376  36.485  1.00  0.00     0.173 A 
ATOM     76  F   UNL A   1      40.111  33.876  34.622  1.00  0.00    -0.203 F 
ATOM     77  C   UNL A   1      38.932  34.061  36.652  1.00  0.00     0.198 A 
ATOM     78  C   UNL A   1      37.805  32.147  37.559  1.00  0.00     0.198 A 
ATOM     79  F   UNL A   1      37.905  30.081  36.434  1.00  0.00    -0.203 F 
ATOM     80  F   UNL A   1      39.293  35.348  36.744  1.00  0.00    -0.200 F 
ATOM     81  C   UNL A   1      38.153  33.486  37.646  1.00  0.00     0.200 A 
ATOM     82  F   UNL A   1      37.041  31.591  38.509  1.00  0.00    -0.200 F 
ATOM     83  F   UNL A   1      37.745  34.222  38.688  1.00  0.00    -0.200 F 
ENDBRANCH  49  73
BRANCH  61  84
ATOM     84  C   UNL A   1      44.621  27.929  34.350  1.00  0.00     0.064 A 
ATOM     85  C   UNL A   1      44.659  26.821  35.207  1.00  0.00     0.173 A 
ATOM     86  C   UNL A   1      45.772  28.726  34.249  1.00  0.00     0.173 A 
ATOM     87  F   UNL A   1      43.579  26.038  35.347  1.00  0.00    -0.203 F 
ATOM     88  C   UNL A   1      45.799  26.534  35.952  1.00  0.00     0.198 A 
ATOM     89  C   UNL A   1      46.920  28.418  34.973  1.00  0.00     0.198 A 
ATOM     90  F   UNL A   1      45.787  29.792  33.436  1.00  0.00    -0.203 F 
ATOM     91  F   UNL A   1      45.800  25.495  36.798  1.00  0.00    -0.200 F 
ATOM     92  C   UNL A   1      46.931  27.327  35.829  1.00  0.00     0.200 A 
ATOM     93  F   UNL A   1      48.016  29.177  34.841  1.00  0.00    -0.200 F 
ATOM     94  F   UNL A   1      48.030  27.043  36.539  1.00  0.00    -0.200 F 
ENDBRANCH  61  84
ENDBRANCH  35  36
ENDBRANCH  27  30
ENDBRANCH  25  26
ENDBRANCH   1  25
TORSDOF 12
ENDMDL
MODEL 3
REMARK VINA RESULT:     -12.6      1.961      3.195
REMARK SMILES Nc1ccc(-c2cc3ccccc3s2)c(C(=O)NCCCNC(=O)c2ccc(-c3c4nc(c(-c5c(F)c(F)c(F)c(F)c5F)c5ccc([nH]5)c(-c5c(F)c(F)c(F)c(F)c5F)c5nc(c(-c6c(F)c(F)c(F)c(F)c6F)c6ccc3[nH]6)C=C5)C=C4)cc2)n1
REMARK SMILES IDX 20 1 19 2 18 3 16 4 17 5 15 7 2 8 3 9 88 10 4 11 5 12 1 13
REMARK SMILES IDX 6 16 7 17 14 18 8 19 13 20 9 21 12 22 10 23 11 24 21 25
REMARK SMILES IDX 22 26 23 27 24 29 25 30 26 31 87 32 27 33 86 34 28 35 29 36
REMARK SMILES IDX 30 37 80 38 31 39 85 40 79 41 81 42 32 43 84 44 78 45 77 46
REMARK SMILES IDX 33 48 65 49 45 50 64 51 46 52 49 53 63 54 82 55 47 56 48 57
REMARK SMILES IDX 62 59 83 60 50 61 34 62 35 63 43 64 36 65 37 66 41 67 44 68
REMARK SMILES IDX 38 69 39 70 42 71 40 72 66 73 67 74 75 75 68 76 69 77 73 78
REMARK SMILES IDX 76 79 70 80 71 81 74 82 72 83 51 84 52 85 60 86 53 87 54 88
REMARK SMILES IDX 58 89 61 90 55 91 56 92 59 93 57 94
REMARK H PARENT 18 6 1 14 1 15 22 28 81 47 49 58
REMARK Flexibility Score: inf
ROOT
ATOM      1  C   UNL A   1      31.409  32.001  26.502  1.00  0.00     0.042 C 
ENDROOT
BRANCH   1   2
ATOM      2  C   UNL A   1      31.604  30.509  26.318  1.00  0.00     0.118 C 
BRANCH   2   3
ATOM      3  N   UNL A   1      32.557  30.077  25.327  1.00  0.00    -0.351 N 
ATOM      4  C   UNL A   1      32.350  29.295  24.206  1.00  0.00     0.270 C 
ATOM      5  O   UNL A   1      33.251  29.294  23.363  1.00  0.00    -0.267 OA
ATOM      6  H   UNL A   1      33.483  30.380  25.468  1.00  0.00     0.163 HD
BRANCH   4   7
ATOM      7  C   UNL A   1      31.160  28.382  24.009  1.00  0.00     0.139 A 
ATOM      8  C   UNL A   1      28.957  28.446  23.228  1.00  0.00     0.124 A 
ATOM      9  C   UNL A   1      28.787  27.104  23.498  1.00  0.00     0.047 A 
ATOM     10  N   UNL A   1      30.118  29.074  23.444  1.00  0.00    -0.225 NA
ATOM     11  C   UNL A   1      29.835  26.400  24.087  1.00  0.00     0.016 A 
ATOM     12  C   UNL A   1      31.053  27.033  24.383  1.00  0.00     0.023 A 
BRANCH   8  13
ATOM     13  N   UNL A   1      27.939  29.191  22.671  1.00  0.00    -0.384 N 
ATOM     14  H   UNL A   1      27.993  30.174  22.669  1.00  0.00     0.158 HD
ATOM     15  H   UNL A   1      27.158  28.741  22.275  1.00  0.00     0.158 HD
ENDBRANCH   8  13
BRANCH  12  16
ATOM     16  C   UNL A   1      32.101  26.247  25.042  1.00  0.00     0.038 A 
ATOM     17  C   UNL A   1      33.450  26.151  24.765  1.00  0.00     0.029 A 
ATOM     18  S   UNL A   1      31.683  25.217  26.358  1.00  0.00    -0.135 S 
ATOM     19  C   UNL A   1      34.063  25.011  25.402  1.00  0.00    -0.007 A 
ATOM     20  C   UNL A   1      33.164  24.354  26.245  1.00  0.00     0.035 A 
ATOM     21  C   UNL A   1      35.342  24.436  25.216  1.00  0.00     0.009 A 
ATOM     22  C   UNL A   1      33.482  23.133  26.869  1.00  0.00     0.019 A 
ATOM     23  C   UNL A   1      35.655  23.212  25.817  1.00  0.00     0.001 A 
ATOM     24  C   UNL A   1      34.731  22.563  26.623  1.00  0.00     0.001 A 
ENDBRANCH  12  16
ENDBRANCH   4   7
ENDBRANCH   2   3
ENDBRANCH   1   2
BRANCH   1  25
ATOM     25  C   UNL A   1      32.625  32.751  27.029  1.00  0.00     0.118 C 
BRANCH  25  26
ATOM     26  N   UNL A   1      32.353  34.057  27.626  1.00  0.00    -0.352 N 
ATOM     27  C   UNL A   1      32.995  34.815  28.578  1.00  0.00     0.251 C 
ATOM     28  H   UNL A   1      31.540  34.485  27.272  1.00  0.00     0.163 HD
ATOM     29  O   UNL A   1      32.552  35.930  28.857  1.00  0.00    -0.269 OA
BRANCH  27  30
ATOM     30  C   UNL A   1      34.178  34.321  29.317  1.00  0.00     0.039 A 
ATOM     31  C   UNL A   1      33.981  33.606  30.508  1.00  0.00     0.014 A 
ATOM     32  C   UNL A   1      35.476  34.579  28.891  1.00  0.00     0.014 A 
ATOM     33  C   UNL A   1      35.073  33.081  31.207  1.00  0.00     0.010 A 
ATOM     34  C   UNL A   1      36.551  33.955  29.511  1.00  0.00     0.010 A 
ATOM     35  C   UNL A   1      36.367  33.210  30.685  1.00  0.00    -0.014 A 
BRANCH  35  36
ATOM     36  C   UNL A   1      37.565  32.639  31.356  1.00  0.00     0.031 A 
ATOM     37  C   UNL A   1      38.300  31.498  30.704  1.00  0.00     0.074 A 
ATOM     38  C   UNL A   1      37.917  33.057  32.588  1.00  0.00     0.049 A 
ATOM     39  N   UNL A   1      39.223  30.712  31.197  1.00  0.00    -0.248 NA
ATOM     40  C   UNL A   1      37.903  31.163  29.327  1.00  0.00     0.031 C 
ATOM     41  C   UNL A   1      37.258  34.121  33.345  1.00  0.00     0.029 A 
ATOM     42  N   UNL A   1      38.906  32.613  33.431  1.00  0.00    -0.354 N 
ATOM     43  C   UNL A   1      39.474  29.765  30.212  1.00  0.00     0.074 A 
ATOM     44  C   UNL A   1      38.573  30.041  29.117  1.00  0.00     0.031 C 
ATOM     45  C   UNL A   1      37.868  34.259  34.534  1.00  0.00     0.029 A 
ATOM     46  C   UNL A   1      38.929  33.263  34.642  1.00  0.00     0.049 A 
ATOM     47  H   UNL A   1      39.539  31.898  33.191  1.00  0.00     0.167 HD
ATOM     48  C   UNL A   1      40.392  28.769  30.212  1.00  0.00     0.037 A 
ATOM     49  C   UNL A   1      39.707  33.063  35.723  1.00  0.00     0.037 A 
ATOM     50  C   UNL A   1      41.330  28.543  31.277  1.00  0.00     0.049 A 
ATOM     51  C   UNL A   1      40.750  31.978  35.681  1.00  0.00     0.074 A 
ATOM     52  C   UNL A   1      42.355  27.617  31.345  1.00  0.00     0.029 A 
ATOM     53  N   UNL A   1      41.362  29.265  32.462  1.00  0.00    -0.354 N 
ATOM     54  N   UNL A   1      41.014  31.119  34.726  1.00  0.00    -0.248 NA
ATOM     55  C   UNL A   1      41.608  31.838  36.866  1.00  0.00     0.031 C 
ATOM     56  C   UNL A   1      42.987  27.755  32.585  1.00  0.00     0.029 A 
ATOM     57  C   UNL A   1      42.384  28.797  33.271  1.00  0.00     0.049 A 
ATOM     58  H   UNL A   1      40.750  30.000  32.692  1.00  0.00     0.167 HD
ATOM     59  C   UNL A   1      42.081  30.357  35.180  1.00  0.00     0.074 A 
ATOM     60  C   UNL A   1      42.427  30.864  36.492  1.00  0.00     0.031 C 
ATOM     61  C   UNL A   1      42.717  29.328  34.569  1.00  0.00     0.037 A 
BRANCH  48  62
ATOM     62  C   UNL A   1      40.430  27.857  29.018  1.00  0.00     0.064 A 
ATOM     63  C   UNL A   1      41.226  28.139  27.897  1.00  0.00     0.173 A 
ATOM     64  C   UNL A   1      39.676  26.674  29.003  1.00  0.00     0.173 A 
ATOM     65  F   UNL A   1      41.957  29.264  27.854  1.00  0.00    -0.203 F 
ATOM     66  C   UNL A   1      41.237  27.290  26.793  1.00  0.00     0.198 A 
ATOM     67  C   UNL A   1      39.716  25.810  27.912  1.00  0.00     0.198 A 
ATOM     68  F   UNL A   1      38.901  26.351  30.050  1.00  0.00    -0.203 F 
ATOM     69  F   UNL A   1      41.959  27.613  25.711  1.00  0.00    -0.200 F 
ATOM     70  C   UNL A   1      40.489  26.124  26.803  1.00  0.00     0.200 A 
ATOM     71  F   UNL A   1      39.002  24.676  27.928  1.00  0.00    -0.200 F 
ATOM     72  F   UNL A   1      40.505  25.306  25.742  1.00  0.00    -0.200 F 
ENDBRANCH  48  62
BRANCH  49  73
ATOM     73  C   UNL A   1      39.550  33.925  36.923  1.00  0.00     0.064 A 
ATOM     74  C   UNL A   1      40.181  35.176  36.995  1.00  0.00     0.173 A 
ATOM     75  C   UNL A   1      38.768  33.527  38.016  1.00  0.00     0.173 A 
ATOM     76  F   UNL A   1      40.955  35.592  35.983  1.00  0.00    -0.203 F 
ATOM     77  C   UNL A   1      40.052  35.985  38.122  1.00  0.00     0.198 A 
ATOM     78  C   UNL A   1      38.616  34.350  39.132  1.00  0.00     0.198 A 
ATOM     79  F   UNL A   1      38.137  32.343  37.996  1.00  0.00    -0.203 F 
ATOM     80  F   UNL A   1      40.701  37.156  38.180  1.00  0.00    -0.200 F 
ATOM     81  C   UNL A   1      39.264  35.574  39.187  1.00  0.00     0.200 A 
ATOM     82  F   UNL A   1      37.843  33.956  40.153  1.00  0.00    -0.200 F 
ATOM     83  F   UNL A   1      39.135  36.356  40.267  1.00  0.00    -0.200 F 
ENDBRANCH  49  73
BRANCH  61  84
ATOM     84  C   UNL A   1      43.877  28.709  35.292  1.00  0.00     0.064 A 
ATOM     85  C   UNL A   1      45.192  29.150  35.088  1.00  0.00     0.173 A 
ATOM     86  C   UNL A   1      43.660  27.697  36.240  1.00  0.00     0.173 A 
ATOM     87  F   UNL A   1      45.450  30.106  34.183  1.00  0.00    -0.203 F 
ATOM     88  C   UNL A   1      46.251  28.583  35.790  1.00  0.00     0.198 A 
ATOM     89  C   UNL A   1      44.719  27.154  36.961  1.00  0.00     0.198 A 
ATOM     90  F   UNL A   1      42.419  27.247  36.477  1.00  0.00    -0.203 F 
ATOM     91  F   UNL A   1      47.506  28.989  35.548  1.00  0.00    -0.200 F 
ATOM     92  C   UNL A   1      46.014  27.592  36.731  1.00  0.00     0.200 A 
ATOM     93  F   UNL A   1      44.486  26.206  37.880  1.00  0.00    -0.200 F 
ATOM     94  F   UNL A   1      47.035  27.055  37.412  1.00  0.00    -0.200 F 
ENDBRANCH  61  84
ENDBRANCH  35  36
ENDBRANCH  27  30
ENDBRANCH  25  26
ENDBRANCH   1  25
TORSDOF 12
ENDMDL
