MODEL 1
REMARK VINA RESULT:     -13.1      0.000      0.000
REMARK SMILES C[C@@H](Sc1nc(C[NH+]2CCCC2)nc2ccccc12)C(=O)NCCCNC(=O)c1ccc(-c2c3nc(c(-c4c(F)c(F)c(F)c(F)c4F)c4ccc([nH]4)c(-c4c(F)c(F)c(F)c(F)c4F)c4nc(c(-c5c(F)c(F)c(F)c(F)c5F)c5ccc2[nH]5)C=C4)C=C3)cc1
REMARK SMILES IDX 23 1 22 2 20 3 21 4 2 6 1 7 3 8 4 9 5 10 19 11 6 12 14 13
REMARK SMILES IDX 18 14 13 15 15 16 17 17 16 18 7 19 8 20 9 21 12 22 10 24
REMARK SMILES IDX 11 25 24 26 25 27 26 28 27 29 28 31 29 32 30 33 91 34 31 35
REMARK SMILES IDX 90 36 32 37 33 38 34 39 84 40 35 41 89 42 83 43 85 44 36 45
REMARK SMILES IDX 88 46 82 47 81 48 37 50 69 51 49 52 68 53 50 54 53 55 67 56
REMARK SMILES IDX 86 57 51 58 52 59 66 61 87 62 54 63 38 64 39 65 47 66 40 67
REMARK SMILES IDX 41 68 45 69 48 70 42 71 43 72 46 73 44 74 70 75 71 76 79 77
REMARK SMILES IDX 72 78 73 79 77 80 80 81 74 82 75 83 78 84 76 85 55 86 56 87
REMARK SMILES IDX 64 88 57 89 58 90 62 91 65 92 59 93 60 94 63 95 61 96
REMARK H PARENT 22 5 8 23 26 30 85 49 53 60
REMARK Flexibility Score: inf
ROOT
ATOM      1  C   UNL A   1      33.374  26.700  25.333  1.00  0.00     0.117 C 
ENDROOT
BRANCH   1   2
ATOM      2  N   UNL A   1      33.695  26.617  23.915  1.00  0.00    -0.355 N 
ATOM      3  C   UNL A   1      33.264  25.736  22.963  1.00  0.00     0.233 C 
ATOM      4  O   UNL A   1      33.681  25.891  21.813  1.00  0.00    -0.274 OA
ATOM      5  H   UNL A   1      34.321  27.304  23.591  1.00  0.00     0.163 HD
BRANCH   3   6
ATOM      6  C   UNL A   1      32.328  24.574  23.317  1.00  0.00     0.139 C 
ATOM      7  C   UNL A   1      30.883  25.059  23.228  1.00  0.00     0.030 C 
BRANCH   6   8
ATOM      8  S   UNL A   1      32.862  23.126  22.300  1.00  0.00    -0.093 SA
BRANCH   8   9
ATOM      9  C   UNL A   1      33.517  21.936  23.456  1.00  0.00     0.109 A 
ATOM     10  N   UNL A   1      32.705  20.927  23.802  1.00  0.00    -0.220 NA
ATOM     11  C   UNL A   1      34.839  22.055  23.915  1.00  0.00     0.033 A 
ATOM     12  C   UNL A   1      33.187  20.020  24.665  1.00  0.00     0.185 A 
ATOM     13  C   UNL A   1      35.245  21.037  24.781  1.00  0.00     0.075 A 
ATOM     14  C   UNL A   1      35.758  23.088  23.576  1.00  0.00     0.013 A 
ATOM     15  N   UNL A   1      34.437  20.041  25.160  1.00  0.00    -0.227 NA
ATOM     16  C   UNL A   1      36.544  21.062  25.273  1.00  0.00     0.029 A 
ATOM     17  C   UNL A   1      37.052  23.095  24.088  1.00  0.00     0.001 A 
ATOM     18  C   UNL A   1      37.448  22.075  24.937  1.00  0.00     0.002 A 
BRANCH  12  19
ATOM     19  C   UNL A   1      32.259  18.902  25.124  1.00  0.00     0.340 C 
BRANCH  19  20
ATOM     20  N   UNL A   1      32.217  17.642  24.349  1.00  0.00    -0.329 N 
ATOM     21  C   UNL A   1      32.817  16.490  25.019  1.00  0.00     0.262 C 
ATOM     22  C   UNL A   1      32.841  17.735  23.027  1.00  0.00     0.262 C 
ATOM     23  H   UNL A   1      31.211  17.494  24.257  1.00  0.00     0.348 HD
ATOM     24  C   UNL A   1      34.223  16.357  24.470  1.00  0.00     0.067 C 
ATOM     25  C   UNL A   1      34.161  16.976  23.088  1.00  0.00     0.067 C 
ENDBRANCH  19  20
ENDBRANCH  12  19
ENDBRANCH   8   9
ENDBRANCH   6   8
ENDBRANCH   3   6
ENDBRANCH   1   2
BRANCH   1  26
ATOM     26  C   UNL A   1      32.626  27.978  25.670  1.00  0.00     0.042 C 
BRANCH  26  27
ATOM     27  C   UNL A   1      33.411  29.226  25.309  1.00  0.00     0.118 C 
BRANCH  27  28
ATOM     28  N   UNL A   1      32.815  30.432  25.873  1.00  0.00    -0.352 N 
ATOM     29  C   UNL A   1      33.199  31.165  26.967  1.00  0.00     0.251 C 
ATOM     30  H   UNL A   1      32.021  30.768  25.399  1.00  0.00     0.163 HD
ATOM     31  O   UNL A   1      32.456  32.023  27.432  1.00  0.00    -0.269 OA
BRANCH  29  32
ATOM     32  C   UNL A   1      34.510  30.901  27.591  1.00  0.00     0.039 A 
ATOM     33  C   UNL A   1      35.453  31.928  27.669  1.00  0.00     0.014 A 
ATOM     34  C   UNL A   1      34.793  29.638  28.115  1.00  0.00     0.014 A 
ATOM     35  C   UNL A   1      36.654  31.708  28.346  1.00  0.00     0.010 A 
ATOM     36  C   UNL A   1      35.940  29.452  28.871  1.00  0.00     0.010 A 
ATOM     37  C   UNL A   1      36.887  30.481  28.987  1.00  0.00    -0.014 A 
BRANCH  37  38
ATOM     38  C   UNL A   1      38.120  30.218  29.767  1.00  0.00     0.031 A 
ATOM     39  C   UNL A   1      39.146  29.266  29.218  1.00  0.00     0.074 A 
ATOM     40  C   UNL A   1      38.260  30.735  31.002  1.00  0.00     0.049 A 
ATOM     41  N   UNL A   1      40.192  28.744  29.803  1.00  0.00    -0.248 NA
ATOM     42  C   UNL A   1      38.941  28.809  27.833  1.00  0.00     0.031 C 
ATOM     43  C   UNL A   1      37.313  31.639  31.657  1.00  0.00     0.029 A 
ATOM     44  N   UNL A   1      39.245  30.550  31.939  1.00  0.00    -0.354 N 
ATOM     45  C   UNL A   1      40.746  27.874  28.874  1.00  0.00     0.074 A 
ATOM     46  C   UNL A   1      39.896  27.900  27.705  1.00  0.00     0.031 C 
ATOM     47  C   UNL A   1      37.769  31.939  32.884  1.00  0.00     0.029 A 
ATOM     48  C   UNL A   1      39.014  31.212  33.119  1.00  0.00     0.049 A 
ATOM     49  H   UNL A   1      40.045  29.996  31.779  1.00  0.00     0.167 HD
ATOM     50  C   UNL A   1      41.874  27.134  28.981  1.00  0.00     0.037 A 
ATOM     51  C   UNL A   1      39.717  31.215  34.268  1.00  0.00     0.037 A 
ATOM     52  C   UNL A   1      42.737  27.148  30.132  1.00  0.00     0.049 A 
ATOM     53  C   UNL A   1      40.975  30.392  34.358  1.00  0.00     0.074 A 
ATOM     54  C   UNL A   1      43.935  26.483  30.320  1.00  0.00     0.029 A 
ATOM     55  N   UNL A   1      42.494  27.873  31.289  1.00  0.00    -0.354 N 
ATOM     56  N   UNL A   1      41.516  29.609  33.458  1.00  0.00    -0.248 NA
ATOM     57  C   UNL A   1      41.721  30.459  35.623  1.00  0.00     0.031 C 
ATOM     58  C   UNL A   1      44.400  26.776  31.605  1.00  0.00     0.029 A 
ATOM     59  C   UNL A   1      43.515  27.664  32.200  1.00  0.00     0.049 A 
ATOM     60  H   UNL A   1      41.712  28.451  31.440  1.00  0.00     0.167 HD
ATOM     61  C   UNL A   1      42.682  29.120  34.029  1.00  0.00     0.074 A 
ATOM     62  C   UNL A   1      42.772  29.696  35.354  1.00  0.00     0.031 C 
ATOM     63  C   UNL A   1      43.599  28.271  33.502  1.00  0.00     0.037 A 
BRANCH  50  64
ATOM     64  C   UNL A   1      42.239  26.254  27.823  1.00  0.00     0.064 A 
ATOM     65  C   UNL A   1      41.631  25.005  27.626  1.00  0.00     0.173 A 
ATOM     66  C   UNL A   1      43.188  26.675  26.880  1.00  0.00     0.173 A 
ATOM     67  F   UNL A   1      40.726  24.548  28.506  1.00  0.00    -0.203 F 
ATOM     68  C   UNL A   1      41.982  24.198  26.547  1.00  0.00     0.198 A 
ATOM     69  C   UNL A   1      43.514  25.881  25.784  1.00  0.00     0.198 A 
ATOM     70  F   UNL A   1      43.798  27.863  27.018  1.00  0.00    -0.203 F 
ATOM     71  F   UNL A   1      41.426  22.987  26.409  1.00  0.00    -0.200 F 
ATOM     72  C   UNL A   1      42.917  24.640  25.623  1.00  0.00     0.200 A 
ATOM     73  F   UNL A   1      44.409  26.314  24.886  1.00  0.00    -0.200 F 
ATOM     74  F   UNL A   1      43.249  23.865  24.581  1.00  0.00    -0.200 F 
ENDBRANCH  50  64
BRANCH  51  75
ATOM     75  C   UNL A   1      39.261  32.040  35.416  1.00  0.00     0.064 A 
ATOM     76  C   UNL A   1      38.478  31.479  36.435  1.00  0.00     0.173 A 
ATOM     77  C   UNL A   1      39.596  33.397  35.524  1.00  0.00     0.173 A 
ATOM     78  F   UNL A   1      38.117  30.189  36.367  1.00  0.00    -0.203 F 
ATOM     79  C   UNL A   1      38.031  32.249  37.506  1.00  0.00     0.198 A 
ATOM     80  C   UNL A   1      39.171  34.160  36.610  1.00  0.00     0.198 A 
ATOM     81  F   UNL A   1      40.349  33.979  34.579  1.00  0.00    -0.203 F 
ATOM     82  F   UNL A   1      37.247  31.698  38.443  1.00  0.00    -0.200 F 
ATOM     83  C   UNL A   1      38.382  33.588  37.595  1.00  0.00     0.200 A 
ATOM     84  F   UNL A   1      39.524  35.449  36.699  1.00  0.00    -0.200 F 
ATOM     85  F   UNL A   1      37.955  34.327  38.628  1.00  0.00    -0.200 F 
ENDBRANCH  51  75
BRANCH  63  86
ATOM     86  C   UNL A   1      44.811  27.962  34.329  1.00  0.00     0.064 A 
ATOM     87  C   UNL A   1      45.949  28.779  34.305  1.00  0.00     0.173 A 
ATOM     88  C   UNL A   1      44.801  26.869  35.210  1.00  0.00     0.173 A 
ATOM     89  F   UNL A   1      46.010  29.826  33.469  1.00  0.00    -0.203 F 
ATOM     90  C   UNL A   1      47.042  28.503  35.122  1.00  0.00     0.198 A 
ATOM     91  C   UNL A   1      45.884  26.613  36.046  1.00  0.00     0.198 A 
ATOM     92  F   UNL A   1      43.730  26.063  35.275  1.00  0.00    -0.203 F 
ATOM     93  F   UNL A   1      48.135  29.276  35.057  1.00  0.00    -0.200 F 
ATOM     94  C   UNL A   1      47.005  27.428  35.997  1.00  0.00     0.200 A 
ATOM     95  F   UNL A   1      45.839  25.583  36.900  1.00  0.00    -0.200 F 
ATOM     96  F   UNL A   1      48.052  27.174  36.793  1.00  0.00    -0.200 F 
ENDBRANCH  63  86
ENDBRANCH  37  38
ENDBRANCH  29  32
ENDBRANCH  27  28
ENDBRANCH  26  27
ENDBRANCH   1  26
TORSDOF 14
ENDMDL
MODEL 2
REMARK VINA RESULT:     -13.0      0.240      1.941
REMARK SMILES C[C@@H](Sc1nc(C[NH+]2CCCC2)nc2ccccc12)C(=O)NCCCNC(=O)c1ccc(-c2c3nc(c(-c4c(F)c(F)c(F)c(F)c4F)c4ccc([nH]4)c(-c4c(F)c(F)c(F)c(F)c4F)c4nc(c(-c5c(F)c(F)c(F)c(F)c5F)c5ccc2[nH]5)C=C4)C=C3)cc1
REMARK SMILES IDX 23 1 22 2 20 3 21 4 2 6 1 7 3 8 4 9 5 10 19 11 6 12 14 13
REMARK SMILES IDX 18 14 13 15 15 16 17 17 16 18 7 19 8 20 9 21 12 22 10 24
REMARK SMILES IDX 11 25 24 26 25 27 26 28 27 29 28 31 29 32 30 33 91 34 31 35
REMARK SMILES IDX 90 36 32 37 33 38 34 39 84 40 35 41 89 42 83 43 85 44 36 45
REMARK SMILES IDX 88 46 82 47 81 48 37 50 69 51 49 52 68 53 50 54 53 55 67 56
REMARK SMILES IDX 86 57 51 58 52 59 66 61 87 62 54 63 38 64 39 65 47 66 40 67
REMARK SMILES IDX 41 68 45 69 48 70 42 71 43 72 46 73 44 74 70 75 71 76 79 77
REMARK SMILES IDX 72 78 73 79 77 80 80 81 74 82 75 83 78 84 76 85 55 86 56 87
REMARK SMILES IDX 64 88 57 89 58 90 62 91 65 92 59 93 60 94 63 95 61 96
REMARK H PARENT 22 5 8 23 26 30 85 49 53 60
REMARK Flexibility Score: inf
ROOT
ATOM      1  C   UNL A   1      33.653  26.422  25.292  1.00  0.00     0.117 C 
ENDROOT
BRANCH   1   2
ATOM      2  N   UNL A   1      33.835  26.398  23.848  1.00  0.00    -0.355 N 
ATOM      3  C   UNL A   1      33.261  25.598  22.900  1.00  0.00     0.233 C 
ATOM      4  O   UNL A   1      33.578  25.791  21.724  1.00  0.00    -0.274 OA
ATOM      5  H   UNL A   1      34.472  27.063  23.499  1.00  0.00     0.163 HD
BRANCH   3   6
ATOM      6  C   UNL A   1      32.289  24.477  23.285  1.00  0.00     0.139 C 
ATOM      7  C   UNL A   1      30.860  25.005  23.184  1.00  0.00     0.030 C 
BRANCH   6   8
ATOM      8  S   UNL A   1      32.775  22.986  22.306  1.00  0.00    -0.093 SA
BRANCH   8   9
ATOM      9  C   UNL A   1      33.494  21.850  23.477  1.00  0.00     0.109 A 
ATOM     10  N   UNL A   1      32.727  20.821  23.864  1.00  0.00    -0.220 NA
ATOM     11  C   UNL A   1      34.820  22.027  23.905  1.00  0.00     0.033 A 
ATOM     12  C   UNL A   1      33.258  19.954  24.738  1.00  0.00     0.185 A 
ATOM     13  C   UNL A   1      35.280  21.046  24.787  1.00  0.00     0.075 A 
ATOM     14  C   UNL A   1      35.695  23.083  23.522  1.00  0.00     0.013 A 
ATOM     15  N   UNL A   1      34.516  20.032  25.207  1.00  0.00    -0.227 NA
ATOM     16  C   UNL A   1      36.587  21.130  25.251  1.00  0.00     0.029 A 
ATOM     17  C   UNL A   1      36.997  23.150  24.006  1.00  0.00     0.001 A 
ATOM     18  C   UNL A   1      37.446  22.166  24.872  1.00  0.00     0.002 A 
BRANCH  12  19
ATOM     19  C   UNL A   1      32.380  18.815  25.243  1.00  0.00     0.340 C 
BRANCH  19  20
ATOM     20  N   UNL A   1      32.227  17.603  24.408  1.00  0.00    -0.329 N 
ATOM     21  C   UNL A   1      32.520  16.345  25.093  1.00  0.00     0.262 C 
ATOM     22  C   UNL A   1      33.035  17.617  23.186  1.00  0.00     0.262 C 
ATOM     23  H   UNL A   1      31.234  17.641  24.178  1.00  0.00     0.348 HD
ATOM     24  C   UNL A   1      33.943  15.977  24.728  1.00  0.00     0.067 C 
ATOM     25  C   UNL A   1      34.181  16.632  23.382  1.00  0.00     0.067 C 
ENDBRANCH  19  20
ENDBRANCH  12  19
ENDBRANCH   8   9
ENDBRANCH   6   8
ENDBRANCH   3   6
ENDBRANCH   1   2
BRANCH   1  26
ATOM     26  C   UNL A   1      32.931  27.676  25.752  1.00  0.00     0.042 C 
BRANCH  26  27
ATOM     27  C   UNL A   1      33.592  28.947  25.249  1.00  0.00     0.118 C 
BRANCH  27  28
ATOM     28  N   UNL A   1      32.955  30.146  25.783  1.00  0.00    -0.352 N 
ATOM     29  C   UNL A   1      33.306  30.912  26.866  1.00  0.00     0.251 C 
ATOM     30  H   UNL A   1      32.156  30.449  25.294  1.00  0.00     0.163 HD
ATOM     31  O   UNL A   1      32.533  31.756  27.307  1.00  0.00    -0.269 OA
BRANCH  29  32
ATOM     32  C   UNL A   1      34.618  30.698  27.507  1.00  0.00     0.039 A 
ATOM     33  C   UNL A   1      35.507  31.769  27.625  1.00  0.00     0.014 A 
ATOM     34  C   UNL A   1      34.955  29.440  28.010  1.00  0.00     0.014 A 
ATOM     35  C   UNL A   1      36.706  31.593  28.318  1.00  0.00     0.010 A 
ATOM     36  C   UNL A   1      36.096  29.293  28.783  1.00  0.00     0.010 A 
ATOM     37  C   UNL A   1      36.988  30.365  28.937  1.00  0.00    -0.014 A 
BRANCH  37  38
ATOM     38  C   UNL A   1      38.219  30.146  29.733  1.00  0.00     0.031 A 
ATOM     39  C   UNL A   1      39.285  29.229  29.200  1.00  0.00     0.074 A 
ATOM     40  C   UNL A   1      38.326  30.670  30.969  1.00  0.00     0.049 A 
ATOM     41  N   UNL A   1      40.340  28.744  29.799  1.00  0.00    -0.248 NA
ATOM     42  C   UNL A   1      39.114  28.762  27.813  1.00  0.00     0.031 C 
ATOM     43  C   UNL A   1      37.341  31.542  31.610  1.00  0.00     0.029 A 
ATOM     44  N   UNL A   1      39.305  30.521  31.919  1.00  0.00    -0.354 N 
ATOM     45  C   UNL A   1      40.936  27.891  28.880  1.00  0.00     0.074 A 
ATOM     46  C   UNL A   1      40.101  27.887  27.699  1.00  0.00     0.031 C 
ATOM     47  C   UNL A   1      37.770  31.860  32.842  1.00  0.00     0.029 A 
ATOM     48  C   UNL A   1      39.036  31.177  33.094  1.00  0.00     0.049 A 
ATOM     49  H   UNL A   1      40.125  29.994  31.771  1.00  0.00     0.167 HD
ATOM     50  C   UNL A   1      42.087  27.191  29.003  1.00  0.00     0.037 A 
ATOM     51  C   UNL A   1      39.723  31.206  34.252  1.00  0.00     0.037 A 
ATOM     52  C   UNL A   1      42.934  27.236  30.164  1.00  0.00     0.049 A 
ATOM     53  C   UNL A   1      41.007  30.427  34.360  1.00  0.00     0.074 A 
ATOM     54  C   UNL A   1      44.152  26.613  30.369  1.00  0.00     0.029 A 
ATOM     55  N   UNL A   1      42.651  27.955  31.317  1.00  0.00    -0.354 N 
ATOM     56  N   UNL A   1      41.587  29.661  33.469  1.00  0.00    -0.248 NA
ATOM     57  C   UNL A   1      41.735  30.521  35.634  1.00  0.00     0.031 C 
ATOM     58  C   UNL A   1      44.589  26.925  31.660  1.00  0.00     0.029 A 
ATOM     59  C   UNL A   1      43.668  27.783  32.241  1.00  0.00     0.049 A 
ATOM     60  H   UNL A   1      41.848  28.506  31.457  1.00  0.00     0.167 HD
ATOM     61  C   UNL A   1      42.761  29.213  34.056  1.00  0.00     0.074 A 
ATOM     62  C   UNL A   1      42.814  29.795  35.381  1.00  0.00     0.031 C 
ATOM     63  C   UNL A   1      43.713  28.395  33.543  1.00  0.00     0.037 A 
BRANCH  50  64
ATOM     64  C   UNL A   1      42.497  26.322  27.852  1.00  0.00     0.064 A 
ATOM     65  C   UNL A   1      43.379  26.779  26.861  1.00  0.00     0.173 A 
ATOM     66  C   UNL A   1      42.026  25.004  27.752  1.00  0.00     0.173 A 
ATOM     67  F   UNL A   1      43.849  28.035  26.902  1.00  0.00    -0.203 F 
ATOM     68  C   UNL A   1      43.750  25.960  25.798  1.00  0.00     0.198 A 
ATOM     69  C   UNL A   1      42.423  24.177  26.704  1.00  0.00     0.198 A 
ATOM     70  F   UNL A   1      41.183  24.515  28.674  1.00  0.00    -0.203 F 
ATOM     71  F   UNL A   1      44.551  26.437  24.835  1.00  0.00    -0.200 F 
ATOM     72  C   UNL A   1      43.277  24.658  25.723  1.00  0.00     0.200 A 
ATOM     73  F   UNL A   1      41.975  22.916  26.641  1.00  0.00    -0.200 F 
ATOM     74  F   UNL A   1      43.640  23.870  24.702  1.00  0.00    -0.200 F 
ENDBRANCH  50  64
BRANCH  51  75
ATOM     75  C   UNL A   1      39.225  32.017  35.393  1.00  0.00     0.064 A 
ATOM     76  C   UNL A   1      39.529  33.382  35.487  1.00  0.00     0.173 A 
ATOM     77  C   UNL A   1      38.436  31.452  36.405  1.00  0.00     0.173 A 
ATOM     78  F   UNL A   1      40.295  33.962  34.552  1.00  0.00    -0.203 F 
ATOM     79  C   UNL A   1      39.082  34.147  36.562  1.00  0.00     0.198 A 
ATOM     80  C   UNL A   1      37.967  32.225  37.466  1.00  0.00     0.198 A 
ATOM     81  F   UNL A   1      38.111  30.152  36.358  1.00  0.00    -0.203 F 
ATOM     82  F   UNL A   1      39.424  35.439  36.650  1.00  0.00    -0.200 F 
ATOM     83  C   UNL A   1      38.296  33.568  37.549  1.00  0.00     0.200 A 
ATOM     84  F   UNL A   1      37.196  31.665  38.409  1.00  0.00    -0.200 F 
ATOM     85  F   UNL A   1      37.863  34.305  38.580  1.00  0.00    -0.200 F 
ENDBRANCH  51  75
BRANCH  63  86
ATOM     86  C   UNL A   1      44.924  28.129  34.386  1.00  0.00     0.064 A 
ATOM     87  C   UNL A   1      44.996  27.027  35.249  1.00  0.00     0.173 A 
ATOM     88  C   UNL A   1      46.054  28.955  34.274  1.00  0.00     0.173 A 
ATOM     89  F   UNL A   1      43.937  26.219  35.401  1.00  0.00    -0.203 F 
ATOM     90  C   UNL A   1      46.152  26.770  35.982  1.00  0.00     0.198 A 
ATOM     91  C   UNL A   1      47.217  28.678  34.986  1.00  0.00     0.198 A 
ATOM     92  F   UNL A   1      46.036  30.017  33.454  1.00  0.00    -0.203 F 
ATOM     93  F   UNL A   1      46.188  25.732  36.828  1.00  0.00    -0.200 F 
ATOM     94  C   UNL A   1      47.262  27.589  35.843  1.00  0.00     0.200 A 
ATOM     95  F   UNL A   1      48.293  29.462  34.839  1.00  0.00    -0.200 F 
ATOM     96  F   UNL A   1      48.378  27.330  36.538  1.00  0.00    -0.200 F 
ENDBRANCH  63  86
ENDBRANCH  37  38
ENDBRANCH  29  32
ENDBRANCH  27  28
ENDBRANCH  26  27
ENDBRANCH   1  26
TORSDOF 14
ENDMDL
MODEL 3
REMARK VINA RESULT:     -12.8      0.265      1.149
REMARK SMILES C[C@@H](Sc1nc(C[NH+]2CCCC2)nc2ccccc12)C(=O)NCCCNC(=O)c1ccc(-c2c3nc(c(-c4c(F)c(F)c(F)c(F)c4F)c4ccc([nH]4)c(-c4c(F)c(F)c(F)c(F)c4F)c4nc(c(-c5c(F)c(F)c(F)c(F)c5F)c5ccc2[nH]5)C=C4)C=C3)cc1
REMARK SMILES IDX 23 1 22 2 20 3 21 4 2 6 1 7 3 8 4 9 5 10 19 11 6 12 14 13
REMARK SMILES IDX 18 14 13 15 15 16 17 17 16 18 7 19 8 20 9 21 12 22 10 24
REMARK SMILES IDX 11 25 24 26 25 27 26 28 27 29 28 31 29 32 30 33 91 34 31 35
REMARK SMILES IDX 90 36 32 37 33 38 34 39 84 40 35 41 89 42 83 43 85 44 36 45
REMARK SMILES IDX 88 46 82 47 81 48 37 50 69 51 49 52 68 53 50 54 53 55 67 56
REMARK SMILES IDX 86 57 51 58 52 59 66 61 87 62 54 63 38 64 39 65 47 66 40 67
REMARK SMILES IDX 41 68 45 69 48 70 42 71 43 72 46 73 44 74 70 75 71 76 79 77
REMARK SMILES IDX 72 78 73 79 77 80 80 81 74 82 75 83 78 84 76 85 55 86 56 87
REMARK SMILES IDX 64 88 57 89 58 90 62 91 65 92 59 93 60 94 63 95 61 96
REMARK H PARENT 22 5 8 23 26 30 85 49 53 60
REMARK Flexibility Score: inf
ROOT
ATOM      1  C   UNL A   1      31.910  27.352  24.326  1.00  0.00     0.117 C 
ENDROOT
BRANCH   1   2
ATOM      2  N   UNL A   1      32.707  26.942  23.179  1.00  0.00    -0.355 N 
ATOM      3  C   UNL A   1      32.884  25.705  22.625  1.00  0.00     0.233 C 
ATOM      4  O   UNL A   1      33.611  25.625  21.631  1.00  0.00    -0.274 OA
ATOM      5  H   UNL A   1      33.194  27.671  22.731  1.00  0.00     0.163 HD
BRANCH   3   6
ATOM      6  C   UNL A   1      32.237  24.457  23.236  1.00  0.00     0.139 C 
ATOM      7  C   UNL A   1      30.732  24.686  23.347  1.00  0.00     0.030 C 
BRANCH   6   8
ATOM      8  S   UNL A   1      32.865  23.004  22.281  1.00  0.00    -0.093 SA
BRANCH   8   9
ATOM      9  C   UNL A   1      33.553  21.889  23.490  1.00  0.00     0.109 A 
ATOM     10  N   UNL A   1      32.779  20.860  23.866  1.00  0.00    -0.220 NA
ATOM     11  C   UNL A   1      34.862  22.081  23.960  1.00  0.00     0.033 A 
ATOM     12  C   UNL A   1      33.286  20.009  24.768  1.00  0.00     0.185 A 
ATOM     13  C   UNL A   1      35.298  21.115  24.870  1.00  0.00     0.075 A 
ATOM     14  C   UNL A   1      35.742  23.138  23.592  1.00  0.00     0.013 A 
ATOM     15  N   UNL A   1      34.528  20.101  25.278  1.00  0.00    -0.227 NA
ATOM     16  C   UNL A   1      36.589  21.214  25.376  1.00  0.00     0.029 A 
ATOM     17  C   UNL A   1      37.028  23.220  24.118  1.00  0.00     0.001 A 
ATOM     18  C   UNL A   1      37.454  22.251  25.012  1.00  0.00     0.002 A 
BRANCH  12  19
ATOM     19  C   UNL A   1      32.400  18.870  25.260  1.00  0.00     0.340 C 
BRANCH  19  20
ATOM     20  N   UNL A   1      32.305  17.635  24.451  1.00  0.00    -0.329 N 
ATOM     21  C   UNL A   1      32.888  16.448  25.073  1.00  0.00     0.262 C 
ATOM     22  C   UNL A   1      32.902  17.749  23.118  1.00  0.00     0.262 C 
ATOM     23  H   UNL A   1      31.294  17.518  24.378  1.00  0.00     0.348 HD
ATOM     24  C   UNL A   1      34.277  16.293  24.489  1.00  0.00     0.067 C 
ATOM     25  C   UNL A   1      34.201  16.953  23.127  1.00  0.00     0.067 C 
ENDBRANCH  19  20
ENDBRANCH  12  19
ENDBRANCH   8   9
ENDBRANCH   6   8
ENDBRANCH   3   6
ENDBRANCH   1   2
BRANCH   1  26
ATOM     26  C   UNL A   1      32.776  27.857  25.466  1.00  0.00     0.042 C 
BRANCH  26  27
ATOM     27  C   UNL A   1      33.491  29.152  25.126  1.00  0.00     0.118 C 
BRANCH  27  28
ATOM     28  N   UNL A   1      32.842  30.312  25.726  1.00  0.00    -0.352 N 
ATOM     29  C   UNL A   1      33.180  31.013  26.856  1.00  0.00     0.251 C 
ATOM     30  H   UNL A   1      32.044  30.639  25.251  1.00  0.00     0.163 HD
ATOM     31  O   UNL A   1      32.398  31.824  27.342  1.00  0.00    -0.269 OA
BRANCH  29  32
ATOM     32  C   UNL A   1      34.488  30.770  27.494  1.00  0.00     0.039 A 
ATOM     33  C   UNL A   1      35.395  31.824  27.626  1.00  0.00     0.014 A 
ATOM     34  C   UNL A   1      34.805  29.499  27.977  1.00  0.00     0.014 A 
ATOM     35  C   UNL A   1      36.590  31.619  28.317  1.00  0.00     0.010 A 
ATOM     36  C   UNL A   1      35.945  29.323  28.747  1.00  0.00     0.010 A 
ATOM     37  C   UNL A   1      36.854  30.378  28.917  1.00  0.00    -0.014 A 
BRANCH  37  38
ATOM     38  C   UNL A   1      38.081  30.127  29.709  1.00  0.00     0.031 A 
ATOM     39  C   UNL A   1      39.124  29.188  29.169  1.00  0.00     0.074 A 
ATOM     40  C   UNL A   1      38.203  30.643  30.946  1.00  0.00     0.049 A 
ATOM     41  N   UNL A   1      40.170  28.678  29.764  1.00  0.00    -0.248 NA
ATOM     42  C   UNL A   1      38.939  28.732  27.781  1.00  0.00     0.031 C 
ATOM     43  C   UNL A   1      37.239  31.535  31.593  1.00  0.00     0.029 A 
ATOM     44  N   UNL A   1      39.181  30.468  31.893  1.00  0.00    -0.354 N 
ATOM     45  C   UNL A   1      40.743  27.815  28.839  1.00  0.00     0.074 A 
ATOM     46  C   UNL A   1      39.906  27.834  27.661  1.00  0.00     0.031 C 
ATOM     47  C   UNL A   1      37.679  31.838  32.825  1.00  0.00     0.029 A 
ATOM     48  C   UNL A   1      38.929  31.125  33.072  1.00  0.00     0.049 A 
ATOM     49  H   UNL A   1      39.988  29.924  31.741  1.00  0.00     0.167 HD
ATOM     50  C   UNL A   1      41.879  27.088  28.957  1.00  0.00     0.037 A 
ATOM     51  C   UNL A   1      39.620  31.134  34.228  1.00  0.00     0.037 A 
ATOM     52  C   UNL A   1      42.729  27.110  30.116  1.00  0.00     0.049 A 
ATOM     53  C   UNL A   1      40.887  30.326  34.329  1.00  0.00     0.074 A 
ATOM     54  C   UNL A   1      43.934  26.458  30.315  1.00  0.00     0.029 A 
ATOM     55  N   UNL A   1      42.466  27.830  31.272  1.00  0.00    -0.354 N 
ATOM     56  N   UNL A   1      41.447  29.550  33.434  1.00  0.00    -0.248 NA
ATOM     57  C   UNL A   1      41.619  30.398  35.602  1.00  0.00     0.031 C 
ATOM     58  C   UNL A   1      44.381  26.754  31.606  1.00  0.00     0.029 A 
ATOM     59  C   UNL A   1      43.481  27.630  32.193  1.00  0.00     0.049 A 
ATOM     60  H   UNL A   1      41.676  28.398  31.416  1.00  0.00     0.167 HD
ATOM     61  C   UNL A   1      42.612  29.073  34.016  1.00  0.00     0.074 A 
ATOM     62  C   UNL A   1      42.682  29.649  35.343  1.00  0.00     0.031 C 
ATOM     63  C   UNL A   1      43.544  28.236  33.497  1.00  0.00     0.037 A 
BRANCH  50  64
ATOM     64  C   UNL A   1      42.266  26.214  27.800  1.00  0.00     0.064 A 
ATOM     65  C   UNL A   1      43.216  26.625  26.853  1.00  0.00     0.173 A 
ATOM     66  C   UNL A   1      41.703  24.938  27.653  1.00  0.00     0.173 A 
ATOM     67  F   UNL A   1      43.775  27.842  26.940  1.00  0.00    -0.203 F 
ATOM     68  C   UNL A   1      43.565  25.803  25.784  1.00  0.00     0.198 A 
ATOM     69  C   UNL A   1      42.076  24.106  26.601  1.00  0.00     0.198 A 
ATOM     70  F   UNL A   1      40.793  24.494  28.533  1.00  0.00    -0.203 F 
ATOM     71  F   UNL A   1      44.434  26.238  24.862  1.00  0.00    -0.200 F 
ATOM     72  C   UNL A   1      43.000  24.542  25.663  1.00  0.00     0.200 A 
ATOM     73  F   UNL A   1      41.540  22.883  26.492  1.00  0.00    -0.200 F 
ATOM     74  F   UNL A   1      43.341  23.750  24.637  1.00  0.00    -0.200 F 
ENDBRANCH  50  64
BRANCH  51  75
ATOM     75  C   UNL A   1      39.143  31.951  35.373  1.00  0.00     0.064 A 
ATOM     76  C   UNL A   1      38.371  31.376  36.391  1.00  0.00     0.173 A 
ATOM     77  C   UNL A   1      39.448  33.315  35.478  1.00  0.00     0.173 A 
ATOM     78  F   UNL A   1      38.038  30.078  36.325  1.00  0.00    -0.203 F 
ATOM     79  C   UNL A   1      37.903  32.138  37.459  1.00  0.00     0.198 A 
ATOM     80  C   UNL A   1      39.003  34.072  36.561  1.00  0.00     0.198 A 
ATOM     81  F   UNL A   1      40.191  33.912  34.534  1.00  0.00    -0.203 F 
ATOM     82  F   UNL A   1      37.130  31.572  38.396  1.00  0.00    -0.200 F 
ATOM     83  C   UNL A   1      38.224  33.485  37.546  1.00  0.00     0.200 A 
ATOM     84  F   UNL A   1      39.328  35.369  36.648  1.00  0.00    -0.200 F 
ATOM     85  F   UNL A   1      37.778  34.216  38.575  1.00  0.00    -0.200 F 
ENDBRANCH  51  75
BRANCH  63  86
ATOM     86  C   UNL A   1      44.751  27.939  34.336  1.00  0.00     0.064 A 
ATOM     87  C   UNL A   1      45.883  28.764  34.317  1.00  0.00     0.173 A 
ATOM     88  C   UNL A   1      44.741  26.851  35.222  1.00  0.00     0.173 A 
ATOM     89  F   UNL A   1      45.945  29.807  33.477  1.00  0.00    -0.203 F 
ATOM     90  C   UNL A   1      46.972  28.500  35.145  1.00  0.00     0.198 A 
ATOM     91  C   UNL A   1      45.818  26.607  36.068  1.00  0.00     0.198 A 
ATOM     92  F   UNL A   1      43.675  26.038  35.282  1.00  0.00    -0.203 F 
ATOM     93  F   UNL A   1      48.059  29.279  35.086  1.00  0.00    -0.200 F 
ATOM     94  C   UNL A   1      46.934  27.429  36.025  1.00  0.00     0.200 A 
ATOM     95  F   UNL A   1      45.773  25.580  36.928  1.00  0.00    -0.200 F 
ATOM     96  F   UNL A   1      47.976  27.186  36.831  1.00  0.00    -0.200 F 
ENDBRANCH  63  86
ENDBRANCH  37  38
ENDBRANCH  29  32
ENDBRANCH  27  28
ENDBRANCH  26  27
ENDBRANCH   1  26
TORSDOF 14
ENDMDL
