MODEL 1
REMARK VINA RESULT:     -12.9      0.000      0.000
REMARK SMILES CC(C)CC(=O)Nc1ccc(NC(=O)[C@@H]2CCCC[C@@H]2C(=O)NCCCNC(=O)c2ccc(-c3c4nc(c(-c5c(F)c(F)c(F)c(F)c5F)c5ccc([nH]5)c(-c5c(F)c(F)c(F)c(F)c5F)c5nc(c(-c6c(F)c(F)c(F)c(F)c6F)c6ccc3[nH]6)C=C5)C=C4)cc2)cc1
REMARK SMILES IDX 21 1 22 2 23 3 20 5 15 6 16 7 17 8 19 9 18 10 13 11 12 12
REMARK SMILES IDX 14 14 11 15 8 16 9 17 94 18 10 19 93 20 7 21 5 22 6 23 4 25
REMARK SMILES IDX 2 26 1 27 3 28 24 29 25 30 26 31 27 32 28 33 29 35 30 36
REMARK SMILES IDX 31 37 92 38 32 39 91 40 33 41 34 42 35 43 85 44 36 45 90 46
REMARK SMILES IDX 84 47 86 48 37 49 89 50 83 51 82 52 38 54 70 55 50 56 69 57
REMARK SMILES IDX 51 58 54 59 68 60 87 61 52 62 53 63 67 65 88 66 55 67 39 68
REMARK SMILES IDX 40 69 48 70 41 71 42 72 46 73 49 74 43 75 44 76 47 77 45 78
REMARK SMILES IDX 71 79 72 80 80 81 73 82 74 83 78 84 81 85 75 86 76 87 79 88
REMARK SMILES IDX 77 89 56 90 57 91 65 92 58 93 59 94 63 95 66 96 60 97 61 98
REMARK SMILES IDX 64 99 62 100
REMARK H PARENT 23 4 12 13 7 24 27 34 86 53 54 64
REMARK Flexibility Score: inf
ROOT
ATOM      1  C   UNL A   1      32.365  28.978  24.118  1.00  0.00     0.223 C 
ATOM      2  O   UNL A   1      33.153  29.065  23.175  1.00  0.00    -0.275 OA
ATOM      3  N   UNL A   1      32.235  30.057  24.942  1.00  0.00    -0.356 N 
ATOM      4  H   UNL A   1      32.807  30.818  24.692  1.00  0.00     0.163 HD
ENDROOT
BRANCH   1   5
ATOM      5  C   UNL A   1      31.525  27.726  24.343  1.00  0.00     0.091 C 
ATOM      6  C   UNL A   1      32.318  26.423  24.543  1.00  0.00     0.091 C 
ATOM      7  C   UNL A   1      32.858  25.818  23.244  1.00  0.00     0.014 C 
ATOM      8  C   UNL A   1      31.745  25.571  22.245  1.00  0.00     0.001 C 
ATOM      9  C   UNL A   1      30.478  27.543  23.218  1.00  0.00     0.014 C 
ATOM     10  C   UNL A   1      31.001  26.865  21.948  1.00  0.00     0.001 C 
BRANCH   6  11
ATOM     11  C   UNL A   1      33.491  26.471  25.485  1.00  0.00     0.228 C 
ATOM     12  N   UNL A   1      33.977  25.354  26.087  1.00  0.00    -0.326 N 
ATOM     13  H   UNL A   1      34.745  25.560  26.668  1.00  0.00     0.169 HD
ATOM     14  O   UNL A   1      34.131  27.510  25.673  1.00  0.00    -0.274 OA
BRANCH  12  15
ATOM     15  C   UNL A   1      33.675  23.982  26.099  1.00  0.00     0.041 A 
ATOM     16  C   UNL A   1      33.392  21.183  26.347  1.00  0.00     0.041 A 
ATOM     17  C   UNL A   1      32.289  21.966  26.048  1.00  0.00     0.028 A 
ATOM     18  C   UNL A   1      34.642  21.781  26.375  1.00  0.00     0.028 A 
ATOM     19  C   UNL A   1      32.434  23.360  25.922  1.00  0.00     0.028 A 
ATOM     20  C   UNL A   1      34.785  23.160  26.290  1.00  0.00     0.028 A 
BRANCH  16  21
ATOM     21  N   UNL A   1      33.263  19.805  26.553  1.00  0.00    -0.326 N 
ATOM     22  C   UNL A   1      32.811  18.874  25.642  1.00  0.00     0.224 C 
ATOM     23  O   UNL A   1      32.337  17.809  26.038  1.00  0.00    -0.275 OA
ATOM     24  H   UNL A   1      33.521  19.465  27.440  1.00  0.00     0.169 HD
BRANCH  22  25
ATOM     25  C   UNL A   1      33.137  19.101  24.163  1.00  0.00     0.103 C 
BRANCH  25  26
ATOM     26  C   UNL A   1      32.755  17.972  23.188  1.00  0.00    -0.008 C 
ATOM     27  C   UNL A   1      32.358  18.483  21.800  1.00  0.00     0.008 C 
ATOM     28  C   UNL A   1      33.948  17.025  23.019  1.00  0.00     0.008 C 
ENDBRANCH  25  26
ENDBRANCH  22  25
ENDBRANCH  16  21
ENDBRANCH  12  15
ENDBRANCH   6  11
ENDBRANCH   1   5
BRANCH   3  29
ATOM     29  C   UNL A   1      31.417  30.303  26.123  1.00  0.00     0.117 C 
BRANCH  29  30
ATOM     30  C   UNL A   1      31.321  31.773  26.541  1.00  0.00     0.042 C 
BRANCH  30  31
ATOM     31  C   UNL A   1      32.644  32.439  26.905  1.00  0.00     0.118 C 
BRANCH  31  32
ATOM     32  N   UNL A   1      32.454  33.810  27.355  1.00  0.00    -0.352 N 
ATOM     33  C   UNL A   1      33.047  34.463  28.405  1.00  0.00     0.251 C 
ATOM     34  H   UNL A   1      31.811  34.342  26.833  1.00  0.00     0.163 HD
ATOM     35  O   UNL A   1      32.594  35.542  28.790  1.00  0.00    -0.269 OA
BRANCH  33  36
ATOM     36  C   UNL A   1      34.221  33.880  29.093  1.00  0.00     0.039 A 
ATOM     37  C   UNL A   1      35.496  34.365  28.786  1.00  0.00     0.014 A 
ATOM     38  C   UNL A   1      34.077  32.822  29.997  1.00  0.00     0.014 A 
ATOM     39  C   UNL A   1      36.621  33.821  29.415  1.00  0.00     0.010 A 
ATOM     40  C   UNL A   1      35.194  32.317  30.663  1.00  0.00     0.010 A 
ATOM     41  C   UNL A   1      36.478  32.804  30.372  1.00  0.00    -0.014 A 
BRANCH  41  42
ATOM     42  C   UNL A   1      37.661  32.229  31.063  1.00  0.00     0.031 A 
ATOM     43  C   UNL A   1      38.473  31.149  30.403  1.00  0.00     0.074 A 
ATOM     44  C   UNL A   1      37.979  32.640  32.306  1.00  0.00     0.049 A 
ATOM     45  N   UNL A   1      39.498  30.479  30.868  1.00  0.00    -0.248 NA
ATOM     46  C   UNL A   1      38.068  30.756  29.045  1.00  0.00     0.031 C 
ATOM     47  C   UNL A   1      37.256  33.657  33.069  1.00  0.00     0.029 A 
ATOM     48  N   UNL A   1      38.989  32.245  33.150  1.00  0.00    -0.354 N 
ATOM     49  C   UNL A   1      39.848  29.580  29.870  1.00  0.00     0.074 A 
ATOM     50  C   UNL A   1      38.900  29.758  28.790  1.00  0.00     0.031 C 
ATOM     51  C   UNL A   1      37.855  33.819  34.261  1.00  0.00     0.029 A 
ATOM     52  C   UNL A   1      38.982  32.895  34.359  1.00  0.00     0.049 A 
ATOM     53  H   UNL A   1      39.655  31.562  32.909  1.00  0.00     0.167 HD
ATOM     54  C   UNL A   1      40.879  28.700  29.845  1.00  0.00     0.037 A 
ATOM     55  C   UNL A   1      39.787  32.756  35.430  1.00  0.00     0.037 A 
ATOM     56  C   UNL A   1      41.837  28.538  30.908  1.00  0.00     0.049 A 
ATOM     57  C   UNL A   1      40.916  31.763  35.382  1.00  0.00     0.074 A 
ATOM     58  C   UNL A   1      42.944  27.709  30.953  1.00  0.00     0.029 A 
ATOM     59  N   UNL A   1      41.800  29.221  32.115  1.00  0.00    -0.354 N 
ATOM     60  N   UNL A   1      41.269  30.958  34.411  1.00  0.00    -0.248 NA
ATOM     61  C   UNL A   1      41.762  31.663  36.580  1.00  0.00     0.031 C 
ATOM     62  C   UNL A   1      43.557  27.862  32.202  1.00  0.00     0.029 A 
ATOM     63  C   UNL A   1      42.856  28.818  32.917  1.00  0.00     0.049 A 
ATOM     64  H   UNL A   1      41.125  29.893  32.362  1.00  0.00     0.167 HD
ATOM     65  C   UNL A   1      42.391  30.278  34.867  1.00  0.00     0.074 A 
ATOM     66  C   UNL A   1      42.667  30.773  36.198  1.00  0.00     0.031 C 
ATOM     67  C   UNL A   1      43.125  29.328  34.237  1.00  0.00     0.037 A 
BRANCH  54  68
ATOM     68  C   UNL A   1      41.028  27.842  28.623  1.00  0.00     0.064 A 
ATOM     69  C   UNL A   1      40.287  26.662  28.461  1.00  0.00     0.173 A 
ATOM     70  C   UNL A   1      41.889  28.224  27.583  1.00  0.00     0.173 A 
ATOM     71  F   UNL A   1      39.456  26.248  29.430  1.00  0.00    -0.203 F 
ATOM     72  C   UNL A   1      40.424  25.881  27.317  1.00  0.00     0.198 A 
ATOM     73  C   UNL A   1      42.002  27.454  26.427  1.00  0.00     0.198 A 
ATOM     74  F   UNL A   1      42.614  29.347  27.683  1.00  0.00    -0.203 F 
ATOM     75  F   UNL A   1      39.739  24.733  27.204  1.00  0.00    -0.200 F 
ATOM     76  C   UNL A   1      41.276  26.280  26.298  1.00  0.00     0.200 A 
ATOM     77  F   UNL A   1      42.816  27.849  25.439  1.00  0.00    -0.200 F 
ATOM     78  F   UNL A   1      41.401  25.532  25.194  1.00  0.00    -0.200 F 
ENDBRANCH  54  68
BRANCH  55  79
ATOM     79  C   UNL A   1      39.571  33.600  36.633  1.00  0.00     0.064 A 
ATOM     80  C   UNL A   1      40.135  34.881  36.720  1.00  0.00     0.173 A 
ATOM     81  C   UNL A   1      38.801  33.150  37.715  1.00  0.00     0.173 A 
ATOM     82  F   UNL A   1      40.897  35.346  35.720  1.00  0.00    -0.203 F 
ATOM     83  C   UNL A   1      39.952  35.671  37.853  1.00  0.00     0.198 A 
ATOM     84  C   UNL A   1      38.597  33.951  38.835  1.00  0.00     0.198 A 
ATOM     85  F   UNL A   1      38.236  31.934  37.677  1.00  0.00    -0.203 F 
ATOM     86  F   UNL A   1      40.536  36.875  37.928  1.00  0.00    -0.200 F 
ATOM     87  C   UNL A   1      39.179  35.209  38.907  1.00  0.00     0.200 A 
ATOM     88  F   UNL A   1      37.837  33.507  39.845  1.00  0.00    -0.200 F 
ATOM     89  F   UNL A   1      38.998  35.971  39.993  1.00  0.00    -0.200 F 
ENDBRANCH  55  79
BRANCH  67  90
ATOM     90  C   UNL A   1      44.319  28.787  34.965  1.00  0.00     0.064 A 
ATOM     91  C   UNL A   1      45.576  29.401  34.875  1.00  0.00     0.173 A 
ATOM     92  C   UNL A   1      44.194  27.664  35.798  1.00  0.00     0.173 A 
ATOM     93  F   UNL A   1      45.751  30.468  34.079  1.00  0.00    -0.203 F 
ATOM     94  C   UNL A   1      46.670  28.899  35.573  1.00  0.00     0.198 A 
ATOM     95  C   UNL A   1      45.284  27.180  36.515  1.00  0.00     0.198 A 
ATOM     96  F   UNL A   1      43.012  27.043  35.923  1.00  0.00    -0.203 F 
ATOM     97  F   UNL A   1      47.873  29.476  35.438  1.00  0.00    -0.200 F 
ATOM     98  C   UNL A   1      46.523  27.793  36.398  1.00  0.00     0.200 A 
ATOM     99  F   UNL A   1      45.137  26.119  37.321  1.00  0.00    -0.200 F 
ATOM    100  F   UNL A   1      47.576  27.314  37.075  1.00  0.00    -0.200 F 
ENDBRANCH  67  90
ENDBRANCH  41  42
ENDBRANCH  33  36
ENDBRANCH  31  32
ENDBRANCH  30  31
ENDBRANCH  29  30
ENDBRANCH   3  29
TORSDOF 15
ENDMDL
MODEL 2
REMARK VINA RESULT:     -12.8      3.506      6.984
REMARK SMILES CC(C)CC(=O)Nc1ccc(NC(=O)[C@@H]2CCCC[C@@H]2C(=O)NCCCNC(=O)c2ccc(-c3c4nc(c(-c5c(F)c(F)c(F)c(F)c5F)c5ccc([nH]5)c(-c5c(F)c(F)c(F)c(F)c5F)c5nc(c(-c6c(F)c(F)c(F)c(F)c6F)c6ccc3[nH]6)C=C5)C=C4)cc2)cc1
REMARK SMILES IDX 21 1 22 2 23 3 20 5 15 6 16 7 17 8 19 9 18 10 13 11 12 12
REMARK SMILES IDX 14 14 11 15 8 16 9 17 94 18 10 19 93 20 7 21 5 22 6 23 4 25
REMARK SMILES IDX 2 26 1 27 3 28 24 29 25 30 26 31 27 32 28 33 29 35 30 36
REMARK SMILES IDX 31 37 92 38 32 39 91 40 33 41 34 42 35 43 85 44 36 45 90 46
REMARK SMILES IDX 84 47 86 48 37 49 89 50 83 51 82 52 38 54 70 55 50 56 69 57
REMARK SMILES IDX 51 58 54 59 68 60 87 61 52 62 53 63 67 65 88 66 55 67 39 68
REMARK SMILES IDX 40 69 48 70 41 71 42 72 46 73 49 74 43 75 44 76 47 77 45 78
REMARK SMILES IDX 71 79 72 80 80 81 73 82 74 83 78 84 81 85 75 86 76 87 79 88
REMARK SMILES IDX 77 89 56 90 57 91 65 92 58 93 59 94 63 95 66 96 60 97 61 98
REMARK SMILES IDX 64 99 62 100
REMARK H PARENT 23 4 12 13 7 24 27 34 86 53 54 64
REMARK Flexibility Score: inf
ROOT
ATOM      1  C   UNL A   1      33.555  26.510  24.704  1.00  0.00     0.223 C 
ATOM      2  O   UNL A   1      34.032  27.580  24.322  1.00  0.00    -0.275 OA
ATOM      3  N   UNL A   1      34.318  25.728  25.521  1.00  0.00    -0.356 N 
ATOM      4  H   UNL A   1      35.202  26.111  25.724  1.00  0.00     0.163 HD
ENDROOT
BRANCH   1   5
ATOM      5  C   UNL A   1      32.144  26.083  24.318  1.00  0.00     0.091 C 
ATOM      6  C   UNL A   1      31.842  26.076  22.810  1.00  0.00     0.091 C 
ATOM      7  C   UNL A   1      31.573  27.466  22.225  1.00  0.00     0.014 C 
ATOM      8  C   UNL A   1      30.441  28.163  22.953  1.00  0.00     0.001 C 
ATOM      9  C   UNL A   1      31.080  26.918  25.070  1.00  0.00     0.014 C 
ATOM     10  C   UNL A   1      30.754  28.274  24.438  1.00  0.00     0.001 C 
BRANCH   6  11
ATOM     11  C   UNL A   1      32.870  25.449  21.907  1.00  0.00     0.228 C 
ATOM     12  N   UNL A   1      33.274  24.161  22.063  1.00  0.00    -0.326 N 
ATOM     13  H   UNL A   1      33.946  23.909  21.389  1.00  0.00     0.169 HD
ATOM     14  O   UNL A   1      33.314  26.041  20.920  1.00  0.00    -0.274 OA
BRANCH  12  15
ATOM     15  C   UNL A   1      32.986  23.093  22.929  1.00  0.00     0.041 A 
ATOM     16  C   UNL A   1      32.776  20.989  24.802  1.00  0.00     0.041 A 
ATOM     17  C   UNL A   1      31.633  21.625  24.344  1.00  0.00     0.028 A 
ATOM     18  C   UNL A   1      33.992  21.308  24.217  1.00  0.00     0.028 A 
ATOM     19  C   UNL A   1      31.741  22.671  23.408  1.00  0.00     0.028 A 
ATOM     20  C   UNL A   1      34.107  22.365  23.322  1.00  0.00     0.028 A 
BRANCH  16  21
ATOM     21  N   UNL A   1      32.705  19.999  25.787  1.00  0.00    -0.326 N 
ATOM     22  C   UNL A   1      32.845  18.640  25.602  1.00  0.00     0.224 C 
ATOM     23  O   UNL A   1      32.350  17.856  26.412  1.00  0.00    -0.275 OA
ATOM     24  H   UNL A   1      32.536  20.303  26.708  1.00  0.00     0.169 HD
BRANCH  22  25
ATOM     25  C   UNL A   1      33.820  18.161  24.522  1.00  0.00     0.103 C 
BRANCH  25  26
ATOM     26  C   UNL A   1      33.227  17.315  23.381  1.00  0.00    -0.008 C 
ATOM     27  C   UNL A   1      32.465  18.148  22.345  1.00  0.00     0.008 C 
ATOM     28  C   UNL A   1      34.360  16.581  22.655  1.00  0.00     0.008 C 
ENDBRANCH  25  26
ENDBRANCH  22  25
ENDBRANCH  16  21
ENDBRANCH  12  15
ENDBRANCH   6  11
ENDBRANCH   1   5
BRANCH   3  29
ATOM     29  C   UNL A   1      34.081  24.434  26.150  1.00  0.00     0.117 C 
BRANCH  29  30
ATOM     30  C   UNL A   1      35.349  23.664  26.528  1.00  0.00     0.042 C 
BRANCH  30  31
ATOM     31  C   UNL A   1      36.574  23.956  25.667  1.00  0.00     0.118 C 
BRANCH  31  32
ATOM     32  N   UNL A   1      37.603  22.938  25.825  1.00  0.00    -0.352 N 
ATOM     33  C   UNL A   1      38.890  23.076  26.275  1.00  0.00     0.251 C 
ATOM     34  H   UNL A   1      37.336  22.024  25.574  1.00  0.00     0.163 HD
ATOM     35  O   UNL A   1      39.696  22.157  26.119  1.00  0.00    -0.269 OA
BRANCH  33  36
ATOM     36  C   UNL A   1      39.330  24.324  26.939  1.00  0.00     0.039 A 
ATOM     37  C   UNL A   1      38.999  24.530  28.282  1.00  0.00     0.014 A 
ATOM     38  C   UNL A   1      40.019  25.315  26.232  1.00  0.00     0.014 A 
ATOM     39  C   UNL A   1      39.393  25.707  28.927  1.00  0.00     0.010 A 
ATOM     40  C   UNL A   1      40.458  26.464  26.890  1.00  0.00     0.010 A 
ATOM     41  C   UNL A   1      40.142  26.676  28.241  1.00  0.00    -0.014 A 
BRANCH  41  42
ATOM     42  C   UNL A   1      40.586  27.924  28.916  1.00  0.00     0.031 A 
ATOM     43  C   UNL A   1      42.008  28.066  29.386  1.00  0.00     0.074 A 
ATOM     44  C   UNL A   1      39.701  28.911  29.153  1.00  0.00     0.049 A 
ATOM     45  N   UNL A   1      42.568  29.046  30.049  1.00  0.00    -0.248 NA
ATOM     46  C   UNL A   1      42.916  26.949  29.086  1.00  0.00     0.031 C 
ATOM     47  C   UNL A   1      38.287  28.885  28.777  1.00  0.00     0.029 A 
ATOM     48  N   UNL A   1      39.858  30.125  29.777  1.00  0.00    -0.354 N 
ATOM     49  C   UNL A   1      43.885  28.659  30.258  1.00  0.00     0.074 A 
ATOM     50  C   UNL A   1      44.030  27.335  29.690  1.00  0.00     0.031 C 
ATOM     51  C   UNL A   1      37.711  30.036  29.161  1.00  0.00     0.029 A 
ATOM     52  C   UNL A   1      38.704  30.865  29.840  1.00  0.00     0.049 A 
ATOM     53  H   UNL A   1      40.717  30.434  30.144  1.00  0.00     0.167 HD
ATOM     54  C   UNL A   1      44.889  29.351  30.849  1.00  0.00     0.037 A 
ATOM     55  C   UNL A   1      38.469  32.072  30.390  1.00  0.00     0.037 A 
ATOM     56  C   UNL A   1      44.753  30.677  31.394  1.00  0.00     0.049 A 
ATOM     57  C   UNL A   1      39.598  32.814  31.053  1.00  0.00     0.074 A 
ATOM     58  C   UNL A   1      45.725  31.479  31.968  1.00  0.00     0.029 A 
ATOM     59  N   UNL A   1      43.568  31.397  31.431  1.00  0.00    -0.354 N 
ATOM     60  N   UNL A   1      40.850  32.460  31.195  1.00  0.00    -0.248 NA
ATOM     61  C   UNL A   1      39.277  34.129  31.628  1.00  0.00     0.031 C 
ATOM     62  C   UNL A   1      45.120  32.669  32.387  1.00  0.00     0.029 A 
ATOM     63  C   UNL A   1      43.781  32.627  32.034  1.00  0.00     0.049 A 
ATOM     64  H   UNL A   1      42.705  31.081  31.080  1.00  0.00     0.167 HD
ATOM     65  C   UNL A   1      41.474  33.515  31.848  1.00  0.00     0.074 A 
ATOM     66  C   UNL A   1      40.464  34.528  32.065  1.00  0.00     0.031 C 
ATOM     67  C   UNL A   1      42.768  33.631  32.234  1.00  0.00     0.037 A 
BRANCH  54  68
ATOM     68  C   UNL A   1      46.231  28.686  30.937  1.00  0.00     0.064 A 
ATOM     69  C   UNL A   1      46.583  27.886  32.036  1.00  0.00     0.173 A 
ATOM     70  C   UNL A   1      47.161  28.814  29.895  1.00  0.00     0.173 A 
ATOM     71  F   UNL A   1      45.732  27.739  33.063  1.00  0.00    -0.203 F 
ATOM     72  C   UNL A   1      47.826  27.264  32.100  1.00  0.00     0.198 A 
ATOM     73  C   UNL A   1      48.394  28.166  29.950  1.00  0.00     0.198 A 
ATOM     74  F   UNL A   1      46.873  29.559  28.818  1.00  0.00    -0.203 F 
ATOM     75  F   UNL A   1      48.157  26.541  33.180  1.00  0.00    -0.200 F 
ATOM     76  C   UNL A   1      48.728  27.398  31.055  1.00  0.00     0.200 A 
ATOM     77  F   UNL A   1      49.258  28.286  28.933  1.00  0.00    -0.200 F 
ATOM     78  F   UNL A   1      49.921  26.792  31.115  1.00  0.00    -0.200 F 
ENDBRANCH  54  68
BRANCH  55  79
ATOM     79  C   UNL A   1      37.111  32.669  30.313  1.00  0.00     0.064 A 
ATOM     80  C   UNL A   1      36.176  32.455  31.337  1.00  0.00     0.173 A 
ATOM     81  C   UNL A   1      36.717  33.458  29.223  1.00  0.00     0.173 A 
ATOM     82  F   UNL A   1      36.500  31.689  32.389  1.00  0.00    -0.203 F 
ATOM     83  C   UNL A   1      34.894  32.995  31.264  1.00  0.00     0.198 A 
ATOM     84  C   UNL A   1      35.444  34.019  29.164  1.00  0.00     0.198 A 
ATOM     85  F   UNL A   1      37.576  33.695  28.221  1.00  0.00    -0.203 F 
ATOM     86  F   UNL A   1      34.008  32.743  32.237  1.00  0.00    -0.200 F 
ATOM     87  C   UNL A   1      34.530  33.782  30.181  1.00  0.00     0.200 A 
ATOM     88  F   UNL A   1      35.102  34.790  28.124  1.00  0.00    -0.200 F 
ATOM     89  F   UNL A   1      33.300  34.306  30.115  1.00  0.00    -0.200 F 
ENDBRANCH  55  79
BRANCH  67  90
ATOM     90  C   UNL A   1      43.176  34.913  32.898  1.00  0.00     0.064 A 
ATOM     91  C   UNL A   1      43.577  36.031  32.153  1.00  0.00     0.173 A 
ATOM     92  C   UNL A   1      43.124  35.037  34.295  1.00  0.00     0.173 A 
ATOM     93  F   UNL A   1      43.658  35.958  30.815  1.00  0.00    -0.203 F 
ATOM     94  C   UNL A   1      43.932  37.220  32.783  1.00  0.00     0.198 A 
ATOM     95  C   UNL A   1      43.455  36.235  34.920  1.00  0.00     0.198 A 
ATOM     96  F   UNL A   1      42.742  33.997  35.052  1.00  0.00    -0.203 F 
ATOM     97  F   UNL A   1      44.353  38.263  32.054  1.00  0.00    -0.200 F 
ATOM     98  C   UNL A   1      43.864  37.324  34.165  1.00  0.00     0.200 A 
ATOM     99  F   UNL A   1      43.377  36.337  36.254  1.00  0.00    -0.200 F 
ATOM    100  F   UNL A   1      44.201  38.472  34.770  1.00  0.00    -0.200 F 
ENDBRANCH  67  90
ENDBRANCH  41  42
ENDBRANCH  33  36
ENDBRANCH  31  32
ENDBRANCH  30  31
ENDBRANCH  29  30
ENDBRANCH   3  29
TORSDOF 15
ENDMDL
MODEL 3
REMARK VINA RESULT:     -12.7      3.766      7.281
REMARK SMILES CC(C)CC(=O)Nc1ccc(NC(=O)[C@@H]2CCCC[C@@H]2C(=O)NCCCNC(=O)c2ccc(-c3c4nc(c(-c5c(F)c(F)c(F)c(F)c5F)c5ccc([nH]5)c(-c5c(F)c(F)c(F)c(F)c5F)c5nc(c(-c6c(F)c(F)c(F)c(F)c6F)c6ccc3[nH]6)C=C5)C=C4)cc2)cc1
REMARK SMILES IDX 21 1 22 2 23 3 20 5 15 6 16 7 17 8 19 9 18 10 13 11 12 12
REMARK SMILES IDX 14 14 11 15 8 16 9 17 94 18 10 19 93 20 7 21 5 22 6 23 4 25
REMARK SMILES IDX 2 26 1 27 3 28 24 29 25 30 26 31 27 32 28 33 29 35 30 36
REMARK SMILES IDX 31 37 92 38 32 39 91 40 33 41 34 42 35 43 85 44 36 45 90 46
REMARK SMILES IDX 84 47 86 48 37 49 89 50 83 51 82 52 38 54 70 55 50 56 69 57
REMARK SMILES IDX 51 58 54 59 68 60 87 61 52 62 53 63 67 65 88 66 55 67 39 68
REMARK SMILES IDX 40 69 48 70 41 71 42 72 46 73 49 74 43 75 44 76 47 77 45 78
REMARK SMILES IDX 71 79 72 80 80 81 73 82 74 83 78 84 81 85 75 86 76 87 79 88
REMARK SMILES IDX 77 89 56 90 57 91 65 92 58 93 59 94 63 95 66 96 60 97 61 98
REMARK SMILES IDX 64 99 62 100
REMARK H PARENT 23 4 12 13 7 24 27 34 86 53 54 64
REMARK Flexibility Score: inf
ROOT
ATOM      1  C   UNL A   1      33.614  26.817  24.023  1.00  0.00     0.223 C 
ATOM      2  O   UNL A   1      33.985  27.865  23.491  1.00  0.00    -0.275 OA
ATOM      3  N   UNL A   1      34.558  25.870  24.293  1.00  0.00    -0.356 N 
ATOM      4  H   UNL A   1      35.468  26.129  24.022  1.00  0.00     0.163 HD
ENDROOT
BRANCH   1   5
ATOM      5  C   UNL A   1      32.157  26.593  24.409  1.00  0.00     0.091 C 
ATOM      6  C   UNL A   1      31.152  26.607  23.246  1.00  0.00     0.091 C 
ATOM      7  C   UNL A   1      30.795  28.012  22.750  1.00  0.00     0.014 C 
ATOM      8  C   UNL A   1      30.261  28.876  23.875  1.00  0.00     0.001 C 
ATOM      9  C   UNL A   1      31.709  27.584  25.511  1.00  0.00     0.014 C 
ATOM     10  C   UNL A   1      31.276  28.963  25.005  1.00  0.00     0.001 C 
BRANCH   6  11
ATOM     11  C   UNL A   1      31.517  25.824  22.013  1.00  0.00     0.228 C 
ATOM     12  N   UNL A   1      31.759  24.488  22.055  1.00  0.00    -0.326 N 
ATOM     13  H   UNL A   1      31.982  24.132  21.164  1.00  0.00     0.169 HD
ATOM     14  O   UNL A   1      31.512  26.339  20.891  1.00  0.00    -0.274 OA
BRANCH  12  15
ATOM     15  C   UNL A   1      31.775  23.478  23.032  1.00  0.00     0.041 A 
ATOM     16  C   UNL A   1      32.174  21.372  24.871  1.00  0.00     0.041 A 
ATOM     17  C   UNL A   1      31.226  22.349  25.132  1.00  0.00     0.028 A 
ATOM     18  C   UNL A   1      32.806  21.375  23.637  1.00  0.00     0.028 A 
ATOM     19  C   UNL A   1      31.028  23.395  24.212  1.00  0.00     0.028 A 
ATOM     20  C   UNL A   1      32.642  22.425  22.744  1.00  0.00     0.028 A 
BRANCH  16  21
ATOM     21  N   UNL A   1      32.445  20.363  25.802  1.00  0.00    -0.326 N 
ATOM     22  C   UNL A   1      32.732  19.044  25.527  1.00  0.00     0.224 C 
ATOM     23  O   UNL A   1      32.529  18.181  26.381  1.00  0.00    -0.275 OA
ATOM     24  H   UNL A   1      32.428  20.623  26.751  1.00  0.00     0.169 HD
BRANCH  22  25
ATOM     25  C   UNL A   1      33.522  18.733  24.252  1.00  0.00     0.103 C 
BRANCH  25  26
ATOM     26  C   UNL A   1      32.988  17.590  23.368  1.00  0.00    -0.008 C 
ATOM     27  C   UNL A   1      32.398  18.078  22.042  1.00  0.00     0.008 C 
ATOM     28  C   UNL A   1      34.133  16.622  23.048  1.00  0.00     0.008 C 
ENDBRANCH  25  26
ENDBRANCH  22  25
ENDBRANCH  16  21
ENDBRANCH  12  15
ENDBRANCH   6  11
ENDBRANCH   1   5
BRANCH   3  29
ATOM     29  C   UNL A   1      34.481  24.548  24.903  1.00  0.00     0.117 C 
BRANCH  29  30
ATOM     30  C   UNL A   1      35.789  23.753  24.873  1.00  0.00     0.042 C 
BRANCH  30  31
ATOM     31  C   UNL A   1      36.407  23.457  26.236  1.00  0.00     0.118 C 
BRANCH  31  32
ATOM     32  N   UNL A   1      37.556  22.569  26.128  1.00  0.00    -0.352 N 
ATOM     33  C   UNL A   1      38.888  22.862  26.269  1.00  0.00     0.251 C 
ATOM     34  H   UNL A   1      37.347  21.628  25.925  1.00  0.00     0.163 HD
ATOM     35  O   UNL A   1      39.737  22.045  25.909  1.00  0.00    -0.269 OA
BRANCH  33  36
ATOM     36  C   UNL A   1      39.321  24.157  26.840  1.00  0.00     0.039 A 
ATOM     37  C   UNL A   1      39.048  24.431  28.183  1.00  0.00     0.014 A 
ATOM     38  C   UNL A   1      39.948  25.123  26.046  1.00  0.00     0.014 A 
ATOM     39  C   UNL A   1      39.437  25.653  28.741  1.00  0.00     0.010 A 
ATOM     40  C   UNL A   1      40.384  26.320  26.617  1.00  0.00     0.010 A 
ATOM     41  C   UNL A   1      40.125  26.601  27.967  1.00  0.00    -0.014 A 
BRANCH  41  42
ATOM     42  C   UNL A   1      40.563  27.896  28.550  1.00  0.00     0.031 A 
ATOM     43  C   UNL A   1      42.002  28.106  28.931  1.00  0.00     0.074 A 
ATOM     44  C   UNL A   1      39.660  28.868  28.782  1.00  0.00     0.049 A 
ATOM     45  N   UNL A   1      42.565  29.138  29.510  1.00  0.00    -0.248 NA
ATOM     46  C   UNL A   1      42.930  27.002  28.642  1.00  0.00     0.031 C 
ATOM     47  C   UNL A   1      38.230  28.779  28.487  1.00  0.00     0.029 A 
ATOM     48  N   UNL A   1      39.810  30.118  29.331  1.00  0.00    -0.354 N 
ATOM     49  C   UNL A   1      43.903  28.802  29.665  1.00  0.00     0.074 A 
ATOM     50  C   UNL A   1      44.061  27.454  29.161  1.00  0.00     0.031 C 
ATOM     51  C   UNL A   1      37.637  29.932  28.841  1.00  0.00     0.029 A 
ATOM     52  C   UNL A   1      38.637  30.826  29.418  1.00  0.00     0.049 A 
ATOM     53  H   UNL A   1      40.677  30.473  29.632  1.00  0.00     0.167 HD
ATOM     54  C   UNL A   1      44.914  29.556  30.163  1.00  0.00     0.037 A 
ATOM     55  C   UNL A   1      38.393  32.054  29.915  1.00  0.00     0.037 A 
ATOM     56  C   UNL A   1      44.764  30.905  30.643  1.00  0.00     0.049 A 
ATOM     57  C   UNL A   1      39.530  32.865  30.474  1.00  0.00     0.074 A 
ATOM     58  C   UNL A   1      45.738  31.766  31.118  1.00  0.00     0.029 A 
ATOM     59  N   UNL A   1      43.560  31.590  30.707  1.00  0.00    -0.354 N 
ATOM     60  N   UNL A   1      40.800  32.557  30.565  1.00  0.00    -0.248 NA
ATOM     61  C   UNL A   1      39.198  34.199  30.996  1.00  0.00     0.031 C 
ATOM     62  C   UNL A   1      45.118  32.959  31.506  1.00  0.00     0.029 A 
ATOM     63  C   UNL A   1      43.765  32.857  31.231  1.00  0.00     0.049 A 
ATOM     64  H   UNL A   1      42.690  31.230  30.421  1.00  0.00     0.167 HD
ATOM     65  C   UNL A   1      41.423  33.664  31.126  1.00  0.00     0.074 A 
ATOM     66  C   UNL A   1      40.393  34.657  31.344  1.00  0.00     0.031 C 
ATOM     67  C   UNL A   1      42.731  33.840  31.433  1.00  0.00     0.037 A 
BRANCH  54  68
ATOM     68  C   UNL A   1      46.280  28.936  30.211  1.00  0.00     0.064 A 
ATOM     69  C   UNL A   1      47.173  29.044  29.134  1.00  0.00     0.173 A 
ATOM     70  C   UNL A   1      46.719  28.263  31.361  1.00  0.00     0.173 A 
ATOM     71  F   UNL A   1      46.798  29.671  28.007  1.00  0.00    -0.203 F 
ATOM     72  C   UNL A   1      48.442  28.477  29.195  1.00  0.00     0.198 A 
ATOM     73  C   UNL A   1      48.001  27.721  31.429  1.00  0.00     0.198 A 
ATOM     74  F   UNL A   1      45.909  28.138  32.423  1.00  0.00    -0.203 F 
ATOM     75  F   UNL A   1      49.261  28.554  28.136  1.00  0.00    -0.200 F 
ATOM     76  C   UNL A   1      48.858  27.822  30.345  1.00  0.00     0.200 A 
ATOM     77  F   UNL A   1      48.404  27.100  32.546  1.00  0.00    -0.200 F 
ATOM     78  F   UNL A   1      50.083  27.283  30.405  1.00  0.00    -0.200 F 
ENDBRANCH  54  68
BRANCH  55  79
ATOM     79  C   UNL A   1      37.013  32.605  29.882  1.00  0.00     0.064 A 
ATOM     80  C   UNL A   1      36.539  33.281  28.749  1.00  0.00     0.173 A 
ATOM     81  C   UNL A   1      36.145  32.470  30.975  1.00  0.00     0.173 A 
ATOM     82  F   UNL A   1      37.340  33.453  27.688  1.00  0.00    -0.203 F 
ATOM     83  C   UNL A   1      35.253  33.816  28.717  1.00  0.00     0.198 A 
ATOM     84  C   UNL A   1      34.851  32.983  30.932  1.00  0.00     0.198 A 
ATOM     85  F   UNL A   1      36.551  31.828  32.080  1.00  0.00    -0.203 F 
ATOM     86  F   UNL A   1      34.838  34.491  27.637  1.00  0.00    -0.200 F 
ATOM     87  C   UNL A   1      34.407  33.662  29.806  1.00  0.00     0.200 A 
ATOM     88  F   UNL A   1      34.033  32.819  31.980  1.00  0.00    -0.200 F 
ATOM     89  F   UNL A   1      33.169  34.171  29.773  1.00  0.00    -0.200 F 
ENDBRANCH  55  79
BRANCH  67  90
ATOM     90  C   UNL A   1      43.132  35.168  32.004  1.00  0.00     0.064 A 
ATOM     91  C   UNL A   1      43.057  35.429  33.379  1.00  0.00     0.173 A 
ATOM     92  C   UNL A   1      43.637  36.176  31.168  1.00  0.00     0.173 A 
ATOM     93  F   UNL A   1      42.566  34.503  34.217  1.00  0.00    -0.203 F 
ATOM     94  C   UNL A   1      43.452  36.660  33.895  1.00  0.00     0.198 A 
ATOM     95  C   UNL A   1      44.056  37.396  31.691  1.00  0.00     0.198 A 
ATOM     96  F   UNL A   1      43.733  35.973  29.846  1.00  0.00    -0.203 F 
ATOM     97  F   UNL A   1      43.332  36.904  35.208  1.00  0.00    -0.200 F 
ATOM     98  C   UNL A   1      43.958  37.640  33.053  1.00  0.00     0.200 A 
ATOM     99  F   UNL A   1      44.554  38.337  30.877  1.00  0.00    -0.200 F 
ATOM    100  F   UNL A   1      44.344  38.822  33.553  1.00  0.00    -0.200 F 
ENDBRANCH  67  90
ENDBRANCH  41  42
ENDBRANCH  33  36
ENDBRANCH  31  32
ENDBRANCH  30  31
ENDBRANCH  29  30
ENDBRANCH   3  29
TORSDOF 15
ENDMDL
