MODEL 1
REMARK VINA RESULT:     -14.0      0.000      0.000
REMARK SMILES Cc1ccc(C(=O)N2C[C@@H](C(=O)NCCCNC(=O)c3ccc(-c4c5nc(c(-c6c(F)c(F)c(F)c(F)c6F)c6ccc([nH]6)c(-c6c(F)c(F)c(F)c(F)c6F)c6nc(c(-c7c(F)c(F)c(F)c(F)c7F)c7ccc4[nH]7)C=C6)C=C5)cc3)C[C@H](C(=O)N3CCOCC3)C2)cc1F
REMARK SMILES IDX 15 1 14 2 13 3 11 4 12 5 10 7 8 8 9 9 93 10 84 11 83 12 6 13
REMARK SMILES IDX 7 14 5 15 1 16 2 17 3 18 95 19 4 20 94 21 96 22 85 23 86 24
REMARK SMILES IDX 87 25 88 26 92 27 89 28 91 29 90 30 16 31 17 32 18 33 19 35
REMARK SMILES IDX 20 36 21 37 82 38 22 39 81 40 23 41 24 42 25 43 75 44 26 45
REMARK SMILES IDX 80 46 74 47 76 48 27 49 79 50 73 51 72 52 28 54 60 55 40 56
REMARK SMILES IDX 59 57 41 58 44 59 58 60 77 61 42 62 43 63 57 65 78 66 45 67
REMARK SMILES IDX 29 68 30 69 38 70 31 71 32 72 36 73 39 74 33 75 34 76 37 77
REMARK SMILES IDX 35 78 61 79 62 80 70 81 63 82 64 83 68 84 71 85 65 86 66 87
REMARK SMILES IDX 69 88 67 89 46 90 47 91 55 92 48 93 49 94 53 95 56 96 50 97
REMARK SMILES IDX 51 98 54 99 52 100
REMARK H PARENT 13 6 17 34 76 53 44 64
REMARK Flexibility Score: inf
ROOT
ATOM      1  C   UNL A   1      33.434  28.169  26.916  1.00  0.00     0.042 C 
ENDROOT
BRANCH   1   2
ATOM      2  C   UNL A   1      32.451  28.362  25.779  1.00  0.00     0.117 C 
BRANCH   2   3
ATOM      3  N   UNL A   1      33.129  28.562  24.512  1.00  0.00    -0.356 N 
ATOM      4  C   UNL A   1      33.627  27.621  23.671  1.00  0.00     0.224 C 
ATOM      5  O   UNL A   1      34.309  27.969  22.710  1.00  0.00    -0.275 OA
ATOM      6  H   UNL A   1      33.241  29.498  24.225  1.00  0.00     0.163 HD
BRANCH   4   7
ATOM      7  C   UNL A   1      33.328  26.167  23.943  1.00  0.00     0.099 C 
ATOM      8  N   UNL A   1      34.601  24.080  24.579  1.00  0.00    -0.337 N 
ATOM      9  C   UNL A   1      34.498  25.526  24.683  1.00  0.00     0.133 C 
ATOM     10  C   UNL A   1      34.243  23.437  23.314  1.00  0.00     0.133 C 
ATOM     11  C   UNL A   1      32.913  23.931  22.723  1.00  0.00     0.099 C 
ATOM     12  C   UNL A   1      32.785  25.445  22.707  1.00  0.00     0.030 C 
BRANCH   8  13
ATOM     13  C   UNL A   1      35.299  23.479  25.625  1.00  0.00     0.254 C 
ATOM     14  O   UNL A   1      34.943  23.589  26.798  1.00  0.00    -0.269 OA
BRANCH  13  15
ATOM     15  C   UNL A   1      36.569  22.762  25.402  1.00  0.00     0.042 A 
ATOM     16  C   UNL A   1      39.893  20.092  25.887  1.00  0.00     0.047 C 
ATOM     17  C   UNL A   1      38.782  21.066  25.636  1.00  0.00    -0.015 A 
ATOM     18  C   UNL A   1      38.875  22.402  26.046  1.00  0.00     0.007 A 
ATOM     19  C   UNL A   1      37.592  20.615  25.057  1.00  0.00     0.126 A 
ATOM     20  C   UNL A   1      37.767  23.250  25.938  1.00  0.00     0.014 A 
ATOM     21  C   UNL A   1      36.488  21.446  24.941  1.00  0.00     0.053 A 
ATOM     22  F   UNL A   1      37.481  19.337  24.670  1.00  0.00    -0.207 F 
ENDBRANCH  13  15
ENDBRANCH   8  13
BRANCH  11  23
ATOM     23  C   UNL A   1      31.753  23.089  23.260  1.00  0.00     0.227 C 
ATOM     24  O   UNL A   1      31.481  22.038  22.667  1.00  0.00    -0.275 OA
ATOM     25  N   UNL A   1      31.225  23.343  24.499  1.00  0.00    -0.338 N 
ATOM     26  C   UNL A   1      30.649  24.585  25.010  1.00  0.00     0.148 C 
ATOM     27  C   UNL A   1      31.042  22.230  25.424  1.00  0.00     0.148 C 
ATOM     28  C   UNL A   1      31.253  24.914  26.385  1.00  0.00     0.181 C 
ATOM     29  C   UNL A   1      31.672  22.613  26.769  1.00  0.00     0.181 C 
ATOM     30  O   UNL A   1      31.068  23.812  27.292  1.00  0.00    -0.378 OA
ENDBRANCH  11  23
ENDBRANCH   4   7
ENDBRANCH   2   3
ENDBRANCH   1   2
BRANCH   1  31
ATOM     31  C   UNL A   1      34.623  29.045  26.686  1.00  0.00     0.118 C 
BRANCH  31  32
ATOM     32  N   UNL A   1      34.415  30.381  27.256  1.00  0.00    -0.352 N 
ATOM     33  C   UNL A   1      35.052  30.925  28.349  1.00  0.00     0.251 C 
ATOM     34  H   UNL A   1      33.748  30.949  26.809  1.00  0.00     0.163 HD
ATOM     35  O   UNL A   1      34.610  31.880  28.950  1.00  0.00    -0.269 OA
BRANCH  33  36
ATOM     36  C   UNL A   1      36.329  30.305  28.698  1.00  0.00     0.039 A 
ATOM     37  C   UNL A   1      36.505  29.502  29.822  1.00  0.00     0.014 A 
ATOM     38  C   UNL A   1      37.355  30.530  27.787  1.00  0.00     0.014 A 
ATOM     39  C   UNL A   1      37.752  28.926  30.012  1.00  0.00     0.010 A 
ATOM     40  C   UNL A   1      38.410  29.696  27.787  1.00  0.00     0.010 A 
ATOM     41  C   UNL A   1      38.685  29.045  28.979  1.00  0.00    -0.014 A 
BRANCH  41  42
ATOM     42  C   UNL A   1      40.058  28.604  29.021  1.00  0.00     0.031 A 
ATOM     43  C   UNL A   1      40.328  27.221  28.662  1.00  0.00     0.074 A 
ATOM     44  C   UNL A   1      40.958  29.597  29.215  1.00  0.00     0.049 A 
ATOM     45  N   UNL A   1      41.257  26.508  29.179  1.00  0.00    -0.248 NA
ATOM     46  C   UNL A   1      39.498  26.487  27.707  1.00  0.00     0.031 C 
ATOM     47  C   UNL A   1      42.396  29.645  29.042  1.00  0.00     0.029 A 
ATOM     48  N   UNL A   1      40.652  30.879  29.721  1.00  0.00    -0.354 N 
ATOM     49  C   UNL A   1      41.411  25.423  28.344  1.00  0.00     0.074 A 
ATOM     50  C   UNL A   1      40.181  25.344  27.596  1.00  0.00     0.031 C 
ATOM     51  C   UNL A   1      42.875  30.693  29.747  1.00  0.00     0.029 A 
ATOM     52  C   UNL A   1      41.759  31.296  30.466  1.00  0.00     0.049 A 
ATOM     53  H   UNL A   1      39.819  31.383  29.577  1.00  0.00     0.167 HD
ATOM     54  C   UNL A   1      42.664  24.897  28.214  1.00  0.00     0.037 A 
ATOM     55  C   UNL A   1      41.599  31.372  31.821  1.00  0.00     0.037 A 
ATOM     56  C   UNL A   1      43.603  25.698  29.012  1.00  0.00     0.049 A 
ATOM     57  C   UNL A   1      42.358  30.257  32.485  1.00  0.00     0.074 A 
ATOM     58  C   UNL A   1      44.449  26.740  28.660  1.00  0.00     0.029 A 
ATOM     59  N   UNL A   1      43.436  25.782  30.392  1.00  0.00    -0.354 N 
ATOM     60  N   UNL A   1      42.621  29.113  31.909  1.00  0.00    -0.248 NA
ATOM     61  C   UNL A   1      42.976  30.393  33.795  1.00  0.00     0.031 C 
ATOM     62  C   UNL A   1      44.732  27.491  29.834  1.00  0.00     0.029 A 
ATOM     63  C   UNL A   1      44.056  26.912  30.897  1.00  0.00     0.049 A 
ATOM     64  H   UNL A   1      42.943  25.126  30.935  1.00  0.00     0.167 HD
ATOM     65  C   UNL A   1      43.486  28.405  32.696  1.00  0.00     0.074 A 
ATOM     66  C   UNL A   1      43.667  29.243  33.871  1.00  0.00     0.031 C 
ATOM     67  C   UNL A   1      44.019  27.203  32.323  1.00  0.00     0.037 A 
BRANCH  54  68
ATOM     68  C   UNL A   1      43.111  23.923  27.145  1.00  0.00     0.064 A 
ATOM     69  C   UNL A   1      42.835  22.543  27.278  1.00  0.00     0.173 A 
ATOM     70  C   UNL A   1      43.799  24.266  25.964  1.00  0.00     0.173 A 
ATOM     71  F   UNL A   1      42.121  22.067  28.307  1.00  0.00    -0.203 F 
ATOM     72  C   UNL A   1      43.268  21.590  26.353  1.00  0.00     0.198 A 
ATOM     73  C   UNL A   1      44.266  23.308  25.055  1.00  0.00     0.198 A 
ATOM     74  F   UNL A   1      43.995  25.540  25.608  1.00  0.00    -0.203 F 
ATOM     75  F   UNL A   1      42.966  20.298  26.540  1.00  0.00    -0.200 F 
ATOM     76  C   UNL A   1      44.001  21.970  25.249  1.00  0.00     0.200 A 
ATOM     77  F   UNL A   1      44.962  23.699  23.977  1.00  0.00    -0.200 F 
ATOM     78  F   UNL A   1      44.422  21.056  24.364  1.00  0.00    -0.200 F 
ENDBRANCH  54  68
BRANCH  55  79
ATOM     79  C   UNL A   1      40.243  31.911  32.180  1.00  0.00     0.064 A 
ATOM     80  C   UNL A   1      39.383  31.003  32.841  1.00  0.00     0.173 A 
ATOM     81  C   UNL A   1      40.002  33.278  32.386  1.00  0.00     0.173 A 
ATOM     82  F   UNL A   1      39.534  29.683  32.648  1.00  0.00    -0.203 F 
ATOM     83  C   UNL A   1      38.501  31.427  33.832  1.00  0.00     0.198 A 
ATOM     84  C   UNL A   1      39.069  33.701  33.342  1.00  0.00     0.198 A 
ATOM     85  F   UNL A   1      40.750  34.200  31.765  1.00  0.00    -0.203 F 
ATOM     86  F   UNL A   1      37.860  30.523  34.587  1.00  0.00    -0.200 F 
ATOM     87  C   UNL A   1      38.376  32.775  34.111  1.00  0.00     0.200 A 
ATOM     88  F   UNL A   1      38.904  35.009  33.584  1.00  0.00    -0.200 F 
ATOM     89  F   UNL A   1      37.631  33.169  35.154  1.00  0.00    -0.200 F 
ENDBRANCH  55  79
BRANCH  67  90
ATOM     90  C   UNL A   1      44.651  26.217  33.273  1.00  0.00     0.064 A 
ATOM     91  C   UNL A   1      43.926  25.497  34.234  1.00  0.00     0.173 A 
ATOM     92  C   UNL A   1      46.006  25.834  33.119  1.00  0.00     0.173 A 
ATOM     93  F   UNL A   1      42.603  25.651  34.380  1.00  0.00    -0.203 F 
ATOM     94  C   UNL A   1      44.528  24.534  35.042  1.00  0.00     0.198 A 
ATOM     95  C   UNL A   1      46.578  24.808  33.863  1.00  0.00     0.198 A 
ATOM     96  F   UNL A   1      46.812  26.414  32.217  1.00  0.00    -0.203 F 
ATOM     97  F   UNL A   1      43.805  23.929  35.994  1.00  0.00    -0.200 F 
ATOM     98  C   UNL A   1      45.847  24.178  34.846  1.00  0.00     0.200 A 
ATOM     99  F   UNL A   1      47.835  24.421  33.603  1.00  0.00    -0.200 F 
ATOM    100  F   UNL A   1      46.405  23.211  35.586  1.00  0.00    -0.200 F 
ENDBRANCH  67  90
ENDBRANCH  41  42
ENDBRANCH  33  36
ENDBRANCH  31  32
ENDBRANCH   1  31
TORSDOF 13
ENDMDL
MODEL 2
REMARK VINA RESULT:     -13.9      2.433      3.872
REMARK SMILES Cc1ccc(C(=O)N2C[C@@H](C(=O)NCCCNC(=O)c3ccc(-c4c5nc(c(-c6c(F)c(F)c(F)c(F)c6F)c6ccc([nH]6)c(-c6c(F)c(F)c(F)c(F)c6F)c6nc(c(-c7c(F)c(F)c(F)c(F)c7F)c7ccc4[nH]7)C=C6)C=C5)cc3)C[C@H](C(=O)N3CCOCC3)C2)cc1F
REMARK SMILES IDX 15 1 14 2 13 3 11 4 12 5 10 7 8 8 9 9 93 10 84 11 83 12 6 13
REMARK SMILES IDX 7 14 5 15 1 16 2 17 3 18 95 19 4 20 94 21 96 22 85 23 86 24
REMARK SMILES IDX 87 25 88 26 92 27 89 28 91 29 90 30 16 31 17 32 18 33 19 35
REMARK SMILES IDX 20 36 21 37 82 38 22 39 81 40 23 41 24 42 25 43 75 44 26 45
REMARK SMILES IDX 80 46 74 47 76 48 27 49 79 50 73 51 72 52 28 54 60 55 40 56
REMARK SMILES IDX 59 57 41 58 44 59 58 60 77 61 42 62 43 63 57 65 78 66 45 67
REMARK SMILES IDX 29 68 30 69 38 70 31 71 32 72 36 73 39 74 33 75 34 76 37 77
REMARK SMILES IDX 35 78 61 79 62 80 70 81 63 82 64 83 68 84 71 85 65 86 66 87
REMARK SMILES IDX 69 88 67 89 46 90 47 91 55 92 48 93 49 94 53 95 56 96 50 97
REMARK SMILES IDX 51 98 54 99 52 100
REMARK H PARENT 13 6 17 34 76 53 44 64
REMARK Flexibility Score: inf
ROOT
ATOM      1  C   UNL A   1      33.264  31.361  27.181  1.00  0.00     0.042 C 
ENDROOT
BRANCH   1   2
ATOM      2  C   UNL A   1      33.483  29.937  26.715  1.00  0.00     0.117 C 
BRANCH   2   3
ATOM      3  N   UNL A   1      32.699  28.992  27.489  1.00  0.00    -0.356 N 
ATOM      4  C   UNL A   1      31.725  28.156  27.050  1.00  0.00     0.224 C 
ATOM      5  O   UNL A   1      31.053  27.529  27.867  1.00  0.00    -0.275 OA
ATOM      6  H   UNL A   1      32.899  28.952  28.453  1.00  0.00     0.163 HD
BRANCH   4   7
ATOM      7  C   UNL A   1      31.493  28.021  25.565  1.00  0.00     0.099 C 
ATOM      8  N   UNL A   1      32.775  27.244  23.532  1.00  0.00    -0.337 N 
ATOM      9  C   UNL A   1      32.541  27.093  24.958  1.00  0.00     0.133 C 
ATOM     10  C   UNL A   1      32.724  28.584  22.948  1.00  0.00     0.133 C 
ATOM     11  C   UNL A   1      31.502  29.406  23.387  1.00  0.00     0.099 C 
ATOM     12  C   UNL A   1      31.262  29.375  24.887  1.00  0.00     0.030 C 
BRANCH   8  13
ATOM     13  C   UNL A   1      33.297  26.109  22.914  1.00  0.00     0.254 C 
ATOM     14  O   UNL A   1      33.972  26.175  21.887  1.00  0.00    -0.269 OA
BRANCH  13  15
ATOM     15  C   UNL A   1      32.984  24.749  23.393  1.00  0.00     0.042 A 
ATOM     16  C   UNL A   1      32.462  20.493  23.553  1.00  0.00     0.047 C 
ATOM     17  C   UNL A   1      32.601  21.985  23.592  1.00  0.00    -0.015 A 
ATOM     18  C   UNL A   1      31.513  22.826  23.325  1.00  0.00     0.007 A 
ATOM     19  C   UNL A   1      33.859  22.551  23.814  1.00  0.00     0.126 A 
ATOM     20  C   UNL A   1      31.703  24.209  23.217  1.00  0.00     0.014 A 
ATOM     21  C   UNL A   1      34.060  23.920  23.713  1.00  0.00     0.053 A 
ATOM     22  F   UNL A   1      34.913  21.761  24.059  1.00  0.00    -0.207 F 
ENDBRANCH  13  15
ENDBRANCH   8  13
BRANCH  11  23
ATOM     23  C   UNL A   1      30.329  29.155  22.438  1.00  0.00     0.227 C 
ATOM     24  O   UNL A   1      30.243  28.040  21.911  1.00  0.00    -0.275 OA
ATOM     25  N   UNL A   1      29.272  30.027  22.394  1.00  0.00    -0.338 N 
ATOM     26  C   UNL A   1      29.281  31.461  22.111  1.00  0.00     0.148 C 
ATOM     27  C   UNL A   1      27.918  29.491  22.476  1.00  0.00     0.148 C 
ATOM     28  C   UNL A   1      28.463  32.208  23.176  1.00  0.00     0.181 C 
ATOM     29  C   UNL A   1      27.158  30.267  23.559  1.00  0.00     0.181 C 
ATOM     30  O   UNL A   1      27.129  31.674  23.252  1.00  0.00    -0.378 OA
ENDBRANCH  11  23
ENDBRANCH   4   7
ENDBRANCH   2   3
ENDBRANCH   1   2
BRANCH   1  31
ATOM     31  C   UNL A   1      34.508  31.852  27.849  1.00  0.00     0.118 C 
BRANCH  31  32
ATOM     32  N   UNL A   1      34.190  32.693  29.009  1.00  0.00    -0.352 N 
ATOM     33  C   UNL A   1      34.913  32.806  30.176  1.00  0.00     0.251 C 
ATOM     34  H   UNL A   1      33.371  33.234  28.946  1.00  0.00     0.163 HD
ATOM     35  O   UNL A   1      34.436  33.252  31.196  1.00  0.00    -0.269 OA
BRANCH  33  36
ATOM     36  C   UNL A   1      36.316  32.405  30.079  1.00  0.00     0.039 A 
ATOM     37  C   UNL A   1      37.296  33.198  29.486  1.00  0.00     0.014 A 
ATOM     38  C   UNL A   1      36.617  31.186  30.676  1.00  0.00     0.014 A 
ATOM     39  C   UNL A   1      38.601  32.729  29.506  1.00  0.00     0.010 A 
ATOM     40  C   UNL A   1      37.896  30.929  31.004  1.00  0.00     0.010 A 
ATOM     41  C   UNL A   1      38.868  31.590  30.269  1.00  0.00    -0.014 A 
BRANCH  41  42
ATOM     42  C   UNL A   1      40.130  30.894  30.342  1.00  0.00     0.031 A 
ATOM     43  C   UNL A   1      40.229  29.614  29.658  1.00  0.00     0.074 A 
ATOM     44  C   UNL A   1      41.136  31.615  30.892  1.00  0.00     0.049 A 
ATOM     45  N   UNL A   1      40.940  28.630  30.063  1.00  0.00    -0.248 NA
ATOM     46  C   UNL A   1      39.452  29.311  28.457  1.00  0.00     0.031 C 
ATOM     47  C   UNL A   1      42.572  31.424  30.897  1.00  0.00     0.029 A 
ATOM     48  N   UNL A   1      40.962  32.770  31.686  1.00  0.00    -0.354 N 
ATOM     49  C   UNL A   1      41.048  27.773  28.991  1.00  0.00     0.074 A 
ATOM     50  C   UNL A   1      39.953  28.119  28.119  1.00  0.00     0.031 C 
ATOM     51  C   UNL A   1      43.096  32.155  31.904  1.00  0.00     0.029 A 
ATOM     52  C   UNL A   1      41.991  32.769  32.632  1.00  0.00     0.049 A 
ATOM     53  H   UNL A   1      40.253  33.446  31.592  1.00  0.00     0.167 HD
ATOM     54  C   UNL A   1      42.206  27.061  28.864  1.00  0.00     0.037 A 
ATOM     55  C   UNL A   1      41.637  32.543  33.932  1.00  0.00     0.037 A 
ATOM     56  C   UNL A   1      43.124  27.446  29.944  1.00  0.00     0.049 A 
ATOM     57  C   UNL A   1      42.095  31.174  34.352  1.00  0.00     0.074 A 
ATOM     58  C   UNL A   1      44.169  28.357  29.979  1.00  0.00     0.029 A 
ATOM     59  N   UNL A   1      42.759  27.222  31.270  1.00  0.00    -0.354 N 
ATOM     60  N   UNL A   1      42.259  30.177  33.524  1.00  0.00    -0.248 NA
ATOM     61  C   UNL A   1      42.515  30.864  35.711  1.00  0.00     0.031 C 
ATOM     62  C   UNL A   1      44.382  28.729  31.335  1.00  0.00     0.029 A 
ATOM     63  C   UNL A   1      43.465  28.052  32.123  1.00  0.00     0.049 A 
ATOM     64  H   UNL A   1      42.089  26.562  31.560  1.00  0.00     0.167 HD
ATOM     65  C   UNL A   1      42.866  29.144  34.182  1.00  0.00     0.074 A 
ATOM     66  C   UNL A   1      42.992  29.619  35.551  1.00  0.00     0.031 C 
ATOM     67  C   UNL A   1      43.253  27.989  33.562  1.00  0.00     0.037 A 
BRANCH  54  68
ATOM     68  C   UNL A   1      42.653  26.309  27.628  1.00  0.00     0.064 A 
ATOM     69  C   UNL A   1      42.122  25.030  27.341  1.00  0.00     0.173 A 
ATOM     70  C   UNL A   1      43.583  26.778  26.678  1.00  0.00     0.173 A 
ATOM     71  F   UNL A   1      41.170  24.479  28.106  1.00  0.00    -0.203 F 
ATOM     72  C   UNL A   1      42.535  24.265  26.247  1.00  0.00     0.198 A 
ATOM     73  C   UNL A   1      44.025  25.996  25.603  1.00  0.00     0.198 A 
ATOM     74  F   UNL A   1      44.056  28.027  26.714  1.00  0.00    -0.203 F 
ATOM     75  F   UNL A   1      41.984  23.062  26.033  1.00  0.00    -0.200 F 
ATOM     76  C   UNL A   1      43.502  24.741  25.387  1.00  0.00     0.200 A 
ATOM     77  F   UNL A   1      44.953  26.484  24.766  1.00  0.00    -0.200 F 
ATOM     78  F   UNL A   1      43.903  24.006  24.341  1.00  0.00    -0.200 F 
ENDBRANCH  54  68
BRANCH  55  79
ATOM     79  C   UNL A   1      40.345  33.231  34.272  1.00  0.00     0.064 A 
ATOM     80  C   UNL A   1      39.246  32.375  34.519  1.00  0.00     0.173 A 
ATOM     81  C   UNL A   1      40.297  34.509  34.850  1.00  0.00     0.173 A 
ATOM     82  F   UNL A   1      39.212  31.157  33.955  1.00  0.00    -0.203 F 
ATOM     83  C   UNL A   1      38.285  32.685  35.478  1.00  0.00     0.198 A 
ATOM     84  C   UNL A   1      39.292  34.837  35.770  1.00  0.00     0.198 A 
ATOM     85  F   UNL A   1      41.282  35.390  34.632  1.00  0.00    -0.203 F 
ATOM     86  F   UNL A   1      37.382  31.761  35.842  1.00  0.00    -0.200 F 
ATOM     87  C   UNL A   1      38.333  33.900  36.134  1.00  0.00     0.200 A 
ATOM     88  F   UNL A   1      39.302  36.034  36.374  1.00  0.00    -0.200 F 
ATOM     89  F   UNL A   1      37.491  34.139  37.149  1.00  0.00    -0.200 F 
ENDBRANCH  55  79
BRANCH  67  90
ATOM     90  C   UNL A   1      43.563  26.698  34.276  1.00  0.00     0.064 A 
ATOM     91  C   UNL A   1      42.580  25.872  34.842  1.00  0.00     0.173 A 
ATOM     92  C   UNL A   1      44.873  26.160  34.258  1.00  0.00     0.173 A 
ATOM     93  F   UNL A   1      41.279  26.189  34.792  1.00  0.00    -0.203 F 
ATOM     94  C   UNL A   1      42.894  24.645  35.425  1.00  0.00     0.198 A 
ATOM     95  C   UNL A   1      45.166  24.895  34.757  1.00  0.00     0.198 A 
ATOM     96  F   UNL A   1      45.908  26.824  33.722  1.00  0.00    -0.203 F 
ATOM     97  F   UNL A   1      41.927  23.931  36.015  1.00  0.00    -0.200 F 
ATOM     98  C   UNL A   1      44.181  24.150  35.367  1.00  0.00     0.200 A 
ATOM     99  F   UNL A   1      46.403  24.397  34.620  1.00  0.00    -0.200 F 
ATOM    100  F   UNL A   1      44.466  22.945  35.877  1.00  0.00    -0.200 F 
ENDBRANCH  67  90
ENDBRANCH  41  42
ENDBRANCH  33  36
ENDBRANCH  31  32
ENDBRANCH   1  31
TORSDOF 13
ENDMDL
MODEL 3
REMARK VINA RESULT:     -13.8      1.861      3.388
REMARK SMILES Cc1ccc(C(=O)N2C[C@@H](C(=O)NCCCNC(=O)c3ccc(-c4c5nc(c(-c6c(F)c(F)c(F)c(F)c6F)c6ccc([nH]6)c(-c6c(F)c(F)c(F)c(F)c6F)c6nc(c(-c7c(F)c(F)c(F)c(F)c7F)c7ccc4[nH]7)C=C6)C=C5)cc3)C[C@H](C(=O)N3CCOCC3)C2)cc1F
REMARK SMILES IDX 15 1 14 2 13 3 11 4 12 5 10 7 8 8 9 9 93 10 84 11 83 12 6 13
REMARK SMILES IDX 7 14 5 15 1 16 2 17 3 18 95 19 4 20 94 21 96 22 85 23 86 24
REMARK SMILES IDX 87 25 88 26 92 27 89 28 91 29 90 30 16 31 17 32 18 33 19 35
REMARK SMILES IDX 20 36 21 37 82 38 22 39 81 40 23 41 24 42 25 43 75 44 26 45
REMARK SMILES IDX 80 46 74 47 76 48 27 49 79 50 73 51 72 52 28 54 60 55 40 56
REMARK SMILES IDX 59 57 41 58 44 59 58 60 77 61 42 62 43 63 57 65 78 66 45 67
REMARK SMILES IDX 29 68 30 69 38 70 31 71 32 72 36 73 39 74 33 75 34 76 37 77
REMARK SMILES IDX 35 78 61 79 62 80 70 81 63 82 64 83 68 84 71 85 65 86 66 87
REMARK SMILES IDX 69 88 67 89 46 90 47 91 55 92 48 93 49 94 53 95 56 96 50 97
REMARK SMILES IDX 51 98 54 99 52 100
REMARK H PARENT 13 6 17 34 76 53 44 64
REMARK Flexibility Score: inf
ROOT
ATOM      1  C   UNL A   1      33.333  28.274  26.624  1.00  0.00     0.042 C 
ENDROOT
BRANCH   1   2
ATOM      2  C   UNL A   1      33.410  27.870  25.166  1.00  0.00     0.117 C 
BRANCH   2   3
ATOM      3  N   UNL A   1      32.091  27.701  24.586  1.00  0.00    -0.356 N 
ATOM      4  C   UNL A   1      31.439  26.542  24.316  1.00  0.00     0.224 C 
ATOM      5  O   UNL A   1      30.387  26.575  23.680  1.00  0.00    -0.275 OA
ATOM      6  H   UNL A   1      31.608  28.530  24.360  1.00  0.00     0.163 HD
BRANCH   4   7
ATOM      7  C   UNL A   1      32.027  25.242  24.805  1.00  0.00     0.099 C 
ATOM      8  N   UNL A   1      31.921  22.792  24.197  1.00  0.00    -0.337 N 
ATOM      9  C   UNL A   1      31.878  24.168  23.732  1.00  0.00     0.133 C 
ATOM     10  C   UNL A   1      31.311  22.465  25.486  1.00  0.00     0.133 C 
ATOM     11  C   UNL A   1      31.695  23.433  26.617  1.00  0.00     0.099 C 
ATOM     12  C   UNL A   1      31.571  24.896  26.226  1.00  0.00     0.030 C 
BRANCH   8  13
ATOM     13  C   UNL A   1      32.306  21.870  23.225  1.00  0.00     0.254 C 
ATOM     14  O   UNL A   1      32.662  22.217  22.099  1.00  0.00    -0.269 OA
BRANCH  13  15
ATOM     15  C   UNL A   1      32.209  20.416  23.451  1.00  0.00     0.042 A 
ATOM     16  C   UNL A   1      33.243  16.316  24.189  1.00  0.00     0.047 C 
ATOM     17  C   UNL A   1      32.783  17.717  23.918  1.00  0.00    -0.015 A 
ATOM     18  C   UNL A   1      32.553  18.170  22.612  1.00  0.00     0.007 A 
ATOM     19  C   UNL A   1      32.662  18.618  24.979  1.00  0.00     0.126 A 
ATOM     20  C   UNL A   1      32.274  19.521  22.375  1.00  0.00     0.014 A 
ATOM     21  C   UNL A   1      32.383  19.959  24.759  1.00  0.00     0.053 A 
ATOM     22  F   UNL A   1      32.891  18.205  26.234  1.00  0.00    -0.207 F 
ENDBRANCH  13  15
ENDBRANCH   8  13
BRANCH  11  23
ATOM     23  C   UNL A   1      32.970  22.952  27.313  1.00  0.00     0.227 C 
ATOM     24  O   UNL A   1      32.848  22.331  28.375  1.00  0.00    -0.275 OA
ATOM     25  N   UNL A   1      34.170  22.963  26.650  1.00  0.00    -0.338 N 
ATOM     26  C   UNL A   1      34.858  24.090  26.023  1.00  0.00     0.148 C 
ATOM     27  C   UNL A   1      34.994  21.759  26.673  1.00  0.00     0.148 C 
ATOM     28  C   UNL A   1      35.300  23.705  24.602  1.00  0.00     0.181 C 
ATOM     29  C   UNL A   1      35.394  21.422  25.232  1.00  0.00     0.181 C 
ATOM     30  O   UNL A   1      36.112  22.517  24.633  1.00  0.00    -0.378 OA
ENDBRANCH  11  23
ENDBRANCH   4   7
ENDBRANCH   2   3
ENDBRANCH   1   2
BRANCH   1  31
ATOM     31  C   UNL A   1      34.703  28.633  27.104  1.00  0.00     0.118 C 
BRANCH  31  32
ATOM     32  N   UNL A   1      34.676  29.856  27.914  1.00  0.00    -0.352 N 
ATOM     33  C   UNL A   1      35.650  30.299  28.781  1.00  0.00     0.251 C 
ATOM     34  H   UNL A   1      33.876  30.422  27.827  1.00  0.00     0.163 HD
ATOM     35  O   UNL A   1      35.429  31.122  29.642  1.00  0.00    -0.269 OA
BRANCH  33  36
ATOM     36  C   UNL A   1      36.985  29.748  28.551  1.00  0.00     0.039 A 
ATOM     37  C   UNL A   1      37.763  30.074  27.443  1.00  0.00     0.014 A 
ATOM     38  C   UNL A   1      37.450  28.908  29.557  1.00  0.00     0.014 A 
ATOM     39  C   UNL A   1      39.035  29.526  27.367  1.00  0.00     0.010 A 
ATOM     40  C   UNL A   1      38.775  28.691  29.651  1.00  0.00     0.010 A 
ATOM     41  C   UNL A   1      39.510  28.836  28.485  1.00  0.00    -0.014 A 
BRANCH  41  42
ATOM     42  C   UNL A   1      40.758  28.117  28.570  1.00  0.00     0.031 A 
ATOM     43  C   UNL A   1      40.709  26.671  28.417  1.00  0.00     0.074 A 
ATOM     44  C   UNL A   1      41.858  28.906  28.600  1.00  0.00     0.049 A 
ATOM     45  N   UNL A   1      41.487  25.853  29.019  1.00  0.00    -0.248 NA
ATOM     46  C   UNL A   1      39.697  26.009  27.595  1.00  0.00     0.031 C 
ATOM     47  C   UNL A   1      43.263  28.614  28.399  1.00  0.00     0.029 A 
ATOM     48  N   UNL A   1      41.857  30.283  28.914  1.00  0.00    -0.354 N 
ATOM     49  C   UNL A   1      41.367  24.654  28.353  1.00  0.00     0.074 A 
ATOM     50  C   UNL A   1      40.114  24.740  27.645  1.00  0.00     0.031 C 
ATOM     51  C   UNL A   1      43.988  29.622  28.932  1.00  0.00     0.029 A 
ATOM     52  C   UNL A   1      43.062  30.549  29.572  1.00  0.00     0.049 A 
ATOM     53  H   UNL A   1      41.145  30.931  28.710  1.00  0.00     0.167 HD
ATOM     54  C   UNL A   1      42.471  23.854  28.283  1.00  0.00     0.037 A 
ATOM     55  C   UNL A   1      42.988  30.850  30.902  1.00  0.00     0.037 A 
ATOM     56  C   UNL A   1      43.596  24.536  28.938  1.00  0.00     0.049 A 
ATOM     57  C   UNL A   1      43.521  29.701  31.713  1.00  0.00     0.074 A 
ATOM     58  C   UNL A   1      44.627  25.307  28.422  1.00  0.00     0.029 A 
ATOM     59  N   UNL A   1      43.517  24.849  30.293  1.00  0.00    -0.354 N 
ATOM     60  N   UNL A   1      43.506  28.458  31.309  1.00  0.00    -0.248 NA
ATOM     61  C   UNL A   1      44.216  29.884  32.978  1.00  0.00     0.031 C 
ATOM     62  C   UNL A   1      45.119  26.136  29.466  1.00  0.00     0.029 A 
ATOM     63  C   UNL A   1      44.387  25.876  30.614  1.00  0.00     0.049 A 
ATOM     64  H   UNL A   1      42.921  24.400  30.935  1.00  0.00     0.167 HD
ATOM     65  C   UNL A   1      44.236  27.697  32.179  1.00  0.00     0.074 A 
ATOM     66  C   UNL A   1      44.648  28.633  33.213  1.00  0.00     0.031 C 
ATOM     67  C   UNL A   1      44.482  26.367  31.981  1.00  0.00     0.037 A 
BRANCH  54  68
ATOM     68  C   UNL A   1      42.647  22.664  27.364  1.00  0.00     0.064 A 
ATOM     69  C   UNL A   1      41.861  21.503  27.543  1.00  0.00     0.173 A 
ATOM     70  C   UNL A   1      43.552  22.593  26.285  1.00  0.00     0.173 A 
ATOM     71  F   UNL A   1      40.902  21.443  28.476  1.00  0.00    -0.203 F 
ATOM     72  C   UNL A   1      42.016  20.354  26.762  1.00  0.00     0.198 A 
ATOM     73  C   UNL A   1      43.733  21.429  25.527  1.00  0.00     0.198 A 
ATOM     74  F   UNL A   1      44.251  23.658  25.882  1.00  0.00    -0.203 F 
ATOM     75  F   UNL A   1      41.232  19.290  26.985  1.00  0.00    -0.200 F 
ATOM     76  C   UNL A   1      42.966  20.310  25.764  1.00  0.00     0.200 A 
ATOM     77  F   UNL A   1      44.650  21.412  24.547  1.00  0.00    -0.200 F 
ATOM     78  F   UNL A   1      43.119  19.208  25.019  1.00  0.00    -0.200 F 
ENDBRANCH  54  68
BRANCH  55  79
ATOM     79  C   UNL A   1      41.797  31.717  31.199  1.00  0.00     0.064 A 
ATOM     80  C   UNL A   1      41.788  32.978  30.561  1.00  0.00     0.173 A 
ATOM     81  C   UNL A   1      40.553  31.190  31.580  1.00  0.00     0.173 A 
ATOM     82  F   UNL A   1      42.950  33.556  30.213  1.00  0.00    -0.203 F 
ATOM     83  C   UNL A   1      40.604  33.559  30.113  1.00  0.00     0.198 A 
ATOM     84  C   UNL A   1      39.362  31.811  31.178  1.00  0.00     0.198 A 
ATOM     85  F   UNL A   1      40.481  30.017  32.223  1.00  0.00    -0.203 F 
ATOM     86  F   UNL A   1      40.647  34.643  29.324  1.00  0.00    -0.200 F 
ATOM     87  C   UNL A   1      39.393  32.951  30.385  1.00  0.00     0.200 A 
ATOM     88  F   UNL A   1      38.181  31.255  31.482  1.00  0.00    -0.200 F 
ATOM     89  F   UNL A   1      38.270  33.437  29.838  1.00  0.00    -0.200 F 
ENDBRANCH  55  79
BRANCH  67  90
ATOM     90  C   UNL A   1      44.933  25.412  33.057  1.00  0.00     0.064 A 
ATOM     91  C   UNL A   1      46.244  24.926  33.158  1.00  0.00     0.173 A 
ATOM     92  C   UNL A   1      44.079  25.092  34.141  1.00  0.00     0.173 A 
ATOM     93  F   UNL A   1      47.196  25.275  32.282  1.00  0.00    -0.203 F 
ATOM     94  C   UNL A   1      46.648  24.107  34.212  1.00  0.00     0.198 A 
ATOM     95  C   UNL A   1      44.512  24.353  35.236  1.00  0.00     0.198 A 
ATOM     96  F   UNL A   1      42.807  25.515  34.194  1.00  0.00    -0.203 F 
ATOM     97  F   UNL A   1      47.891  23.610  34.221  1.00  0.00    -0.200 F 
ATOM     98  C   UNL A   1      45.788  23.836  35.258  1.00  0.00     0.200 A 
ATOM     99  F   UNL A   1      43.690  24.168  36.279  1.00  0.00    -0.200 F 
ATOM    100  F   UNL A   1      46.198  23.097  36.297  1.00  0.00    -0.200 F 
ENDBRANCH  67  90
ENDBRANCH  41  42
ENDBRANCH  33  36
ENDBRANCH  31  32
ENDBRANCH   1  31
TORSDOF 13
ENDMDL
