MODEL 1
REMARK VINA RESULT:     -13.0      0.000      0.000
REMARK SMILES O=C(NCCCNC(=O)c1ccc(-c2c3nc(c(-c4c(F)c(F)c(F)c(F)c4F)c4ccc([nH]4)c(-c4c(F)c(F)c(F)c(F)c4F)c4nc(c(-c5c(F)c(F)c(F)c(F)c5F)c5ccc2[nH]5)C=C4)C=C3)cc1)C1=Cc2cc(S(F)(F)(F)(F)F)cc(Br)c2O[C@H]1C(F)(F)F
REMARK SMILES IDX 5 1 4 2 3 3 1 4 2 5 73 7 74 8 89 9 75 10 88 11 76 12 87 13
REMARK SMILES IDX 77 14 85 15 84 16 86 17 90 18 91 19 92 20 93 21 78 22 79 23
REMARK SMILES IDX 80 24 81 25 82 26 83 27 6 28 7 29 8 30 9 32 10 33 11 34
REMARK SMILES IDX 72 35 12 36 71 37 13 38 14 39 15 40 65 41 16 42 70 43 64 44
REMARK SMILES IDX 66 45 17 46 69 47 63 48 62 49 18 51 50 52 30 53 49 54 31 55
REMARK SMILES IDX 34 56 48 57 67 58 32 59 33 60 47 62 68 63 35 64 19 65 20 66
REMARK SMILES IDX 28 67 21 68 22 69 26 70 29 71 23 72 24 73 27 74 25 75 51 76
REMARK SMILES IDX 52 77 60 78 53 79 54 80 58 81 61 82 55 83 56 84 59 85 57 86
REMARK SMILES IDX 36 87 37 88 45 89 38 90 39 91 43 92 46 93 40 94 41 95 44 96
REMARK SMILES IDX 42 97
REMARK H PARENT 3 6 7 31 66 50 34 61
REMARK Flexibility Score: inf
ROOT
ATOM      1  C   UNL A   1      36.170  23.574  26.097  1.00  0.00     0.042 C 
ENDROOT
BRANCH   1   2
ATOM      2  C   UNL A   1      35.414  22.297  25.771  1.00  0.00     0.118 C 
BRANCH   2   3
ATOM      3  N   UNL A   1      35.049  22.293  24.347  1.00  0.00    -0.352 N 
ATOM      4  O   UNL A   1      33.320  22.217  22.719  1.00  0.00    -0.270 OA
ATOM      5  C   UNL A   1      33.635  22.220  23.951  1.00  0.00     0.251 C 
ATOM      6  H   UNL A   1      35.752  22.339  23.659  1.00  0.00     0.163 HD
BRANCH   5   7
ATOM      7  C   UNL A   1      32.551  22.149  25.013  1.00  0.00     0.067 C 
ATOM      8  C   UNL A   1      32.137  23.284  25.639  1.00  0.00     0.025 C 
ATOM      9  C   UNL A   1      31.928  20.810  25.376  1.00  0.00     0.314 C 
ATOM     10  C   UNL A   1      32.758  24.622  25.277  1.00  0.00     0.020 A 
ATOM     11  O   UNL A   1      32.778  23.826  23.037  1.00  0.00    -0.474 OA
ATOM     12  C   UNL A   1      33.030  25.584  26.235  1.00  0.00     0.036 A 
ATOM     13  C   UNL A   1      32.910  24.878  23.982  1.00  0.00     0.142 A 
ATOM     14  C   UNL A   1      33.183  26.890  25.711  1.00  0.00     0.109 A 
ATOM     15  C   UNL A   1      33.193  26.151  23.549  1.00  0.00     0.062 A 
ATOM     16  C   UNL A   1      33.414  27.164  24.440  1.00  0.00     0.044 A 
ATOM     17  Br  UNL A   1      33.278  26.520  21.626  1.00  0.00    -0.047 Br
BRANCH   9  18
ATOM     18  C   UNL A   1      32.564  19.713  24.537  1.00  0.00     0.429 C 
ATOM     19  F   UNL A   1      32.153  18.526  24.975  1.00  0.00    -0.167 F 
ATOM     20  F   UNL A   1      32.208  19.864  23.265  1.00  0.00    -0.167 F 
ATOM     21  F   UNL A   1      33.888  19.788  24.639  1.00  0.00    -0.167 F 
ENDBRANCH   9  18
BRANCH  14  22
ATOM     22  S   UNL A   1      33.051  28.280  26.862  1.00  0.00     0.310 S 
ATOM     23  F   UNL A   1      33.131  29.344  25.688  1.00  0.00    -0.094 F 
ATOM     24  F   UNL A   1      34.623  28.334  26.927  1.00  0.00    -0.094 F 
ATOM     25  F   UNL A   1      32.940  29.473  27.853  1.00  0.00    -0.094 F 
ATOM     26  F   UNL A   1      31.482  28.301  26.675  1.00  0.00    -0.094 F 
ATOM     27  F   UNL A   1      33.150  27.143  25.768  1.00  0.00    -0.094 F 
ENDBRANCH  14  22
ENDBRANCH   5   7
ENDBRANCH   2   3
ENDBRANCH   1   2
BRANCH   1  28
ATOM     28  C   UNL A   1      37.368  23.703  25.169  1.00  0.00     0.118 C 
BRANCH  28  29
ATOM     29  N   UNL A   1      38.277  22.569  25.381  1.00  0.00    -0.352 N 
ATOM     30  C   UNL A   1      39.468  22.728  26.229  1.00  0.00     0.251 C 
ATOM     31  H   UNL A   1      38.089  21.701  24.957  1.00  0.00     0.163 HD
ATOM     32  O   UNL A   1      40.254  21.747  26.412  1.00  0.00    -0.269 OA
BRANCH  30  33
ATOM     33  C   UNL A   1      39.758  24.069  26.885  1.00  0.00     0.039 A 
ATOM     34  C   UNL A   1      39.453  24.350  28.206  1.00  0.00     0.014 A 
ATOM     35  C   UNL A   1      40.394  24.950  26.123  1.00  0.00     0.014 A 
ATOM     36  C   UNL A   1      39.606  25.713  28.553  1.00  0.00     0.010 A 
ATOM     37  C   UNL A   1      40.631  26.225  26.576  1.00  0.00     0.010 A 
ATOM     38  C   UNL A   1      40.302  26.590  27.852  1.00  0.00    -0.014 A 
BRANCH  38  39
ATOM     39  C   UNL A   1      40.714  27.933  28.433  1.00  0.00     0.031 A 
ATOM     40  C   UNL A   1      42.058  28.042  28.793  1.00  0.00     0.074 A 
ATOM     41  C   UNL A   1      39.763  28.908  28.684  1.00  0.00     0.049 A 
ATOM     42  N   UNL A   1      42.659  29.073  29.388  1.00  0.00    -0.248 NA
ATOM     43  C   UNL A   1      43.062  26.995  28.558  1.00  0.00     0.031 C 
ATOM     44  C   UNL A   1      38.407  28.808  28.315  1.00  0.00     0.029 A 
ATOM     45  N   UNL A   1      39.941  30.118  29.316  1.00  0.00    -0.354 N 
ATOM     46  C   UNL A   1      43.959  28.816  29.554  1.00  0.00     0.074 A 
ATOM     47  C   UNL A   1      44.235  27.473  29.028  1.00  0.00     0.031 C 
ATOM     48  C   UNL A   1      37.774  29.937  28.730  1.00  0.00     0.029 A 
ATOM     49  C   UNL A   1      38.724  30.761  29.363  1.00  0.00     0.049 A 
ATOM     50  H   UNL A   1      40.790  30.464  29.672  1.00  0.00     0.167 HD
ATOM     51  C   UNL A   1      44.923  29.651  30.121  1.00  0.00     0.037 A 
ATOM     52  C   UNL A   1      38.437  31.995  29.925  1.00  0.00     0.037 A 
ATOM     53  C   UNL A   1      44.644  30.904  30.643  1.00  0.00     0.049 A 
ATOM     54  C   UNL A   1      39.392  32.805  30.545  1.00  0.00     0.074 A 
ATOM     55  C   UNL A   1      45.607  31.760  31.211  1.00  0.00     0.029 A 
ATOM     56  N   UNL A   1      43.423  31.536  30.713  1.00  0.00    -0.354 N 
ATOM     57  N   UNL A   1      40.697  32.565  30.675  1.00  0.00    -0.248 NA
ATOM     58  C   UNL A   1      39.093  34.099  31.171  1.00  0.00     0.031 C 
ATOM     59  C   UNL A   1      44.973  32.890  31.627  1.00  0.00     0.029 A 
ATOM     60  C   UNL A   1      43.604  32.756  31.325  1.00  0.00     0.049 A 
ATOM     61  H   UNL A   1      42.568  31.177  30.382  1.00  0.00     0.167 HD
ATOM     62  C   UNL A   1      41.290  33.580  31.308  1.00  0.00     0.074 A 
ATOM     63  C   UNL A   1      40.266  34.578  31.643  1.00  0.00     0.031 C 
ATOM     64  C   UNL A   1      42.645  33.714  31.616  1.00  0.00     0.037 A 
BRANCH  51  65
ATOM     65  C   UNL A   1      46.360  29.157  30.167  1.00  0.00     0.064 A 
ATOM     66  C   UNL A   1      47.170  29.409  29.072  1.00  0.00     0.173 A 
ATOM     67  C   UNL A   1      46.797  28.440  31.196  1.00  0.00     0.173 A 
ATOM     68  F   UNL A   1      46.876  30.318  28.147  1.00  0.00    -0.203 F 
ATOM     69  C   UNL A   1      48.338  28.612  29.028  1.00  0.00     0.198 A 
ATOM     70  C   UNL A   1      48.009  27.798  31.136  1.00  0.00     0.198 A 
ATOM     71  F   UNL A   1      46.052  28.341  32.294  1.00  0.00    -0.203 F 
ATOM     72  F   UNL A   1      48.979  28.518  27.865  1.00  0.00    -0.200 F 
ATOM     73  C   UNL A   1      48.836  27.954  30.058  1.00  0.00     0.200 A 
ATOM     74  F   UNL A   1      48.386  27.012  32.142  1.00  0.00    -0.200 F 
ATOM     75  F   UNL A   1      50.074  27.471  30.049  1.00  0.00    -0.200 F 
ENDBRANCH  51  65
BRANCH  52  76
ATOM     76  C   UNL A   1      37.003  32.495  29.863  1.00  0.00     0.064 A 
ATOM     77  C   UNL A   1      36.627  33.214  28.740  1.00  0.00     0.173 A 
ATOM     78  C   UNL A   1      36.128  32.199  30.816  1.00  0.00     0.173 A 
ATOM     79  F   UNL A   1      37.390  33.316  27.655  1.00  0.00    -0.203 F 
ATOM     80  C   UNL A   1      35.357  33.828  28.851  1.00  0.00     0.198 A 
ATOM     81  C   UNL A   1      34.859  32.726  30.789  1.00  0.00     0.198 A 
ATOM     82  F   UNL A   1      36.481  31.383  31.805  1.00  0.00    -0.203 F 
ATOM     83  F   UNL A   1      35.068  34.809  28.001  1.00  0.00    -0.200 F 
ATOM     84  C   UNL A   1      34.439  33.494  29.738  1.00  0.00     0.200 A 
ATOM     85  F   UNL A   1      34.028  32.488  31.800  1.00  0.00    -0.200 F 
ATOM     86  F   UNL A   1      33.172  33.883  29.617  1.00  0.00    -0.200 F 
ENDBRANCH  52  76
BRANCH  64  87
ATOM     87  C   UNL A   1      43.095  34.987  32.312  1.00  0.00     0.064 A 
ATOM     88  C   UNL A   1      43.161  35.092  33.692  1.00  0.00     0.173 A 
ATOM     89  C   UNL A   1      43.466  35.993  31.527  1.00  0.00     0.173 A 
ATOM     90  F   UNL A   1      43.046  34.046  34.505  1.00  0.00    -0.203 F 
ATOM     91  C   UNL A   1      43.364  36.413  34.158  1.00  0.00     0.198 A 
ATOM     92  C   UNL A   1      43.782  37.218  32.061  1.00  0.00     0.198 A 
ATOM     93  F   UNL A   1      43.533  35.810  30.211  1.00  0.00    -0.203 F 
ATOM     94  F   UNL A   1      43.086  36.668  35.433  1.00  0.00    -0.200 F 
ATOM     95  C   UNL A   1      43.809  37.409  33.415  1.00  0.00     0.200 A 
ATOM     96  F   UNL A   1      44.063  38.233  31.250  1.00  0.00    -0.200 F 
ATOM     97  F   UNL A   1      44.261  38.538  33.955  1.00  0.00    -0.200 F 
ENDBRANCH  64  87
ENDBRANCH  38  39
ENDBRANCH  30  33
ENDBRANCH  28  29
ENDBRANCH   1  28
TORSDOF 12
ENDMDL
MODEL 2
REMARK VINA RESULT:     -12.9      3.662      8.139
REMARK SMILES O=C(NCCCNC(=O)c1ccc(-c2c3nc(c(-c4c(F)c(F)c(F)c(F)c4F)c4ccc([nH]4)c(-c4c(F)c(F)c(F)c(F)c4F)c4nc(c(-c5c(F)c(F)c(F)c(F)c5F)c5ccc2[nH]5)C=C4)C=C3)cc1)C1=Cc2cc(S(F)(F)(F)(F)F)cc(Br)c2O[C@H]1C(F)(F)F
REMARK SMILES IDX 5 1 4 2 3 3 1 4 2 5 73 7 74 8 89 9 75 10 88 11 76 12 87 13
REMARK SMILES IDX 77 14 85 15 84 16 86 17 90 18 91 19 92 20 93 21 78 22 79 23
REMARK SMILES IDX 80 24 81 25 82 26 83 27 6 28 7 29 8 30 9 32 10 33 11 34
REMARK SMILES IDX 72 35 12 36 71 37 13 38 14 39 15 40 65 41 16 42 70 43 64 44
REMARK SMILES IDX 66 45 17 46 69 47 63 48 62 49 18 51 50 52 30 53 49 54 31 55
REMARK SMILES IDX 34 56 48 57 67 58 32 59 33 60 47 62 68 63 35 64 19 65 20 66
REMARK SMILES IDX 28 67 21 68 22 69 26 70 29 71 23 72 24 73 27 74 25 75 51 76
REMARK SMILES IDX 52 77 60 78 53 79 54 80 58 81 61 82 55 83 56 84 59 85 57 86
REMARK SMILES IDX 36 87 37 88 45 89 38 90 39 91 43 92 46 93 40 94 41 95 44 96
REMARK SMILES IDX 42 97
REMARK H PARENT 3 6 7 31 66 50 34 61
REMARK Flexibility Score: inf
ROOT
ATOM      1  C   UNL A   1      33.850  28.182  25.815  1.00  0.00     0.042 C 
ENDROOT
BRANCH   1   2
ATOM      2  C   UNL A   1      32.606  28.744  25.148  1.00  0.00     0.118 C 
BRANCH   2   3
ATOM      3  N   UNL A   1      31.425  27.999  25.609  1.00  0.00    -0.352 N 
ATOM      4  O   UNL A   1      29.673  26.485  25.074  1.00  0.00    -0.270 OA
ATOM      5  C   UNL A   1      30.694  27.129  24.675  1.00  0.00     0.251 C 
ATOM      6  H   UNL A   1      31.124  28.082  26.543  1.00  0.00     0.163 HD
BRANCH   5   7
ATOM      7  C   UNL A   1      31.159  27.001  23.234  1.00  0.00     0.067 C 
ATOM      8  C   UNL A   1      32.185  26.164  22.922  1.00  0.00     0.025 C 
ATOM      9  C   UNL A   1      30.477  27.808  22.140  1.00  0.00     0.314 C 
ATOM     10  C   UNL A   1      32.867  25.358  24.015  1.00  0.00     0.020 A 
ATOM     11  O   UNL A   1      30.701  25.114  24.965  1.00  0.00    -0.474 OA
ATOM     12  C   UNL A   1      34.236  25.147  24.021  1.00  0.00     0.036 A 
ATOM     13  C   UNL A   1      32.074  24.755  24.894  1.00  0.00     0.142 A 
ATOM     14  C   UNL A   1      34.645  24.050  24.816  1.00  0.00     0.109 A 
ATOM     15  C   UNL A   1      32.569  23.788  25.735  1.00  0.00     0.062 A 
ATOM     16  C   UNL A   1      33.903  23.486  25.751  1.00  0.00     0.044 A 
ATOM     17  Br  UNL A   1      31.346  22.824  26.925  1.00  0.00    -0.047 Br
BRANCH   9  18
ATOM     18  C   UNL A   1      29.373  28.656  22.751  1.00  0.00     0.429 C 
ATOM     19  F   UNL A   1      28.838  29.431  21.811  1.00  0.00    -0.167 F 
ATOM     20  F   UNL A   1      28.434  27.862  23.259  1.00  0.00    -0.167 F 
ATOM     21  F   UNL A   1      29.881  29.416  23.716  1.00  0.00    -0.167 F 
ENDBRANCH   9  18
BRANCH  14  22
ATOM     22  S   UNL A   1      36.298  23.373  24.531  1.00  0.00     0.310 S 
ATOM     23  F   UNL A   1      36.015  22.117  25.456  1.00  0.00    -0.094 F 
ATOM     24  F   UNL A   1      36.795  24.127  25.821  1.00  0.00    -0.094 F 
ATOM     25  F   UNL A   1      37.721  22.796  24.286  1.00  0.00    -0.094 F 
ATOM     26  F   UNL A   1      35.752  22.514  23.323  1.00  0.00    -0.094 F 
ATOM     27  F   UNL A   1      34.825  23.862  24.831  1.00  0.00    -0.094 F 
ENDBRANCH  14  22
ENDBRANCH   5   7
ENDBRANCH   2   3
ENDBRANCH   1   2
BRANCH   1  28
ATOM     28  C   UNL A   1      33.785  28.442  27.311  1.00  0.00     0.118 C 
BRANCH  28  29
ATOM     29  N   UNL A   1      33.402  29.840  27.550  1.00  0.00    -0.352 N 
ATOM     30  C   UNL A   1      34.393  30.798  28.061  1.00  0.00     0.251 C 
ATOM     31  H   UNL A   1      32.481  30.137  27.366  1.00  0.00     0.163 HD
ATOM     32  O   UNL A   1      34.062  32.007  28.268  1.00  0.00    -0.269 OA
BRANCH  30  33
ATOM     33  C   UNL A   1      35.815  30.340  28.344  1.00  0.00     0.039 A 
ATOM     34  C   UNL A   1      36.846  30.450  27.425  1.00  0.00     0.014 A 
ATOM     35  C   UNL A   1      36.031  29.880  29.570  1.00  0.00     0.014 A 
ATOM     36  C   UNL A   1      38.028  29.772  27.806  1.00  0.00     0.010 A 
ATOM     37  C   UNL A   1      37.254  29.355  29.915  1.00  0.00     0.010 A 
ATOM     38  C   UNL A   1      38.301  29.377  29.037  1.00  0.00    -0.014 A 
BRANCH  38  39
ATOM     39  C   UNL A   1      39.705  28.968  29.453  1.00  0.00     0.031 A 
ATOM     40  C   UNL A   1      40.151  27.751  28.936  1.00  0.00     0.074 A 
ATOM     41  C   UNL A   1      40.406  29.719  30.381  1.00  0.00     0.049 A 
ATOM     42  N   UNL A   1      41.301  27.128  29.199  1.00  0.00    -0.248 NA
ATOM     43  C   UNL A   1      39.393  26.935  27.977  1.00  0.00     0.031 C 
ATOM     44  C   UNL A   1      39.966  30.952  30.901  1.00  0.00     0.029 A 
ATOM     45  N   UNL A   1      41.622  29.428  30.959  1.00  0.00    -0.354 N 
ATOM     46  C   UNL A   1      41.382  25.995  28.499  1.00  0.00     0.074 A 
ATOM     47  C   UNL A   1      40.153  25.851  27.708  1.00  0.00     0.031 C 
ATOM     48  C   UNL A   1      40.897  31.392  31.788  1.00  0.00     0.029 A 
ATOM     49  C   UNL A   1      41.935  30.442  31.837  1.00  0.00     0.049 A 
ATOM     50  H   UNL A   1      42.172  28.633  30.776  1.00  0.00     0.167 HD
ATOM     51  C   UNL A   1      42.434  25.077  28.488  1.00  0.00     0.037 A 
ATOM     52  C   UNL A   1      43.055  30.549  32.644  1.00  0.00     0.037 A 
ATOM     53  C   UNL A   1      43.575  25.207  29.264  1.00  0.00     0.049 A 
ATOM     54  C   UNL A   1      44.081  29.601  32.677  1.00  0.00     0.074 A 
ATOM     55  C   UNL A   1      44.647  24.294  29.259  1.00  0.00     0.029 A 
ATOM     56  N   UNL A   1      43.876  26.208  30.160  1.00  0.00    -0.354 N 
ATOM     57  N   UNL A   1      44.180  28.488  31.948  1.00  0.00    -0.248 NA
ATOM     58  C   UNL A   1      45.257  29.688  33.552  1.00  0.00     0.031 C 
ATOM     59  C   UNL A   1      45.579  24.733  30.147  1.00  0.00     0.029 A 
ATOM     60  C   UNL A   1      45.102  25.929  30.721  1.00  0.00     0.049 A 
ATOM     61  H   UNL A   1      43.312  26.989  30.364  1.00  0.00     0.167 HD
ATOM     62  C   UNL A   1      45.312  27.845  32.243  1.00  0.00     0.074 A 
ATOM     63  C   UNL A   1      46.017  28.604  33.284  1.00  0.00     0.031 C 
ATOM     64  C   UNL A   1      45.785  26.658  31.682  1.00  0.00     0.037 A 
BRANCH  51  65
ATOM     65  C   UNL A   1      42.321  23.868  27.574  1.00  0.00     0.064 A 
ATOM     66  C   UNL A   1      41.936  22.662  28.135  1.00  0.00     0.173 A 
ATOM     67  C   UNL A   1      42.657  23.955  26.292  1.00  0.00     0.173 A 
ATOM     68  F   UNL A   1      41.355  22.571  29.328  1.00  0.00    -0.203 F 
ATOM     69  C   UNL A   1      42.216  21.537  27.324  1.00  0.00     0.198 A 
ATOM     70  C   UNL A   1      42.780  22.824  25.523  1.00  0.00     0.198 A 
ATOM     71  F   UNL A   1      42.876  25.148  25.747  1.00  0.00    -0.203 F 
ATOM     72  F   UNL A   1      42.221  20.341  27.906  1.00  0.00    -0.200 F 
ATOM     73  C   UNL A   1      42.473  21.591  26.030  1.00  0.00     0.200 A 
ATOM     74  F   UNL A   1      43.205  22.927  24.266  1.00  0.00    -0.200 F 
ATOM     75  F   UNL A   1      42.435  20.507  25.262  1.00  0.00    -0.200 F 
ENDBRANCH  51  65
BRANCH  52  76
ATOM     76  C   UNL A   1      43.175  31.767  33.546  1.00  0.00     0.064 A 
ATOM     77  C   UNL A   1      42.649  31.669  34.823  1.00  0.00     0.173 A 
ATOM     78  C   UNL A   1      43.819  32.858  33.148  1.00  0.00     0.173 A 
ATOM     79  F   UNL A   1      42.226  30.522  35.347  1.00  0.00    -0.203 F 
ATOM     80  C   UNL A   1      42.602  32.900  35.520  1.00  0.00     0.198 A 
ATOM     81  C   UNL A   1      43.848  33.981  33.940  1.00  0.00     0.198 A 
ATOM     82  F   UNL A   1      44.441  32.865  31.973  1.00  0.00    -0.203 F 
ATOM     83  F   UNL A   1      41.804  32.980  36.582  1.00  0.00    -0.200 F 
ATOM     84  C   UNL A   1      43.296  33.973  35.191  1.00  0.00     0.200 A 
ATOM     85  F   UNL A   1      44.422  35.091  33.483  1.00  0.00    -0.200 F 
ATOM     86  F   UNL A   1      43.449  34.994  36.031  1.00  0.00    -0.200 F 
ENDBRANCH  52  76
BRANCH  64  87
ATOM     87  C   UNL A   1      47.131  26.133  32.155  1.00  0.00     0.064 A 
ATOM     88  C   UNL A   1      48.322  26.507  31.555  1.00  0.00     0.173 A 
ATOM     89  C   UNL A   1      47.114  25.321  33.207  1.00  0.00     0.173 A 
ATOM     90  F   UNL A   1      48.411  27.500  30.675  1.00  0.00    -0.203 F 
ATOM     91  C   UNL A   1      49.437  25.738  31.966  1.00  0.00     0.198 A 
ATOM     92  C   UNL A   1      48.266  24.709  33.636  1.00  0.00     0.198 A 
ATOM     93  F   UNL A   1      45.971  25.101  33.850  1.00  0.00    -0.203 F 
ATOM     94  F   UNL A   1      50.527  25.773  31.203  1.00  0.00    -0.200 F 
ATOM     95  C   UNL A   1      49.471  24.987  33.052  1.00  0.00     0.200 A 
ATOM     96  F   UNL A   1      48.209  23.833  34.634  1.00  0.00    -0.200 F 
ATOM     97  F   UNL A   1      50.615  24.527  33.550  1.00  0.00    -0.200 F 
ENDBRANCH  64  87
ENDBRANCH  38  39
ENDBRANCH  30  33
ENDBRANCH  28  29
ENDBRANCH   1  28
TORSDOF 12
ENDMDL
MODEL 3
REMARK VINA RESULT:     -12.9      3.502      8.709
REMARK SMILES O=C(NCCCNC(=O)c1ccc(-c2c3nc(c(-c4c(F)c(F)c(F)c(F)c4F)c4ccc([nH]4)c(-c4c(F)c(F)c(F)c(F)c4F)c4nc(c(-c5c(F)c(F)c(F)c(F)c5F)c5ccc2[nH]5)C=C4)C=C3)cc1)C1=Cc2cc(S(F)(F)(F)(F)F)cc(Br)c2O[C@H]1C(F)(F)F
REMARK SMILES IDX 5 1 4 2 3 3 1 4 2 5 73 7 74 8 89 9 75 10 88 11 76 12 87 13
REMARK SMILES IDX 77 14 85 15 84 16 86 17 90 18 91 19 92 20 93 21 78 22 79 23
REMARK SMILES IDX 80 24 81 25 82 26 83 27 6 28 7 29 8 30 9 32 10 33 11 34
REMARK SMILES IDX 72 35 12 36 71 37 13 38 14 39 15 40 65 41 16 42 70 43 64 44
REMARK SMILES IDX 66 45 17 46 69 47 63 48 62 49 18 51 50 52 30 53 49 54 31 55
REMARK SMILES IDX 34 56 48 57 67 58 32 59 33 60 47 62 68 63 35 64 19 65 20 66
REMARK SMILES IDX 28 67 21 68 22 69 26 70 29 71 23 72 24 73 27 74 25 75 51 76
REMARK SMILES IDX 52 77 60 78 53 79 54 80 58 81 61 82 55 83 56 84 59 85 57 86
REMARK SMILES IDX 36 87 37 88 45 89 38 90 39 91 43 92 46 93 40 94 41 95 44 96
REMARK SMILES IDX 42 97
REMARK H PARENT 3 6 7 31 66 50 34 61
REMARK Flexibility Score: inf
ROOT
ATOM      1  C   UNL A   1      33.176  27.842  26.818  1.00  0.00     0.042 C 
ENDROOT
BRANCH   1   2
ATOM      2  C   UNL A   1      32.203  28.344  25.764  1.00  0.00     0.118 C 
BRANCH   2   3
ATOM      3  N   UNL A   1      30.965  27.553  25.824  1.00  0.00    -0.352 N 
ATOM      4  O   UNL A   1      29.345  26.271  24.649  1.00  0.00    -0.270 OA
ATOM      5  C   UNL A   1      30.415  26.956  24.598  1.00  0.00     0.251 C 
ATOM      6  H   UNL A   1      30.505  27.423  26.684  1.00  0.00     0.163 HD
BRANCH   5   7
ATOM      7  C   UNL A   1      31.126  27.156  23.270  1.00  0.00     0.067 C 
ATOM      8  C   UNL A   1      32.251  26.447  22.986  1.00  0.00     0.025 C 
ATOM      9  C   UNL A   1      30.578  28.150  22.257  1.00  0.00     0.314 C 
ATOM     10  C   UNL A   1      32.799  25.455  23.998  1.00  0.00     0.020 A 
ATOM     11  O   UNL A   1      30.530  24.927  24.469  1.00  0.00    -0.474 OA
ATOM     12  C   UNL A   1      34.159  25.303  24.209  1.00  0.00     0.036 A 
ATOM     13  C   UNL A   1      31.918  24.647  24.578  1.00  0.00     0.142 A 
ATOM     14  C   UNL A   1      34.512  24.079  24.827  1.00  0.00     0.109 A 
ATOM     15  C   UNL A   1      32.337  23.543  25.280  1.00  0.00     0.062 A 
ATOM     16  C   UNL A   1      33.668  23.298  25.477  1.00  0.00     0.044 A 
ATOM     17  Br  UNL A   1      31.009  22.300  26.009  1.00  0.00    -0.047 Br
BRANCH   9  18
ATOM     18  C   UNL A   1      29.324  28.803  22.816  1.00  0.00     0.429 C 
ATOM     19  F   UNL A   1      28.427  27.865  23.104  1.00  0.00    -0.167 F 
ATOM     20  F   UNL A   1      29.631  29.479  23.919  1.00  0.00    -0.167 F 
ATOM     21  F   UNL A   1      28.819  29.637  21.911  1.00  0.00    -0.167 F 
ENDBRANCH   9  18
BRANCH  14  22
ATOM     22  S   UNL A   1      36.237  23.546  24.715  1.00  0.00     0.310 S 
ATOM     23  F   UNL A   1      35.946  22.212  25.522  1.00  0.00    -0.094 F 
ATOM     24  F   UNL A   1      36.509  24.245  26.100  1.00  0.00    -0.094 F 
ATOM     25  F   UNL A   1      37.721  23.092  24.621  1.00  0.00    -0.094 F 
ATOM     26  F   UNL A   1      35.914  22.733  23.400  1.00  0.00    -0.094 F 
ATOM     27  F   UNL A   1      34.703  23.904  24.853  1.00  0.00    -0.094 F 
ENDBRANCH  14  22
ENDBRANCH   5   7
ENDBRANCH   2   3
ENDBRANCH   1   2
BRANCH   1  28
ATOM     28  C   UNL A   1      34.341  28.811  26.934  1.00  0.00     0.118 C 
BRANCH  28  29
ATOM     29  N   UNL A   1      33.894  30.038  27.606  1.00  0.00    -0.352 N 
ATOM     30  C   UNL A   1      34.825  30.792  28.458  1.00  0.00     0.251 C 
ATOM     31  H   UNL A   1      32.970  30.357  27.486  1.00  0.00     0.163 HD
ATOM     32  O   UNL A   1      34.438  31.853  29.039  1.00  0.00    -0.269 OA
BRANCH  30  33
ATOM     33  C   UNL A   1      36.252  30.301  28.643  1.00  0.00     0.039 A 
ATOM     34  C   UNL A   1      37.264  30.544  27.729  1.00  0.00     0.014 A 
ATOM     35  C   UNL A   1      36.492  29.669  29.785  1.00  0.00     0.014 A 
ATOM     36  C   UNL A   1      38.453  29.820  27.984  1.00  0.00     0.010 A 
ATOM     37  C   UNL A   1      37.721  29.102  30.026  1.00  0.00     0.010 A 
ATOM     38  C   UNL A   1      38.750  29.253  29.139  1.00  0.00    -0.014 A 
BRANCH  38  39
ATOM     39  C   UNL A   1      40.162  28.790  29.464  1.00  0.00     0.031 A 
ATOM     40  C   UNL A   1      40.937  29.697  30.186  1.00  0.00     0.074 A 
ATOM     41  C   UNL A   1      40.641  27.596  28.951  1.00  0.00     0.049 A 
ATOM     42  N   UNL A   1      42.220  29.575  30.533  1.00  0.00    -0.248 NA
ATOM     43  C   UNL A   1      40.439  30.981  30.702  1.00  0.00     0.031 C 
ATOM     44  C   UNL A   1      39.862  26.671  28.229  1.00  0.00     0.029 A 
ATOM     45  N   UNL A   1      41.920  27.092  29.039  1.00  0.00    -0.354 N 
ATOM     46  C   UNL A   1      42.610  30.640  31.238  1.00  0.00     0.074 A 
ATOM     47  C   UNL A   1      41.472  31.562  31.350  1.00  0.00     0.031 C 
ATOM     48  C   UNL A   1      40.662  25.631  27.877  1.00  0.00     0.029 A 
ATOM     49  C   UNL A   1      41.954  25.887  28.374  1.00  0.00     0.049 A 
ATOM     50  H   UNL A   1      42.678  27.519  29.499  1.00  0.00     0.167 HD
ATOM     51  C   UNL A   1      43.869  30.876  31.792  1.00  0.00     0.037 A 
ATOM     52  C   UNL A   1      43.041  25.046  28.196  1.00  0.00     0.037 A 
ATOM     53  C   UNL A   1      44.945  30.014  31.651  1.00  0.00     0.049 A 
ATOM     54  C   UNL A   1      44.316  25.311  28.701  1.00  0.00     0.074 A 
ATOM     55  C   UNL A   1      46.218  30.234  32.210  1.00  0.00     0.029 A 
ATOM     56  N   UNL A   1      44.985  28.821  30.964  1.00  0.00    -0.354 N 
ATOM     57  N   UNL A   1      44.696  26.356  29.438  1.00  0.00    -0.248 NA
ATOM     58  C   UNL A   1      45.482  24.443  28.492  1.00  0.00     0.031 C 
ATOM     59  C   UNL A   1      47.020  29.193  31.856  1.00  0.00     0.029 A 
ATOM     60  C   UNL A   1      46.257  28.306  31.071  1.00  0.00     0.049 A 
ATOM     61  H   UNL A   1      44.234  28.408  30.480  1.00  0.00     0.167 HD
ATOM     62  C   UNL A   1      45.989  26.253  29.750  1.00  0.00     0.074 A 
ATOM     63  C   UNL A   1      46.516  25.024  29.140  1.00  0.00     0.031 C 
ATOM     64  C   UNL A   1      46.750  27.132  30.521  1.00  0.00     0.037 A 
BRANCH  51  65
ATOM     65  C   UNL A   1      44.071  32.151  32.594  1.00  0.00     0.064 A 
ATOM     66  C   UNL A   1      43.772  32.123  33.946  1.00  0.00     0.173 A 
ATOM     67  C   UNL A   1      44.449  33.275  31.996  1.00  0.00     0.173 A 
ATOM     68  F   UNL A   1      43.639  30.993  34.635  1.00  0.00    -0.203 F 
ATOM     69  C   UNL A   1      43.623  33.404  34.527  1.00  0.00     0.198 A 
ATOM     70  C   UNL A   1      44.406  34.473  32.667  1.00  0.00     0.198 A 
ATOM     71  F   UNL A   1      44.872  33.241  30.735  1.00  0.00    -0.203 F 
ATOM     72  F   UNL A   1      42.996  33.483  35.698  1.00  0.00    -0.200 F 
ATOM     73  C   UNL A   1      44.062  34.527  33.989  1.00  0.00     0.200 A 
ATOM     74  F   UNL A   1      44.703  35.597  32.020  1.00  0.00    -0.200 F 
ATOM     75  F   UNL A   1      44.165  35.648  34.695  1.00  0.00    -0.200 F 
ENDBRANCH  51  65
BRANCH  52  76
ATOM     76  C   UNL A   1      42.833  23.763  27.408  1.00  0.00     0.064 A 
ATOM     77  C   UNL A   1      42.356  22.661  28.098  1.00  0.00     0.173 A 
ATOM     78  C   UNL A   1      43.038  23.719  26.097  1.00  0.00     0.173 A 
ATOM     79  F   UNL A   1      41.901  22.729  29.346  1.00  0.00    -0.203 F 
ATOM     80  C   UNL A   1      42.397  21.457  27.355  1.00  0.00     0.198 A 
ATOM     81  C   UNL A   1      42.926  22.533  25.411  1.00  0.00     0.198 A 
ATOM     82  F   UNL A   1      43.351  24.832  25.441  1.00  0.00    -0.203 F 
ATOM     83  F   UNL A   1      42.307  20.312  28.027  1.00  0.00    -0.200 F 
ATOM     84  C   UNL A   1      42.517  21.391  26.042  1.00  0.00     0.200 A 
ATOM     85  F   UNL A   1      43.222  22.495  24.114  1.00  0.00    -0.200 F 
ATOM     86  F   UNL A   1      42.254  20.275  25.370  1.00  0.00    -0.200 F 
ENDBRANCH  52  76
BRANCH  64  87
ATOM     87  C   UNL A   1      48.207  26.781  30.775  1.00  0.00     0.064 A 
ATOM     88  C   UNL A   1      49.236  27.287  29.997  1.00  0.00     0.173 A 
ATOM     89  C   UNL A   1      48.454  25.991  31.814  1.00  0.00     0.173 A 
ATOM     90  F   UNL A   1      49.063  28.268  29.116  1.00  0.00    -0.203 F 
ATOM     91  C   UNL A   1      50.486  26.665  30.225  1.00  0.00     0.198 A 
ATOM     92  C   UNL A   1      49.725  25.530  32.056  1.00  0.00     0.198 A 
ATOM     93  F   UNL A   1      47.461  25.645  32.629  1.00  0.00    -0.203 F 
ATOM     94  F   UNL A   1      51.431  26.819  29.300  1.00  0.00    -0.200 F 
ATOM     95  C   UNL A   1      50.781  25.943  31.290  1.00  0.00     0.200 A 
ATOM     96  F   UNL A   1      49.933  24.670  33.048  1.00  0.00    -0.200 F 
ATOM     97  F   UNL A   1      52.036  25.633  31.601  1.00  0.00    -0.200 F 
ENDBRANCH  64  87
ENDBRANCH  38  39
ENDBRANCH  30  33
ENDBRANCH  28  29
ENDBRANCH   1  28
TORSDOF 12
ENDMDL
