MODEL 1
REMARK VINA RESULT:     -12.3      0.000      0.000
REMARK SMILES CC(C)C[C@@H](NC(=O)c1cccnc1)C(=O)NCCCNC(=O)c1ccc(-c2c3nc(c(-c4c(F)c(F)c(F)c(F)c4F)c4ccc([nH]4)c(-c4c(F)c(F)c(F)c(F)c4F)c4nc(c(-c5c(F)c(F)c(F)c(F)c5F)c5ccc2[nH]5)C=C4)C=C3)cc1
REMARK SMILES IDX 19 1 18 2 17 3 15 4 16 5 5 7 4 8 2 9 1 10 3 11 6 12 7 13
REMARK SMILES IDX 8 15 9 16 10 17 14 18 11 19 13 20 12 21 20 22 21 23 22 24
REMARK SMILES IDX 23 26 24 27 25 28 86 29 26 30 85 31 27 32 28 33 29 34 79 35
REMARK SMILES IDX 30 36 84 37 78 38 80 39 31 40 83 41 77 42 76 43 32 45 64 46
REMARK SMILES IDX 44 47 63 48 45 49 48 50 62 51 81 52 46 53 47 54 61 56 82 57
REMARK SMILES IDX 49 58 33 59 34 60 42 61 35 62 36 63 40 64 43 65 37 66 38 67
REMARK SMILES IDX 41 68 39 69 65 70 66 71 74 72 67 73 68 74 72 75 75 76 69 77
REMARK SMILES IDX 70 78 73 79 71 80 50 81 51 82 59 83 52 84 53 85 57 86 60 87
REMARK SMILES IDX 54 88 55 89 58 90 56 91
REMARK H PARENT 17 6 6 14 21 25 80 44 48 55
REMARK Flexibility Score: inf
ROOT
ATOM      1  C   UNL A   1      31.465  32.008  26.833  1.00  0.00     0.042 C 
ENDROOT
BRANCH   1   2
ATOM      2  C   UNL A   1      31.804  30.721  26.109  1.00  0.00     0.117 C 
BRANCH   2   3
ATOM      3  N   UNL A   1      31.719  29.576  27.002  1.00  0.00    -0.354 N 
ATOM      4  C   UNL A   1      31.615  28.250  26.710  1.00  0.00     0.242 C 
ATOM      5  O   UNL A   1      31.417  27.463  27.639  1.00  0.00    -0.273 OA
ATOM      6  H   UNL A   1      31.739  29.792  27.962  1.00  0.00     0.163 HD
BRANCH   4   7
ATOM      7  C   UNL A   1      31.604  27.767  25.247  1.00  0.00     0.171 C 
BRANCH   7   8
ATOM      8  C   UNL A   1      32.999  27.109  25.066  1.00  0.00     0.038 C 
BRANCH   8   9
ATOM      9  C   UNL A   1      33.791  27.401  23.785  1.00  0.00    -0.015 C 
ATOM     10  C   UNL A   1      33.291  26.563  22.614  1.00  0.00     0.007 C 
ATOM     11  C   UNL A   1      33.659  28.896  23.456  1.00  0.00     0.007 C 
ENDBRANCH   8   9
ENDBRANCH   7   8
BRANCH   7  12
ATOM     12  N   UNL A   1      30.483  26.874  24.893  1.00  0.00    -0.340 N 
ATOM     13  C   UNL A   1      29.577  26.924  23.853  1.00  0.00     0.253 C 
ATOM     14  H   UNL A   1      30.361  26.112  25.503  1.00  0.00     0.164 HD
ATOM     15  O   UNL A   1      28.916  25.925  23.584  1.00  0.00    -0.269 OA
BRANCH  13  16
ATOM     16  C   UNL A   1      29.236  28.195  23.190  1.00  0.00     0.058 A 
ATOM     17  C   UNL A   1      27.979  28.788  23.233  1.00  0.00     0.017 A 
ATOM     18  C   UNL A   1      30.213  28.780  22.391  1.00  0.00     0.124 A 
ATOM     19  C   UNL A   1      27.718  29.871  22.389  1.00  0.00     0.021 A 
ATOM     20  N   UNL A   1      29.979  29.815  21.546  1.00  0.00    -0.264 NA
ATOM     21  C   UNL A   1      28.730  30.330  21.558  1.00  0.00     0.111 A 
ENDBRANCH  13  16
ENDBRANCH   7  12
ENDBRANCH   4   7
ENDBRANCH   2   3
ENDBRANCH   1   2
BRANCH   1  22
ATOM     22  C   UNL A   1      32.700  32.784  27.260  1.00  0.00     0.118 C 
BRANCH  22  23
ATOM     23  N   UNL A   1      32.415  34.171  27.609  1.00  0.00    -0.352 N 
ATOM     24  C   UNL A   1      32.988  34.936  28.594  1.00  0.00     0.251 C 
ATOM     25  H   UNL A   1      31.722  34.615  27.070  1.00  0.00     0.163 HD
ATOM     26  O   UNL A   1      32.520  36.027  28.901  1.00  0.00    -0.269 OA
BRANCH  24  27
ATOM     27  C   UNL A   1      34.171  34.412  29.302  1.00  0.00     0.039 A 
ATOM     28  C   UNL A   1      33.992  33.661  30.462  1.00  0.00     0.014 A 
ATOM     29  C   UNL A   1      35.451  34.624  28.780  1.00  0.00     0.014 A 
ATOM     30  C   UNL A   1      35.098  33.061  31.062  1.00  0.00     0.010 A 
ATOM     31  C   UNL A   1      36.533  33.939  29.315  1.00  0.00     0.010 A 
ATOM     32  C   UNL A   1      36.369  33.162  30.470  1.00  0.00    -0.014 A 
BRANCH  32  33
ATOM     33  C   UNL A   1      37.538  32.459  31.053  1.00  0.00     0.031 A 
ATOM     34  C   UNL A   1      38.027  32.819  32.429  1.00  0.00     0.074 A 
ATOM     35  C   UNL A   1      38.184  31.534  30.319  1.00  0.00     0.049 A 
ATOM     36  N   UNL A   1      39.025  32.313  33.109  1.00  0.00    -0.248 NA
ATOM     37  C   UNL A   1      37.328  33.914  33.119  1.00  0.00     0.031 C 
ATOM     38  C   UNL A   1      37.855  31.163  28.941  1.00  0.00     0.029 A 
ATOM     39  N   UNL A   1      39.253  30.733  30.631  1.00  0.00    -0.354 N 
ATOM     40  C   UNL A   1      39.076  33.033  34.294  1.00  0.00     0.074 A 
ATOM     41  C   UNL A   1      38.059  34.057  34.214  1.00  0.00     0.031 C 
ATOM     42  C   UNL A   1      38.672  30.177  28.543  1.00  0.00     0.029 A 
ATOM     43  C   UNL A   1      39.600  29.866  29.625  1.00  0.00     0.049 A 
ATOM     44  H   UNL A   1      39.726  30.776  31.493  1.00  0.00     0.167 HD
ATOM     45  C   UNL A   1      39.876  32.837  35.368  1.00  0.00     0.037 A 
ATOM     46  C   UNL A   1      40.553  28.915  29.589  1.00  0.00     0.037 A 
ATOM     47  C   UNL A   1      40.867  31.796  35.453  1.00  0.00     0.049 A 
ATOM     48  C   UNL A   1      41.400  28.688  30.811  1.00  0.00     0.074 A 
ATOM     49  C   UNL A   1      41.689  31.470  36.516  1.00  0.00     0.029 A 
ATOM     50  N   UNL A   1      41.166  30.910  34.428  1.00  0.00    -0.354 N 
ATOM     51  N   UNL A   1      41.382  29.318  31.960  1.00  0.00    -0.248 NA
ATOM     52  C   UNL A   1      42.387  27.604  30.735  1.00  0.00     0.031 C 
ATOM     53  C   UNL A   1      42.515  30.412  36.121  1.00  0.00     0.029 A 
ATOM     54  C   UNL A   1      42.171  30.045  34.829  1.00  0.00     0.049 A 
ATOM     55  H   UNL A   1      40.729  30.898  33.546  1.00  0.00     0.167 HD
ATOM     56  C   UNL A   1      42.333  28.692  32.754  1.00  0.00     0.074 A 
ATOM     57  C   UNL A   1      42.892  27.617  31.960  1.00  0.00     0.031 C 
ATOM     58  C   UNL A   1      42.712  28.980  34.024  1.00  0.00     0.037 A 
BRANCH  45  59
ATOM     59  C   UNL A   1      39.701  33.759  36.540  1.00  0.00     0.064 A 
ATOM     60  C   UNL A   1      40.340  35.008  36.595  1.00  0.00     0.173 A 
ATOM     61  C   UNL A   1      38.865  33.405  37.609  1.00  0.00     0.173 A 
ATOM     62  F   UNL A   1      41.163  35.389  35.607  1.00  0.00    -0.203 F 
ATOM     63  C   UNL A   1      40.175  35.853  37.690  1.00  0.00     0.198 A 
ATOM     64  C   UNL A   1      38.675  34.266  38.688  1.00  0.00     0.198 A 
ATOM     65  F   UNL A   1      38.227  32.225  37.607  1.00  0.00    -0.203 F 
ATOM     66  F   UNL A   1      40.840  37.014  37.745  1.00  0.00    -0.200 F 
ATOM     67  C   UNL A   1      39.336  35.483  38.731  1.00  0.00     0.200 A 
ATOM     68  F   UNL A   1      37.855  33.914  39.687  1.00  0.00    -0.200 F 
ATOM     69  F   UNL A   1      39.172  36.300  39.781  1.00  0.00    -0.200 F 
ENDBRANCH  45  59
BRANCH  46  70
ATOM     70  C   UNL A   1      40.715  28.071  28.377  1.00  0.00     0.064 A 
ATOM     71  C   UNL A   1      40.085  26.822  28.281  1.00  0.00     0.173 A 
ATOM     72  C   UNL A   1      41.500  28.491  27.293  1.00  0.00     0.173 A 
ATOM     73  F   UNL A   1      39.337  26.370  29.298  1.00  0.00    -0.203 F 
ATOM     74  C   UNL A   1      40.254  26.015  27.158  1.00  0.00     0.198 A 
ATOM     75  C   UNL A   1      41.644  27.695  26.159  1.00  0.00     0.198 A 
ATOM     76  F   UNL A   1      42.116  29.682  27.331  1.00  0.00    -0.203 F 
ATOM     77  F   UNL A   1      39.679  24.805  27.113  1.00  0.00    -0.200 F 
ATOM     78  C   UNL A   1      41.029  26.453  26.095  1.00  0.00     0.200 A 
ATOM     79  F   UNL A   1      42.381  28.130  25.127  1.00  0.00    -0.200 F 
ATOM     80  F   UNL A   1      41.188  25.678  25.014  1.00  0.00    -0.200 F 
ENDBRANCH  46  70
BRANCH  58  81
ATOM     81  C   UNL A   1      43.758  28.096  34.638  1.00  0.00     0.064 A 
ATOM     82  C   UNL A   1      43.421  26.900  35.289  1.00  0.00     0.173 A 
ATOM     83  C   UNL A   1      45.114  28.446  34.566  1.00  0.00     0.173 A 
ATOM     84  F   UNL A   1      42.136  26.528  35.397  1.00  0.00    -0.203 F 
ATOM     85  C   UNL A   1      44.401  26.108  35.883  1.00  0.00     0.198 A 
ATOM     86  C   UNL A   1      46.094  27.635  35.131  1.00  0.00     0.198 A 
ATOM     87  F   UNL A   1      45.490  29.575  33.946  1.00  0.00    -0.203 F 
ATOM     88  F   UNL A   1      44.050  25.004  36.556  1.00  0.00    -0.200 F 
ATOM     89  C   UNL A   1      45.736  26.474  35.798  1.00  0.00     0.200 A 
ATOM     90  F   UNL A   1      47.386  27.982  35.037  1.00  0.00    -0.200 F 
ATOM     91  F   UNL A   1      46.677  25.712  36.373  1.00  0.00    -0.200 F 
ENDBRANCH  58  81
ENDBRANCH  32  33
ENDBRANCH  24  27
ENDBRANCH  22  23
ENDBRANCH   1  22
TORSDOF 14
ENDMDL
MODEL 2
REMARK VINA RESULT:     -12.2      1.293      2.932
REMARK SMILES CC(C)C[C@@H](NC(=O)c1cccnc1)C(=O)NCCCNC(=O)c1ccc(-c2c3nc(c(-c4c(F)c(F)c(F)c(F)c4F)c4ccc([nH]4)c(-c4c(F)c(F)c(F)c(F)c4F)c4nc(c(-c5c(F)c(F)c(F)c(F)c5F)c5ccc2[nH]5)C=C4)C=C3)cc1
REMARK SMILES IDX 19 1 18 2 17 3 15 4 16 5 5 7 4 8 2 9 1 10 3 11 6 12 7 13
REMARK SMILES IDX 8 15 9 16 10 17 14 18 11 19 13 20 12 21 20 22 21 23 22 24
REMARK SMILES IDX 23 26 24 27 25 28 86 29 26 30 85 31 27 32 28 33 29 34 79 35
REMARK SMILES IDX 30 36 84 37 78 38 80 39 31 40 83 41 77 42 76 43 32 45 64 46
REMARK SMILES IDX 44 47 63 48 45 49 48 50 62 51 81 52 46 53 47 54 61 56 82 57
REMARK SMILES IDX 49 58 33 59 34 60 42 61 35 62 36 63 40 64 43 65 37 66 38 67
REMARK SMILES IDX 41 68 39 69 65 70 66 71 74 72 67 73 68 74 72 75 75 76 69 77
REMARK SMILES IDX 70 78 73 79 71 80 50 81 51 82 59 83 52 84 53 85 57 86 60 87
REMARK SMILES IDX 54 88 55 89 58 90 56 91
REMARK H PARENT 17 6 6 14 21 25 80 44 48 55
REMARK Flexibility Score: inf
ROOT
ATOM      1  C   UNL A   1      31.453  31.800  26.682  1.00  0.00     0.042 C 
ENDROOT
BRANCH   1   2
ATOM      2  C   UNL A   1      31.821  30.519  25.962  1.00  0.00     0.117 C 
BRANCH   2   3
ATOM      3  N   UNL A   1      31.032  30.349  24.753  1.00  0.00    -0.354 N 
ATOM      4  C   UNL A   1      30.979  29.298  23.887  1.00  0.00     0.242 C 
ATOM      5  O   UNL A   1      30.332  29.435  22.845  1.00  0.00    -0.273 OA
ATOM      6  H   UNL A   1      30.447  31.108  24.524  1.00  0.00     0.163 HD
BRANCH   4   7
ATOM      7  C   UNL A   1      31.817  28.031  24.139  1.00  0.00     0.171 C 
BRANCH   7   8
ATOM      8  C   UNL A   1      30.755  26.941  24.446  1.00  0.00     0.038 C 
BRANCH   8   9
ATOM      9  C   UNL A   1      30.576  26.474  25.896  1.00  0.00    -0.015 C 
ATOM     10  C   UNL A   1      30.545  24.953  25.994  1.00  0.00     0.007 C 
ATOM     11  C   UNL A   1      31.733  27.032  26.739  1.00  0.00     0.007 C 
ENDBRANCH   8   9
ENDBRANCH   7   8
BRANCH   7  12
ATOM     12  N   UNL A   1      32.736  27.664  23.045  1.00  0.00    -0.340 N 
ATOM     13  C   UNL A   1      33.302  26.452  22.703  1.00  0.00     0.253 C 
ATOM     14  H   UNL A   1      32.990  28.412  22.457  1.00  0.00     0.164 HD
ATOM     15  O   UNL A   1      33.801  26.315  21.590  1.00  0.00    -0.269 OA
BRANCH  13  16
ATOM     16  C   UNL A   1      33.503  25.387  23.702  1.00  0.00     0.058 A 
ATOM     17  C   UNL A   1      34.287  25.521  24.842  1.00  0.00     0.017 A 
ATOM     18  C   UNL A   1      32.948  24.141  23.426  1.00  0.00     0.124 A 
ATOM     19  C   UNL A   1      34.578  24.380  25.594  1.00  0.00     0.021 A 
ATOM     20  N   UNL A   1      33.233  23.015  24.127  1.00  0.00    -0.264 NA
ATOM     21  C   UNL A   1      34.053  23.161  25.190  1.00  0.00     0.111 A 
ENDBRANCH  13  16
ENDBRANCH   7  12
ENDBRANCH   4   7
ENDBRANCH   2   3
ENDBRANCH   1   2
BRANCH   1  22
ATOM     22  C   UNL A   1      32.664  32.527  27.241  1.00  0.00     0.118 C 
BRANCH  22  23
ATOM     23  N   UNL A   1      32.407  33.934  27.531  1.00  0.00    -0.352 N 
ATOM     24  C   UNL A   1      33.000  34.729  28.480  1.00  0.00     0.251 C 
ATOM     25  H   UNL A   1      31.720  34.367  26.976  1.00  0.00     0.163 HD
ATOM     26  O   UNL A   1      32.553  35.841  28.742  1.00  0.00    -0.269 OA
BRANCH  24  27
ATOM     27  C   UNL A   1      34.176  34.214  29.204  1.00  0.00     0.039 A 
ATOM     28  C   UNL A   1      33.986  33.377  30.303  1.00  0.00     0.014 A 
ATOM     29  C   UNL A   1      35.465  34.521  28.757  1.00  0.00     0.014 A 
ATOM     30  C   UNL A   1      35.094  32.790  30.911  1.00  0.00     0.010 A 
ATOM     31  C   UNL A   1      36.556  33.852  29.294  1.00  0.00     0.010 A 
ATOM     32  C   UNL A   1      36.382  32.991  30.386  1.00  0.00    -0.014 A 
BRANCH  32  33
ATOM     33  C   UNL A   1      37.559  32.305  30.973  1.00  0.00     0.031 A 
ATOM     34  C   UNL A   1      38.037  32.672  32.351  1.00  0.00     0.074 A 
ATOM     35  C   UNL A   1      38.222  31.390  30.242  1.00  0.00     0.049 A 
ATOM     36  N   UNL A   1      39.039  32.180  33.035  1.00  0.00    -0.248 NA
ATOM     37  C   UNL A   1      37.319  33.756  33.039  1.00  0.00     0.031 C 
ATOM     38  C   UNL A   1      37.903  31.015  28.863  1.00  0.00     0.029 A 
ATOM     39  N   UNL A   1      39.300  30.604  30.558  1.00  0.00    -0.354 N 
ATOM     40  C   UNL A   1      39.075  32.901  34.220  1.00  0.00     0.074 A 
ATOM     41  C   UNL A   1      38.043  33.910  34.137  1.00  0.00     0.031 C 
ATOM     42  C   UNL A   1      38.737  30.040  28.468  1.00  0.00     0.029 A 
ATOM     43  C   UNL A   1      39.665  29.743  29.553  1.00  0.00     0.049 A 
ATOM     44  H   UNL A   1      39.769  30.654  31.422  1.00  0.00     0.167 HD
ATOM     45  C   UNL A   1      39.874  32.716  35.298  1.00  0.00     0.037 A 
ATOM     46  C   UNL A   1      40.632  28.806  29.521  1.00  0.00     0.037 A 
ATOM     47  C   UNL A   1      40.879  31.690  35.387  1.00  0.00     0.049 A 
ATOM     48  C   UNL A   1      41.477  28.591  30.746  1.00  0.00     0.074 A 
ATOM     49  C   UNL A   1      41.702  31.376  36.453  1.00  0.00     0.029 A 
ATOM     50  N   UNL A   1      41.196  30.808  34.362  1.00  0.00    -0.354 N 
ATOM     51  N   UNL A   1      41.445  29.221  31.896  1.00  0.00    -0.248 NA
ATOM     52  C   UNL A   1      42.480  27.522  30.675  1.00  0.00     0.031 C 
ATOM     53  C   UNL A   1      42.544  30.330  36.061  1.00  0.00     0.029 A 
ATOM     54  C   UNL A   1      42.211  29.959  34.767  1.00  0.00     0.049 A 
ATOM     55  H   UNL A   1      40.762  30.790  33.479  1.00  0.00     0.167 HD
ATOM     56  C   UNL A   1      42.402  28.609  32.693  1.00  0.00     0.074 A 
ATOM     57  C   UNL A   1      42.980  27.542  31.901  1.00  0.00     0.031 C 
ATOM     58  C   UNL A   1      42.772  28.902  33.965  1.00  0.00     0.037 A 
BRANCH  45  59
ATOM     59  C   UNL A   1      39.680  33.635  36.469  1.00  0.00     0.064 A 
ATOM     60  C   UNL A   1      38.859  33.283  37.552  1.00  0.00     0.173 A 
ATOM     61  C   UNL A   1      40.341  34.871  36.525  1.00  0.00     0.173 A 
ATOM     62  F   UNL A   1      38.191  32.120  37.543  1.00  0.00    -0.203 F 
ATOM     63  C   UNL A   1      38.681  34.147  38.630  1.00  0.00     0.198 A 
ATOM     64  C   UNL A   1      40.188  35.719  37.620  1.00  0.00     0.198 A 
ATOM     65  F   UNL A   1      41.141  35.256  35.519  1.00  0.00    -0.203 F 
ATOM     66  F   UNL A   1      37.848  33.813  39.625  1.00  0.00    -0.200 F 
ATOM     67  C   UNL A   1      39.352  35.360  38.666  1.00  0.00     0.200 A 
ATOM     68  F   UNL A   1      40.847  36.885  37.659  1.00  0.00    -0.200 F 
ATOM     69  F   UNL A   1      39.187  36.188  39.708  1.00  0.00    -0.200 F 
ENDBRANCH  45  59
BRANCH  46  70
ATOM     70  C   UNL A   1      40.811  27.965  28.310  1.00  0.00     0.064 A 
ATOM     71  C   UNL A   1      40.181  26.717  28.200  1.00  0.00     0.173 A 
ATOM     72  C   UNL A   1      41.613  28.386  27.239  1.00  0.00     0.173 A 
ATOM     73  F   UNL A   1      39.417  26.264  29.205  1.00  0.00    -0.203 F 
ATOM     74  C   UNL A   1      40.366  25.912  27.078  1.00  0.00     0.198 A 
ATOM     75  C   UNL A   1      41.773  27.593  26.105  1.00  0.00     0.198 A 
ATOM     76  F   UNL A   1      42.230  29.576  27.289  1.00  0.00    -0.203 F 
ATOM     77  F   UNL A   1      39.789  24.704  27.021  1.00  0.00    -0.200 F 
ATOM     78  C   UNL A   1      41.157  26.352  26.029  1.00  0.00     0.200 A 
ATOM     79  F   UNL A   1      42.526  28.029  25.086  1.00  0.00    -0.200 F 
ATOM     80  F   UNL A   1      41.332  25.580  24.949  1.00  0.00    -0.200 F 
ENDBRANCH  46  70
BRANCH  58  81
ATOM     81  C   UNL A   1      43.827  28.033  34.583  1.00  0.00     0.064 A 
ATOM     82  C   UNL A   1      45.187  28.374  34.530  1.00  0.00     0.173 A 
ATOM     83  C   UNL A   1      43.472  26.848  35.244  1.00  0.00     0.173 A 
ATOM     84  F   UNL A   1      45.579  29.491  33.897  1.00  0.00    -0.203 F 
ATOM     85  C   UNL A   1      46.156  27.539  35.080  1.00  0.00     0.198 A 
ATOM     86  C   UNL A   1      44.441  26.032  35.822  1.00  0.00     0.198 A 
ATOM     87  F   UNL A   1      42.184  26.481  35.331  1.00  0.00    -0.203 F 
ATOM     88  F   UNL A   1      47.453  27.852  34.961  1.00  0.00    -0.200 F 
ATOM     89  C   UNL A   1      45.781  26.372  35.730  1.00  0.00     0.200 A 
ATOM     90  F   UNL A   1      44.076  24.912  36.462  1.00  0.00    -0.200 F 
ATOM     91  F   UNL A   1      46.715  25.568  36.256  1.00  0.00    -0.200 F 
ENDBRANCH  58  81
ENDBRANCH  32  33
ENDBRANCH  24  27
ENDBRANCH  22  23
ENDBRANCH   1  22
TORSDOF 14
ENDMDL
MODEL 3
REMARK VINA RESULT:     -12.2      1.255      2.324
REMARK SMILES CC(C)C[C@@H](NC(=O)c1cccnc1)C(=O)NCCCNC(=O)c1ccc(-c2c3nc(c(-c4c(F)c(F)c(F)c(F)c4F)c4ccc([nH]4)c(-c4c(F)c(F)c(F)c(F)c4F)c4nc(c(-c5c(F)c(F)c(F)c(F)c5F)c5ccc2[nH]5)C=C4)C=C3)cc1
REMARK SMILES IDX 19 1 18 2 17 3 15 4 16 5 5 7 4 8 2 9 1 10 3 11 6 12 7 13
REMARK SMILES IDX 8 15 9 16 10 17 14 18 11 19 13 20 12 21 20 22 21 23 22 24
REMARK SMILES IDX 23 26 24 27 25 28 86 29 26 30 85 31 27 32 28 33 29 34 79 35
REMARK SMILES IDX 30 36 84 37 78 38 80 39 31 40 83 41 77 42 76 43 32 45 64 46
REMARK SMILES IDX 44 47 63 48 45 49 48 50 62 51 81 52 46 53 47 54 61 56 82 57
REMARK SMILES IDX 49 58 33 59 34 60 42 61 35 62 36 63 40 64 43 65 37 66 38 67
REMARK SMILES IDX 41 68 39 69 65 70 66 71 74 72 67 73 68 74 72 75 75 76 69 77
REMARK SMILES IDX 70 78 73 79 71 80 50 81 51 82 59 83 52 84 53 85 57 86 60 87
REMARK SMILES IDX 54 88 55 89 58 90 56 91
REMARK H PARENT 17 6 6 14 21 25 80 44 48 55
REMARK Flexibility Score: inf
ROOT
ATOM      1  C   UNL A   1      31.399  31.954  26.866  1.00  0.00     0.042 C 
ENDROOT
BRANCH   1   2
ATOM      2  C   UNL A   1      31.697  30.826  25.901  1.00  0.00     0.117 C 
BRANCH   2   3
ATOM      3  N   UNL A   1      30.662  30.714  24.886  1.00  0.00    -0.354 N 
ATOM      4  C   UNL A   1      30.464  29.748  23.946  1.00  0.00     0.242 C 
ATOM      5  O   UNL A   1      29.591  29.935  23.094  1.00  0.00    -0.273 OA
ATOM      6  H   UNL A   1      30.005  31.448  24.875  1.00  0.00     0.163 HD
BRANCH   4   7
ATOM      7  C   UNL A   1      31.398  28.526  23.868  1.00  0.00     0.171 C 
BRANCH   7   8
ATOM      8  C   UNL A   1      30.483  27.397  23.322  1.00  0.00     0.038 C 
BRANCH   8   9
ATOM      9  C   UNL A   1      29.977  26.323  24.293  1.00  0.00    -0.015 C 
ATOM     10  C   UNL A   1      30.277  24.919  23.781  1.00  0.00     0.007 C 
ATOM     11  C   UNL A   1      30.649  26.539  25.658  1.00  0.00     0.007 C 
ENDBRANCH   8   9
ENDBRANCH   7   8
BRANCH   7  12
ATOM     12  N   UNL A   1      32.623  28.727  23.070  1.00  0.00    -0.340 N 
ATOM     13  C   UNL A   1      33.484  27.821  22.485  1.00  0.00     0.253 C 
ATOM     14  H   UNL A   1      32.867  29.670  22.929  1.00  0.00     0.164 HD
ATOM     15  O   UNL A   1      34.271  28.208  21.626  1.00  0.00    -0.269 OA
BRANCH  13  16
ATOM     16  C   UNL A   1      33.625  26.448  23.003  1.00  0.00     0.058 A 
ATOM     17  C   UNL A   1      34.028  26.137  24.297  1.00  0.00     0.017 A 
ATOM     18  C   UNL A   1      33.436  25.404  22.103  1.00  0.00     0.124 A 
ATOM     19  C   UNL A   1      34.336  24.809  24.603  1.00  0.00     0.021 A 
ATOM     20  N   UNL A   1      33.749  24.111  22.369  1.00  0.00    -0.264 NA
ATOM     21  C   UNL A   1      34.204  23.847  23.613  1.00  0.00     0.111 A 
ENDBRANCH  13  16
ENDBRANCH   7  12
ENDBRANCH   4   7
ENDBRANCH   2   3
ENDBRANCH   1   2
BRANCH   1  22
ATOM     22  C   UNL A   1      32.649  32.702  27.299  1.00  0.00     0.118 C 
BRANCH  22  23
ATOM     23  N   UNL A   1      32.398  34.103  27.621  1.00  0.00    -0.352 N 
ATOM     24  C   UNL A   1      32.994  34.873  28.588  1.00  0.00     0.251 C 
ATOM     25  H   UNL A   1      31.713  34.552  27.076  1.00  0.00     0.163 HD
ATOM     26  O   UNL A   1      32.553  35.981  28.875  1.00  0.00    -0.269 OA
BRANCH  24  27
ATOM     27  C   UNL A   1      34.168  34.336  29.300  1.00  0.00     0.039 A 
ATOM     28  C   UNL A   1      33.975  33.581  30.456  1.00  0.00     0.014 A 
ATOM     29  C   UNL A   1      35.453  34.539  28.787  1.00  0.00     0.014 A 
ATOM     30  C   UNL A   1      35.073  32.969  31.060  1.00  0.00     0.010 A 
ATOM     31  C   UNL A   1      36.525  33.842  29.326  1.00  0.00     0.010 A 
ATOM     32  C   UNL A   1      36.348  33.062  30.476  1.00  0.00    -0.014 A 
BRANCH  32  33
ATOM     33  C   UNL A   1      37.507  32.346  31.063  1.00  0.00     0.031 A 
ATOM     34  C   UNL A   1      37.990  32.693  32.444  1.00  0.00     0.074 A 
ATOM     35  C   UNL A   1      38.151  31.420  30.328  1.00  0.00     0.049 A 
ATOM     36  N   UNL A   1      38.978  32.175  33.128  1.00  0.00    -0.248 NA
ATOM     37  C   UNL A   1      37.294  33.790  33.137  1.00  0.00     0.031 C 
ATOM     38  C   UNL A   1      37.828  31.060  28.946  1.00  0.00     0.029 A 
ATOM     39  N   UNL A   1      39.211  30.609  30.642  1.00  0.00    -0.354 N 
ATOM     40  C   UNL A   1      39.027  32.888  34.318  1.00  0.00     0.074 A 
ATOM     41  C   UNL A   1      38.018  33.920  34.237  1.00  0.00     0.031 C 
ATOM     42  C   UNL A   1      38.641  30.070  28.547  1.00  0.00     0.029 A 
ATOM     43  C   UNL A   1      39.559  29.745  29.634  1.00  0.00     0.049 A 
ATOM     44  H   UNL A   1      39.678  30.642  31.508  1.00  0.00     0.167 HD
ATOM     45  C   UNL A   1      39.818  32.679  35.397  1.00  0.00     0.037 A 
ATOM     46  C   UNL A   1      40.504  28.787  29.598  1.00  0.00     0.037 A 
ATOM     47  C   UNL A   1      40.800  31.630  35.482  1.00  0.00     0.049 A 
ATOM     48  C   UNL A   1      41.341  28.545  30.825  1.00  0.00     0.074 A 
ATOM     49  C   UNL A   1      41.612  31.290  36.549  1.00  0.00     0.029 A 
ATOM     50  N   UNL A   1      41.099  30.747  34.453  1.00  0.00    -0.354 N 
ATOM     51  N   UNL A   1      41.320  29.169  31.978  1.00  0.00    -0.248 NA
ATOM     52  C   UNL A   1      42.320  27.454  30.749  1.00  0.00     0.031 C 
ATOM     53  C   UNL A   1      42.431  30.228  36.153  1.00  0.00     0.029 A 
ATOM     54  C   UNL A   1      42.094  29.872  34.856  1.00  0.00     0.049 A 
ATOM     55  H   UNL A   1      40.667  30.744  33.569  1.00  0.00     0.167 HD
ATOM     56  C   UNL A   1      42.260  28.531  32.774  1.00  0.00     0.074 A 
ATOM     57  C   UNL A   1      42.816  27.456  31.978  1.00  0.00     0.031 C 
ATOM     58  C   UNL A   1      42.633  28.808  34.048  1.00  0.00     0.037 A 
BRANCH  45  59
ATOM     59  C   UNL A   1      39.641  33.595  36.573  1.00  0.00     0.064 A 
ATOM     60  C   UNL A   1      40.289  34.839  36.639  1.00  0.00     0.173 A 
ATOM     61  C   UNL A   1      38.796  33.241  37.634  1.00  0.00     0.173 A 
ATOM     62  F   UNL A   1      41.121  35.221  35.658  1.00  0.00    -0.203 F 
ATOM     63  C   UNL A   1      40.123  35.678  37.738  1.00  0.00     0.198 A 
ATOM     64  C   UNL A   1      38.606  34.096  38.717  1.00  0.00     0.198 A 
ATOM     65  F   UNL A   1      38.150  32.065  37.621  1.00  0.00    -0.203 F 
ATOM     66  F   UNL A   1      40.795  36.835  37.804  1.00  0.00    -0.200 F 
ATOM     67  C   UNL A   1      39.275  35.309  38.772  1.00  0.00     0.200 A 
ATOM     68  F   UNL A   1      37.777  33.744  39.710  1.00  0.00    -0.200 F 
ATOM     69  F   UNL A   1      39.109  36.121  39.826  1.00  0.00    -0.200 F 
ENDBRANCH  45  59
BRANCH  46  70
ATOM     70  C   UNL A   1      40.668  27.949  28.383  1.00  0.00     0.064 A 
ATOM     71  C   UNL A   1      40.029  26.706  28.274  1.00  0.00     0.173 A 
ATOM     72  C   UNL A   1      41.464  28.369  27.307  1.00  0.00     0.173 A 
ATOM     73  F   UNL A   1      39.269  26.254  29.282  1.00  0.00    -0.203 F 
ATOM     74  C   UNL A   1      40.199  25.904  27.147  1.00  0.00     0.198 A 
ATOM     75  C   UNL A   1      41.610  27.579  26.168  1.00  0.00     0.198 A 
ATOM     76  F   UNL A   1      42.090  29.554  27.357  1.00  0.00    -0.203 F 
ATOM     77  F   UNL A   1      39.614  24.700  27.090  1.00  0.00    -0.200 F 
ATOM     78  C   UNL A   1      40.985  26.343  26.093  1.00  0.00     0.200 A 
ATOM     79  F   UNL A   1      42.358  28.013  25.145  1.00  0.00    -0.200 F 
ATOM     80  F   UNL A   1      41.146  25.573  25.008  1.00  0.00    -0.200 F 
ENDBRANCH  46  70
BRANCH  58  81
ATOM     81  C   UNL A   1      43.667  27.911  34.665  1.00  0.00     0.064 A 
ATOM     82  C   UNL A   1      43.316  26.718  35.312  1.00  0.00     0.173 A 
ATOM     83  C   UNL A   1      45.027  28.248  34.598  1.00  0.00     0.173 A 
ATOM     84  F   UNL A   1      42.026  26.358  35.413  1.00  0.00    -0.203 F 
ATOM     85  C   UNL A   1      44.285  25.914  35.907  1.00  0.00     0.198 A 
ATOM     86  C   UNL A   1      45.996  27.426  35.165  1.00  0.00     0.198 A 
ATOM     87  F   UNL A   1      45.416  29.375  33.983  1.00  0.00    -0.203 F 
ATOM     88  F   UNL A   1      43.920  24.812  36.576  1.00  0.00    -0.200 F 
ATOM     89  C   UNL A   1      45.624  26.267  35.828  1.00  0.00     0.200 A 
ATOM     90  F   UNL A   1      47.292  27.760  35.077  1.00  0.00    -0.200 F 
ATOM     91  F   UNL A   1      46.555  25.494  36.404  1.00  0.00    -0.200 F 
ENDBRANCH  58  81
ENDBRANCH  32  33
ENDBRANCH  24  27
ENDBRANCH  22  23
ENDBRANCH   1  22
TORSDOF 14
ENDMDL
