MODEL 1
REMARK VINA RESULT:     -12.8      0.000      0.000
REMARK SMILES Cc1cc(C(=O)Nc2c(Cl)cc(Cl)cc2C(=O)NCCCNC(=O)c2ccc(-c3c4nc(c(-c5c(F)c(F)c(F)c(F)c5F)c5ccc([nH]5)c(-c5c(F)c(F)c(F)c(F)c5F)c5nc(c(-c6c(F)c(F)c(F)c(F)c6F)c6ccc3[nH]6)C=C5)C=C4)cc2)c(C)s1
REMARK SMILES IDX 20 1 19 2 18 3 16 4 17 5 15 7 8 8 9 9 10 10 11 11 14 12
REMARK SMILES IDX 12 13 13 14 7 15 5 16 6 17 4 19 1 20 2 21 3 22 90 23 88 24
REMARK SMILES IDX 89 25 21 26 22 27 23 28 24 30 25 31 26 32 87 33 27 34 86 35
REMARK SMILES IDX 28 36 29 37 30 38 80 39 31 40 85 41 79 42 81 43 32 44 84 45
REMARK SMILES IDX 78 46 77 47 33 49 65 50 45 51 64 52 46 53 49 54 63 55 82 56
REMARK SMILES IDX 47 57 48 58 62 60 83 61 50 62 34 63 35 64 43 65 36 66 37 67
REMARK SMILES IDX 41 68 44 69 38 70 39 71 42 72 40 73 66 74 67 75 75 76 68 77
REMARK SMILES IDX 69 78 73 79 76 80 70 81 71 82 74 83 72 84 51 85 52 86 60 87
REMARK SMILES IDX 53 88 54 89 58 90 61 91 55 92 56 93 59 94 57 95
REMARK H PARENT 18 6 7 18 22 29 81 48 49 59
REMARK Flexibility Score: inf
ROOT
ATOM      1  C   UNL A   1      31.430  31.952  26.803  1.00  0.00     0.042 C 
ENDROOT
BRANCH   1   2
ATOM      2  C   UNL A   1      31.735  30.563  26.302  1.00  0.00     0.118 C 
BRANCH   2   3
ATOM      3  N   UNL A   1      31.699  29.482  27.245  1.00  0.00    -0.352 N 
ATOM      4  C   UNL A   1      31.812  28.131  27.040  1.00  0.00     0.253 C 
ATOM      5  O   UNL A   1      31.801  27.432  28.057  1.00  0.00    -0.269 OA
ATOM      6  H   UNL A   1      31.574  29.752  28.184  1.00  0.00     0.163 HD
BRANCH   4   7
ATOM      7  C   UNL A   1      31.884  27.428  25.710  1.00  0.00     0.066 A 
ATOM      8  C   UNL A   1      31.354  26.182  25.296  1.00  0.00     0.073 A 
ATOM      9  C   UNL A   1      31.425  25.819  23.924  1.00  0.00     0.066 A 
ATOM     10  Cl  UNL A   1      30.642  24.400  23.307  1.00  0.00    -0.082 Cl
ATOM     11  C   UNL A   1      32.130  26.593  23.004  1.00  0.00     0.043 A 
ATOM     12  C   UNL A   1      32.596  28.188  24.749  1.00  0.00     0.036 A 
ATOM     13  C   UNL A   1      32.736  27.762  23.430  1.00  0.00     0.043 A 
ATOM     14  Cl  UNL A   1      33.662  28.694  22.322  1.00  0.00    -0.084 Cl
BRANCH   8  15
ATOM     15  N   UNL A   1      30.747  25.275  26.182  1.00  0.00    -0.320 N 
ATOM     16  C   UNL A   1      31.191  24.014  26.595  1.00  0.00     0.256 C 
ATOM     17  O   UNL A   1      30.450  23.416  27.378  1.00  0.00    -0.269 OA
ATOM     18  H   UNL A   1      29.890  25.569  26.567  1.00  0.00     0.170 HD
BRANCH  16  19
ATOM     19  C   UNL A   1      32.526  23.469  26.228  1.00  0.00     0.054 A 
ATOM     20  C   UNL A   1      36.202  24.054  25.637  1.00  0.00     0.056 C 
ATOM     21  C   UNL A   1      34.833  23.489  25.787  1.00  0.00     0.003 A 
ATOM     22  C   UNL A   1      33.832  23.924  26.624  1.00  0.00     0.029 A 
ATOM     23  S   UNL A   1      34.314  22.157  24.880  1.00  0.00    -0.145 S 
ATOM     24  C   UNL A   1      32.706  22.300  25.482  1.00  0.00     0.014 A 
ATOM     25  C   UNL A   1      31.739  21.223  25.099  1.00  0.00     0.057 C 
ENDBRANCH  16  19
ENDBRANCH   8  15
ENDBRANCH   4   7
ENDBRANCH   2   3
ENDBRANCH   1   2
BRANCH   1  26
ATOM     26  C   UNL A   1      32.589  32.924  26.755  1.00  0.00     0.118 C 
BRANCH  26  27
ATOM     27  N   UNL A   1      32.406  34.123  27.565  1.00  0.00    -0.352 N 
ATOM     28  C   UNL A   1      33.075  34.611  28.663  1.00  0.00     0.251 C 
ATOM     29  H   UNL A   1      31.661  34.694  27.267  1.00  0.00     0.163 HD
ATOM     30  O   UNL A   1      32.653  35.629  29.214  1.00  0.00    -0.269 OA
BRANCH  28  31
ATOM     31  C   UNL A   1      34.267  33.931  29.218  1.00  0.00     0.039 A 
ATOM     32  C   UNL A   1      35.544  34.427  28.931  1.00  0.00     0.014 A 
ATOM     33  C   UNL A   1      34.150  32.785  29.999  1.00  0.00     0.014 A 
ATOM     34  C   UNL A   1      36.674  33.809  29.479  1.00  0.00     0.010 A 
ATOM     35  C   UNL A   1      35.246  32.290  30.689  1.00  0.00     0.010 A 
ATOM     36  C   UNL A   1      36.531  32.753  30.391  1.00  0.00    -0.014 A 
BRANCH  36  37
ATOM     37  C   UNL A   1      37.698  32.042  30.978  1.00  0.00     0.031 A 
ATOM     38  C   UNL A   1      38.151  32.382  32.378  1.00  0.00     0.074 A 
ATOM     39  C   UNL A   1      38.387  31.152  30.242  1.00  0.00     0.049 A 
ATOM     40  N   UNL A   1      39.180  31.932  33.053  1.00  0.00    -0.248 NA
ATOM     41  C   UNL A   1      37.373  33.403  33.100  1.00  0.00     0.031 C 
ATOM     42  C   UNL A   1      38.091  30.782  28.857  1.00  0.00     0.029 A 
ATOM     43  N   UNL A   1      39.484  30.391  30.560  1.00  0.00    -0.354 N 
ATOM     44  C   UNL A   1      39.186  32.643  34.248  1.00  0.00     0.074 A 
ATOM     45  C   UNL A   1      38.122  33.614  34.170  1.00  0.00     0.031 C 
ATOM     46  C   UNL A   1      38.945  29.823  28.467  1.00  0.00     0.029 A 
ATOM     47  C   UNL A   1      39.875  29.542  29.555  1.00  0.00     0.049 A 
ATOM     48  H   UNL A   1      39.946  30.449  31.428  1.00  0.00     0.167 HD
ATOM     49  C   UNL A   1      39.977  32.476  35.334  1.00  0.00     0.037 A 
ATOM     50  C   UNL A   1      40.864  28.630  29.526  1.00  0.00     0.037 A 
ATOM     51  C   UNL A   1      41.003  31.472  35.424  1.00  0.00     0.049 A 
ATOM     52  C   UNL A   1      41.725  28.448  30.747  1.00  0.00     0.074 A 
ATOM     53  C   UNL A   1      41.814  31.157  36.499  1.00  0.00     0.029 A 
ATOM     54  N   UNL A   1      41.357  30.617  34.389  1.00  0.00    -0.354 N 
ATOM     55  N   UNL A   1      41.670  29.066  31.902  1.00  0.00    -0.248 NA
ATOM     56  C   UNL A   1      42.780  27.430  30.661  1.00  0.00     0.031 C 
ATOM     57  C   UNL A   1      42.700  30.152  36.095  1.00  0.00     0.029 A 
ATOM     58  C   UNL A   1      42.393  29.791  34.792  1.00  0.00     0.049 A 
ATOM     59  H   UNL A   1      40.933  30.599  33.501  1.00  0.00     0.167 HD
ATOM     60  C   UNL A   1      42.649  28.482  32.696  1.00  0.00     0.074 A 
ATOM     61  C   UNL A   1      43.278  27.456  31.888  1.00  0.00     0.031 C 
ATOM     62  C   UNL A   1      42.995  28.765  33.978  1.00  0.00     0.037 A 
BRANCH  49  63
ATOM     63  C   UNL A   1      39.759  33.401  36.500  1.00  0.00     0.064 A 
ATOM     64  C   UNL A   1      38.894  33.076  37.559  1.00  0.00     0.173 A 
ATOM     65  C   UNL A   1      40.413  34.642  36.554  1.00  0.00     0.173 A 
ATOM     66  F   UNL A   1      38.232  31.909  37.557  1.00  0.00    -0.203 F 
ATOM     67  C   UNL A   1      38.647  33.979  38.591  1.00  0.00     0.198 A 
ATOM     68  C   UNL A   1      40.196  35.524  37.611  1.00  0.00     0.198 A 
ATOM     69  F   UNL A   1      41.256  35.006  35.576  1.00  0.00    -0.203 F 
ATOM     70  F   UNL A   1      37.751  33.678  39.541  1.00  0.00    -0.200 F 
ATOM     71  C   UNL A   1      39.302  35.200  38.618  1.00  0.00     0.200 A 
ATOM     72  F   UNL A   1      40.844  36.698  37.643  1.00  0.00    -0.200 F 
ATOM     73  F   UNL A   1      39.061  36.068  39.609  1.00  0.00    -0.200 F 
ENDBRANCH  49  63
BRANCH  50  74
ATOM     74  C   UNL A   1      41.043  27.767  28.329  1.00  0.00     0.064 A 
ATOM     75  C   UNL A   1      41.889  28.166  27.283  1.00  0.00     0.173 A 
ATOM     76  C   UNL A   1      40.387  26.535  28.200  1.00  0.00     0.173 A 
ATOM     77  F   UNL A   1      42.525  29.346  27.352  1.00  0.00    -0.203 F 
ATOM     78  C   UNL A   1      42.056  27.377  26.148  1.00  0.00     0.198 A 
ATOM     79  C   UNL A   1      40.578  25.732  27.077  1.00  0.00     0.198 A 
ATOM     80  F   UNL A   1      39.572  26.103  29.174  1.00  0.00    -0.203 F 
ATOM     81  F   UNL A   1      42.836  27.805  25.146  1.00  0.00    -0.200 F 
ATOM     82  C   UNL A   1      41.406  26.157  26.049  1.00  0.00     0.200 A 
ATOM     83  F   UNL A   1      39.959  24.546  26.991  1.00  0.00    -0.200 F 
ATOM     84  F   UNL A   1      41.571  25.394  24.959  1.00  0.00    -0.200 F 
ENDBRANCH  50  74
BRANCH  62  85
ATOM     85  C   UNL A   1      44.057  27.910  34.607  1.00  0.00     0.064 A 
ATOM     86  C   UNL A   1      45.410  28.283  34.611  1.00  0.00     0.173 A 
ATOM     87  C   UNL A   1      43.708  26.707  35.241  1.00  0.00     0.173 A 
ATOM     88  F   UNL A   1      45.799  29.417  34.010  1.00  0.00    -0.203 F 
ATOM     89  C   UNL A   1      46.376  27.464  35.189  1.00  0.00     0.198 A 
ATOM     90  C   UNL A   1      44.671  25.910  35.852  1.00  0.00     0.198 A 
ATOM     91  F   UNL A   1      42.428  26.308  35.276  1.00  0.00    -0.203 F 
ATOM     92  F   UNL A   1      47.669  27.809  35.123  1.00  0.00    -0.200 F 
ATOM     93  C   UNL A   1      46.005  26.283  35.814  1.00  0.00     0.200 A 
ATOM     94  F   UNL A   1      44.308  24.780  36.473  1.00  0.00    -0.200 F 
ATOM     95  F   UNL A   1      46.937  25.498  36.373  1.00  0.00    -0.200 F 
ENDBRANCH  62  85
ENDBRANCH  36  37
ENDBRANCH  28  31
ENDBRANCH  26  27
ENDBRANCH   1  26
TORSDOF 12
ENDMDL
MODEL 2
REMARK VINA RESULT:     -12.8      1.047      1.810
REMARK SMILES Cc1cc(C(=O)Nc2c(Cl)cc(Cl)cc2C(=O)NCCCNC(=O)c2ccc(-c3c4nc(c(-c5c(F)c(F)c(F)c(F)c5F)c5ccc([nH]5)c(-c5c(F)c(F)c(F)c(F)c5F)c5nc(c(-c6c(F)c(F)c(F)c(F)c6F)c6ccc3[nH]6)C=C5)C=C4)cc2)c(C)s1
REMARK SMILES IDX 20 1 19 2 18 3 16 4 17 5 15 7 8 8 9 9 10 10 11 11 14 12
REMARK SMILES IDX 12 13 13 14 7 15 5 16 6 17 4 19 1 20 2 21 3 22 90 23 88 24
REMARK SMILES IDX 89 25 21 26 22 27 23 28 24 30 25 31 26 32 87 33 27 34 86 35
REMARK SMILES IDX 28 36 29 37 30 38 80 39 31 40 85 41 79 42 81 43 32 44 84 45
REMARK SMILES IDX 78 46 77 47 33 49 65 50 45 51 64 52 46 53 49 54 63 55 82 56
REMARK SMILES IDX 47 57 48 58 62 60 83 61 50 62 34 63 35 64 43 65 36 66 37 67
REMARK SMILES IDX 41 68 44 69 38 70 39 71 42 72 40 73 66 74 67 75 75 76 68 77
REMARK SMILES IDX 69 78 73 79 76 80 70 81 71 82 74 83 72 84 51 85 52 86 60 87
REMARK SMILES IDX 53 88 54 89 58 90 61 91 55 92 56 93 59 94 57 95
REMARK H PARENT 18 6 7 18 22 29 81 48 49 59
REMARK Flexibility Score: inf
ROOT
ATOM      1  C   UNL A   1      31.902  31.763  27.220  1.00  0.00     0.042 C 
ENDROOT
BRANCH   1   2
ATOM      2  C   UNL A   1      32.636  30.474  26.951  1.00  0.00     0.118 C 
BRANCH   2   3
ATOM      3  N   UNL A   1      32.057  29.253  27.437  1.00  0.00    -0.352 N 
ATOM      4  C   UNL A   1      31.728  28.106  26.763  1.00  0.00     0.253 C 
ATOM      5  O   UNL A   1      31.293  27.183  27.457  1.00  0.00    -0.269 OA
ATOM      6  H   UNL A   1      31.867  29.238  28.403  1.00  0.00     0.163 HD
BRANCH   4   7
ATOM      7  C   UNL A   1      31.789  27.891  25.274  1.00  0.00     0.066 A 
ATOM      8  C   UNL A   1      32.674  27.109  24.491  1.00  0.00     0.073 A 
ATOM      9  C   UNL A   1      32.412  26.945  23.104  1.00  0.00     0.066 A 
ATOM     10  Cl  UNL A   1      33.338  25.862  22.116  1.00  0.00    -0.082 Cl
ATOM     11  C   UNL A   1      31.390  27.650  22.469  1.00  0.00     0.043 A 
ATOM     12  C   UNL A   1      30.763  28.595  24.595  1.00  0.00     0.036 A 
ATOM     13  C   UNL A   1      30.588  28.494  23.217  1.00  0.00     0.043 A 
ATOM     14  Cl  UNL A   1      29.366  29.418  22.439  1.00  0.00    -0.084 Cl
BRANCH   8  15
ATOM     15  N   UNL A   1      33.809  26.473  25.022  1.00  0.00    -0.320 N 
ATOM     16  C   UNL A   1      33.933  25.182  25.547  1.00  0.00     0.256 C 
ATOM     17  O   UNL A   1      35.054  24.880  25.963  1.00  0.00    -0.269 OA
ATOM     18  H   UNL A   1      34.633  27.012  25.024  1.00  0.00     0.170 HD
BRANCH  16  19
ATOM     19  C   UNL A   1      32.833  24.182  25.496  1.00  0.00     0.054 A 
ATOM     20  C   UNL A   1      29.750  22.688  27.068  1.00  0.00     0.056 C 
ATOM     21  C   UNL A   1      30.907  23.035  26.197  1.00  0.00     0.003 A 
ATOM     22  C   UNL A   1      31.506  24.263  26.046  1.00  0.00     0.029 A 
ATOM     23  S   UNL A   1      31.673  21.876  25.229  1.00  0.00    -0.145 S 
ATOM     24  C   UNL A   1      32.905  22.990  24.770  1.00  0.00     0.014 A 
ATOM     25  C   UNL A   1      33.881  22.531  23.732  1.00  0.00     0.057 C 
ENDBRANCH  16  19
ENDBRANCH   8  15
ENDBRANCH   4   7
ENDBRANCH   2   3
ENDBRANCH   1   2
BRANCH   1  26
ATOM     26  C   UNL A   1      32.595  33.014  26.728  1.00  0.00     0.118 C 
BRANCH  26  27
ATOM     27  N   UNL A   1      32.393  34.188  27.570  1.00  0.00    -0.352 N 
ATOM     28  C   UNL A   1      33.045  34.651  28.688  1.00  0.00     0.251 C 
ATOM     29  H   UNL A   1      31.644  34.760  27.281  1.00  0.00     0.163 HD
ATOM     30  O   UNL A   1      32.608  35.649  29.264  1.00  0.00    -0.269 OA
BRANCH  28  31
ATOM     31  C   UNL A   1      34.239  33.967  29.236  1.00  0.00     0.039 A 
ATOM     32  C   UNL A   1      35.515  34.463  28.947  1.00  0.00     0.014 A 
ATOM     33  C   UNL A   1      34.123  32.818  30.012  1.00  0.00     0.014 A 
ATOM     34  C   UNL A   1      36.647  33.841  29.487  1.00  0.00     0.010 A 
ATOM     35  C   UNL A   1      35.221  32.317  30.695  1.00  0.00     0.010 A 
ATOM     36  C   UNL A   1      36.506  32.780  30.395  1.00  0.00    -0.014 A 
BRANCH  36  37
ATOM     37  C   UNL A   1      37.673  32.066  30.974  1.00  0.00     0.031 A 
ATOM     38  C   UNL A   1      38.126  32.390  32.378  1.00  0.00     0.074 A 
ATOM     39  C   UNL A   1      38.366  31.185  30.228  1.00  0.00     0.049 A 
ATOM     40  N   UNL A   1      39.155  31.935  33.048  1.00  0.00    -0.248 NA
ATOM     41  C   UNL A   1      37.345  33.401  33.112  1.00  0.00     0.031 C 
ATOM     42  C   UNL A   1      38.071  30.831  28.839  1.00  0.00     0.029 A 
ATOM     43  N   UNL A   1      39.464  30.423  30.538  1.00  0.00    -0.354 N 
ATOM     44  C   UNL A   1      39.158  32.631  34.251  1.00  0.00     0.074 A 
ATOM     45  C   UNL A   1      38.092  33.600  34.184  1.00  0.00     0.031 C 
ATOM     46  C   UNL A   1      38.927  29.879  28.437  1.00  0.00     0.029 A 
ATOM     47  C   UNL A   1      39.857  29.587  29.523  1.00  0.00     0.049 A 
ATOM     48  H   UNL A   1      39.925  30.472  31.407  1.00  0.00     0.167 HD
ATOM     49  C   UNL A   1      39.950  32.453  35.336  1.00  0.00     0.037 A 
ATOM     50  C   UNL A   1      40.849  28.678  29.484  1.00  0.00     0.037 A 
ATOM     51  C   UNL A   1      40.978  31.451  35.415  1.00  0.00     0.049 A 
ATOM     52  C   UNL A   1      41.710  28.484  30.704  1.00  0.00     0.074 A 
ATOM     53  C   UNL A   1      41.789  31.125  36.486  1.00  0.00     0.029 A 
ATOM     54  N   UNL A   1      41.334  30.609  34.370  1.00  0.00    -0.354 N 
ATOM     55  N   UNL A   1      41.653  29.088  31.866  1.00  0.00    -0.248 NA
ATOM     56  C   UNL A   1      42.766  27.469  30.606  1.00  0.00     0.031 C 
ATOM     57  C   UNL A   1      42.677  30.127  36.071  1.00  0.00     0.029 A 
ATOM     58  C   UNL A   1      42.372  29.780  34.764  1.00  0.00     0.049 A 
ATOM     59  H   UNL A   1      40.911  30.601  33.482  1.00  0.00     0.167 HD
ATOM     60  C   UNL A   1      42.633  28.497  32.653  1.00  0.00     0.074 A 
ATOM     61  C   UNL A   1      43.264  27.482  31.833  1.00  0.00     0.031 C 
ATOM     62  C   UNL A   1      42.977  28.765  33.938  1.00  0.00     0.037 A 
BRANCH  49  63
ATOM     63  C   UNL A   1      39.729  33.365  36.513  1.00  0.00     0.064 A 
ATOM     64  C   UNL A   1      38.859  33.028  37.564  1.00  0.00     0.173 A 
ATOM     65  C   UNL A   1      40.384  34.604  36.585  1.00  0.00     0.173 A 
ATOM     66  F   UNL A   1      38.196  31.861  37.546  1.00  0.00    -0.203 F 
ATOM     67  C   UNL A   1      38.610  33.918  38.606  1.00  0.00     0.198 A 
ATOM     68  C   UNL A   1      40.165  35.473  37.651  1.00  0.00     0.198 A 
ATOM     69  F   UNL A   1      41.231  34.979  35.614  1.00  0.00    -0.203 F 
ATOM     70  F   UNL A   1      37.710  33.606  39.550  1.00  0.00    -0.200 F 
ATOM     71  C   UNL A   1      39.267  35.137  38.651  1.00  0.00     0.200 A 
ATOM     72  F   UNL A   1      40.814  36.645  37.701  1.00  0.00    -0.200 F 
ATOM     73  F   UNL A   1      39.023  35.993  39.652  1.00  0.00    -0.200 F 
ENDBRANCH  49  63
BRANCH  50  74
ATOM     74  C   UNL A   1      41.030  27.830  28.276  1.00  0.00     0.064 A 
ATOM     75  C   UNL A   1      40.389  26.586  28.177  1.00  0.00     0.173 A 
ATOM     76  C   UNL A   1      41.833  28.235  27.202  1.00  0.00     0.173 A 
ATOM     77  F   UNL A   1      39.624  26.146  29.187  1.00  0.00    -0.203 F 
ATOM     78  C   UNL A   1      40.560  25.772  27.059  1.00  0.00     0.198 A 
ATOM     79  C   UNL A   1      41.980  27.435  26.071  1.00  0.00     0.198 A 
ATOM     80  F   UNL A   1      42.463  29.419  27.243  1.00  0.00    -0.203 F 
ATOM     81  F   UNL A   1      39.971  24.570  27.012  1.00  0.00    -0.200 F 
ATOM     82  C   UNL A   1      41.350  26.201  26.004  1.00  0.00     0.200 A 
ATOM     83  F   UNL A   1      42.732  27.858  25.045  1.00  0.00    -0.200 F 
ATOM     84  F   UNL A   1      41.510  25.421  24.925  1.00  0.00    -0.200 F 
ENDBRANCH  50  74
BRANCH  62  85
ATOM     85  C   UNL A   1      44.041  27.906  34.558  1.00  0.00     0.064 A 
ATOM     86  C   UNL A   1      45.393  28.280  34.565  1.00  0.00     0.173 A 
ATOM     87  C   UNL A   1      43.694  26.696  35.180  1.00  0.00     0.173 A 
ATOM     88  F   UNL A   1      45.780  29.421  33.975  1.00  0.00    -0.203 F 
ATOM     89  C   UNL A   1      46.360  27.456  35.133  1.00  0.00     0.198 A 
ATOM     90  C   UNL A   1      44.658  25.895  35.783  1.00  0.00     0.198 A 
ATOM     91  F   UNL A   1      42.414  26.295  35.213  1.00  0.00    -0.203 F 
ATOM     92  F   UNL A   1      47.653  27.804  35.070  1.00  0.00    -0.200 F 
ATOM     93  C   UNL A   1      45.992  26.269  35.747  1.00  0.00     0.200 A 
ATOM     94  F   UNL A   1      44.297  24.758  36.393  1.00  0.00    -0.200 F 
ATOM     95  F   UNL A   1      46.924  25.480  36.298  1.00  0.00    -0.200 F 
ENDBRANCH  62  85
ENDBRANCH  36  37
ENDBRANCH  28  31
ENDBRANCH  26  27
ENDBRANCH   1  26
TORSDOF 12
ENDMDL
MODEL 3
REMARK VINA RESULT:     -12.7      2.092      3.036
REMARK SMILES Cc1cc(C(=O)Nc2c(Cl)cc(Cl)cc2C(=O)NCCCNC(=O)c2ccc(-c3c4nc(c(-c5c(F)c(F)c(F)c(F)c5F)c5ccc([nH]5)c(-c5c(F)c(F)c(F)c(F)c5F)c5nc(c(-c6c(F)c(F)c(F)c(F)c6F)c6ccc3[nH]6)C=C5)C=C4)cc2)c(C)s1
REMARK SMILES IDX 20 1 19 2 18 3 16 4 17 5 15 7 8 8 9 9 10 10 11 11 14 12
REMARK SMILES IDX 12 13 13 14 7 15 5 16 6 17 4 19 1 20 2 21 3 22 90 23 88 24
REMARK SMILES IDX 89 25 21 26 22 27 23 28 24 30 25 31 26 32 87 33 27 34 86 35
REMARK SMILES IDX 28 36 29 37 30 38 80 39 31 40 85 41 79 42 81 43 32 44 84 45
REMARK SMILES IDX 78 46 77 47 33 49 65 50 45 51 64 52 46 53 49 54 63 55 82 56
REMARK SMILES IDX 47 57 48 58 62 60 83 61 50 62 34 63 35 64 43 65 36 66 37 67
REMARK SMILES IDX 41 68 44 69 38 70 39 71 42 72 40 73 66 74 67 75 75 76 68 77
REMARK SMILES IDX 69 78 73 79 76 80 70 81 71 82 74 83 72 84 51 85 52 86 60 87
REMARK SMILES IDX 53 88 54 89 58 90 61 91 55 92 56 93 59 94 57 95
REMARK H PARENT 18 6 7 18 22 29 81 48 49 59
REMARK Flexibility Score: inf
ROOT
ATOM      1  C   UNL A   1      34.008  29.181  24.362  1.00  0.00     0.042 C 
ENDROOT
BRANCH   1   2
ATOM      2  C   UNL A   1      33.472  29.181  22.953  1.00  0.00     0.118 C 
BRANCH   2   3
ATOM      3  N   UNL A   1      33.700  28.017  22.145  1.00  0.00    -0.352 N 
ATOM      4  C   UNL A   1      33.226  26.739  22.287  1.00  0.00     0.253 C 
ATOM      5  O   UNL A   1      33.546  25.946  21.397  1.00  0.00    -0.269 OA
ATOM      6  H   UNL A   1      34.289  28.159  21.368  1.00  0.00     0.163 HD
BRANCH   4   7
ATOM      7  C   UNL A   1      32.416  26.206  23.439  1.00  0.00     0.066 A 
ATOM      8  C   UNL A   1      32.825  25.592  24.648  1.00  0.00     0.073 A 
ATOM      9  C   UNL A   1      31.857  25.325  25.653  1.00  0.00     0.066 A 
ATOM     10  Cl  UNL A   1      32.302  24.746  27.227  1.00  0.00    -0.082 Cl
ATOM     11  C   UNL A   1      30.496  25.521  25.421  1.00  0.00     0.043 A 
ATOM     12  C   UNL A   1      31.025  26.388  23.236  1.00  0.00     0.036 A 
ATOM     13  C   UNL A   1      30.087  26.027  24.200  1.00  0.00     0.043 A 
ATOM     14  Cl  UNL A   1      28.409  26.215  23.876  1.00  0.00    -0.084 Cl
BRANCH   8  15
ATOM     15  N   UNL A   1      34.159  25.233  24.912  1.00  0.00    -0.320 N 
ATOM     16  C   UNL A   1      34.744  23.962  24.919  1.00  0.00     0.256 C 
ATOM     17  O   UNL A   1      35.945  23.929  25.199  1.00  0.00    -0.269 OA
ATOM     18  H   UNL A   1      34.765  25.980  25.119  1.00  0.00     0.170 HD
BRANCH  16  19
ATOM     19  C   UNL A   1      34.017  22.736  24.493  1.00  0.00     0.054 A 
ATOM     20  C   UNL A   1      31.778  21.010  22.001  1.00  0.00     0.056 C 
ATOM     21  C   UNL A   1      32.652  21.378  23.149  1.00  0.00     0.003 A 
ATOM     22  C   UNL A   1      33.671  22.300  23.167  1.00  0.00     0.029 A 
ATOM     23  S   UNL A   1      32.475  20.656  24.671  1.00  0.00    -0.145 S 
ATOM     24  C   UNL A   1      33.635  21.719  25.373  1.00  0.00     0.014 A 
ATOM     25  C   UNL A   1      34.026  21.454  26.794  1.00  0.00     0.057 C 
ENDBRANCH  16  19
ENDBRANCH   8  15
ENDBRANCH   4   7
ENDBRANCH   2   3
ENDBRANCH   1   2
BRANCH   1  26
ATOM     26  C   UNL A   1      32.958  29.175  25.452  1.00  0.00     0.118 C 
BRANCH  26  27
ATOM     27  N   UNL A   1      32.599  30.496  25.954  1.00  0.00    -0.352 N 
ATOM     28  C   UNL A   1      33.158  31.306  26.915  1.00  0.00     0.251 C 
ATOM     29  H   UNL A   1      31.803  30.883  25.522  1.00  0.00     0.163 HD
ATOM     30  O   UNL A   1      32.594  32.362  27.207  1.00  0.00    -0.269 OA
BRANCH  28  31
ATOM     31  C   UNL A   1      34.400  30.930  27.629  1.00  0.00     0.039 A 
ATOM     32  C   UNL A   1      35.384  31.897  27.862  1.00  0.00     0.014 A 
ATOM     33  C   UNL A   1      34.627  29.624  28.049  1.00  0.00     0.014 A 
ATOM     34  C   UNL A   1      36.546  31.558  28.564  1.00  0.00     0.010 A 
ATOM     35  C   UNL A   1      35.682  29.333  28.901  1.00  0.00     0.010 A 
ATOM     36  C   UNL A   1      36.689  30.277  29.120  1.00  0.00    -0.014 A 
BRANCH  36  37
ATOM     37  C   UNL A   1      37.915  29.856  29.847  1.00  0.00     0.031 A 
ATOM     38  C   UNL A   1      38.152  30.347  31.256  1.00  0.00     0.074 A 
ATOM     39  C   UNL A   1      38.840  29.098  29.232  1.00  0.00     0.049 A 
ATOM     40  N   UNL A   1      39.182  30.156  32.043  1.00  0.00    -0.248 NA
ATOM     41  C   UNL A   1      37.115  31.214  31.842  1.00  0.00     0.031 C 
ATOM     42  C   UNL A   1      38.760  28.611  27.854  1.00  0.00     0.029 A 
ATOM     43  N   UNL A   1      40.034  28.600  29.690  1.00  0.00    -0.354 N 
ATOM     44  C   UNL A   1      38.926  30.906  33.186  1.00  0.00     0.074 A 
ATOM     45  C   UNL A   1      37.698  31.626  32.955  1.00  0.00     0.031 C 
ATOM     46  C   UNL A   1      39.827  27.837  27.600  1.00  0.00     0.029 A 
ATOM     47  C   UNL A   1      40.685  27.807  28.778  1.00  0.00     0.049 A 
ATOM     48  H   UNL A   1      40.389  28.794  30.589  1.00  0.00     0.167 HD
ATOM     49  C   UNL A   1      39.627  30.959  34.343  1.00  0.00     0.037 A 
ATOM     50  C   UNL A   1      41.839  27.124  28.893  1.00  0.00     0.037 A 
ATOM     51  C   UNL A   1      40.824  30.199  34.584  1.00  0.00     0.049 A 
ATOM     52  C   UNL A   1      42.598  27.184  30.192  1.00  0.00     0.074 A 
ATOM     53  C   UNL A   1      41.575  30.112  35.742  1.00  0.00     0.029 A 
ATOM     54  N   UNL A   1      41.444  29.391  33.641  1.00  0.00    -0.354 N 
ATOM     55  N   UNL A   1      42.307  27.829  31.295  1.00  0.00    -0.248 NA
ATOM     56  C   UNL A   1      43.842  26.408  30.261  1.00  0.00     0.031 C 
ATOM     57  C   UNL A   1      42.683  29.298  35.480  1.00  0.00     0.029 A 
ATOM     58  C   UNL A   1      42.584  28.821  34.182  1.00  0.00     0.049 A 
ATOM     59  H   UNL A   1      41.120  29.244  32.723  1.00  0.00     0.167 HD
ATOM     60  C   UNL A   1      43.304  27.501  32.205  1.00  0.00     0.074 A 
ATOM     61  C   UNL A   1      44.204  26.594  31.521  1.00  0.00     0.031 C 
ATOM     62  C   UNL A   1      43.459  27.908  33.490  1.00  0.00     0.037 A 
BRANCH  49  63
ATOM     63  C   UNL A   1      39.113  31.871  35.424  1.00  0.00     0.064 A 
ATOM     64  C   UNL A   1      39.447  33.235  35.470  1.00  0.00     0.173 A 
ATOM     65  C   UNL A   1      38.285  31.371  36.441  1.00  0.00     0.173 A 
ATOM     66  F   UNL A   1      40.244  33.769  34.532  1.00  0.00    -0.203 F 
ATOM     67  C   UNL A   1      39.023  34.046  36.521  1.00  0.00     0.198 A 
ATOM     68  C   UNL A   1      37.827  32.195  37.467  1.00  0.00     0.198 A 
ATOM     69  F   UNL A   1      37.927  30.078  36.448  1.00  0.00    -0.203 F 
ATOM     70  F   UNL A   1      39.428  35.322  36.586  1.00  0.00    -0.200 F 
ATOM     71  C   UNL A   1      38.209  33.526  37.515  1.00  0.00     0.200 A 
ATOM     72  F   UNL A   1      37.027  31.693  38.419  1.00  0.00    -0.200 F 
ATOM     73  F   UNL A   1      37.805  34.305  38.527  1.00  0.00    -0.200 F 
ENDBRANCH  49  63
BRANCH  50  74
ATOM     74  C   UNL A   1      42.306  26.264  27.773  1.00  0.00     0.064 A 
ATOM     75  C   UNL A   1      43.298  26.718  26.892  1.00  0.00     0.173 A 
ATOM     76  C   UNL A   1      41.784  24.981  27.559  1.00  0.00     0.173 A 
ATOM     77  F   UNL A   1      43.816  27.947  27.045  1.00  0.00    -0.203 F 
ATOM     78  C   UNL A   1      43.736  25.932  25.829  1.00  0.00     0.198 A 
ATOM     79  C   UNL A   1      42.244  24.183  26.513  1.00  0.00     0.198 A 
ATOM     80  F   UNL A   1      40.838  24.496  28.377  1.00  0.00    -0.203 F 
ATOM     81  F   UNL A   1      44.653  26.410  24.977  1.00  0.00    -0.200 F 
ATOM     82  C   UNL A   1      43.213  24.662  25.645  1.00  0.00     0.200 A 
ATOM     83  F   UNL A   1      41.747  22.949  26.346  1.00  0.00    -0.200 F 
ATOM     84  F   UNL A   1      43.638  23.902  24.626  1.00  0.00    -0.200 F 
ENDBRANCH  50  74
BRANCH  62  85
ATOM     85  C   UNL A   1      44.609  27.326  34.261  1.00  0.00     0.064 A 
ATOM     86  C   UNL A   1      45.860  27.958  34.326  1.00  0.00     0.173 A 
ATOM     87  C   UNL A   1      44.445  26.125  34.970  1.00  0.00     0.173 A 
ATOM     88  F   UNL A   1      46.074  29.102  33.659  1.00  0.00    -0.203 F 
ATOM     89  C   UNL A   1      46.913  27.388  35.036  1.00  0.00     0.198 A 
ATOM     90  C   UNL A   1      45.488  25.579  35.711  1.00  0.00     0.198 A 
ATOM     91  F   UNL A   1      43.266  25.485  34.951  1.00  0.00    -0.203 F 
ATOM     92  F   UNL A   1      48.118  27.976  35.030  1.00  0.00    -0.200 F 
ATOM     93  C   UNL A   1      46.724  26.204  35.733  1.00  0.00     0.200 A 
ATOM     94  F   UNL A   1      45.297  24.446  36.399  1.00  0.00    -0.200 F 
ATOM     95  F   UNL A   1      47.738  25.660  36.419  1.00  0.00    -0.200 F 
ENDBRANCH  62  85
ENDBRANCH  36  37
ENDBRANCH  28  31
ENDBRANCH  26  27
ENDBRANCH   1  26
TORSDOF 12
ENDMDL
