MODEL 1
REMARK VINA RESULT:     -12.1      0.000      0.000
REMARK SMILES CSCc1ccc(C(=O)N[C@](C)(C(=O)NCCCNC(=O)c2ccc(-c3c4nc(c(-c5c(F)c(F)c(F)c(F)c5F)c5ccc([nH]5)c(-c5c(F)c(F)c(F)c(F)c5F)c5nc(c(-c6c(F)c(F)c(F)c(F)c6F)c6ccc3[nH]6)C=C5)C=C4)cc2)C(F)(F)F)o1
REMARK SMILES IDX 16 1 15 2 13 3 14 4 11 6 12 7 10 8 8 9 9 10 7 12 4 13 5 14
REMARK SMILES IDX 89 15 6 16 3 17 2 18 1 19 85 20 86 21 87 22 88 23 17 24
REMARK SMILES IDX 18 25 19 26 20 27 21 29 22 30 23 31 84 32 24 33 83 34 25 35
REMARK SMILES IDX 26 36 27 37 77 38 28 39 82 40 76 41 78 42 29 43 81 44 75 45
REMARK SMILES IDX 74 46 30 48 62 49 42 50 61 51 43 52 46 53 60 54 79 55 44 56
REMARK SMILES IDX 45 57 59 59 80 60 47 61 31 62 32 63 40 64 33 65 34 66 38 67
REMARK SMILES IDX 41 68 35 69 36 70 39 71 37 72 63 73 64 74 72 75 65 76 66 77
REMARK SMILES IDX 70 78 73 79 67 80 68 81 71 82 69 83 48 84 49 85 57 86 50 87
REMARK SMILES IDX 51 88 55 89 58 90 52 91 53 92 56 93 54 94
REMARK H PARENT 15 5 10 11 19 28 78 47 46 58
REMARK Flexibility Score: inf
ROOT
ATOM      1  C   UNL A   1      31.424  30.358  26.050  1.00  0.00     0.117 C 
ENDROOT
BRANCH   1   2
ATOM      2  N   UNL A   1      32.090  30.003  24.807  1.00  0.00    -0.354 N 
ATOM      3  C   UNL A   1      32.554  28.839  24.268  1.00  0.00     0.254 C 
ATOM      4  O   UNL A   1      33.181  28.989  23.215  1.00  0.00    -0.272 OA
ATOM      5  H   UNL A   1      32.241  30.781  24.221  1.00  0.00     0.163 HD
BRANCH   3   6
ATOM      6  C   UNL A   1      32.212  27.442  24.838  1.00  0.00     0.212 C 
ATOM      7  C   UNL A   1      31.185  27.498  25.980  1.00  0.00     0.056 C 
BRANCH   6   8
ATOM      8  N   UNL A   1      31.639  26.712  23.662  1.00  0.00    -0.328 N 
ATOM      9  C   UNL A   1      31.001  27.221  22.557  1.00  0.00     0.288 C 
ATOM     10  O   UNL A   1      31.462  26.872  21.470  1.00  0.00    -0.266 OA
ATOM     11  H   UNL A   1      31.733  25.732  23.685  1.00  0.00     0.165 HD
BRANCH   9  12
ATOM     12  C   UNL A   1      29.794  28.002  22.695  1.00  0.00     0.191 A 
ATOM     13  C   UNL A   1      28.405  29.617  22.083  1.00  0.00     0.114 A 
ATOM     14  C   UNL A   1      27.733  28.852  23.012  1.00  0.00     0.047 A 
ATOM     15  O   UNL A   1      29.658  29.106  21.894  1.00  0.00    -0.455 OA
ATOM     16  C   UNL A   1      28.614  27.808  23.388  1.00  0.00     0.056 A 
BRANCH  13  17
ATOM     17  C   UNL A   1      28.027  30.763  21.216  1.00  0.00     0.144 C 
BRANCH  17  18
ATOM     18  S   UNL A   1      28.463  32.382  21.918  1.00  0.00    -0.157 SA
ATOM     19  C   UNL A   1      28.758  31.902  23.638  1.00  0.00     0.085 C 
ENDBRANCH  17  18
ENDBRANCH  13  17
ENDBRANCH   9  12
ENDBRANCH   6   8
BRANCH   6  20
ATOM     20  C   UNL A   1      33.533  26.925  25.454  1.00  0.00     0.420 C 
ATOM     21  F   UNL A   1      34.346  26.395  24.506  1.00  0.00    -0.168 F 
ATOM     22  F   UNL A   1      34.239  27.940  26.012  1.00  0.00    -0.168 F 
ATOM     23  F   UNL A   1      33.354  25.995  26.415  1.00  0.00    -0.168 F 
ENDBRANCH   6  20
ENDBRANCH   3   6
ENDBRANCH   1   2
BRANCH   1  24
ATOM     24  C   UNL A   1      31.361  31.873  26.258  1.00  0.00     0.042 C 
BRANCH  24  25
ATOM     25  C   UNL A   1      32.532  32.468  27.045  1.00  0.00     0.118 C 
BRANCH  25  26
ATOM     26  N   UNL A   1      32.304  33.842  27.459  1.00  0.00    -0.352 N 
ATOM     27  C   UNL A   1      32.970  34.598  28.393  1.00  0.00     0.251 C 
ATOM     28  H   UNL A   1      31.563  34.299  27.002  1.00  0.00     0.163 HD
ATOM     29  O   UNL A   1      32.549  35.714  28.682  1.00  0.00    -0.269 OA
BRANCH  27  30
ATOM     30  C   UNL A   1      34.171  34.073  29.076  1.00  0.00     0.039 A 
ATOM     31  C   UNL A   1      33.992  33.210  30.163  1.00  0.00     0.014 A 
ATOM     32  C   UNL A   1      35.459  34.455  28.691  1.00  0.00     0.014 A 
ATOM     33  C   UNL A   1      35.101  32.686  30.829  1.00  0.00     0.010 A 
ATOM     34  C   UNL A   1      36.569  33.906  29.337  1.00  0.00     0.010 A 
ATOM     35  C   UNL A   1      36.398  33.013  30.407  1.00  0.00    -0.014 A 
BRANCH  35  36
ATOM     36  C   UNL A   1      37.585  32.418  31.067  1.00  0.00     0.031 A 
ATOM     37  C   UNL A   1      38.366  31.329  30.391  1.00  0.00     0.074 A 
ATOM     38  C   UNL A   1      37.929  32.825  32.302  1.00  0.00     0.049 A 
ATOM     39  N   UNL A   1      39.378  30.635  30.845  1.00  0.00    -0.248 NA
ATOM     40  C   UNL A   1      37.942  30.960  29.032  1.00  0.00     0.031 C 
ATOM     41  C   UNL A   1      37.237  33.855  33.077  1.00  0.00     0.029 A 
ATOM     42  N   UNL A   1      38.944  32.411  33.128  1.00  0.00    -0.354 N 
ATOM     43  C   UNL A   1      39.695  29.730  29.842  1.00  0.00     0.074 A 
ATOM     44  C   UNL A   1      38.763  29.956  28.757  1.00  0.00     0.031 C 
ATOM     45  C   UNL A   1      37.849  33.998  34.263  1.00  0.00     0.029 A 
ATOM     46  C   UNL A   1      38.962  33.055  34.339  1.00  0.00     0.049 A 
ATOM     47  H   UNL A   1      39.596  31.718  32.876  1.00  0.00     0.167 HD
ATOM     48  C   UNL A   1      40.679  28.799  29.827  1.00  0.00     0.037 A 
ATOM     49  C   UNL A   1      39.781  32.899  35.397  1.00  0.00     0.037 A 
ATOM     50  C   UNL A   1      41.633  28.596  30.883  1.00  0.00     0.049 A 
ATOM     51  C   UNL A   1      40.887  31.885  35.338  1.00  0.00     0.074 A 
ATOM     52  C   UNL A   1      42.700  27.715  30.928  1.00  0.00     0.029 A 
ATOM     53  N   UNL A   1      41.639  29.292  32.082  1.00  0.00    -0.354 N 
ATOM     54  N   UNL A   1      41.195  31.057  34.372  1.00  0.00    -0.248 NA
ATOM     55  C   UNL A   1      41.760  31.787  36.517  1.00  0.00     0.031 C 
ATOM     56  C   UNL A   1      43.343  27.867  32.162  1.00  0.00     0.029 A 
ATOM     57  C   UNL A   1      42.687  28.855  32.877  1.00  0.00     0.049 A 
ATOM     58  H   UNL A   1      40.994  29.992  32.332  1.00  0.00     0.167 HD
ATOM     59  C   UNL A   1      42.299  30.346  34.819  1.00  0.00     0.074 A 
ATOM     60  C   UNL A   1      42.615  30.846  36.141  1.00  0.00     0.031 C 
ATOM     61  C   UNL A   1      42.987  29.365  34.187  1.00  0.00     0.037 A 
BRANCH  48  62
ATOM     62  C   UNL A   1      40.769  27.920  28.619  1.00  0.00     0.064 A 
ATOM     63  C   UNL A   1      40.060  26.714  28.541  1.00  0.00     0.173 A 
ATOM     64  C   UNL A   1      41.547  28.305  27.519  1.00  0.00     0.173 A 
ATOM     65  F   UNL A   1      39.314  26.301  29.577  1.00  0.00    -0.203 F 
ATOM     66  C   UNL A   1      40.138  25.914  27.404  1.00  0.00     0.198 A 
ATOM     67  C   UNL A   1      41.612  27.509  26.378  1.00  0.00     0.198 A 
ATOM     68  F   UNL A   1      42.243  29.451  27.549  1.00  0.00    -0.203 F 
ATOM     69  F   UNL A   1      39.475  24.750  27.360  1.00  0.00    -0.200 F 
ATOM     70  C   UNL A   1      40.910  26.314  26.323  1.00  0.00     0.200 A 
ATOM     71  F   UNL A   1      42.356  27.898  25.333  1.00  0.00    -0.200 F 
ATOM     72  F   UNL A   1      40.983  25.543  25.230  1.00  0.00    -0.200 F 
ENDBRANCH  48  62
BRANCH  49  73
ATOM     73  C   UNL A   1      39.590  33.742  36.598  1.00  0.00     0.064 A 
ATOM     74  C   UNL A   1      38.824  33.285  37.677  1.00  0.00     0.173 A 
ATOM     75  C   UNL A   1      40.182  35.008  36.700  1.00  0.00     0.173 A 
ATOM     76  F   UNL A   1      38.225  32.087  37.612  1.00  0.00    -0.203 F 
ATOM     77  C   UNL A   1      38.651  34.067  38.816  1.00  0.00     0.198 A 
ATOM     78  C   UNL A   1      40.020  35.784  37.844  1.00  0.00     0.198 A 
ATOM     79  F   UNL A   1      40.925  35.485  35.690  1.00  0.00    -0.203 F 
ATOM     80  F   UNL A   1      37.896  33.618  39.827  1.00  0.00    -0.200 F 
ATOM     81  C   UNL A   1      39.253  35.314  38.900  1.00  0.00     0.200 A 
ATOM     82  F   UNL A   1      40.607  36.986  37.925  1.00  0.00    -0.200 F 
ATOM     83  F   UNL A   1      39.090  36.066  39.998  1.00  0.00    -0.200 F 
ENDBRANCH  49  73
BRANCH  61  84
ATOM     84  C   UNL A   1      44.157  28.780  34.914  1.00  0.00     0.064 A 
ATOM     85  C   UNL A   1      44.011  27.651  35.731  1.00  0.00     0.173 A 
ATOM     86  C   UNL A   1      45.436  29.331  34.765  1.00  0.00     0.173 A 
ATOM     87  F   UNL A   1      42.801  27.102  35.914  1.00  0.00    -0.203 F 
ATOM     88  C   UNL A   1      45.109  27.098  36.384  1.00  0.00     0.198 A 
ATOM     89  C   UNL A   1      46.534  28.769  35.410  1.00  0.00     0.198 A 
ATOM     90  F   UNL A   1      45.621  30.414  33.994  1.00  0.00    -0.203 F 
ATOM     91  F   UNL A   1      44.946  26.034  37.181  1.00  0.00    -0.200 F 
ATOM     92  C   UNL A   1      46.369  27.655  36.220  1.00  0.00     0.200 A 
ATOM     93  F   UNL A   1      47.751  29.307  35.251  1.00  0.00    -0.200 F 
ATOM     94  F   UNL A   1      47.425  27.122  36.849  1.00  0.00    -0.200 F 
ENDBRANCH  61  84
ENDBRANCH  35  36
ENDBRANCH  27  30
ENDBRANCH  25  26
ENDBRANCH  24  25
ENDBRANCH   1  24
TORSDOF 15
ENDMDL
MODEL 2
REMARK VINA RESULT:     -12.0      5.812     10.933
REMARK SMILES CSCc1ccc(C(=O)N[C@](C)(C(=O)NCCCNC(=O)c2ccc(-c3c4nc(c(-c5c(F)c(F)c(F)c(F)c5F)c5ccc([nH]5)c(-c5c(F)c(F)c(F)c(F)c5F)c5nc(c(-c6c(F)c(F)c(F)c(F)c6F)c6ccc3[nH]6)C=C5)C=C4)cc2)C(F)(F)F)o1
REMARK SMILES IDX 16 1 15 2 13 3 14 4 11 6 12 7 10 8 8 9 9 10 7 12 4 13 5 14
REMARK SMILES IDX 89 15 6 16 3 17 2 18 1 19 85 20 86 21 87 22 88 23 17 24
REMARK SMILES IDX 18 25 19 26 20 27 21 29 22 30 23 31 84 32 24 33 83 34 25 35
REMARK SMILES IDX 26 36 27 37 77 38 28 39 82 40 76 41 78 42 29 43 81 44 75 45
REMARK SMILES IDX 74 46 30 48 62 49 42 50 61 51 43 52 46 53 60 54 79 55 44 56
REMARK SMILES IDX 45 57 59 59 80 60 47 61 31 62 32 63 40 64 33 65 34 66 38 67
REMARK SMILES IDX 41 68 35 69 36 70 39 71 37 72 63 73 64 74 72 75 65 76 66 77
REMARK SMILES IDX 70 78 73 79 67 80 68 81 71 82 69 83 48 84 49 85 57 86 50 87
REMARK SMILES IDX 51 88 55 89 58 90 52 91 53 92 56 93 54 94
REMARK H PARENT 15 5 10 11 19 28 78 47 46 58
REMARK Flexibility Score: inf
ROOT
ATOM      1  C   UNL A   1      36.640  20.305  24.997  1.00  0.00     0.117 C 
ENDROOT
BRANCH   1   2
ATOM      2  N   UNL A   1      36.790  21.582  25.675  1.00  0.00    -0.354 N 
ATOM      3  C   UNL A   1      36.054  22.729  25.729  1.00  0.00     0.254 C 
ATOM      4  O   UNL A   1      36.604  23.650  26.340  1.00  0.00    -0.272 OA
ATOM      5  H   UNL A   1      37.611  21.629  26.218  1.00  0.00     0.163 HD
BRANCH   3   6
ATOM      6  C   UNL A   1      34.603  22.835  25.202  1.00  0.00     0.212 C 
ATOM      7  C   UNL A   1      33.979  21.465  24.890  1.00  0.00     0.056 C 
BRANCH   6   8
ATOM      8  N   UNL A   1      33.866  23.497  26.325  1.00  0.00    -0.328 N 
ATOM      9  C   UNL A   1      32.511  23.595  26.529  1.00  0.00     0.288 C 
ATOM     10  O   UNL A   1      32.109  23.203  27.625  1.00  0.00    -0.266 OA
ATOM     11  H   UNL A   1      34.431  23.920  27.012  1.00  0.00     0.165 HD
BRANCH   9  12
ATOM     12  C   UNL A   1      31.661  24.239  25.555  1.00  0.00     0.191 A 
ATOM     13  C   UNL A   1      30.825  26.019  24.531  1.00  0.00     0.114 A 
ATOM     14  C   UNL A   1      30.446  24.922  23.785  1.00  0.00     0.047 A 
ATOM     15  O   UNL A   1      31.557  25.605  25.608  1.00  0.00    -0.455 OA
ATOM     16  C   UNL A   1      30.998  23.787  24.429  1.00  0.00     0.056 A 
BRANCH  13  17
ATOM     17  C   UNL A   1      30.693  27.487  24.354  1.00  0.00     0.144 C 
BRANCH  17  18
ATOM     18  S   UNL A   1      29.437  27.961  23.128  1.00  0.00    -0.157 SA
ATOM     19  C   UNL A   1      30.290  29.344  22.331  1.00  0.00     0.085 C 
ENDBRANCH  17  18
ENDBRANCH  13  17
ENDBRANCH   9  12
ENDBRANCH   6   8
BRANCH   6  20
ATOM     20  C   UNL A   1      34.720  23.586  23.854  1.00  0.00     0.420 C 
ATOM     21  F   UNL A   1      34.562  24.924  24.018  1.00  0.00    -0.168 F 
ATOM     22  F   UNL A   1      35.956  23.429  23.316  1.00  0.00    -0.168 F 
ATOM     23  F   UNL A   1      33.832  23.173  22.926  1.00  0.00    -0.168 F 
ENDBRANCH   6  20
ENDBRANCH   3   6
ENDBRANCH   1   2
BRANCH   1  24
ATOM     24  C   UNL A   1      37.981  19.594  24.802  1.00  0.00     0.042 C 
BRANCH  24  25
ATOM     25  C   UNL A   1      39.092  20.034  25.760  1.00  0.00     0.118 C 
BRANCH  25  26
ATOM     26  N   UNL A   1      40.164  19.060  25.879  1.00  0.00    -0.352 N 
ATOM     27  C   UNL A   1      41.500  19.254  26.132  1.00  0.00     0.251 C 
ATOM     28  H   UNL A   1      39.892  18.122  25.762  1.00  0.00     0.163 HD
ATOM     29  O   UNL A   1      42.272  18.301  26.081  1.00  0.00    -0.269 OA
BRANCH  27  30
ATOM     30  C   UNL A   1      42.026  20.602  26.435  1.00  0.00     0.039 A 
ATOM     31  C   UNL A   1      42.310  21.459  25.367  1.00  0.00     0.014 A 
ATOM     32  C   UNL A   1      42.285  21.009  27.748  1.00  0.00     0.014 A 
ATOM     33  C   UNL A   1      42.800  22.743  25.613  1.00  0.00     0.010 A 
ATOM     34  C   UNL A   1      42.744  22.304  27.995  1.00  0.00     0.010 A 
ATOM     35  C   UNL A   1      42.999  23.183  26.930  1.00  0.00    -0.014 A 
BRANCH  35  36
ATOM     36  C   UNL A   1      43.463  24.563  27.208  1.00  0.00     0.031 A 
ATOM     37  C   UNL A   1      42.518  25.584  27.773  1.00  0.00     0.074 A 
ATOM     38  C   UNL A   1      44.726  24.913  26.902  1.00  0.00     0.049 A 
ATOM     39  N   UNL A   1      42.720  26.856  28.005  1.00  0.00    -0.248 NA
ATOM     40  C   UNL A   1      41.164  25.116  28.105  1.00  0.00     0.031 C 
ATOM     41  C   UNL A   1      45.733  24.022  26.324  1.00  0.00     0.029 A 
ATOM     42  N   UNL A   1      45.374  26.116  27.025  1.00  0.00    -0.354 N 
ATOM     43  C   UNL A   1      41.513  27.348  28.483  1.00  0.00     0.074 A 
ATOM     44  C   UNL A   1      40.582  26.239  28.501  1.00  0.00     0.031 C 
ATOM     45  C   UNL A   1      46.874  24.706  26.147  1.00  0.00     0.029 A 
ATOM     46  C   UNL A   1      46.671  26.088  26.579  1.00  0.00     0.049 A 
ATOM     47  H   UNL A   1      44.949  26.922  27.396  1.00  0.00     0.167 HD
ATOM     48  C   UNL A   1      41.214  28.609  28.877  1.00  0.00     0.037 A 
ATOM     49  C   UNL A   1      47.593  27.067  26.520  1.00  0.00     0.037 A 
ATOM     50  C   UNL A   1      42.145  29.704  28.900  1.00  0.00     0.049 A 
ATOM     51  C   UNL A   1      47.245  28.447  26.998  1.00  0.00     0.074 A 
ATOM     52  C   UNL A   1      41.942  31.002  29.338  1.00  0.00     0.029 A 
ATOM     53  N   UNL A   1      43.460  29.627  28.470  1.00  0.00    -0.354 N 
ATOM     54  N   UNL A   1      46.110  28.891  27.476  1.00  0.00    -0.248 NA
ATOM     55  C   UNL A   1      48.308  29.460  26.929  1.00  0.00     0.031 C 
ATOM     56  C   UNL A   1      43.134  31.716  29.160  1.00  0.00     0.029 A 
ATOM     57  C   UNL A   1      44.081  30.856  28.627  1.00  0.00     0.049 A 
ATOM     58  H   UNL A   1      43.890  28.820  28.108  1.00  0.00     0.167 HD
ATOM     59  C   UNL A   1      46.321  30.229  27.773  1.00  0.00     0.074 A 
ATOM     60  C   UNL A   1      47.698  30.524  27.431  1.00  0.00     0.031 C 
ATOM     61  C   UNL A   1      45.450  31.131  28.283  1.00  0.00     0.037 A 
BRANCH  48  62
ATOM     62  C   UNL A   1      39.807  28.872  29.314  1.00  0.00     0.064 A 
ATOM     63  C   UNL A   1      38.829  29.298  28.406  1.00  0.00     0.173 A 
ATOM     64  C   UNL A   1      39.429  28.663  30.648  1.00  0.00     0.173 A 
ATOM     65  F   UNL A   1      39.150  29.523  27.124  1.00  0.00    -0.203 F 
ATOM     66  C   UNL A   1      37.519  29.522  28.823  1.00  0.00     0.198 A 
ATOM     67  C   UNL A   1      38.116  28.874  31.058  1.00  0.00     0.198 A 
ATOM     68  F   UNL A   1      40.332  28.256  31.552  1.00  0.00    -0.203 F 
ATOM     69  F   UNL A   1      36.604  29.957  27.946  1.00  0.00    -0.200 F 
ATOM     70  C   UNL A   1      37.163  29.306  30.147  1.00  0.00     0.200 A 
ATOM     71  F   UNL A   1      37.772  28.663  32.336  1.00  0.00    -0.200 F 
ATOM     72  F   UNL A   1      35.902  29.521  30.545  1.00  0.00    -0.200 F 
ENDBRANCH  48  62
BRANCH  49  73
ATOM     73  C   UNL A   1      48.946  26.765  25.998  1.00  0.00     0.064 A 
ATOM     74  C   UNL A   1      49.922  26.204  26.830  1.00  0.00     0.173 A 
ATOM     75  C   UNL A   1      49.281  27.012  24.661  1.00  0.00     0.173 A 
ATOM     76  F   UNL A   1      49.648  25.969  28.121  1.00  0.00    -0.203 F 
ATOM     77  C   UNL A   1      51.192  25.904  26.343  1.00  0.00     0.198 A 
ATOM     78  C   UNL A   1      50.547  26.700  24.171  1.00  0.00     0.198 A 
ATOM     79  F   UNL A   1      48.375  27.548  23.830  1.00  0.00    -0.203 F 
ATOM     80  F   UNL A   1      52.118  25.387  27.162  1.00  0.00    -0.200 F 
ATOM     81  C   UNL A   1      51.502  26.149  25.013  1.00  0.00     0.200 A 
ATOM     82  F   UNL A   1      50.841  26.933  22.884  1.00  0.00    -0.200 F 
ATOM     83  F   UNL A   1      52.723  25.857  24.543  1.00  0.00    -0.200 F 
ENDBRANCH  49  73
BRANCH  61  84
ATOM     84  C   UNL A   1      45.964  32.517  28.515  1.00  0.00     0.064 A 
ATOM     85  C   UNL A   1      45.860  33.503  27.524  1.00  0.00     0.173 A 
ATOM     86  C   UNL A   1      46.533  32.870  29.746  1.00  0.00     0.173 A 
ATOM     87  F   UNL A   1      45.336  33.203  26.326  1.00  0.00    -0.203 F 
ATOM     88  C   UNL A   1      46.318  34.796  27.756  1.00  0.00     0.198 A 
ATOM     89  C   UNL A   1      46.980  34.167  29.978  1.00  0.00     0.198 A 
ATOM     90  F   UNL A   1      46.655  31.956  30.721  1.00  0.00    -0.203 F 
ATOM     91  F   UNL A   1      46.234  35.720  26.789  1.00  0.00    -0.200 F 
ATOM     92  C   UNL A   1      46.874  35.128  28.984  1.00  0.00     0.200 A 
ATOM     93  F   UNL A   1      47.516  34.487  31.164  1.00  0.00    -0.200 F 
ATOM     94  F   UNL A   1      47.316  36.374  29.206  1.00  0.00    -0.200 F 
ENDBRANCH  61  84
ENDBRANCH  35  36
ENDBRANCH  27  30
ENDBRANCH  25  26
ENDBRANCH  24  25
ENDBRANCH   1  24
TORSDOF 15
ENDMDL
MODEL 3
REMARK VINA RESULT:     -12.0      1.897      3.151
REMARK SMILES CSCc1ccc(C(=O)N[C@](C)(C(=O)NCCCNC(=O)c2ccc(-c3c4nc(c(-c5c(F)c(F)c(F)c(F)c5F)c5ccc([nH]5)c(-c5c(F)c(F)c(F)c(F)c5F)c5nc(c(-c6c(F)c(F)c(F)c(F)c6F)c6ccc3[nH]6)C=C5)C=C4)cc2)C(F)(F)F)o1
REMARK SMILES IDX 16 1 15 2 13 3 14 4 11 6 12 7 10 8 8 9 9 10 7 12 4 13 5 14
REMARK SMILES IDX 89 15 6 16 3 17 2 18 1 19 85 20 86 21 87 22 88 23 17 24
REMARK SMILES IDX 18 25 19 26 20 27 21 29 22 30 23 31 84 32 24 33 83 34 25 35
REMARK SMILES IDX 26 36 27 37 77 38 28 39 82 40 76 41 78 42 29 43 81 44 75 45
REMARK SMILES IDX 74 46 30 48 62 49 42 50 61 51 43 52 46 53 60 54 79 55 44 56
REMARK SMILES IDX 45 57 59 59 80 60 47 61 31 62 32 63 40 64 33 65 34 66 38 67
REMARK SMILES IDX 41 68 35 69 36 70 39 71 37 72 63 73 64 74 72 75 65 76 66 77
REMARK SMILES IDX 70 78 73 79 67 80 68 81 71 82 69 83 48 84 49 85 57 86 50 87
REMARK SMILES IDX 51 88 55 89 58 90 52 91 53 92 56 93 54 94
REMARK H PARENT 15 5 10 11 19 28 78 47 46 58
REMARK Flexibility Score: inf
ROOT
ATOM      1  C   UNL A   1      31.333  30.826  26.215  1.00  0.00     0.117 C 
ENDROOT
BRANCH   1   2
ATOM      2  N   UNL A   1      32.686  30.295  26.182  1.00  0.00    -0.354 N 
ATOM      3  C   UNL A   1      33.233  29.090  25.849  1.00  0.00     0.254 C 
ATOM      4  O   UNL A   1      34.443  29.008  26.079  1.00  0.00    -0.272 OA
ATOM      5  H   UNL A   1      33.361  30.954  26.465  1.00  0.00     0.163 HD
BRANCH   3   6
ATOM      6  C   UNL A   1      32.451  27.972  25.118  1.00  0.00     0.212 C 
ATOM      7  C   UNL A   1      31.240  28.506  24.336  1.00  0.00     0.056 C 
BRANCH   6   8
ATOM      8  N   UNL A   1      33.460  27.391  24.178  1.00  0.00    -0.328 N 
ATOM      9  C   UNL A   1      33.259  26.573  23.092  1.00  0.00     0.288 C 
ATOM     10  O   UNL A   1      33.754  26.963  22.035  1.00  0.00    -0.266 OA
ATOM     11  H   UNL A   1      34.398  27.627  24.363  1.00  0.00     0.165 HD
BRANCH   9  12
ATOM     12  C   UNL A   1      32.619  25.287  23.245  1.00  0.00     0.191 A 
ATOM     13  C   UNL A   1      32.488  23.228  24.055  1.00  0.00     0.114 A 
ATOM     14  C   UNL A   1      31.262  23.506  23.488  1.00  0.00     0.047 A 
ATOM     15  O   UNL A   1      33.313  24.306  23.903  1.00  0.00    -0.455 OA
ATOM     16  C   UNL A   1      31.340  24.829  22.988  1.00  0.00     0.056 A 
BRANCH  13  17
ATOM     17  C   UNL A   1      33.029  22.094  24.848  1.00  0.00     0.144 C 
BRANCH  17  18
ATOM     18  S   UNL A   1      34.402  22.563  25.943  1.00  0.00    -0.157 SA
ATOM     19  C   UNL A   1      33.957  21.616  27.419  1.00  0.00     0.085 C 
ENDBRANCH  17  18
ENDBRANCH  13  17
ENDBRANCH   9  12
ENDBRANCH   6   8
BRANCH   6  20
ATOM     20  C   UNL A   1      31.890  27.073  26.246  1.00  0.00     0.420 C 
ATOM     21  F   UNL A   1      30.692  26.538  25.900  1.00  0.00    -0.168 F 
ATOM     22  F   UNL A   1      32.708  26.016  26.476  1.00  0.00    -0.168 F 
ATOM     23  F   UNL A   1      31.735  27.714  27.422  1.00  0.00    -0.168 F 
ENDBRANCH   6  20
ENDBRANCH   3   6
ENDBRANCH   1   2
BRANCH   1  24
ATOM     24  C   UNL A   1      31.314  32.338  26.448  1.00  0.00     0.042 C 
BRANCH  24  25
ATOM     25  C   UNL A   1      32.505  32.887  27.240  1.00  0.00     0.118 C 
BRANCH  25  26
ATOM     26  N   UNL A   1      32.319  34.260  27.676  1.00  0.00    -0.352 N 
ATOM     27  C   UNL A   1      33.006  34.981  28.622  1.00  0.00     0.251 C 
ATOM     28  H   UNL A   1      31.592  34.747  27.225  1.00  0.00     0.163 HD
ATOM     29  O   UNL A   1      32.619  36.105  28.928  1.00  0.00    -0.269 OA
BRANCH  27  30
ATOM     30  C   UNL A   1      34.189  34.408  29.298  1.00  0.00     0.039 A 
ATOM     31  C   UNL A   1      33.998  33.719  30.500  1.00  0.00     0.014 A 
ATOM     32  C   UNL A   1      35.480  34.582  28.789  1.00  0.00     0.014 A 
ATOM     33  C   UNL A   1      35.089  33.156  31.164  1.00  0.00     0.010 A 
ATOM     34  C   UNL A   1      36.568  33.992  29.436  1.00  0.00     0.010 A 
ATOM     35  C   UNL A   1      36.379  33.269  30.625  1.00  0.00    -0.014 A 
BRANCH  35  36
ATOM     36  C   UNL A   1      37.539  32.627  31.288  1.00  0.00     0.031 A 
ATOM     37  C   UNL A   1      38.278  31.509  30.614  1.00  0.00     0.074 A 
ATOM     38  C   UNL A   1      37.896  33.018  32.526  1.00  0.00     0.049 A 
ATOM     39  N   UNL A   1      39.261  30.774  31.070  1.00  0.00    -0.248 NA
ATOM     40  C   UNL A   1      37.845  31.159  29.253  1.00  0.00     0.031 C 
ATOM     41  C   UNL A   1      37.242  34.074  33.300  1.00  0.00     0.029 A 
ATOM     42  N   UNL A   1      38.890  32.563  33.354  1.00  0.00    -0.354 N 
ATOM     43  C   UNL A   1      39.545  29.859  30.067  1.00  0.00     0.074 A 
ATOM     44  C   UNL A   1      38.626  30.123  28.979  1.00  0.00     0.031 C 
ATOM     45  C   UNL A   1      37.855  34.190  34.488  1.00  0.00     0.029 A 
ATOM     46  C   UNL A   1      38.930  33.204  34.567  1.00  0.00     0.049 A 
ATOM     47  H   UNL A   1      39.515  31.845  33.104  1.00  0.00     0.167 HD
ATOM     48  C   UNL A   1      40.491  28.890  30.053  1.00  0.00     0.037 A 
ATOM     49  C   UNL A   1      39.738  33.014  35.626  1.00  0.00     0.037 A 
ATOM     50  C   UNL A   1      41.433  28.647  31.113  1.00  0.00     0.049 A 
ATOM     51  C   UNL A   1      40.803  31.957  35.570  1.00  0.00     0.074 A 
ATOM     52  C   UNL A   1      42.463  27.724  31.160  1.00  0.00     0.029 A 
ATOM     53  N   UNL A   1      41.462  29.340  32.313  1.00  0.00    -0.354 N 
ATOM     54  N   UNL A   1      41.081  31.118  34.604  1.00  0.00    -0.248 NA
ATOM     55  C   UNL A   1      41.668  31.823  36.752  1.00  0.00     0.031 C 
ATOM     56  C   UNL A   1      43.108  27.849  32.396  1.00  0.00     0.029 A 
ATOM     57  C   UNL A   1      42.489  28.861  33.110  1.00  0.00     0.049 A 
ATOM     58  H   UNL A   1      40.844  30.065  32.562  1.00  0.00     0.167 HD
ATOM     59  C   UNL A   1      42.154  30.363  35.053  1.00  0.00     0.074 A 
ATOM     60  C   UNL A   1      42.486  30.849  36.377  1.00  0.00     0.031 C 
ATOM     61  C   UNL A   1      42.805  29.357  34.423  1.00  0.00     0.037 A 
BRANCH  48  62
ATOM     62  C   UNL A   1      40.550  28.009  28.845  1.00  0.00     0.064 A 
ATOM     63  C   UNL A   1      39.810  26.822  28.771  1.00  0.00     0.173 A 
ATOM     64  C   UNL A   1      41.330  28.375  27.739  1.00  0.00     0.173 A 
ATOM     65  F   UNL A   1      39.062  26.427  29.812  1.00  0.00    -0.203 F 
ATOM     66  C   UNL A   1      39.860  26.021  27.633  1.00  0.00     0.198 A 
ATOM     67  C   UNL A   1      41.366  27.579  26.598  1.00  0.00     0.198 A 
ATOM     68  F   UNL A   1      42.055  29.502  27.765  1.00  0.00    -0.203 F 
ATOM     69  F   UNL A   1      39.167  24.874  27.593  1.00  0.00    -0.200 F 
ATOM     70  C   UNL A   1      40.634  26.402  26.547  1.00  0.00     0.200 A 
ATOM     71  F   UNL A   1      42.112  27.949  25.548  1.00  0.00    -0.200 F 
ATOM     72  F   UNL A   1      40.680  25.629  25.453  1.00  0.00    -0.200 F 
ENDBRANCH  48  62
BRANCH  49  73
ATOM     73  C   UNL A   1      39.577  33.863  36.829  1.00  0.00     0.064 A 
ATOM     74  C   UNL A   1      40.199  35.115  36.907  1.00  0.00     0.173 A 
ATOM     75  C   UNL A   1      38.787  33.450  37.909  1.00  0.00     0.173 A 
ATOM     76  F   UNL A   1      40.979  35.539  35.903  1.00  0.00    -0.203 F 
ATOM     77  C   UNL A   1      40.041  35.924  38.029  1.00  0.00     0.198 A 
ATOM     78  C   UNL A   1      38.618  34.266  39.025  1.00  0.00     0.198 A 
ATOM     79  F   UNL A   1      38.173  32.258  37.875  1.00  0.00    -0.203 F 
ATOM     80  F   UNL A   1      40.662  37.109  38.092  1.00  0.00    -0.200 F 
ATOM     81  C   UNL A   1      39.247  35.501  39.085  1.00  0.00     0.200 A 
ATOM     82  F   UNL A   1      37.846  33.856  40.041  1.00  0.00    -0.200 F 
ATOM     83  F   UNL A   1      39.091  36.282  40.163  1.00  0.00    -0.200 F 
ENDBRANCH  49  73
BRANCH  61  84
ATOM     84  C   UNL A   1      43.948  28.725  35.152  1.00  0.00     0.064 A 
ATOM     85  C   UNL A   1      45.259  29.193  34.988  1.00  0.00     0.173 A 
ATOM     86  C   UNL A   1      43.726  27.669  36.046  1.00  0.00     0.173 A 
ATOM     87  F   UNL A   1      45.517  30.192  34.131  1.00  0.00    -0.203 F 
ATOM     88  C   UNL A   1      46.313  28.616  35.690  1.00  0.00     0.198 A 
ATOM     89  C   UNL A   1      44.781  27.102  36.754  1.00  0.00     0.198 A 
ATOM     90  F   UNL A   1      42.487  27.188  36.231  1.00  0.00    -0.203 F 
ATOM     91  F   UNL A   1      47.564  29.059  35.502  1.00  0.00    -0.200 F 
ATOM     92  C   UNL A   1      46.073  27.573  36.575  1.00  0.00     0.200 A 
ATOM     93  F   UNL A   1      44.549  26.096  37.609  1.00  0.00    -0.200 F 
ATOM     94  F   UNL A   1      47.089  27.018  37.249  1.00  0.00    -0.200 F 
ENDBRANCH  61  84
ENDBRANCH  35  36
ENDBRANCH  27  30
ENDBRANCH  25  26
ENDBRANCH  24  25
ENDBRANCH   1  24
TORSDOF 15
ENDMDL
