MODEL 1
REMARK VINA RESULT:     -13.8      0.000      0.000
REMARK SMILES C[C@@H]1C[C@H](C)C[C@H]([N@@H+]2[C@@H](C(=O)NCCCNC(=O)c3ccc(-c4c5nc(c(-c6c(F)c(F)c(F)c(F)c6F)c6ccc([nH]6)c(-c6c(F)c(F)c(F)c(F)c6F)c6nc(c(-c7c(F)c(F)c(F)c(F)c7F)c7ccc4[nH]7)C=C6)C=C5)cc3)CC[C@@H]3CCCC[C@@H]32)C1
REMARK SMILES IDX 14 1 13 2 12 3 10 4 11 5 9 7 8 8 89 9 82 11 84 12 88 13
REMARK SMILES IDX 83 14 85 15 87 16 86 17 7 18 5 19 4 20 6 21 3 22 2 23 90 24
REMARK SMILES IDX 1 25 15 26 16 27 17 28 18 30 19 31 20 32 81 33 21 34 80 35
REMARK SMILES IDX 22 36 23 37 24 38 74 39 25 40 79 41 73 42 75 43 26 44 78 45
REMARK SMILES IDX 72 46 71 47 27 49 59 50 39 51 58 52 40 53 43 54 57 55 76 56
REMARK SMILES IDX 41 57 42 58 56 60 77 61 44 62 28 63 29 64 37 65 30 66 31 67
REMARK SMILES IDX 35 68 38 69 32 70 33 71 36 72 34 73 60 74 61 75 69 76 62 77
REMARK SMILES IDX 63 78 67 79 70 80 64 81 65 82 68 83 66 84 45 85 46 86 54 87
REMARK SMILES IDX 47 88 48 89 52 90 55 91 49 92 50 93 53 94 51 95
REMARK H PARENT 12 6 8 10 16 29 75 48 43 59
REMARK Flexibility Score: inf
ROOT
ATOM      1  C   UNL A   1      31.504  29.011  25.638  1.00  0.00     0.042 C 
ENDROOT
BRANCH   1   2
ATOM      2  C   UNL A   1      31.030  28.699  24.224  1.00  0.00     0.118 C 
BRANCH   2   3
ATOM      3  N   UNL A   1      32.120  28.259  23.357  1.00  0.00    -0.351 N 
ATOM      4  C   UNL A   1      32.144  26.974  22.862  1.00  0.00     0.278 C 
ATOM      5  O   UNL A   1      31.348  26.657  21.977  1.00  0.00    -0.268 OA
ATOM      6  H   UNL A   1      32.843  28.886  23.124  1.00  0.00     0.163 HD
BRANCH   4   7
ATOM      7  C   UNL A   1      33.230  25.995  23.406  1.00  0.00     0.274 C 
ATOM      8  N   UNL A   1      32.675  24.643  23.652  1.00  0.00    -0.320 N 
ATOM      9  C   UNL A   1      31.800  24.612  24.822  1.00  0.00     0.188 C 
ATOM     10  H   UNL A   1      32.046  23.852  23.517  1.00  0.00     0.349 HD
ATOM     11  C   UNL A   1      34.065  26.460  24.596  1.00  0.00     0.076 C 
ATOM     12  C   UNL A   1      32.452  25.055  26.147  1.00  0.00     0.048 C 
ATOM     13  C   UNL A   1      30.706  23.562  25.011  1.00  0.00     0.065 C 
ATOM     14  C   UNL A   1      33.539  26.141  26.000  1.00  0.00     0.016 C 
ATOM     15  C   UNL A   1      32.852  23.935  27.104  1.00  0.00     0.010 C 
ATOM     16  C   UNL A   1      30.572  22.916  26.388  1.00  0.00     0.006 C 
ATOM     17  C   UNL A   1      31.811  22.830  27.268  1.00  0.00     0.001 C 
BRANCH   8  18
ATOM     18  C   UNL A   1      33.224  23.603  22.765  1.00  0.00     0.185 C 
ATOM     19  C   UNL A   1      36.246  23.356  24.853  1.00  0.00     0.008 C 
ATOM     20  C   UNL A   1      35.351  22.579  23.885  1.00  0.00    -0.008 C 
ATOM     21  C   UNL A   1      34.774  23.498  22.798  1.00  0.00     0.068 C 
ATOM     22  C   UNL A   1      34.265  21.769  24.599  1.00  0.00     0.007 C 
ATOM     23  C   UNL A   1      33.305  21.125  23.600  1.00  0.00    -0.008 C 
ATOM     24  C   UNL A   1      32.638  22.174  22.690  1.00  0.00     0.068 C 
ATOM     25  C   UNL A   1      32.282  20.197  24.264  1.00  0.00     0.008 C 
ENDBRANCH   8  18
ENDBRANCH   4   7
ENDBRANCH   2   3
ENDBRANCH   1   2
BRANCH   1  26
ATOM     26  C   UNL A   1      32.826  29.767  25.701  1.00  0.00     0.118 C 
BRANCH  26  27
ATOM     27  N   UNL A   1      32.619  31.138  26.122  1.00  0.00    -0.352 N 
ATOM     28  C   UNL A   1      33.244  31.838  27.122  1.00  0.00     0.251 C 
ATOM     29  H   UNL A   1      31.935  31.637  25.619  1.00  0.00     0.163 HD
ATOM     30  O   UNL A   1      32.723  32.860  27.558  1.00  0.00    -0.269 OA
BRANCH  28  31
ATOM     31  C   UNL A   1      34.542  31.387  27.681  1.00  0.00     0.039 A 
ATOM     32  C   UNL A   1      34.661  30.058  28.103  1.00  0.00     0.014 A 
ATOM     33  C   UNL A   1      35.599  32.277  27.901  1.00  0.00     0.014 A 
ATOM     34  C   UNL A   1      35.827  29.626  28.743  1.00  0.00     0.010 A 
ATOM     35  C   UNL A   1      36.788  31.829  28.481  1.00  0.00     0.010 A 
ATOM     36  C   UNL A   1      36.900  30.509  28.941  1.00  0.00    -0.014 A 
BRANCH  36  37
ATOM     37  C   UNL A   1      38.111  30.073  29.687  1.00  0.00     0.031 A 
ATOM     38  C   UNL A   1      38.346  30.553  31.097  1.00  0.00     0.074 A 
ATOM     39  C   UNL A   1      39.009  29.258  29.102  1.00  0.00     0.049 A 
ATOM     40  N   UNL A   1      39.339  30.288  31.909  1.00  0.00    -0.248 NA
ATOM     41  C   UNL A   1      37.343  31.470  31.660  1.00  0.00     0.031 C 
ATOM     42  C   UNL A   1      38.924  28.754  27.732  1.00  0.00     0.029 A 
ATOM     43  N   UNL A   1      40.173  28.712  29.588  1.00  0.00    -0.354 N 
ATOM     44  C   UNL A   1      39.090  31.018  33.065  1.00  0.00     0.074 A 
ATOM     45  C   UNL A   1      37.877  31.771  32.834  1.00  0.00     0.031 C 
ATOM     46  C   UNL A   1      39.977  27.957  27.493  1.00  0.00     0.029 A 
ATOM     47  C   UNL A   1      40.823  27.912  28.683  1.00  0.00     0.049 A 
ATOM     48  H   UNL A   1      40.508  28.881  30.498  1.00  0.00     0.167 HD
ATOM     49  C   UNL A   1      39.793  31.039  34.223  1.00  0.00     0.037 A 
ATOM     50  C   UNL A   1      41.970  27.215  28.800  1.00  0.00     0.037 A 
ATOM     51  C   UNL A   1      40.978  30.259  34.471  1.00  0.00     0.049 A 
ATOM     52  C   UNL A   1      42.719  27.234  30.105  1.00  0.00     0.074 A 
ATOM     53  C   UNL A   1      41.720  30.163  35.635  1.00  0.00     0.029 A 
ATOM     54  N   UNL A   1      41.591  29.438  33.536  1.00  0.00    -0.354 N 
ATOM     55  N   UNL A   1      42.434  27.872  31.214  1.00  0.00    -0.248 NA
ATOM     56  C   UNL A   1      43.944  26.425  30.178  1.00  0.00     0.031 C 
ATOM     57  C   UNL A   1      42.805  29.313  35.394  1.00  0.00     0.029 A 
ATOM     58  C   UNL A   1      42.713  28.845  34.093  1.00  0.00     0.049 A 
ATOM     59  H   UNL A   1      41.275  29.298  32.614  1.00  0.00     0.167 HD
ATOM     60  C   UNL A   1      43.424  27.523  32.122  1.00  0.00     0.074 A 
ATOM     61  C   UNL A   1      44.312  26.605  31.440  1.00  0.00     0.031 C 
ATOM     62  C   UNL A   1      43.582  27.926  33.406  1.00  0.00     0.037 A 
BRANCH  49  63
ATOM     63  C   UNL A   1      39.296  31.934  35.321  1.00  0.00     0.064 A 
ATOM     64  C   UNL A   1      38.479  31.448  36.353  1.00  0.00     0.173 A 
ATOM     65  C   UNL A   1      39.673  33.285  35.363  1.00  0.00     0.173 A 
ATOM     66  F   UNL A   1      38.082  30.167  36.353  1.00  0.00    -0.203 F 
ATOM     67  C   UNL A   1      38.035  32.288  37.371  1.00  0.00     0.198 A 
ATOM     68  C   UNL A   1      39.252  34.115  36.399  1.00  0.00     0.198 A 
ATOM     69  F   UNL A   1      40.459  33.799  34.405  1.00  0.00    -0.203 F 
ATOM     70  F   UNL A   1      37.218  31.813  38.322  1.00  0.00    -0.200 F 
ATOM     71  C   UNL A   1      38.427  33.618  37.397  1.00  0.00     0.200 A 
ATOM     72  F   UNL A   1      39.641  35.397  36.429  1.00  0.00    -0.200 F 
ATOM     73  F   UNL A   1      38.004  34.424  38.381  1.00  0.00    -0.200 F 
ENDBRANCH  49  63
BRANCH  50  74
ATOM     74  C   UNL A   1      42.463  26.408  27.655  1.00  0.00     0.064 A 
ATOM     75  C   UNL A   1      41.988  25.107  27.435  1.00  0.00     0.173 A 
ATOM     76  C   UNL A   1      43.412  26.919  26.758  1.00  0.00     0.173 A 
ATOM     77  F   UNL A   1      41.096  24.569  28.279  1.00  0.00    -0.203 F 
ATOM     78  C   UNL A   1      42.457  24.342  26.369  1.00  0.00     0.198 A 
ATOM     79  C   UNL A   1      43.862  26.161  25.679  1.00  0.00     0.198 A 
ATOM     80  F   UNL A   1      43.893  28.158  26.925  1.00  0.00    -0.203 F 
ATOM     81  F   UNL A   1      42.017  23.087  26.204  1.00  0.00    -0.200 F 
ATOM     82  C   UNL A   1      43.389  24.871  25.489  1.00  0.00     0.200 A 
ATOM     83  F   UNL A   1      44.752  26.681  24.824  1.00  0.00    -0.200 F 
ATOM     84  F   UNL A   1      43.836  24.136  24.462  1.00  0.00    -0.200 F 
ENDBRANCH  50  74
BRANCH  62  85
ATOM     85  C   UNL A   1      44.739  27.355  34.171  1.00  0.00     0.064 A 
ATOM     86  C   UNL A   1      45.981  28.006  34.221  1.00  0.00     0.173 A 
ATOM     87  C   UNL A   1      44.592  26.161  34.893  1.00  0.00     0.173 A 
ATOM     88  F   UNL A   1      46.175  29.142  33.535  1.00  0.00    -0.203 F 
ATOM     89  C   UNL A   1      47.039  27.470  34.950  1.00  0.00     0.198 A 
ATOM     90  C   UNL A   1      45.644  25.642  35.643  1.00  0.00     0.198 A 
ATOM     91  F   UNL A   1      43.423  25.503  34.882  1.00  0.00    -0.203 F 
ATOM     92  F   UNL A   1      48.229  28.086  34.951  1.00  0.00    -0.200 F 
ATOM     93  C   UNL A   1      46.869  26.293  35.665  1.00  0.00     0.200 A 
ATOM     94  F   UNL A   1      45.475  24.511  36.341  1.00  0.00    -0.200 F 
ATOM     95  F   UNL A   1      47.887  25.783  36.370  1.00  0.00    -0.200 F 
ENDBRANCH  62  85
ENDBRANCH  36  37
ENDBRANCH  28  31
ENDBRANCH  26  27
ENDBRANCH   1  26
TORSDOF 11
ENDMDL
MODEL 2
REMARK VINA RESULT:     -13.8      4.616      7.915
REMARK SMILES C[C@@H]1C[C@H](C)C[C@H]([N@@H+]2[C@@H](C(=O)NCCCNC(=O)c3ccc(-c4c5nc(c(-c6c(F)c(F)c(F)c(F)c6F)c6ccc([nH]6)c(-c6c(F)c(F)c(F)c(F)c6F)c6nc(c(-c7c(F)c(F)c(F)c(F)c7F)c7ccc4[nH]7)C=C6)C=C5)cc3)CC[C@@H]3CCCC[C@@H]32)C1
REMARK SMILES IDX 14 1 13 2 12 3 10 4 11 5 9 7 8 8 89 9 82 11 84 12 88 13
REMARK SMILES IDX 83 14 85 15 87 16 86 17 7 18 5 19 4 20 6 21 3 22 2 23 90 24
REMARK SMILES IDX 1 25 15 26 16 27 17 28 18 30 19 31 20 32 81 33 21 34 80 35
REMARK SMILES IDX 22 36 23 37 24 38 74 39 25 40 79 41 73 42 75 43 26 44 78 45
REMARK SMILES IDX 72 46 71 47 27 49 59 50 39 51 58 52 40 53 43 54 57 55 76 56
REMARK SMILES IDX 41 57 42 58 56 60 77 61 44 62 28 63 29 64 37 65 30 66 31 67
REMARK SMILES IDX 35 68 38 69 32 70 33 71 36 72 34 73 60 74 61 75 69 76 62 77
REMARK SMILES IDX 63 78 67 79 70 80 64 81 65 82 68 83 66 84 45 85 46 86 54 87
REMARK SMILES IDX 47 88 48 89 52 90 55 91 49 92 50 93 53 94 51 95
REMARK H PARENT 12 6 8 10 16 29 75 48 43 59
REMARK Flexibility Score: inf
ROOT
ATOM      1  C   UNL A   1      37.787  19.712  25.006  1.00  0.00     0.042 C 
ENDROOT
BRANCH   1   2
ATOM      2  C   UNL A   1      36.598  20.665  25.019  1.00  0.00     0.118 C 
BRANCH   2   3
ATOM      3  N   UNL A   1      36.858  21.888  24.265  1.00  0.00    -0.351 N 
ATOM      4  C   UNL A   1      36.412  23.105  24.733  1.00  0.00     0.278 C 
ATOM      5  O   UNL A   1      36.970  23.615  25.704  1.00  0.00    -0.268 OA
ATOM      6  H   UNL A   1      37.356  21.844  23.417  1.00  0.00     0.163 HD
BRANCH   4   7
ATOM      7  C   UNL A   1      35.252  23.810  23.963  1.00  0.00     0.274 C 
ATOM      8  N   UNL A   1      34.289  24.451  24.889  1.00  0.00    -0.320 N 
ATOM      9  C   UNL A   1      33.468  23.470  25.594  1.00  0.00     0.188 C 
ATOM     10  H   UNL A   1      33.978  24.903  25.749  1.00  0.00     0.349 HD
ATOM     11  C   UNL A   1      34.518  23.000  22.897  1.00  0.00     0.076 C 
ATOM     12  C   UNL A   1      32.638  22.534  24.694  1.00  0.00     0.048 C 
ATOM     13  C   UNL A   1      32.801  23.760  26.939  1.00  0.00     0.065 C 
ATOM     14  C   UNL A   1      33.295  22.189  23.341  1.00  0.00     0.016 C 
ATOM     15  C   UNL A   1      31.153  22.867  24.570  1.00  0.00     0.010 C 
ATOM     16  C   UNL A   1      31.350  23.324  27.119  1.00  0.00     0.006 C 
ATOM     17  C   UNL A   1      30.465  23.229  25.884  1.00  0.00     0.001 C 
BRANCH   8  18
ATOM     18  C   UNL A   1      34.266  25.921  24.802  1.00  0.00     0.185 C 
ATOM     19  C   UNL A   1      31.718  25.766  22.150  1.00  0.00     0.008 C 
ATOM     20  C   UNL A   1      32.270  26.642  23.276  1.00  0.00    -0.008 C 
ATOM     21  C   UNL A   1      33.789  26.464  23.426  1.00  0.00     0.068 C 
ATOM     22  C   UNL A   1      31.528  26.446  24.601  1.00  0.00     0.007 C 
ATOM     23  C   UNL A   1      32.197  27.224  25.733  1.00  0.00    -0.008 C 
ATOM     24  C   UNL A   1      33.672  26.816  25.914  1.00  0.00     0.068 C 
ATOM     25  C   UNL A   1      31.412  27.164  27.047  1.00  0.00     0.008 C 
ENDBRANCH   8  18
ENDBRANCH   4   7
ENDBRANCH   2   3
ENDBRANCH   1   2
BRANCH   1  26
ATOM     26  C   UNL A   1      39.060  20.295  25.607  1.00  0.00     0.118 C 
BRANCH  26  27
ATOM     27  N   UNL A   1      40.028  19.251  25.881  1.00  0.00    -0.352 N 
ATOM     28  C   UNL A   1      41.380  19.360  26.086  1.00  0.00     0.251 C 
ATOM     29  H   UNL A   1      39.665  18.338  25.928  1.00  0.00     0.163 HD
ATOM     30  O   UNL A   1      42.088  18.364  25.971  1.00  0.00    -0.269 OA
BRANCH  28  31
ATOM     31  C   UNL A   1      42.001  20.656  26.452  1.00  0.00     0.039 A 
ATOM     32  C   UNL A   1      42.029  21.024  27.802  1.00  0.00     0.014 A 
ATOM     33  C   UNL A   1      42.448  21.560  25.483  1.00  0.00     0.014 A 
ATOM     34  C   UNL A   1      42.498  22.286  28.177  1.00  0.00     0.010 A 
ATOM     35  C   UNL A   1      42.977  22.796  25.862  1.00  0.00     0.010 A 
ATOM     36  C   UNL A   1      42.973  23.186  27.210  1.00  0.00    -0.014 A 
BRANCH  36  37
ATOM     37  C   UNL A   1      43.403  24.557  27.597  1.00  0.00     0.031 A 
ATOM     38  C   UNL A   1      42.374  25.601  27.950  1.00  0.00     0.074 A 
ATOM     39  C   UNL A   1      44.711  24.875  27.620  1.00  0.00     0.049 A 
ATOM     40  N   UNL A   1      42.548  26.849  28.308  1.00  0.00    -0.248 NA
ATOM     41  C   UNL A   1      40.963  25.195  27.868  1.00  0.00     0.031 C 
ATOM     42  C   UNL A   1      45.804  23.972  27.262  1.00  0.00     0.029 A 
ATOM     43  N   UNL A   1      45.341  26.047  27.959  1.00  0.00    -0.354 N 
ATOM     44  C   UNL A   1      41.274  27.378  28.475  1.00  0.00     0.074 A 
ATOM     45  C   UNL A   1      40.336  26.332  28.136  1.00  0.00     0.031 C 
ATOM     46  C   UNL A   1      46.972  24.616  27.420  1.00  0.00     0.029 A 
ATOM     47  C   UNL A   1      46.709  25.982  27.867  1.00  0.00     0.049 A 
ATOM     48  H   UNL A   1      44.857  26.857  28.240  1.00  0.00     0.167 HD
ATOM     49  C   UNL A   1      40.918  28.615  28.897  1.00  0.00     0.037 A 
ATOM     50  C   UNL A   1      47.646  26.916  28.119  1.00  0.00     0.037 A 
ATOM     51  C   UNL A   1      41.848  29.646  29.276  1.00  0.00     0.049 A 
ATOM     52  C   UNL A   1      47.226  28.274  28.612  1.00  0.00     0.074 A 
ATOM     53  C   UNL A   1      41.582  30.908  29.780  1.00  0.00     0.029 A 
ATOM     54  N   UNL A   1      43.228  29.532  29.194  1.00  0.00    -0.354 N 
ATOM     55  N   UNL A   1      46.021  28.738  28.833  1.00  0.00    -0.248 NA
ATOM     56  C   UNL A   1      48.300  29.235  28.902  1.00  0.00     0.031 C 
ATOM     57  C   UNL A   1      42.799  31.571  29.968  1.00  0.00     0.029 A 
ATOM     58  C   UNL A   1      43.826  30.707  29.622  1.00  0.00     0.049 A 
ATOM     59  H   UNL A   1      43.711  28.733  28.878  1.00  0.00     0.167 HD
ATOM     60  C   UNL A   1      46.189  30.030  29.312  1.00  0.00     0.074 A 
ATOM     61  C   UNL A   1      47.615  30.274  29.363  1.00  0.00     0.031 C 
ATOM     62  C   UNL A   1      45.246  30.933  29.677  1.00  0.00     0.037 A 
BRANCH  49  63
ATOM     63  C   UNL A   1      39.451  28.925  28.979  1.00  0.00     0.064 A 
ATOM     64  C   UNL A   1      38.743  28.822  30.186  1.00  0.00     0.173 A 
ATOM     65  C   UNL A   1      38.754  29.369  27.845  1.00  0.00     0.173 A 
ATOM     66  F   UNL A   1      39.362  28.392  31.295  1.00  0.00    -0.203 F 
ATOM     67  C   UNL A   1      37.385  29.124  30.249  1.00  0.00     0.198 A 
ATOM     68  C   UNL A   1      37.402  29.699  27.918  1.00  0.00     0.198 A 
ATOM     69  F   UNL A   1      39.384  29.493  26.668  1.00  0.00    -0.203 F 
ATOM     70  F   UNL A   1      36.720  28.974  31.402  1.00  0.00    -0.200 F 
ATOM     71  C   UNL A   1      36.718  29.568  29.117  1.00  0.00     0.200 A 
ATOM     72  F   UNL A   1      36.762  30.140  26.827  1.00  0.00    -0.200 F 
ATOM     73  F   UNL A   1      35.413  29.865  29.181  1.00  0.00    -0.200 F 
ENDBRANCH  49  63
BRANCH  50  74
ATOM     74  C   UNL A   1      49.083  26.584  27.945  1.00  0.00     0.064 A 
ATOM     75  C   UNL A   1      49.892  26.285  29.051  1.00  0.00     0.173 A 
ATOM     76  C   UNL A   1      49.675  26.553  26.675  1.00  0.00     0.173 A 
ATOM     77  F   UNL A   1      49.375  26.322  30.288  1.00  0.00    -0.203 F 
ATOM     78  C   UNL A   1      51.243  25.985  28.893  1.00  0.00     0.198 A 
ATOM     79  C   UNL A   1      51.021  26.230  26.516  1.00  0.00     0.198 A 
ATOM     80  F   UNL A   1      48.942  26.828  25.587  1.00  0.00    -0.203 F 
ATOM     81  F   UNL A   1      52.004  25.743  29.970  1.00  0.00    -0.200 F 
ATOM     82  C   UNL A   1      51.806  25.953  27.626  1.00  0.00     0.200 A 
ATOM     83  F   UNL A   1      51.557  26.186  25.289  1.00  0.00    -0.200 F 
ATOM     84  F   UNL A   1      53.104  25.659  27.475  1.00  0.00    -0.200 F 
ENDBRANCH  50  74
BRANCH  62  85
ATOM     85  C   UNL A   1      45.724  32.257  30.195  1.00  0.00     0.064 A 
ATOM     86  C   UNL A   1      45.906  33.357  29.343  1.00  0.00     0.173 A 
ATOM     87  C   UNL A   1      45.964  32.437  31.565  1.00  0.00     0.173 A 
ATOM     88  F   UNL A   1      45.704  33.229  28.024  1.00  0.00    -0.203 F 
ATOM     89  C   UNL A   1      46.333  34.584  29.844  1.00  0.00     0.198 A 
ATOM     90  C   UNL A   1      46.366  33.673  32.066  1.00  0.00     0.198 A 
ATOM     91  F   UNL A   1      45.798  31.419  32.422  1.00  0.00    -0.203 F 
ATOM     92  F   UNL A   1      46.542  35.610  29.007  1.00  0.00    -0.200 F 
ATOM     93  C   UNL A   1      46.556  34.743  31.203  1.00  0.00     0.200 A 
ATOM     94  F   UNL A   1      46.570  33.829  33.380  1.00  0.00    -0.200 F 
ATOM     95  F   UNL A   1      46.961  35.927  31.684  1.00  0.00    -0.200 F 
ENDBRANCH  62  85
ENDBRANCH  36  37
ENDBRANCH  28  31
ENDBRANCH  26  27
ENDBRANCH   1  26
TORSDOF 11
ENDMDL
MODEL 3
REMARK VINA RESULT:     -13.7      1.702      2.973
REMARK SMILES C[C@@H]1C[C@H](C)C[C@H]([N@@H+]2[C@@H](C(=O)NCCCNC(=O)c3ccc(-c4c5nc(c(-c6c(F)c(F)c(F)c(F)c6F)c6ccc([nH]6)c(-c6c(F)c(F)c(F)c(F)c6F)c6nc(c(-c7c(F)c(F)c(F)c(F)c7F)c7ccc4[nH]7)C=C6)C=C5)cc3)CC[C@@H]3CCCC[C@@H]32)C1
REMARK SMILES IDX 14 1 13 2 12 3 10 4 11 5 9 7 8 8 89 9 82 11 84 12 88 13
REMARK SMILES IDX 83 14 85 15 87 16 86 17 7 18 5 19 4 20 6 21 3 22 2 23 90 24
REMARK SMILES IDX 1 25 15 26 16 27 17 28 18 30 19 31 20 32 81 33 21 34 80 35
REMARK SMILES IDX 22 36 23 37 24 38 74 39 25 40 79 41 73 42 75 43 26 44 78 45
REMARK SMILES IDX 72 46 71 47 27 49 59 50 39 51 58 52 40 53 43 54 57 55 76 56
REMARK SMILES IDX 41 57 42 58 56 60 77 61 44 62 28 63 29 64 37 65 30 66 31 67
REMARK SMILES IDX 35 68 38 69 32 70 33 71 36 72 34 73 60 74 61 75 69 76 62 77
REMARK SMILES IDX 63 78 67 79 70 80 64 81 65 82 68 83 66 84 45 85 46 86 54 87
REMARK SMILES IDX 47 88 48 89 52 90 55 91 49 92 50 93 53 94 51 95
REMARK H PARENT 12 6 8 10 16 29 75 48 43 59
REMARK Flexibility Score: inf
ROOT
ATOM      1  C   UNL A   1      31.403  31.748  26.501  1.00  0.00     0.042 C 
ENDROOT
BRANCH   1   2
ATOM      2  C   UNL A   1      31.525  30.346  25.915  1.00  0.00     0.118 C 
BRANCH   2   3
ATOM      3  N   UNL A   1      31.769  29.335  26.941  1.00  0.00    -0.351 N 
ATOM      4  C   UNL A   1      32.713  28.352  26.741  1.00  0.00     0.278 C 
ATOM      5  O   UNL A   1      33.907  28.649  26.787  1.00  0.00    -0.268 OA
ATOM      6  H   UNL A   1      31.255  29.356  27.780  1.00  0.00     0.163 HD
BRANCH   4   7
ATOM      7  C   UNL A   1      32.219  26.888  26.528  1.00  0.00     0.274 C 
ATOM      8  N   UNL A   1      33.036  26.174  25.519  1.00  0.00    -0.320 N 
ATOM      9  C   UNL A   1      32.778  26.652  24.163  1.00  0.00     0.188 C 
ATOM     10  H   UNL A   1      33.872  25.958  24.976  1.00  0.00     0.349 HD
ATOM     11  C   UNL A   1      30.730  26.679  26.261  1.00  0.00     0.076 C 
ATOM     12  C   UNL A   1      31.316  26.535  23.689  1.00  0.00     0.048 C 
ATOM     13  C   UNL A   1      33.792  26.514  23.028  1.00  0.00     0.065 C 
ATOM     14  C   UNL A   1      30.261  26.705  24.802  1.00  0.00     0.016 C 
ATOM     15  C   UNL A   1      31.009  25.375  22.745  1.00  0.00     0.010 C 
ATOM     16  C   UNL A   1      33.278  26.040  21.671  1.00  0.00     0.006 C 
ATOM     17  C   UNL A   1      32.036  25.161  21.636  1.00  0.00     0.001 C 
BRANCH   8  18
ATOM     18  C   UNL A   1      33.821  25.056  26.071  1.00  0.00     0.185 C 
ATOM     19  C   UNL A   1      31.028  22.737  25.458  1.00  0.00     0.008 C 
ATOM     20  C   UNL A   1      32.549  22.822  25.599  1.00  0.00    -0.008 C 
ATOM     21  C   UNL A   1      32.956  23.890  26.625  1.00  0.00     0.068 C 
ATOM     22  C   UNL A   1      33.262  23.005  24.256  1.00  0.00     0.007 C 
ATOM     23  C   UNL A   1      34.761  23.232  24.448  1.00  0.00    -0.008 C 
ATOM     24  C   UNL A   1      35.045  24.454  25.342  1.00  0.00     0.068 C 
ATOM     25  C   UNL A   1      35.533  23.287  23.126  1.00  0.00     0.008 C 
ENDBRANCH   8  18
ENDBRANCH   4   7
ENDBRANCH   2   3
ENDBRANCH   1   2
BRANCH   1  26
ATOM     26  C   UNL A   1      32.735  32.387  26.876  1.00  0.00     0.118 C 
BRANCH  26  27
ATOM     27  N   UNL A   1      32.550  33.764  27.289  1.00  0.00    -0.352 N 
ATOM     28  C   UNL A   1      33.047  34.407  28.394  1.00  0.00     0.251 C 
ATOM     29  H   UNL A   1      31.993  34.313  26.693  1.00  0.00     0.163 HD
ATOM     30  O   UNL A   1      32.528  35.457  28.762  1.00  0.00    -0.269 OA
BRANCH  28  31
ATOM     31  C   UNL A   1      34.204  33.864  29.146  1.00  0.00     0.039 A 
ATOM     32  C   UNL A   1      35.492  34.241  28.751  1.00  0.00     0.014 A 
ATOM     33  C   UNL A   1      34.045  32.905  30.153  1.00  0.00     0.014 A 
ATOM     34  C   UNL A   1      36.611  33.661  29.357  1.00  0.00     0.010 A 
ATOM     35  C   UNL A   1      35.161  32.374  30.802  1.00  0.00     0.010 A 
ATOM     36  C   UNL A   1      36.456  32.719  30.386  1.00  0.00    -0.014 A 
BRANCH  36  37
ATOM     37  C   UNL A   1      37.641  32.045  30.981  1.00  0.00     0.031 A 
ATOM     38  C   UNL A   1      38.106  32.414  32.366  1.00  0.00     0.074 A 
ATOM     39  C   UNL A   1      38.311  31.112  30.279  1.00  0.00     0.049 A 
ATOM     40  N   UNL A   1      39.117  31.943  33.055  1.00  0.00    -0.248 NA
ATOM     41  C   UNL A   1      37.350  33.466  33.061  1.00  0.00     0.031 C 
ATOM     42  C   UNL A   1      37.991  30.691  28.915  1.00  0.00     0.029 A 
ATOM     43  N   UNL A   1      39.403  30.349  30.617  1.00  0.00    -0.354 N 
ATOM     44  C   UNL A   1      39.126  32.653  34.249  1.00  0.00     0.074 A 
ATOM     45  C   UNL A   1      38.051  33.616  34.175  1.00  0.00     0.031 C 
ATOM     46  C   UNL A   1      38.853  29.733  28.539  1.00  0.00     0.029 A 
ATOM     47  C   UNL A   1      39.799  29.487  29.625  1.00  0.00     0.049 A 
ATOM     48  H   UNL A   1      39.857  30.416  31.487  1.00  0.00     0.167 HD
ATOM     49  C   UNL A   1      39.941  32.499  35.321  1.00  0.00     0.037 A 
ATOM     50  C   UNL A   1      40.808  28.596  29.596  1.00  0.00     0.037 A 
ATOM     51  C   UNL A   1      40.986  31.513  35.415  1.00  0.00     0.049 A 
ATOM     52  C   UNL A   1      41.683  28.425  30.809  1.00  0.00     0.074 A 
ATOM     53  C   UNL A   1      41.818  31.237  36.486  1.00  0.00     0.029 A 
ATOM     54  N   UNL A   1      41.339  30.639  34.398  1.00  0.00    -0.354 N 
ATOM     55  N   UNL A   1      41.636  29.054  31.957  1.00  0.00    -0.248 NA
ATOM     56  C   UNL A   1      42.743  27.411  30.723  1.00  0.00     0.031 C 
ATOM     57  C   UNL A   1      42.701  30.221  36.104  1.00  0.00     0.029 A 
ATOM     58  C   UNL A   1      42.389  29.834  34.810  1.00  0.00     0.049 A 
ATOM     59  H   UNL A   1      40.907  30.597  33.514  1.00  0.00     0.167 HD
ATOM     60  C   UNL A   1      42.638  28.496  32.740  1.00  0.00     0.074 A 
ATOM     61  C   UNL A   1      43.270  27.468  31.940  1.00  0.00     0.031 C 
ATOM     62  C   UNL A   1      43.002  28.808  34.008  1.00  0.00     0.037 A 
BRANCH  49  63
ATOM     63  C   UNL A   1      39.732  33.418  36.490  1.00  0.00     0.064 A 
ATOM     64  C   UNL A   1      40.380  34.660  36.574  1.00  0.00     0.173 A 
ATOM     65  C   UNL A   1      38.842  33.071  37.518  1.00  0.00     0.173 A 
ATOM     66  F   UNL A   1      41.248  35.033  35.622  1.00  0.00    -0.203 F 
ATOM     67  C   UNL A   1      40.167  35.507  37.658  1.00  0.00     0.198 A 
ATOM     68  C   UNL A   1      38.609  33.934  38.586  1.00  0.00     0.198 A 
ATOM     69  F   UNL A   1      38.191  31.899  37.483  1.00  0.00    -0.203 F 
ATOM     70  F   UNL A   1      40.833  36.668  37.740  1.00  0.00    -0.200 F 
ATOM     71  C   UNL A   1      39.278  35.147  38.659  1.00  0.00     0.200 A 
ATOM     72  F   UNL A   1      37.741  33.590  39.547  1.00  0.00    -0.200 F 
ATOM     73  F   UNL A   1      39.070  35.967  39.699  1.00  0.00    -0.200 F 
ENDBRANCH  49  63
BRANCH  50  74
ATOM     74  C   UNL A   1      41.024  27.766  28.383  1.00  0.00     0.064 A 
ATOM     75  C   UNL A   1      40.357  26.543  28.221  1.00  0.00     0.173 A 
ATOM     76  C   UNL A   1      41.893  28.178  27.363  1.00  0.00     0.173 A 
ATOM     77  F   UNL A   1      39.533  26.098  29.179  1.00  0.00    -0.203 F 
ATOM     78  C   UNL A   1      40.567  25.756  27.091  1.00  0.00     0.198 A 
ATOM     79  C   UNL A   1      42.082  27.401  26.223  1.00  0.00     0.198 A 
ATOM     80  F   UNL A   1      42.550  29.341  27.471  1.00  0.00    -0.203 F 
ATOM     81  F   UNL A   1      39.949  24.572  26.978  1.00  0.00    -0.200 F 
ATOM     82  C   UNL A   1      41.424  26.187  26.090  1.00  0.00     0.200 A 
ATOM     83  F   UNL A   1      42.902  27.828  25.252  1.00  0.00    -0.200 F 
ATOM     84  F   UNL A   1      41.621  25.432  25.001  1.00  0.00    -0.200 F 
ENDBRANCH  50  74
BRANCH  62  85
ATOM     85  C   UNL A   1      44.112  28.009  34.623  1.00  0.00     0.064 A 
ATOM     86  C   UNL A   1      45.446  28.437  34.563  1.00  0.00     0.173 A 
ATOM     87  C   UNL A   1      43.831  26.821  35.314  1.00  0.00     0.173 A 
ATOM     88  F   UNL A   1      45.766  29.559  33.901  1.00  0.00    -0.203 F 
ATOM     89  C   UNL A   1      46.462  27.692  35.155  1.00  0.00     0.198 A 
ATOM     90  C   UNL A   1      44.847  26.092  35.928  1.00  0.00     0.198 A 
ATOM     91  F   UNL A   1      42.571  26.372  35.405  1.00  0.00    -0.203 F 
ATOM     92  F   UNL A   1      47.736  28.097  35.050  1.00  0.00    -0.200 F 
ATOM     93  C   UNL A   1      46.162  26.525  35.841  1.00  0.00     0.200 A 
ATOM     94  F   UNL A   1      44.554  24.971  36.600  1.00  0.00    -0.200 F 
ATOM     95  F   UNL A   1      47.141  25.812  36.416  1.00  0.00    -0.200 F 
ENDBRANCH  62  85
ENDBRANCH  36  37
ENDBRANCH  28  31
ENDBRANCH  26  27
ENDBRANCH   1  26
TORSDOF 11
ENDMDL
