MODEL 1
REMARK VINA RESULT:     -11.5      0.000      0.000
REMARK SMILES CC[C@@H](C)[C@H](NC(=O)/C=C/c1ccnn1C)C(=O)NCCCNC(=O)c1ccc(-c2c3nc(c(-c4c(F)c(F)c(F)c(F)c4F)c4ccc([nH]4)c(-c4c(F)c(F)c(F)c(F)c4F)c4nc(c(-c5c(F)c(F)c(F)c(F)c5F)c5ccc2[nH]5)C=C4)C=C3)cc1
REMARK SMILES IDX 20 1 19 2 17 3 18 4 5 6 3 7 4 8 2 9 1 10 6 11 7 12 8 14 9 15
REMARK SMILES IDX 10 16 11 17 12 18 15 19 13 20 14 21 16 22 21 23 22 24 23 25
REMARK SMILES IDX 24 26 25 28 26 29 27 30 88 31 28 32 87 33 29 34 30 35 31 36
REMARK SMILES IDX 81 37 32 38 86 39 80 40 82 41 33 42 85 43 79 44 78 45 34 47
REMARK SMILES IDX 66 48 46 49 65 50 47 51 50 52 64 53 83 54 48 55 49 56 63 58
REMARK SMILES IDX 84 59 51 60 35 61 36 62 44 63 37 64 38 65 42 66 45 67 39 68
REMARK SMILES IDX 40 69 43 70 41 71 67 72 68 73 76 74 69 75 70 76 74 77 77 78
REMARK SMILES IDX 71 79 72 80 75 81 73 82 52 83 53 84 61 85 54 86 55 87 59 88
REMARK SMILES IDX 62 89 56 90 57 91 60 92 58 93
REMARK H PARENT 19 5 6 13 23 27 82 46 50 57
REMARK Flexibility Score: inf
ROOT
ATOM      1  C   UNL A   1      37.572  21.351  24.271  1.00  0.00     0.117 C 
ENDROOT
BRANCH   1   2
ATOM      2  N   UNL A   1      37.768  22.619  24.952  1.00  0.00    -0.354 N 
ATOM      3  C   UNL A   1      36.905  23.523  25.493  1.00  0.00     0.242 C 
ATOM      4  O   UNL A   1      37.407  24.381  26.228  1.00  0.00    -0.273 OA
ATOM      5  H   UNL A   1      38.714  22.876  25.041  1.00  0.00     0.163 HD
BRANCH   3   6
ATOM      6  C   UNL A   1      35.366  23.449  25.333  1.00  0.00     0.174 C 
BRANCH   6   7
ATOM      7  C   UNL A   1      34.763  24.827  24.919  1.00  0.00     0.018 C 
ATOM      8  C   UNL A   1      33.683  25.368  25.861  1.00  0.00     0.010 C 
BRANCH   7   9
ATOM      9  C   UNL A   1      34.259  24.791  23.461  1.00  0.00     0.002 C 
ATOM     10  C   UNL A   1      34.031  23.382  22.921  1.00  0.00     0.004 C 
ENDBRANCH   7   9
ENDBRANCH   6   7
BRANCH   6  11
ATOM     11  N   UNL A   1      34.746  22.799  26.488  1.00  0.00    -0.340 N 
ATOM     12  C   UNL A   1      34.039  21.677  26.719  1.00  0.00     0.244 C 
ATOM     13  H   UNL A   1      34.882  23.318  27.313  1.00  0.00     0.164 HD
ATOM     14  O   UNL A   1      33.732  21.459  27.895  1.00  0.00    -0.270 OA
BRANCH  12  15
ATOM     15  C   UNL A   1      33.563  20.705  25.709  1.00  0.00     0.073 C 
ATOM     16  C   UNL A   1      34.219  19.921  24.846  1.00  0.00     0.033 C 
BRANCH  16  17
ATOM     17  C   UNL A   1      33.550  18.976  24.022  1.00  0.00     0.061 A 
ATOM     18  C   UNL A   1      32.423  19.120  23.237  1.00  0.00     0.050 A 
ATOM     19  N   UNL A   1      33.904  17.647  23.902  1.00  0.00    -0.269 N 
ATOM     20  C   UNL A   1      32.215  17.868  22.644  1.00  0.00     0.136 A 
ATOM     21  N   UNL A   1      33.116  16.969  23.037  1.00  0.00    -0.181 NA
ATOM     22  C   UNL A   1      34.940  16.899  24.576  1.00  0.00     0.174 C 
ENDBRANCH  16  17
ENDBRANCH  12  15
ENDBRANCH   6  11
ENDBRANCH   3   6
ENDBRANCH   1   2
BRANCH   1  23
ATOM     23  C   UNL A   1      37.942  20.153  25.130  1.00  0.00     0.042 C 
BRANCH  23  24
ATOM     24  C   UNL A   1      39.129  20.412  26.049  1.00  0.00     0.118 C 
BRANCH  24  25
ATOM     25  N   UNL A   1      40.118  19.339  26.008  1.00  0.00    -0.352 N 
ATOM     26  C   UNL A   1      41.491  19.370  26.069  1.00  0.00     0.251 C 
ATOM     27  H   UNL A   1      39.734  18.437  25.922  1.00  0.00     0.163 HD
ATOM     28  O   UNL A   1      42.133  18.365  25.789  1.00  0.00    -0.269 OA
BRANCH  26  29
ATOM     29  C   UNL A   1      42.201  20.615  26.436  1.00  0.00     0.039 A 
ATOM     30  C   UNL A   1      42.700  21.438  25.422  1.00  0.00     0.014 A 
ATOM     31  C   UNL A   1      42.390  20.968  27.772  1.00  0.00     0.014 A 
ATOM     32  C   UNL A   1      43.286  22.665  25.747  1.00  0.00     0.010 A 
ATOM     33  C   UNL A   1      42.884  22.228  28.091  1.00  0.00     0.010 A 
ATOM     34  C   UNL A   1      43.323  23.097  27.081  1.00  0.00    -0.014 A 
BRANCH  34  35
ATOM     35  C   UNL A   1      43.767  24.465  27.451  1.00  0.00     0.031 A 
ATOM     36  C   UNL A   1      42.761  25.505  27.861  1.00  0.00     0.074 A 
ATOM     37  C   UNL A   1      45.064  24.803  27.296  1.00  0.00     0.049 A 
ATOM     38  N   UNL A   1      42.932  26.788  28.062  1.00  0.00    -0.248 NA
ATOM     39  C   UNL A   1      41.370  25.052  28.034  1.00  0.00     0.031 C 
ATOM     40  C   UNL A   1      46.126  23.901  26.844  1.00  0.00     0.029 A 
ATOM     41  N   UNL A   1      45.706  26.004  27.472  1.00  0.00    -0.354 N 
ATOM     42  C   UNL A   1      41.673  27.296  28.351  1.00  0.00     0.074 A 
ATOM     43  C   UNL A   1      40.739  26.195  28.269  1.00  0.00     0.031 C 
ATOM     44  C   UNL A   1      47.285  24.576  26.784  1.00  0.00     0.029 A 
ATOM     45  C   UNL A   1      47.041  25.967  27.147  1.00  0.00     0.049 A 
ATOM     46  H   UNL A   1      45.254  26.814  27.799  1.00  0.00     0.167 HD
ATOM     47  C   UNL A   1      41.333  28.566  28.673  1.00  0.00     0.037 A 
ATOM     48  C   UNL A   1      47.963  26.950  27.119  1.00  0.00     0.037 A 
ATOM     49  C   UNL A   1      42.273  29.645  28.813  1.00  0.00     0.049 A 
ATOM     50  C   UNL A   1      47.552  28.348  27.491  1.00  0.00     0.074 A 
ATOM     51  C   UNL A   1      42.043  30.935  29.260  1.00  0.00     0.029 A 
ATOM     52  N   UNL A   1      43.622  29.562  28.505  1.00  0.00    -0.354 N 
ATOM     53  N   UNL A   1      46.376  28.795  27.858  1.00  0.00    -0.248 NA
ATOM     54  C   UNL A   1      48.598  29.381  27.442  1.00  0.00     0.031 C 
ATOM     55  C   UNL A   1      43.243  31.646  29.177  1.00  0.00     0.029 A 
ATOM     56  C   UNL A   1      44.229  30.789  28.716  1.00  0.00     0.049 A 
ATOM     57  H   UNL A   1      44.080  28.752  28.183  1.00  0.00     0.167 HD
ATOM     58  C   UNL A   1      46.542  30.152  28.096  1.00  0.00     0.074 A 
ATOM     59  C   UNL A   1      47.938  30.454  27.856  1.00  0.00     0.031 C 
ATOM     60  C   UNL A   1      45.619  31.070  28.472  1.00  0.00     0.037 A 
BRANCH  47  61
ATOM     61  C   UNL A   1      39.885  28.871  28.917  1.00  0.00     0.064 A 
ATOM     62  C   UNL A   1      39.038  29.292  27.881  1.00  0.00     0.173 A 
ATOM     63  C   UNL A   1      39.320  28.654  30.183  1.00  0.00     0.173 A 
ATOM     64  F   UNL A   1      39.533  29.521  26.656  1.00  0.00    -0.203 F 
ATOM     65  C   UNL A   1      37.679  29.495  28.108  1.00  0.00     0.198 A 
ATOM     66  C   UNL A   1      37.956  28.836  30.399  1.00  0.00     0.198 A 
ATOM     67  F   UNL A   1      40.087  28.246  31.205  1.00  0.00    -0.203 F 
ATOM     68  F   UNL A   1      36.893  29.922  27.110  1.00  0.00    -0.200 F 
ATOM     69  C   UNL A   1      37.138  29.258  29.363  1.00  0.00     0.200 A 
ATOM     70  F   UNL A   1      37.433  28.594  31.609  1.00  0.00    -0.200 F 
ATOM     71  F   UNL A   1      35.827  29.437  29.572  1.00  0.00    -0.200 F 
ENDBRANCH  47  61
BRANCH  48  72
ATOM     72  C   UNL A   1      49.360  26.656  26.709  1.00  0.00     0.064 A 
ATOM     73  C   UNL A   1      50.323  26.282  27.657  1.00  0.00     0.173 A 
ATOM     74  C   UNL A   1      49.772  26.771  25.374  1.00  0.00     0.173 A 
ATOM     75  F   UNL A   1      49.984  26.182  28.951  1.00  0.00    -0.203 F 
ATOM     76  C   UNL A   1      51.649  26.063  27.289  1.00  0.00     0.198 A 
ATOM     77  C   UNL A   1      51.090  26.523  25.002  1.00  0.00     0.198 A 
ATOM     78  F   UNL A   1      48.888  27.124  24.427  1.00  0.00    -0.203 F 
ATOM     79  F   UNL A   1      52.560  25.761  28.224  1.00  0.00    -0.200 F 
ATOM     80  C   UNL A   1      52.030  26.179  25.962  1.00  0.00     0.200 A 
ATOM     81  F   UNL A   1      51.453  26.625  23.716  1.00  0.00    -0.200 F 
ATOM     82  F   UNL A   1      53.307  25.972  25.609  1.00  0.00    -0.200 F 
ENDBRANCH  48  72
BRANCH  60  83
ATOM     83  C   UNL A   1      46.089  32.480  28.656  1.00  0.00     0.064 A 
ATOM     84  C   UNL A   1      46.029  33.410  27.608  1.00  0.00     0.173 A 
ATOM     85  C   UNL A   1      46.558  32.920  29.903  1.00  0.00     0.173 A 
ATOM     86  F   UNL A   1      45.605  33.031  26.393  1.00  0.00    -0.203 F 
ATOM     87  C   UNL A   1      46.437  34.727  27.798  1.00  0.00     0.198 A 
ATOM     88  C   UNL A   1      46.939  34.244  30.096  1.00  0.00     0.198 A 
ATOM     89  F   UNL A   1      46.628  32.068  30.937  1.00  0.00    -0.203 F 
ATOM     90  F   UNL A   1      46.409  35.590  26.772  1.00  0.00    -0.200 F 
ATOM     91  C   UNL A   1      46.884  35.145  29.043  1.00  0.00     0.200 A 
ATOM     92  F   UNL A   1      47.359  34.650  31.303  1.00  0.00    -0.200 F 
ATOM     93  F   UNL A   1      47.266  36.416  29.227  1.00  0.00    -0.200 F 
ENDBRANCH  60  83
ENDBRANCH  34  35
ENDBRANCH  26  29
ENDBRANCH  24  25
ENDBRANCH  23  24
ENDBRANCH   1  23
TORSDOF 15
ENDMDL
MODEL 2
REMARK VINA RESULT:     -11.5      0.423      2.087
REMARK SMILES CC[C@@H](C)[C@H](NC(=O)/C=C/c1ccnn1C)C(=O)NCCCNC(=O)c1ccc(-c2c3nc(c(-c4c(F)c(F)c(F)c(F)c4F)c4ccc([nH]4)c(-c4c(F)c(F)c(F)c(F)c4F)c4nc(c(-c5c(F)c(F)c(F)c(F)c5F)c5ccc2[nH]5)C=C4)C=C3)cc1
REMARK SMILES IDX 20 1 19 2 17 3 18 4 5 6 3 7 4 8 2 9 1 10 6 11 7 12 8 14 9 15
REMARK SMILES IDX 10 16 11 17 12 18 15 19 13 20 14 21 16 22 21 23 22 24 23 25
REMARK SMILES IDX 24 26 25 28 26 29 27 30 88 31 28 32 87 33 29 34 30 35 31 36
REMARK SMILES IDX 81 37 32 38 86 39 80 40 82 41 33 42 85 43 79 44 78 45 34 47
REMARK SMILES IDX 66 48 46 49 65 50 47 51 50 52 64 53 83 54 48 55 49 56 63 58
REMARK SMILES IDX 84 59 51 60 35 61 36 62 44 63 37 64 38 65 42 66 45 67 39 68
REMARK SMILES IDX 40 69 43 70 41 71 67 72 68 73 76 74 69 75 70 76 74 77 77 78
REMARK SMILES IDX 71 79 72 80 75 81 73 82 52 83 53 84 61 85 54 86 55 87 59 88
REMARK SMILES IDX 62 89 56 90 57 91 60 92 58 93
REMARK H PARENT 19 5 6 13 23 27 82 46 50 57
REMARK Flexibility Score: inf
ROOT
ATOM      1  C   UNL A   1      37.220  21.033  24.381  1.00  0.00     0.117 C 
ENDROOT
BRANCH   1   2
ATOM      2  N   UNL A   1      37.508  22.290  25.050  1.00  0.00    -0.354 N 
ATOM      3  C   UNL A   1      36.716  23.299  25.507  1.00  0.00     0.242 C 
ATOM      4  O   UNL A   1      37.256  24.116  26.261  1.00  0.00    -0.273 OA
ATOM      5  H   UNL A   1      38.468  22.443  25.205  1.00  0.00     0.163 HD
BRANCH   3   6
ATOM      6  C   UNL A   1      35.193  23.391  25.235  1.00  0.00     0.174 C 
BRANCH   6   7
ATOM      7  C   UNL A   1      34.796  24.782  24.649  1.00  0.00     0.018 C 
ATOM      8  C   UNL A   1      34.063  25.707  25.624  1.00  0.00     0.010 C 
BRANCH   7   9
ATOM      9  C   UNL A   1      34.001  24.619  23.336  1.00  0.00     0.002 C 
ATOM     10  C   UNL A   1      34.037  23.205  22.764  1.00  0.00     0.004 C 
ENDBRANCH   7   9
ENDBRANCH   6   7
BRANCH   6  11
ATOM     11  N   UNL A   1      34.421  22.938  26.392  1.00  0.00    -0.340 N 
ATOM     12  C   UNL A   1      33.886  21.780  26.821  1.00  0.00     0.244 C 
ATOM     13  H   UNL A   1      34.247  23.674  27.022  1.00  0.00     0.164 HD
ATOM     14  O   UNL A   1      33.330  21.814  27.924  1.00  0.00    -0.270 OA
BRANCH  12  15
ATOM     15  C   UNL A   1      33.863  20.491  26.095  1.00  0.00     0.073 C 
ATOM     16  C   UNL A   1      33.692  20.198  24.801  1.00  0.00     0.033 C 
BRANCH  16  17
ATOM     17  C   UNL A   1      33.809  18.872  24.303  1.00  0.00     0.061 A 
ATOM     18  C   UNL A   1      34.675  17.859  24.665  1.00  0.00     0.050 A 
ATOM     19  N   UNL A   1      33.064  18.353  23.263  1.00  0.00    -0.269 N 
ATOM     20  C   UNL A   1      34.342  16.770  23.848  1.00  0.00     0.136 A 
ATOM     21  N   UNL A   1      33.357  17.060  22.999  1.00  0.00    -0.181 NA
ATOM     22  C   UNL A   1      32.075  18.990  22.424  1.00  0.00     0.174 C 
ENDBRANCH  16  17
ENDBRANCH  12  15
ENDBRANCH   6  11
ENDBRANCH   3   6
ENDBRANCH   1   2
BRANCH   1  23
ATOM     23  C   UNL A   1      37.945  19.851  25.003  1.00  0.00     0.042 C 
BRANCH  23  24
ATOM     24  C   UNL A   1      39.184  20.249  25.793  1.00  0.00     0.118 C 
BRANCH  24  25
ATOM     25  N   UNL A   1      40.165  19.172  25.883  1.00  0.00    -0.352 N 
ATOM     26  C   UNL A   1      41.528  19.202  26.063  1.00  0.00     0.251 C 
ATOM     27  H   UNL A   1      39.785  18.268  25.799  1.00  0.00     0.163 HD
ATOM     28  O   UNL A   1      42.185  18.184  25.881  1.00  0.00    -0.269 OA
BRANCH  26  29
ATOM     29  C   UNL A   1      42.212  20.458  26.441  1.00  0.00     0.039 A 
ATOM     30  C   UNL A   1      42.834  21.220  25.447  1.00  0.00     0.014 A 
ATOM     31  C   UNL A   1      42.256  20.881  27.769  1.00  0.00     0.014 A 
ATOM     32  C   UNL A   1      43.398  22.457  25.771  1.00  0.00     0.010 A 
ATOM     33  C   UNL A   1      42.730  22.152  28.075  1.00  0.00     0.010 A 
ATOM     34  C   UNL A   1      43.292  22.961  27.077  1.00  0.00    -0.014 A 
BRANCH  34  35
ATOM     35  C   UNL A   1      43.713  24.343  27.421  1.00  0.00     0.031 A 
ATOM     36  C   UNL A   1      42.699  25.349  27.892  1.00  0.00     0.074 A 
ATOM     37  C   UNL A   1      44.986  24.722  27.190  1.00  0.00     0.049 A 
ATOM     38  N   UNL A   1      42.840  26.637  28.083  1.00  0.00    -0.248 NA
ATOM     39  C   UNL A   1      41.337  24.852  28.147  1.00  0.00     0.031 C 
ATOM     40  C   UNL A   1      46.048  23.855  26.674  1.00  0.00     0.029 A 
ATOM     41  N   UNL A   1      45.599  25.943  27.329  1.00  0.00    -0.354 N 
ATOM     42  C   UNL A   1      41.585  27.105  28.448  1.00  0.00     0.074 A 
ATOM     43  C   UNL A   1      40.684  25.974  28.419  1.00  0.00     0.031 C 
ATOM     44  C   UNL A   1      47.179  24.567  26.547  1.00  0.00     0.029 A 
ATOM     45  C   UNL A   1      46.913  25.950  26.925  1.00  0.00     0.049 A 
ATOM     46  H   UNL A   1      45.140  26.739  27.683  1.00  0.00     0.167 HD
ATOM     47  C   UNL A   1      41.224  28.363  28.791  1.00  0.00     0.037 A 
ATOM     48  C   UNL A   1      47.798  26.962  26.843  1.00  0.00     0.037 A 
ATOM     49  C   UNL A   1      42.135  29.473  28.876  1.00  0.00     0.049 A 
ATOM     50  C   UNL A   1      47.365  28.346  27.241  1.00  0.00     0.074 A 
ATOM     51  C   UNL A   1      41.890  30.755  29.337  1.00  0.00     0.029 A 
ATOM     52  N   UNL A   1      43.466  29.433  28.488  1.00  0.00    -0.354 N 
ATOM     53  N   UNL A   1      46.200  28.755  27.678  1.00  0.00    -0.248 NA
ATOM     54  C   UNL A   1      48.373  29.413  27.131  1.00  0.00     0.031 C 
ATOM     55  C   UNL A   1      43.060  31.504  29.184  1.00  0.00     0.029 A 
ATOM     56  C   UNL A   1      44.044  30.679  28.665  1.00  0.00     0.049 A 
ATOM     57  H   UNL A   1      43.930  28.638  28.139  1.00  0.00     0.167 HD
ATOM     58  C   UNL A   1      46.335  30.117  27.907  1.00  0.00     0.074 A 
ATOM     59  C   UNL A   1      47.704  30.463  27.585  1.00  0.00     0.031 C 
ATOM     60  C   UNL A   1      45.407  31.005  28.339  1.00  0.00     0.037 A 
BRANCH  47  61
ATOM     61  C   UNL A   1      39.783  28.621  29.120  1.00  0.00     0.064 A 
ATOM     62  C   UNL A   1      39.284  28.446  30.419  1.00  0.00     0.173 A 
ATOM     63  C   UNL A   1      38.915  29.133  28.144  1.00  0.00     0.173 A 
ATOM     64  F   UNL A   1      40.073  27.952  31.384  1.00  0.00    -0.203 F 
ATOM     65  C   UNL A   1      37.964  28.765  30.725  1.00  0.00     0.198 A 
ATOM     66  C   UNL A   1      37.603  29.472  28.460  1.00  0.00     0.198 A 
ATOM     67  F   UNL A   1      39.347  29.323  26.887  1.00  0.00    -0.203 F 
ATOM     68  F   UNL A   1      37.500  28.567  31.967  1.00  0.00    -0.200 F 
ATOM     69  C   UNL A   1      37.128  29.287  29.749  1.00  0.00     0.200 A 
ATOM     70  F   UNL A   1      36.800  29.989  27.519  1.00  0.00    -0.200 F 
ATOM     71  F   UNL A   1      35.863  29.610  30.052  1.00  0.00    -0.200 F 
ENDBRANCH  47  61
BRANCH  48  72
ATOM     72  C   UNL A   1      49.178  26.713  26.351  1.00  0.00     0.064 A 
ATOM     73  C   UNL A   1      49.512  26.938  25.008  1.00  0.00     0.173 A 
ATOM     74  C   UNL A   1      50.181  26.221  27.198  1.00  0.00     0.173 A 
ATOM     75  F   UNL A   1      48.581  27.386  24.153  1.00  0.00    -0.203 F 
ATOM     76  C   UNL A   1      50.788  26.652  24.526  1.00  0.00     0.198 A 
ATOM     77  C   UNL A   1      51.464  25.963  26.722  1.00  0.00     0.198 A 
ATOM     78  F   UNL A   1      49.912  25.991  28.493  1.00  0.00    -0.203 F 
ATOM     79  F   UNL A   1      51.064  26.822  23.226  1.00  0.00    -0.200 F 
ATOM     80  C   UNL A   1      51.763  26.168  25.384  1.00  0.00     0.200 A 
ATOM     81  F   UNL A   1      52.407  25.506  27.557  1.00  0.00    -0.200 F 
ATOM     82  F   UNL A   1      52.989  25.889  24.919  1.00  0.00    -0.200 F 
ENDBRANCH  48  72
BRANCH  60  83
ATOM     83  C   UNL A   1      45.841  32.429  28.496  1.00  0.00     0.064 A 
ATOM     84  C   UNL A   1      46.425  32.884  29.688  1.00  0.00     0.173 A 
ATOM     85  C   UNL A   1      45.719  33.335  27.432  1.00  0.00     0.173 A 
ATOM     86  F   UNL A   1      46.546  32.060  30.738  1.00  0.00    -0.203 F 
ATOM     87  C   UNL A   1      46.856  34.202  29.814  1.00  0.00     0.198 A 
ATOM     88  C   UNL A   1      46.176  34.644  27.553  1.00  0.00     0.198 A 
ATOM     89  F   UNL A   1      45.173  32.945  26.271  1.00  0.00    -0.203 F 
ATOM     90  F   UNL A   1      47.374  34.628  30.974  1.00  0.00    -0.200 F 
ATOM     91  C   UNL A   1      46.739  35.078  28.744  1.00  0.00     0.200 A 
ATOM     92  F   UNL A   1      46.074  35.486  26.515  1.00  0.00    -0.200 F 
ATOM     93  F   UNL A   1      47.164  36.343  28.863  1.00  0.00    -0.200 F 
ENDBRANCH  60  83
ENDBRANCH  34  35
ENDBRANCH  26  29
ENDBRANCH  24  25
ENDBRANCH  23  24
ENDBRANCH   1  23
TORSDOF 15
ENDMDL
MODEL 3
REMARK VINA RESULT:     -11.4      1.670      3.703
REMARK SMILES CC[C@@H](C)[C@H](NC(=O)/C=C/c1ccnn1C)C(=O)NCCCNC(=O)c1ccc(-c2c3nc(c(-c4c(F)c(F)c(F)c(F)c4F)c4ccc([nH]4)c(-c4c(F)c(F)c(F)c(F)c4F)c4nc(c(-c5c(F)c(F)c(F)c(F)c5F)c5ccc2[nH]5)C=C4)C=C3)cc1
REMARK SMILES IDX 20 1 19 2 17 3 18 4 5 6 3 7 4 8 2 9 1 10 6 11 7 12 8 14 9 15
REMARK SMILES IDX 10 16 11 17 12 18 15 19 13 20 14 21 16 22 21 23 22 24 23 25
REMARK SMILES IDX 24 26 25 28 26 29 27 30 88 31 28 32 87 33 29 34 30 35 31 36
REMARK SMILES IDX 81 37 32 38 86 39 80 40 82 41 33 42 85 43 79 44 78 45 34 47
REMARK SMILES IDX 66 48 46 49 65 50 47 51 50 52 64 53 83 54 48 55 49 56 63 58
REMARK SMILES IDX 84 59 51 60 35 61 36 62 44 63 37 64 38 65 42 66 45 67 39 68
REMARK SMILES IDX 40 69 43 70 41 71 67 72 68 73 76 74 69 75 70 76 74 77 77 78
REMARK SMILES IDX 71 79 72 80 75 81 73 82 52 83 53 84 61 85 54 86 55 87 59 88
REMARK SMILES IDX 62 89 56 90 57 91 60 92 58 93
REMARK H PARENT 19 5 6 13 23 27 82 46 50 57
REMARK Flexibility Score: inf
ROOT
ATOM      1  C   UNL A   1      36.755  20.776  25.220  1.00  0.00     0.117 C 
ENDROOT
BRANCH   1   2
ATOM      2  N   UNL A   1      35.488  20.080  25.081  1.00  0.00    -0.354 N 
ATOM      3  C   UNL A   1      34.222  20.504  24.817  1.00  0.00     0.242 C 
ATOM      4  O   UNL A   1      33.406  19.626  24.512  1.00  0.00    -0.273 OA
ATOM      5  H   UNL A   1      35.559  19.105  25.203  1.00  0.00     0.163 HD
BRANCH   3   6
ATOM      6  C   UNL A   1      33.806  21.995  24.760  1.00  0.00     0.174 C 
BRANCH   6   7
ATOM      7  C   UNL A   1      32.592  22.291  25.693  1.00  0.00     0.018 C 
ATOM      8  C   UNL A   1      31.249  22.452  24.975  1.00  0.00     0.010 C 
BRANCH   7   9
ATOM      9  C   UNL A   1      32.881  23.504  26.604  1.00  0.00     0.002 C 
ATOM     10  C   UNL A   1      31.695  24.448  26.771  1.00  0.00     0.004 C 
ENDBRANCH   7   9
ENDBRANCH   6   7
BRANCH   6  11
ATOM     11  N   UNL A   1      33.678  22.455  23.376  1.00  0.00    -0.340 N 
ATOM     12  C   UNL A   1      33.685  23.637  22.731  1.00  0.00     0.244 C 
ATOM     13  H   UNL A   1      33.554  21.703  22.754  1.00  0.00     0.164 HD
ATOM     14  O   UNL A   1      33.594  23.585  21.501  1.00  0.00    -0.270 OA
BRANCH  12  15
ATOM     15  C   UNL A   1      33.754  24.982  23.345  1.00  0.00     0.073 C 
ATOM     16  C   UNL A   1      32.828  25.931  23.523  1.00  0.00     0.033 C 
BRANCH  16  17
ATOM     17  C   UNL A   1      33.099  27.128  24.240  1.00  0.00     0.061 A 
ATOM     18  C   UNL A   1      33.770  27.319  25.431  1.00  0.00     0.050 A 
ATOM     19  N   UNL A   1      32.657  28.383  23.871  1.00  0.00    -0.269 N 
ATOM     20  C   UNL A   1      33.738  28.701  25.663  1.00  0.00     0.136 A 
ATOM     21  N   UNL A   1      33.071  29.355  24.714  1.00  0.00    -0.181 NA
ATOM     22  C   UNL A   1      31.815  28.781  22.766  1.00  0.00     0.174 C 
ENDBRANCH  16  17
ENDBRANCH  12  15
ENDBRANCH   6  11
ENDBRANCH   3   6
ENDBRANCH   1   2
BRANCH   1  23
ATOM     23  C   UNL A   1      37.956  19.877  24.974  1.00  0.00     0.042 C 
BRANCH  23  24
ATOM     24  C   UNL A   1      39.189  20.283  25.770  1.00  0.00     0.118 C 
BRANCH  24  25
ATOM     25  N   UNL A   1      40.168  19.207  25.880  1.00  0.00    -0.352 N 
ATOM     26  C   UNL A   1      41.529  19.237  26.079  1.00  0.00     0.251 C 
ATOM     27  H   UNL A   1      39.789  18.302  25.796  1.00  0.00     0.163 HD
ATOM     28  O   UNL A   1      42.187  18.218  25.913  1.00  0.00    -0.269 OA
BRANCH  26  29
ATOM     29  C   UNL A   1      42.207  20.495  26.459  1.00  0.00     0.039 A 
ATOM     30  C   UNL A   1      42.848  21.248  25.471  1.00  0.00     0.014 A 
ATOM     31  C   UNL A   1      42.227  20.930  27.785  1.00  0.00     0.014 A 
ATOM     32  C   UNL A   1      43.408  22.487  25.794  1.00  0.00     0.010 A 
ATOM     33  C   UNL A   1      42.697  22.203  28.088  1.00  0.00     0.010 A 
ATOM     34  C   UNL A   1      43.279  23.002  27.093  1.00  0.00    -0.014 A 
BRANCH  34  35
ATOM     35  C   UNL A   1      43.696  24.386  27.434  1.00  0.00     0.031 A 
ATOM     36  C   UNL A   1      42.675  25.400  27.872  1.00  0.00     0.074 A 
ATOM     37  C   UNL A   1      44.975  24.760  27.226  1.00  0.00     0.049 A 
ATOM     38  N   UNL A   1      42.815  26.689  28.055  1.00  0.00    -0.248 NA
ATOM     39  C   UNL A   1      41.306  24.908  28.102  1.00  0.00     0.031 C 
ATOM     40  C   UNL A   1      46.046  23.886  26.742  1.00  0.00     0.029 A 
ATOM     41  N   UNL A   1      45.587  25.981  27.367  1.00  0.00    -0.354 N 
ATOM     42  C   UNL A   1      41.553  27.163  28.387  1.00  0.00     0.074 A 
ATOM     43  C   UNL A   1      40.650  26.033  28.350  1.00  0.00     0.031 C 
ATOM     44  C   UNL A   1      47.181  24.594  26.633  1.00  0.00     0.029 A 
ATOM     45  C   UNL A   1      46.910  25.981  26.992  1.00  0.00     0.049 A 
ATOM     46  H   UNL A   1      45.123  26.781  27.703  1.00  0.00     0.167 HD
ATOM     47  C   UNL A   1      41.188  28.425  28.710  1.00  0.00     0.037 A 
ATOM     48  C   UNL A   1      47.800  26.990  26.920  1.00  0.00     0.037 A 
ATOM     49  C   UNL A   1      42.100  29.533  28.805  1.00  0.00     0.049 A 
ATOM     50  C   UNL A   1      47.362  28.379  27.295  1.00  0.00     0.074 A 
ATOM     51  C   UNL A   1      41.848  30.820  29.248  1.00  0.00     0.029 A 
ATOM     52  N   UNL A   1      43.438  29.487  28.446  1.00  0.00    -0.354 N 
ATOM     53  N   UNL A   1      46.188  28.795  27.702  1.00  0.00    -0.248 NA
ATOM     54  C   UNL A   1      48.374  29.443  27.197  1.00  0.00     0.031 C 
ATOM     55  C   UNL A   1      43.023  31.566  29.114  1.00  0.00     0.029 A 
ATOM     56  C   UNL A   1      44.015  30.733  28.624  1.00  0.00     0.049 A 
ATOM     57  H   UNL A   1      43.908  28.687  28.115  1.00  0.00     0.167 HD
ATOM     58  C   UNL A   1      46.321  30.159  27.921  1.00  0.00     0.074 A 
ATOM     59  C   UNL A   1      47.697  30.499  27.626  1.00  0.00     0.031 C 
ATOM     60  C   UNL A   1      45.387  31.053  28.324  1.00  0.00     0.037 A 
BRANCH  47  61
ATOM     61  C   UNL A   1      39.741  28.689  29.006  1.00  0.00     0.064 A 
ATOM     62  C   UNL A   1      39.210  28.512  30.291  1.00  0.00     0.173 A 
ATOM     63  C   UNL A   1      38.900  29.210  28.011  1.00  0.00     0.173 A 
ATOM     64  F   UNL A   1      39.971  28.008  31.272  1.00  0.00    -0.203 F 
ATOM     65  C   UNL A   1      37.884  28.837  30.567  1.00  0.00     0.198 A 
ATOM     66  C   UNL A   1      37.582  29.556  28.297  1.00  0.00     0.198 A 
ATOM     67  F   UNL A   1      39.363  29.405  26.766  1.00  0.00    -0.203 F 
ATOM     68  F   UNL A   1      37.389  28.635  31.796  1.00  0.00    -0.200 F 
ATOM     69  C   UNL A   1      37.075  29.367  29.573  1.00  0.00     0.200 A 
ATOM     70  F   UNL A   1      36.805  30.081  27.339  1.00  0.00    -0.200 F 
ATOM     71  F   UNL A   1      35.805  29.696  29.846  1.00  0.00    -0.200 F 
ENDBRANCH  47  61
BRANCH  48  72
ATOM     72  C   UNL A   1      49.189  26.734  26.460  1.00  0.00     0.064 A 
ATOM     73  C   UNL A   1      49.548  26.923  25.118  1.00  0.00     0.173 A 
ATOM     74  C   UNL A   1      50.177  26.268  27.339  1.00  0.00     0.173 A 
ATOM     75  F   UNL A   1      48.631  27.344  24.234  1.00  0.00    -0.203 F 
ATOM     76  C   UNL A   1      50.833  26.629  24.668  1.00  0.00     0.198 A 
ATOM     77  C   UNL A   1      51.470  26.002  26.894  1.00  0.00     0.198 A 
ATOM     78  F   UNL A   1      49.886  26.073  28.634  1.00  0.00    -0.203 F 
ATOM     79  F   UNL A   1      51.133  26.765  23.369  1.00  0.00    -0.200 F 
ATOM     80  C   UNL A   1      51.794  26.173  25.557  1.00  0.00     0.200 A 
ATOM     81  F   UNL A   1      52.400  25.573  27.759  1.00  0.00    -0.200 F 
ATOM     82  F   UNL A   1      53.029  25.886  25.122  1.00  0.00    -0.200 F 
ENDBRANCH  48  72
BRANCH  60  83
ATOM     83  C   UNL A   1      45.821  32.478  28.478  1.00  0.00     0.064 A 
ATOM     84  C   UNL A   1      45.681  33.398  27.429  1.00  0.00     0.173 A 
ATOM     85  C   UNL A   1      46.336  32.940  29.698  1.00  0.00     0.173 A 
ATOM     86  F   UNL A   1      45.210  32.999  26.238  1.00  0.00    -0.203 F 
ATOM     87  C   UNL A   1      46.056  34.729  27.592  1.00  0.00     0.198 A 
ATOM     88  C   UNL A   1      46.685  34.277  29.865  1.00  0.00     0.198 A 
ATOM     89  F   UNL A   1      46.483  32.098  30.732  1.00  0.00    -0.203 F 
ATOM     90  F   UNL A   1      45.951  35.583  26.565  1.00  0.00    -0.200 F 
ATOM     91  C   UNL A   1      46.550  35.169  28.811  1.00  0.00     0.200 A 
ATOM     92  F   UNL A   1      47.150  34.703  31.048  1.00  0.00    -0.200 F 
ATOM     93  F   UNL A   1      46.901  36.452  28.970  1.00  0.00    -0.200 F 
ENDBRANCH  60  83
ENDBRANCH  34  35
ENDBRANCH  26  29
ENDBRANCH  24  25
ENDBRANCH  23  24
ENDBRANCH   1  23
TORSDOF 15
ENDMDL
