MODEL 1
REMARK VINA RESULT:     -14.0      0.000      0.000
REMARK SMILES C[C@@H]1CCC[C@H](C)[N@H+]1Cc1cc2c(cc1Cl)C=C(C(=O)NCCCNC(=O)c1ccc(-c3c4nc(c(-c5c(F)c(F)c(F)c(F)c5F)c5ccc([nH]5)c(-c5c(F)c(F)c(F)c(F)c5F)c5nc(c(-c6c(F)c(F)c(F)c(F)c6F)c6ccc3[nH]6)C=C5)C=C4)cc1)[C@@H](C(F)(F)F)O2
REMARK SMILES IDX 23 1 22 2 21 3 19 4 20 5 18 7 10 8 11 9 15 10 12 11 14 12
REMARK SMILES IDX 16 13 13 14 96 15 17 16 91 17 9 18 8 19 7 20 6 21 5 22 4 23
REMARK SMILES IDX 2 24 3 26 1 27 92 28 93 29 94 30 95 31 24 32 25 33 26 34
REMARK SMILES IDX 27 36 28 37 29 38 90 39 30 40 89 41 31 42 32 43 33 44 83 45
REMARK SMILES IDX 34 46 88 47 82 48 84 49 35 50 87 51 81 52 80 53 36 55 68 56
REMARK SMILES IDX 48 57 67 58 49 59 52 60 66 61 85 62 50 63 51 64 65 66 86 67
REMARK SMILES IDX 53 68 37 69 38 70 46 71 39 72 40 73 44 74 47 75 41 76 42 77
REMARK SMILES IDX 45 78 43 79 69 80 70 81 78 82 71 83 72 84 76 85 79 86 73 87
REMARK SMILES IDX 74 88 77 89 75 90 54 91 55 92 63 93 56 94 57 95 61 96 64 97
REMARK SMILES IDX 58 98 59 99 62 100 60 101
REMARK H PARENT 21 6 8 25 25 35 84 54 52 65
REMARK Flexibility Score: inf
ROOT
ATOM      1  C   UNL A   1      31.429  32.299  26.547  1.00  0.00     0.042 C 
ENDROOT
BRANCH   1   2
ATOM      2  C   UNL A   1      31.684  30.858  26.140  1.00  0.00     0.118 C 
BRANCH   2   3
ATOM      3  N   UNL A   1      30.973  30.516  24.920  1.00  0.00    -0.352 N 
ATOM      4  C   UNL A   1      30.859  29.430  24.123  1.00  0.00     0.251 C 
ATOM      5  O   UNL A   1      30.097  29.560  23.159  1.00  0.00    -0.270 OA
ATOM      6  H   UNL A   1      30.436  31.271  24.587  1.00  0.00     0.163 HD
BRANCH   4   7
ATOM      7  C   UNL A   1      31.584  28.150  24.325  1.00  0.00     0.067 C 
ATOM      8  C   UNL A   1      34.140  23.923  23.370  1.00  0.00     0.029 A 
ATOM      9  C   UNL A   1      34.280  24.968  24.298  1.00  0.00     0.058 A 
ATOM     10  C   UNL A   1      32.954  23.863  22.617  1.00  0.00     0.050 A 
ATOM     11  C   UNL A   1      33.359  26.007  24.328  1.00  0.00     0.128 A 
ATOM     12  C   UNL A   1      32.059  24.939  22.612  1.00  0.00     0.033 A 
ATOM     13  Cl  UNL A   1      32.534  22.500  21.643  1.00  0.00    -0.084 Cl
ATOM     14  C   UNL A   1      32.295  26.039  23.428  1.00  0.00     0.019 A 
ATOM     15  O   UNL A   1      33.588  27.020  25.220  1.00  0.00    -0.475 OA
ATOM     16  C   UNL A   1      31.509  27.263  23.316  1.00  0.00     0.025 C 
ATOM     17  C   UNL A   1      32.402  27.804  25.536  1.00  0.00     0.314 C 
BRANCH   8  18
ATOM     18  C   UNL A   1      35.320  22.997  23.151  1.00  0.00     0.301 C 
BRANCH  18  19
ATOM     19  N   UNL A   1      35.487  21.909  24.145  1.00  0.00    -0.327 N 
ATOM     20  C   UNL A   1      34.419  19.738  24.668  1.00  0.00     0.075 C 
ATOM     21  C   UNL A   1      34.242  21.262  24.595  1.00  0.00     0.181 C 
ATOM     22  C   UNL A   1      33.682  21.796  25.926  1.00  0.00     0.065 C 
ATOM     23  C   UNL A   1      34.737  21.933  27.012  1.00  0.00     0.012 C 
ATOM     24  C   UNL A   1      36.499  22.177  25.179  1.00  0.00     0.181 C 
ATOM     25  H   UNL A   1      35.913  21.154  23.608  1.00  0.00     0.348 HD
ATOM     26  C   UNL A   1      35.934  22.722  26.501  1.00  0.00     0.065 C 
ATOM     27  C   UNL A   1      37.382  20.947  25.432  1.00  0.00     0.075 C 
ENDBRANCH  18  19
ENDBRANCH   8  18
BRANCH  17  28
ATOM     28  C   UNL A   1      31.555  27.096  26.619  1.00  0.00     0.429 C 
ATOM     29  F   UNL A   1      30.348  26.738  26.116  1.00  0.00    -0.167 F 
ATOM     30  F   UNL A   1      32.142  25.955  27.062  1.00  0.00    -0.167 F 
ATOM     31  F   UNL A   1      31.332  27.860  27.709  1.00  0.00    -0.167 F 
ENDBRANCH  17  28
ENDBRANCH   4   7
ENDBRANCH   2   3
ENDBRANCH   1   2
BRANCH   1  32
ATOM     32  C   UNL A   1      32.579  32.874  27.360  1.00  0.00     0.118 C 
BRANCH  32  33
ATOM     33  N   UNL A   1      32.371  34.285  27.679  1.00  0.00    -0.352 N 
ATOM     34  C   UNL A   1      32.952  35.072  28.644  1.00  0.00     0.251 C 
ATOM     35  H   UNL A   1      31.709  34.744  27.114  1.00  0.00     0.163 HD
ATOM     36  O   UNL A   1      32.474  36.169  28.914  1.00  0.00    -0.269 OA
BRANCH  34  37
ATOM     37  C   UNL A   1      34.140  34.584  29.371  1.00  0.00     0.039 A 
ATOM     38  C   UNL A   1      35.406  34.705  28.800  1.00  0.00     0.014 A 
ATOM     39  C   UNL A   1      33.990  33.986  30.625  1.00  0.00     0.014 A 
ATOM     40  C   UNL A   1      36.481  34.045  29.374  1.00  0.00     0.010 A 
ATOM     41  C   UNL A   1      35.100  33.425  31.262  1.00  0.00     0.010 A 
ATOM     42  C   UNL A   1      36.345  33.400  30.613  1.00  0.00    -0.014 A 
BRANCH  42  43
ATOM     43  C   UNL A   1      37.522  32.706  31.195  1.00  0.00     0.031 A 
ATOM     44  C   UNL A   1      37.994  33.028  32.587  1.00  0.00     0.074 A 
ATOM     45  C   UNL A   1      38.110  31.720  30.491  1.00  0.00     0.049 A 
ATOM     46  N   UNL A   1      38.989  32.506  33.260  1.00  0.00    -0.248 NA
ATOM     47  C   UNL A   1      37.259  34.069  33.322  1.00  0.00     0.031 C 
ATOM     48  C   UNL A   1      37.719  31.304  29.141  1.00  0.00     0.029 A 
ATOM     49  N   UNL A   1      39.125  30.860  30.820  1.00  0.00    -0.354 N 
ATOM     50  C   UNL A   1      39.011  33.167  34.481  1.00  0.00     0.074 A 
ATOM     51  C   UNL A   1      37.950  34.149  34.451  1.00  0.00     0.031 C 
ATOM     52  C   UNL A   1      38.428  30.222  28.791  1.00  0.00     0.029 A 
ATOM     53  C   UNL A   1      39.381  29.919  29.853  1.00  0.00     0.049 A 
ATOM     54  H   UNL A   1      39.623  30.911  31.668  1.00  0.00     0.167 HD
ATOM     55  C   UNL A   1      39.836  32.962  35.536  1.00  0.00     0.037 A 
ATOM     56  C   UNL A   1      40.291  28.929  29.815  1.00  0.00     0.037 A 
ATOM     57  C   UNL A   1      40.871  31.963  35.571  1.00  0.00     0.049 A 
ATOM     58  C   UNL A   1      41.226  28.761  30.977  1.00  0.00     0.074 A 
ATOM     59  C   UNL A   1      41.758  31.674  36.593  1.00  0.00     0.029 A 
ATOM     60  N   UNL A   1      41.152  31.080  34.537  1.00  0.00    -0.354 N 
ATOM     61  N   UNL A   1      41.253  29.410  32.116  1.00  0.00    -0.248 NA
ATOM     62  C   UNL A   1      42.271  27.739  30.842  1.00  0.00     0.031 C 
ATOM     63  C   UNL A   1      42.601  30.645  36.164  1.00  0.00     0.029 A 
ATOM     64  C   UNL A   1      42.210  30.259  34.892  1.00  0.00     0.049 A 
ATOM     65  H   UNL A   1      40.671  31.044  33.679  1.00  0.00     0.167 HD
ATOM     66  C   UNL A   1      42.309  28.873  32.835  1.00  0.00     0.074 A 
ATOM     67  C   UNL A   1      42.884  27.825  32.015  1.00  0.00     0.031 C 
ATOM     68  C   UNL A   1      42.767  29.222  34.062  1.00  0.00     0.037 A 
BRANCH  55  69
ATOM     69  C   UNL A   1      39.663  33.835  36.745  1.00  0.00     0.064 A 
ATOM     70  C   UNL A   1      40.244  35.110  36.820  1.00  0.00     0.173 A 
ATOM     71  C   UNL A   1      38.849  33.421  37.810  1.00  0.00     0.173 A 
ATOM     72  F   UNL A   1      41.041  35.548  35.834  1.00  0.00    -0.203 F 
ATOM     73  C   UNL A   1      40.026  35.933  37.922  1.00  0.00     0.198 A 
ATOM     74  C   UNL A   1      38.612  34.257  38.900  1.00  0.00     0.198 A 
ATOM     75  F   UNL A   1      38.266  32.214  37.786  1.00  0.00    -0.203 F 
ATOM     76  F   UNL A   1      40.617  37.133  37.987  1.00  0.00    -0.200 F 
ATOM     77  C   UNL A   1      39.203  35.510  38.956  1.00  0.00     0.200 A 
ATOM     78  F   UNL A   1      37.807  33.852  39.891  1.00  0.00    -0.200 F 
ATOM     79  F   UNL A   1      38.982  36.310  40.009  1.00  0.00    -0.200 F 
ENDBRANCH  55  69
BRANCH  56  80
ATOM     80  C   UNL A   1      40.357  28.032  28.633  1.00  0.00     0.064 A 
ATOM     81  C   UNL A   1      41.100  28.389  27.502  1.00  0.00     0.173 A 
ATOM     82  C   UNL A   1      39.709  26.787  28.624  1.00  0.00     0.173 A 
ATOM     83  F   UNL A   1      41.721  29.577  27.455  1.00  0.00    -0.203 F 
ATOM     84  C   UNL A   1      41.190  27.536  26.402  1.00  0.00     0.198 A 
ATOM     85  C   UNL A   1      39.825  25.923  27.539  1.00  0.00     0.198 A 
ATOM     86  F   UNL A   1      38.988  26.398  29.685  1.00  0.00    -0.203 F 
ATOM     87  F   UNL A   1      41.884  27.914  25.320  1.00  0.00    -0.200 F 
ATOM     88  C   UNL A   1      40.562  26.300  26.426  1.00  0.00     0.200 A 
ATOM     89  F   UNL A   1      39.232  24.722  27.574  1.00  0.00    -0.200 F 
ATOM     90  F   UNL A   1      40.664  25.474  25.376  1.00  0.00    -0.200 F 
ENDBRANCH  56  80
BRANCH  68  91
ATOM     91  C   UNL A   1      43.941  28.460  34.599  1.00  0.00     0.064 A 
ATOM     92  C   UNL A   1      45.253  28.917  34.415  1.00  0.00     0.173 A 
ATOM     93  C   UNL A   1      43.747  27.296  35.357  1.00  0.00     0.173 A 
ATOM     94  F   UNL A   1      45.488  30.017  33.683  1.00  0.00    -0.203 F 
ATOM     95  C   UNL A   1      46.332  28.227  34.960  1.00  0.00     0.198 A 
ATOM     96  C   UNL A   1      44.826  26.624  35.923  1.00  0.00     0.198 A 
ATOM     97  F   UNL A   1      42.509  26.823  35.566  1.00  0.00    -0.203 F 
ATOM     98  F   UNL A   1      47.581  28.662  34.742  1.00  0.00    -0.200 F 
ATOM     99  C   UNL A   1      46.117  27.089  35.720  1.00  0.00     0.200 A 
ATOM    100  F   UNL A   1      44.616  25.532  36.669  1.00  0.00    -0.200 F 
ATOM    101  F   UNL A   1      47.157  26.433  36.256  1.00  0.00    -0.200 F 
ENDBRANCH  68  91
ENDBRANCH  42  43
ENDBRANCH  34  37
ENDBRANCH  32  33
ENDBRANCH   1  32
TORSDOF 13
ENDMDL
MODEL 2
REMARK VINA RESULT:     -13.9      5.352     11.129
REMARK SMILES C[C@@H]1CCC[C@H](C)[N@H+]1Cc1cc2c(cc1Cl)C=C(C(=O)NCCCNC(=O)c1ccc(-c3c4nc(c(-c5c(F)c(F)c(F)c(F)c5F)c5ccc([nH]5)c(-c5c(F)c(F)c(F)c(F)c5F)c5nc(c(-c6c(F)c(F)c(F)c(F)c6F)c6ccc3[nH]6)C=C5)C=C4)cc1)[C@@H](C(F)(F)F)O2
REMARK SMILES IDX 23 1 22 2 21 3 19 4 20 5 18 7 10 8 11 9 15 10 12 11 14 12
REMARK SMILES IDX 16 13 13 14 96 15 17 16 91 17 9 18 8 19 7 20 6 21 5 22 4 23
REMARK SMILES IDX 2 24 3 26 1 27 92 28 93 29 94 30 95 31 24 32 25 33 26 34
REMARK SMILES IDX 27 36 28 37 29 38 90 39 30 40 89 41 31 42 32 43 33 44 83 45
REMARK SMILES IDX 34 46 88 47 82 48 84 49 35 50 87 51 81 52 80 53 36 55 68 56
REMARK SMILES IDX 48 57 67 58 49 59 52 60 66 61 85 62 50 63 51 64 65 66 86 67
REMARK SMILES IDX 53 68 37 69 38 70 46 71 39 72 40 73 44 74 47 75 41 76 42 77
REMARK SMILES IDX 45 78 43 79 69 80 70 81 78 82 71 83 72 84 76 85 79 86 73 87
REMARK SMILES IDX 74 88 77 89 75 90 54 91 55 92 63 93 56 94 57 95 61 96 64 97
REMARK SMILES IDX 58 98 59 99 62 100 60 101
REMARK H PARENT 21 6 8 25 25 35 84 54 52 65
REMARK Flexibility Score: inf
ROOT
ATOM      1  C   UNL A   1      38.157  19.364  25.116  1.00  0.00     0.042 C 
ENDROOT
BRANCH   1   2
ATOM      2  C   UNL A   1      37.086  20.436  25.004  1.00  0.00     0.118 C 
BRANCH   2   3
ATOM      3  N   UNL A   1      35.752  19.858  25.009  1.00  0.00    -0.352 N 
ATOM      4  C   UNL A   1      34.483  20.321  24.995  1.00  0.00     0.251 C 
ATOM      5  O   UNL A   1      33.604  19.453  24.978  1.00  0.00    -0.270 OA
ATOM      6  H   UNL A   1      35.782  18.874  25.028  1.00  0.00     0.163 HD
BRANCH   4   7
ATOM      7  C   UNL A   1      34.104  21.757  25.016  1.00  0.00     0.067 C 
ATOM      8  C   UNL A   1      31.701  26.031  26.143  1.00  0.00     0.029 A 
ATOM      9  C   UNL A   1      33.053  25.659  26.048  1.00  0.00     0.058 A 
ATOM     10  C   UNL A   1      30.733  25.131  25.665  1.00  0.00     0.050 A 
ATOM     11  C   UNL A   1      33.399  24.369  25.669  1.00  0.00     0.128 A 
ATOM     12  C   UNL A   1      31.083  23.817  25.338  1.00  0.00     0.033 A 
ATOM     13  Cl  UNL A   1      29.071  25.561  25.476  1.00  0.00    -0.084 Cl
ATOM     14  C   UNL A   1      32.414  23.420  25.395  1.00  0.00     0.019 A 
ATOM     15  O   UNL A   1      34.732  24.059  25.650  1.00  0.00    -0.475 OA
ATOM     16  C   UNL A   1      32.807  22.022  25.259  1.00  0.00     0.025 C 
ATOM     17  C   UNL A   1      35.055  22.904  24.825  1.00  0.00     0.314 C 
BRANCH   8  18
ATOM     18  C   UNL A   1      31.365  27.322  26.863  1.00  0.00     0.301 C 
BRANCH  18  19
ATOM     19  N   UNL A   1      31.596  28.572  26.100  1.00  0.00    -0.327 N 
ATOM     20  C   UNL A   1      30.510  29.806  24.249  1.00  0.00     0.075 C 
ATOM     21  C   UNL A   1      31.238  28.522  24.672  1.00  0.00     0.181 C 
ATOM     22  C   UNL A   1      32.415  28.241  23.720  1.00  0.00     0.065 C 
ATOM     23  C   UNL A   1      33.646  29.082  24.021  1.00  0.00     0.012 C 
ATOM     24  C   UNL A   1      32.845  29.273  26.439  1.00  0.00     0.181 C 
ATOM     25  H   UNL A   1      30.882  29.209  26.455  1.00  0.00     0.348 HD
ATOM     26  C   UNL A   1      34.020  28.978  25.492  1.00  0.00     0.065 C 
ATOM     27  C   UNL A   1      32.622  30.785  26.573  1.00  0.00     0.075 C 
ENDBRANCH  18  19
ENDBRANCH   8  18
BRANCH  17  28
ATOM     28  C   UNL A   1      35.170  23.312  23.338  1.00  0.00     0.429 C 
ATOM     29  F   UNL A   1      34.187  22.730  22.609  1.00  0.00    -0.167 F 
ATOM     30  F   UNL A   1      35.038  24.652  23.164  1.00  0.00    -0.167 F 
ATOM     31  F   UNL A   1      36.350  22.968  22.778  1.00  0.00    -0.167 F 
ENDBRANCH  17  28
ENDBRANCH   4   7
ENDBRANCH   2   3
ENDBRANCH   1   2
BRANCH   1  32
ATOM     32  C   UNL A   1      39.431  19.897  25.754  1.00  0.00     0.118 C 
BRANCH  32  33
ATOM     33  N   UNL A   1      40.436  18.849  25.924  1.00  0.00    -0.352 N 
ATOM     34  C   UNL A   1      41.796  18.944  26.094  1.00  0.00     0.251 C 
ATOM     35  H   UNL A   1      40.083  17.931  25.913  1.00  0.00     0.163 HD
ATOM     36  O   UNL A   1      42.502  17.946  25.979  1.00  0.00    -0.269 OA
BRANCH  34  37
ATOM     37  C   UNL A   1      42.409  20.252  26.395  1.00  0.00     0.039 A 
ATOM     38  C   UNL A   1      42.358  20.766  27.690  1.00  0.00     0.014 A 
ATOM     39  C   UNL A   1      43.026  20.981  25.375  1.00  0.00     0.014 A 
ATOM     40  C   UNL A   1      42.723  22.083  27.919  1.00  0.00     0.010 A 
ATOM     41  C   UNL A   1      43.506  22.267  25.637  1.00  0.00     0.010 A 
ATOM     42  C   UNL A   1      43.307  22.850  26.898  1.00  0.00    -0.014 A 
BRANCH  42  43
ATOM     43  C   UNL A   1      43.688  24.257  27.185  1.00  0.00     0.031 A 
ATOM     44  C   UNL A   1      45.064  24.763  26.852  1.00  0.00     0.074 A 
ATOM     45  C   UNL A   1      42.753  25.098  27.666  1.00  0.00     0.049 A 
ATOM     46  N   UNL A   1      45.560  25.965  27.014  1.00  0.00    -0.248 NA
ATOM     47  C   UNL A   1      46.011  23.803  26.264  1.00  0.00     0.031 C 
ATOM     48  C   UNL A   1      41.376  24.723  28.001  1.00  0.00     0.029 A 
ATOM     49  N   UNL A   1      42.798  26.445  27.918  1.00  0.00    -0.354 N 
ATOM     50  C   UNL A   1      46.875  25.897  26.571  1.00  0.00     0.074 A 
ATOM     51  C   UNL A   1      47.113  24.532  26.158  1.00  0.00     0.031 C 
ATOM     52  C   UNL A   1      40.688  25.823  28.335  1.00  0.00     0.029 A 
ATOM     53  C   UNL A   1      41.593  26.966  28.322  1.00  0.00     0.049 A 
ATOM     54  H   UNL A   1      43.614  26.986  27.820  1.00  0.00     0.167 HD
ATOM     55  C   UNL A   1      47.794  26.890  26.502  1.00  0.00     0.037 A 
ATOM     56  C   UNL A   1      41.254  28.224  28.660  1.00  0.00     0.037 A 
ATOM     57  C   UNL A   1      47.541  28.254  26.888  1.00  0.00     0.049 A 
ATOM     58  C   UNL A   1      42.308  29.292  28.625  1.00  0.00     0.074 A 
ATOM     59  C   UNL A   1      48.405  29.334  26.854  1.00  0.00     0.029 A 
ATOM     60  N   UNL A   1      46.328  28.727  27.369  1.00  0.00    -0.354 N 
ATOM     61  N   UNL A   1      43.554  29.209  28.227  1.00  0.00    -0.248 NA
ATOM     62  C   UNL A   1      41.917  30.623  29.106  1.00  0.00     0.031 C 
ATOM     63  C   UNL A   1      47.728  30.452  27.351  1.00  0.00     0.029 A 
ATOM     64  C   UNL A   1      46.428  30.080  27.652  1.00  0.00     0.049 A 
ATOM     65  H   UNL A   1      45.517  28.182  27.491  1.00  0.00     0.167 HD
ATOM     66  C   UNL A   1      44.094  30.473  28.402  1.00  0.00     0.074 A 
ATOM     67  C   UNL A   1      43.033  31.314  28.919  1.00  0.00     0.031 C 
ATOM     68  C   UNL A   1      45.359  30.898  28.164  1.00  0.00     0.037 A 
BRANCH  55  69
ATOM     69  C   UNL A   1      49.165  26.546  25.997  1.00  0.00     0.064 A 
ATOM     70  C   UNL A   1      49.551  26.819  24.677  1.00  0.00     0.173 A 
ATOM     71  C   UNL A   1      50.126  26.002  26.863  1.00  0.00     0.173 A 
ATOM     72  F   UNL A   1      48.666  27.327  23.805  1.00  0.00    -0.203 F 
ATOM     73  C   UNL A   1      50.845  26.550  24.239  1.00  0.00     0.198 A 
ATOM     74  C   UNL A   1      51.427  25.758  26.429  1.00  0.00     0.198 A 
ATOM     75  F   UNL A   1      49.810  25.727  28.137  1.00  0.00    -0.203 F 
ATOM     76  F   UNL A   1      51.183  26.789  22.964  1.00  0.00    -0.200 F 
ATOM     77  C   UNL A   1      51.784  26.029  25.117  1.00  0.00     0.200 A 
ATOM     78  F   UNL A   1      52.336  25.267  27.283  1.00  0.00    -0.200 F 
ATOM     79  F   UNL A   1      53.034  25.785  24.698  1.00  0.00    -0.200 F 
ENDBRANCH  55  69
BRANCH  56  80
ATOM     80  C   UNL A   1      39.857  28.529  29.061  1.00  0.00     0.064 A 
ATOM     81  C   UNL A   1      39.433  28.340  30.382  1.00  0.00     0.173 A 
ATOM     82  C   UNL A   1      38.929  29.046  28.144  1.00  0.00     0.173 A 
ATOM     83  F   UNL A   1      40.277  27.830  31.291  1.00  0.00    -0.203 F 
ATOM     84  C   UNL A   1      38.131  28.655  30.771  1.00  0.00     0.198 A 
ATOM     85  C   UNL A   1      37.639  29.389  28.540  1.00  0.00     0.198 A 
ATOM     86  F   UNL A   1      39.288  29.248  26.868  1.00  0.00    -0.203 F 
ATOM     87  F   UNL A   1      37.742  28.438  32.035  1.00  0.00    -0.200 F 
ATOM     88  C   UNL A   1      37.240  29.188  29.852  1.00  0.00     0.200 A 
ATOM     89  F   UNL A   1      36.787  29.922  27.654  1.00  0.00    -0.200 F 
ATOM     90  F   UNL A   1      35.994  29.507  30.232  1.00  0.00    -0.200 F 
ENDBRANCH  56  80
BRANCH  68  91
ATOM     91  C   UNL A   1      45.665  32.338  28.450  1.00  0.00     0.064 A 
ATOM     92  C   UNL A   1      45.468  33.331  27.480  1.00  0.00     0.173 A 
ATOM     93  C   UNL A   1      46.096  32.734  29.723  1.00  0.00     0.173 A 
ATOM     94  F   UNL A   1      45.071  32.997  26.243  1.00  0.00    -0.203 F 
ATOM     95  C   UNL A   1      45.709  34.670  27.772  1.00  0.00     0.198 A 
ATOM     96  C   UNL A   1      46.310  34.077  30.019  1.00  0.00     0.198 A 
ATOM     97  F   UNL A   1      46.292  31.821  30.686  1.00  0.00    -0.203 F 
ATOM     98  F   UNL A   1      45.549  35.600  26.820  1.00  0.00    -0.200 F 
ATOM     99  C   UNL A   1      46.120  35.043  29.042  1.00  0.00     0.200 A 
ATOM    100  F   UNL A   1      46.694  34.437  31.251  1.00  0.00    -0.200 F 
ATOM    101  F   UNL A   1      46.337  36.334  29.326  1.00  0.00    -0.200 F 
ENDBRANCH  68  91
ENDBRANCH  42  43
ENDBRANCH  34  37
ENDBRANCH  32  33
ENDBRANCH   1  32
TORSDOF 13
ENDMDL
MODEL 3
REMARK VINA RESULT:     -13.8      1.346      7.345
REMARK SMILES C[C@@H]1CCC[C@H](C)[N@H+]1Cc1cc2c(cc1Cl)C=C(C(=O)NCCCNC(=O)c1ccc(-c3c4nc(c(-c5c(F)c(F)c(F)c(F)c5F)c5ccc([nH]5)c(-c5c(F)c(F)c(F)c(F)c5F)c5nc(c(-c6c(F)c(F)c(F)c(F)c6F)c6ccc3[nH]6)C=C5)C=C4)cc1)[C@@H](C(F)(F)F)O2
REMARK SMILES IDX 23 1 22 2 21 3 19 4 20 5 18 7 10 8 11 9 15 10 12 11 14 12
REMARK SMILES IDX 16 13 13 14 96 15 17 16 91 17 9 18 8 19 7 20 6 21 5 22 4 23
REMARK SMILES IDX 2 24 3 26 1 27 92 28 93 29 94 30 95 31 24 32 25 33 26 34
REMARK SMILES IDX 27 36 28 37 29 38 90 39 30 40 89 41 31 42 32 43 33 44 83 45
REMARK SMILES IDX 34 46 88 47 82 48 84 49 35 50 87 51 81 52 80 53 36 55 68 56
REMARK SMILES IDX 48 57 67 58 49 59 52 60 66 61 85 62 50 63 51 64 65 66 86 67
REMARK SMILES IDX 53 68 37 69 38 70 46 71 39 72 40 73 44 74 47 75 41 76 42 77
REMARK SMILES IDX 45 78 43 79 69 80 70 81 78 82 71 83 72 84 76 85 79 86 73 87
REMARK SMILES IDX 74 88 77 89 75 90 54 91 55 92 63 93 56 94 57 95 61 96 64 97
REMARK SMILES IDX 58 98 59 99 62 100 60 101
REMARK H PARENT 21 6 8 25 25 35 84 54 52 65
REMARK Flexibility Score: inf
ROOT
ATOM      1  C   UNL A   1      31.433  32.172  26.756  1.00  0.00     0.042 C 
ENDROOT
BRANCH   1   2
ATOM      2  C   UNL A   1      31.690  30.759  26.261  1.00  0.00     0.118 C 
BRANCH   2   3
ATOM      3  N   UNL A   1      31.028  30.512  24.990  1.00  0.00    -0.352 N 
ATOM      4  C   UNL A   1      30.806  29.445  24.191  1.00  0.00     0.251 C 
ATOM      5  O   UNL A   1      30.150  29.677  23.171  1.00  0.00    -0.270 OA
ATOM      6  H   UNL A   1      30.644  31.337  24.614  1.00  0.00     0.163 HD
BRANCH   4   7
ATOM      7  C   UNL A   1      31.303  28.071  24.454  1.00  0.00     0.067 C 
ATOM      8  C   UNL A   1      31.390  23.085  25.123  1.00  0.00     0.029 A 
ATOM      9  C   UNL A   1      32.176  23.993  24.394  1.00  0.00     0.058 A 
ATOM     10  C   UNL A   1      30.460  23.605  26.041  1.00  0.00     0.050 A 
ATOM     11  C   UNL A   1      31.904  25.354  24.445  1.00  0.00     0.128 A 
ATOM     12  C   UNL A   1      30.154  24.970  26.048  1.00  0.00     0.033 A 
ATOM     13  Cl  UNL A   1      29.625  22.617  27.186  1.00  0.00    -0.084 Cl
ATOM     14  C   UNL A   1      30.840  25.838  25.205  1.00  0.00     0.019 A 
ATOM     15  O   UNL A   1      32.674  26.175  23.667  1.00  0.00    -0.475 OA
ATOM     16  C   UNL A   1      30.428  27.225  25.029  1.00  0.00     0.025 C 
ATOM     17  C   UNL A   1      32.672  27.565  24.098  1.00  0.00     0.314 C 
BRANCH   8  18
ATOM     18  C   UNL A   1      31.505  21.611  24.791  1.00  0.00     0.301 C 
BRANCH  18  19
ATOM     19  N   UNL A   1      32.467  20.832  25.608  1.00  0.00    -0.327 N 
ATOM     20  C   UNL A   1      33.904  21.212  27.587  1.00  0.00     0.075 C 
ATOM     21  C   UNL A   1      33.620  21.588  26.126  1.00  0.00     0.181 C 
ATOM     22  C   UNL A   1      34.905  21.462  25.286  1.00  0.00     0.065 C 
ATOM     23  C   UNL A   1      35.229  20.029  24.894  1.00  0.00     0.012 C 
ATOM     24  C   UNL A   1      32.743  19.478  25.101  1.00  0.00     0.181 C 
ATOM     25  H   UNL A   1      31.957  20.645  26.471  1.00  0.00     0.348 HD
ATOM     26  C   UNL A   1      34.021  19.362  24.253  1.00  0.00     0.065 C 
ATOM     27  C   UNL A   1      32.749  18.445  26.236  1.00  0.00     0.075 C 
ENDBRANCH  18  19
ENDBRANCH   8  18
BRANCH  17  28
ATOM     28  C   UNL A   1      33.681  27.779  25.251  1.00  0.00     0.429 C 
ATOM     29  F   UNL A   1      34.383  28.922  25.060  1.00  0.00    -0.167 F 
ATOM     30  F   UNL A   1      33.064  27.900  26.454  1.00  0.00    -0.167 F 
ATOM     31  F   UNL A   1      34.571  26.771  25.377  1.00  0.00    -0.167 F 
ENDBRANCH  17  28
ENDBRANCH   4   7
ENDBRANCH   2   3
ENDBRANCH   1   2
BRANCH   1  32
ATOM     32  C   UNL A   1      32.693  32.819  27.312  1.00  0.00     0.118 C 
BRANCH  32  33
ATOM     33  N   UNL A   1      32.496  34.237  27.605  1.00  0.00    -0.352 N 
ATOM     34  C   UNL A   1      33.012  35.015  28.612  1.00  0.00     0.251 C 
ATOM     35  H   UNL A   1      31.898  34.708  26.982  1.00  0.00     0.163 HD
ATOM     36  O   UNL A   1      32.542  36.127  28.834  1.00  0.00    -0.269 OA
BRANCH  34  37
ATOM     37  C   UNL A   1      34.119  34.502  29.442  1.00  0.00     0.039 A 
ATOM     38  C   UNL A   1      35.430  34.564  28.972  1.00  0.00     0.014 A 
ATOM     39  C   UNL A   1      33.847  33.940  30.692  1.00  0.00     0.014 A 
ATOM     40  C   UNL A   1      36.431  33.878  29.643  1.00  0.00     0.010 A 
ATOM     41  C   UNL A   1      34.882  33.354  31.427  1.00  0.00     0.010 A 
ATOM     42  C   UNL A   1      36.172  33.269  30.881  1.00  0.00    -0.014 A 
BRANCH  42  43
ATOM     43  C   UNL A   1      37.273  32.547  31.569  1.00  0.00     0.031 A 
ATOM     44  C   UNL A   1      38.045  31.467  30.861  1.00  0.00     0.074 A 
ATOM     45  C   UNL A   1      37.629  32.934  32.809  1.00  0.00     0.049 A 
ATOM     46  N   UNL A   1      39.049  30.750  31.301  1.00  0.00    -0.248 NA
ATOM     47  C   UNL A   1      37.643  31.147  29.482  1.00  0.00     0.031 C 
ATOM     48  C   UNL A   1      36.968  33.988  33.583  1.00  0.00     0.029 A 
ATOM     49  N   UNL A   1      38.654  32.523  33.621  1.00  0.00    -0.354 N 
ATOM     50  C   UNL A   1      39.380  29.884  30.267  1.00  0.00     0.074 A 
ATOM     51  C   UNL A   1      38.456  30.142  29.185  1.00  0.00     0.031 C 
ATOM     52  C   UNL A   1      37.649  34.196  34.717  1.00  0.00     0.029 A 
ATOM     53  C   UNL A   1      38.743  33.235  34.792  1.00  0.00     0.049 A 
ATOM     54  H   UNL A   1      39.267  31.789  33.387  1.00  0.00     0.167 HD
ATOM     55  C   UNL A   1      40.375  28.966  30.222  1.00  0.00     0.037 A 
ATOM     56  C   UNL A   1      39.602  33.119  35.822  1.00  0.00     0.037 A 
ATOM     57  C   UNL A   1      41.311  28.735  31.292  1.00  0.00     0.049 A 
ATOM     58  C   UNL A   1      40.661  32.056  35.766  1.00  0.00     0.074 A 
ATOM     59  C   UNL A   1      42.356  27.829  31.343  1.00  0.00     0.029 A 
ATOM     60  N   UNL A   1      41.319  29.423  32.498  1.00  0.00    -0.354 N 
ATOM     61  N   UNL A   1      40.948  31.228  34.792  1.00  0.00    -0.248 NA
ATOM     62  C   UNL A   1      41.502  31.898  36.959  1.00  0.00     0.031 C 
ATOM     63  C   UNL A   1      42.972  27.942  32.593  1.00  0.00     0.029 A 
ATOM     64  C   UNL A   1      42.340  28.949  33.305  1.00  0.00     0.049 A 
ATOM     65  H   UNL A   1      40.690  30.140  32.742  1.00  0.00     0.167 HD
ATOM     66  C   UNL A   1      42.004  30.455  35.249  1.00  0.00     0.074 A 
ATOM     67  C   UNL A   1      42.325  30.931  36.579  1.00  0.00     0.031 C 
ATOM     68  C   UNL A   1      42.644  29.437  34.625  1.00  0.00     0.037 A 
BRANCH  55  69
ATOM     69  C   UNL A   1      40.510  28.134  28.980  1.00  0.00     0.064 A 
ATOM     70  C   UNL A   1      39.805  26.932  28.821  1.00  0.00     0.173 A 
ATOM     71  C   UNL A   1      41.298  28.579  27.908  1.00  0.00     0.173 A 
ATOM     72  F   UNL A   1      39.048  26.455  29.821  1.00  0.00    -0.203 F 
ATOM     73  C   UNL A   1      39.893  26.200  27.640  1.00  0.00     0.198 A 
ATOM     74  C   UNL A   1      41.365  27.858  26.718  1.00  0.00     0.198 A 
ATOM     75  F   UNL A   1      41.989  29.724  28.007  1.00  0.00    -0.203 F 
ATOM     76  F   UNL A   1      39.236  25.038  27.522  1.00  0.00    -0.200 F 
ATOM     77  C   UNL A   1      40.665  26.669  26.586  1.00  0.00     0.200 A 
ATOM     78  F   UNL A   1      42.100  28.319  25.696  1.00  0.00    -0.200 F 
ATOM     79  F   UNL A   1      40.737  25.971  25.443  1.00  0.00    -0.200 F 
ENDBRANCH  55  69
BRANCH  56  80
ATOM     80  C   UNL A   1      39.484  34.033  36.987  1.00  0.00     0.064 A 
ATOM     81  C   UNL A   1      38.777  33.647  38.133  1.00  0.00     0.173 A 
ATOM     82  C   UNL A   1      40.102  35.293  36.993  1.00  0.00     0.173 A 
ATOM     83  F   UNL A   1      38.152  32.460  38.167  1.00  0.00    -0.203 F 
ATOM     84  C   UNL A   1      38.689  34.489  39.241  1.00  0.00     0.198 A 
ATOM     85  C   UNL A   1      40.040  36.119  38.112  1.00  0.00     0.198 A 
ATOM     86  F   UNL A   1      40.793  35.706  35.922  1.00  0.00    -0.203 F 
ATOM     87  F   UNL A   1      37.983  34.107  40.314  1.00  0.00    -0.200 F 
ATOM     88  C   UNL A   1      39.330  35.719  39.233  1.00  0.00     0.200 A 
ATOM     89  F   UNL A   1      40.676  37.298  38.107  1.00  0.00    -0.200 F 
ATOM     90  F   UNL A   1      39.260  36.519  40.306  1.00  0.00    -0.200 F 
ENDBRANCH  56  80
BRANCH  68  91
ATOM     91  C   UNL A   1      43.764  28.773  35.368  1.00  0.00     0.064 A 
ATOM     92  C   UNL A   1      45.083  29.235  35.264  1.00  0.00     0.173 A 
ATOM     93  C   UNL A   1      43.505  27.706  36.241  1.00  0.00     0.173 A 
ATOM     94  F   UNL A   1      45.381  30.243  34.430  1.00  0.00    -0.203 F 
ATOM     95  C   UNL A   1      46.107  28.642  35.996  1.00  0.00     0.198 A 
ATOM     96  C   UNL A   1      44.527  27.133  36.992  1.00  0.00     0.198 A 
ATOM     97  F   UNL A   1      42.257  27.233  36.380  1.00  0.00    -0.203 F 
ATOM     98  F   UNL A   1      47.367  29.076  35.854  1.00  0.00    -0.200 F 
ATOM     99  C   UNL A   1      45.827  27.599  36.866  1.00  0.00     0.200 A 
ATOM    100  F   UNL A   1      44.252  26.135  37.842  1.00  0.00    -0.200 F 
ATOM    101  F   UNL A   1      46.812  27.038  37.581  1.00  0.00    -0.200 F 
ENDBRANCH  68  91
ENDBRANCH  42  43
ENDBRANCH  34  37
ENDBRANCH  32  33
ENDBRANCH   1  32
TORSDOF 13
ENDMDL
