MODEL 1
REMARK VINA RESULT:     -10.5      0.000      0.000
REMARK SMILES C[C@H]1CC[C@@](C[C@@H]2CCCc3ccccc32)(C(=O)NCCCNC(=O)c2ccc(-c3c4nc(c(-c5c(F)c(F)c(F)c(F)c5F)c5ccc([nH]5)c(-c5c(F)c(F)c(F)c(F)c5F)c5nc(c(-c6c(F)c(F)c(F)c(F)c6F)c6ccc3[nH]6)C=C5)C=C4)cc2)C1
REMARK SMILES IDX 21 1 20 2 19 3 17 4 18 5 5 7 1 8 2 9 3 10 89 11 4 12 6 13
REMARK SMILES IDX 7 14 8 15 16 16 9 17 11 18 15 19 10 20 12 21 14 22 13 23
REMARK SMILES IDX 22 24 23 25 24 26 25 28 26 29 27 30 88 31 28 32 87 33 29 34
REMARK SMILES IDX 30 35 31 36 81 37 32 38 86 39 80 40 82 41 33 42 85 43 79 44
REMARK SMILES IDX 78 45 34 47 66 48 46 49 65 50 47 51 50 52 64 53 83 54 48 55
REMARK SMILES IDX 49 56 63 58 84 59 51 60 35 61 36 62 44 63 37 64 38 65 42 66
REMARK SMILES IDX 45 67 39 68 40 69 43 70 41 71 67 72 68 73 76 74 69 75 70 76
REMARK SMILES IDX 74 77 77 78 71 79 72 80 75 81 73 82 52 83 53 84 61 85 54 86
REMARK SMILES IDX 55 87 59 88 62 89 56 90 57 91 60 92 58 93
REMARK H PARENT 19 6 23 27 82 46 50 57
REMARK Flexibility Score: inf
ROOT
ATOM      1  C   UNL A   1      45.214  20.672  23.915  1.00  0.00     0.042 C 
ENDROOT
BRANCH   1   2
ATOM      2  C   UNL A   1      44.991  22.195  23.889  1.00  0.00     0.117 C 
BRANCH   2   3
ATOM      3  N   UNL A   1      46.172  23.050  23.879  1.00  0.00    -0.356 N 
ATOM      4  C   UNL A   1      46.634  23.575  25.069  1.00  0.00     0.226 C 
ATOM      5  O   UNL A   1      46.419  22.953  26.113  1.00  0.00    -0.274 OA
ATOM      6  H   UNL A   1      46.633  23.252  23.033  1.00  0.00     0.163 HD
BRANCH   4   7
ATOM      7  C   UNL A   1      47.260  25.017  25.099  1.00  0.00     0.050 C 
ATOM      8  C   UNL A   1      50.913  25.908  25.943  1.00  0.00     0.007 C 
ATOM      9  C   UNL A   1      49.433  26.074  25.609  1.00  0.00    -0.013 C 
ATOM     10  C   UNL A   1      49.144  26.326  24.133  1.00  0.00     0.004 C 
ATOM     11  C   UNL A   1      48.595  24.839  25.910  1.00  0.00     0.020 C 
ATOM     12  C   UNL A   1      47.819  25.613  23.801  1.00  0.00     0.017 C 
BRANCH   7  13
ATOM     13  C   UNL A   1      46.331  26.005  25.901  1.00  0.00     0.025 C 
BRANCH  13  14
ATOM     14  C   UNL A   1      45.731  27.351  25.379  1.00  0.00     0.020 C 
ATOM     15  C   UNL A   1      46.638  28.566  25.323  1.00  0.00     0.009 C 
ATOM     16  C   UNL A   1      44.362  27.826  25.839  1.00  0.00    -0.042 A 
ATOM     17  C   UNL A   1      46.739  29.322  26.642  1.00  0.00     0.005 C 
ATOM     18  C   UNL A   1      44.219  28.973  26.649  1.00  0.00    -0.045 A 
ATOM     19  C   UNL A   1      43.219  27.289  25.224  1.00  0.00     0.004 A 
ATOM     20  C   UNL A   1      45.393  29.703  27.239  1.00  0.00     0.036 C 
ATOM     21  C   UNL A   1      42.950  29.540  26.841  1.00  0.00     0.004 A 
ATOM     22  C   UNL A   1      41.972  27.902  25.375  1.00  0.00     0.000 A 
ATOM     23  C   UNL A   1      41.838  29.026  26.184  1.00  0.00     0.000 A 
ENDBRANCH  13  14
ENDBRANCH   7  13
ENDBRANCH   4   7
ENDBRANCH   2   3
ENDBRANCH   1   2
BRANCH   1  24
ATOM     24  C   UNL A   1      44.780  19.930  25.179  1.00  0.00     0.118 C 
BRANCH  24  25
ATOM     25  N   UNL A   1      43.359  19.611  25.052  1.00  0.00    -0.352 N 
ATOM     26  C   UNL A   1      42.259  19.939  25.799  1.00  0.00     0.251 C 
ATOM     27  H   UNL A   1      43.151  19.046  24.274  1.00  0.00     0.163 HD
ATOM     28  O   UNL A   1      41.313  19.152  25.789  1.00  0.00    -0.269 OA
BRANCH  26  29
ATOM     29  C   UNL A   1      42.103  21.228  26.521  1.00  0.00     0.039 A 
ATOM     30  C   UNL A   1      42.206  22.410  25.766  1.00  0.00     0.014 A 
ATOM     31  C   UNL A   1      42.103  21.317  27.914  1.00  0.00     0.014 A 
ATOM     32  C   UNL A   1      42.375  23.652  26.390  1.00  0.00     0.010 A 
ATOM     33  C   UNL A   1      42.227  22.566  28.541  1.00  0.00     0.010 A 
ATOM     34  C   UNL A   1      42.419  23.738  27.787  1.00  0.00    -0.014 A 
BRANCH  34  35
ATOM     35  C   UNL A   1      42.803  25.010  28.463  1.00  0.00     0.031 A 
ATOM     36  C   UNL A   1      41.755  26.066  28.716  1.00  0.00     0.074 A 
ATOM     37  C   UNL A   1      44.072  25.237  28.848  1.00  0.00     0.049 A 
ATOM     38  N   UNL A   1      41.888  27.282  29.187  1.00  0.00    -0.248 NA
ATOM     39  C   UNL A   1      40.371  25.708  28.370  1.00  0.00     0.031 C 
ATOM     40  C   UNL A   1      45.184  24.303  28.686  1.00  0.00     0.029 A 
ATOM     41  N   UNL A   1      44.642  26.334  29.451  1.00  0.00    -0.354 N 
ATOM     42  C   UNL A   1      40.617  27.843  29.156  1.00  0.00     0.074 A 
ATOM     43  C   UNL A   1      39.731  26.846  28.595  1.00  0.00     0.031 C 
ATOM     44  C   UNL A   1      46.300  24.860  29.185  1.00  0.00     0.029 A 
ATOM     45  C   UNL A   1      45.990  26.203  29.673  1.00  0.00     0.049 A 
ATOM     46  H   UNL A   1      44.129  27.136  29.700  1.00  0.00     0.167 HD
ATOM     47  C   UNL A   1      40.218  29.072  29.569  1.00  0.00     0.037 A 
ATOM     48  C   UNL A   1      46.875  27.069  30.204  1.00  0.00     0.037 A 
ATOM     49  C   UNL A   1      41.084  30.049  30.177  1.00  0.00     0.049 A 
ATOM     50  C   UNL A   1      46.409  28.424  30.667  1.00  0.00     0.074 A 
ATOM     51  C   UNL A   1      40.767  31.308  30.658  1.00  0.00     0.029 A 
ATOM     52  N   UNL A   1      42.440  29.865  30.403  1.00  0.00    -0.354 N 
ATOM     53  N   UNL A   1      45.206  28.942  30.633  1.00  0.00    -0.248 NA
ATOM     54  C   UNL A   1      47.427  29.312  31.250  1.00  0.00     0.031 C 
ATOM     55  C   UNL A   1      41.936  31.896  31.154  1.00  0.00     0.029 A 
ATOM     56  C   UNL A   1      42.974  30.989  31.015  1.00  0.00     0.049 A 
ATOM     57  H   UNL A   1      42.949  29.056  30.165  1.00  0.00     0.167 HD
ATOM     58  C   UNL A   1      45.314  30.199  31.214  1.00  0.00     0.074 A 
ATOM     59  C   UNL A   1      46.700  30.365  31.599  1.00  0.00     0.031 C 
ATOM     60  C   UNL A   1      44.350  31.131  31.411  1.00  0.00     0.037 A 
BRANCH  47  61
ATOM     61  C   UNL A   1      38.775  29.434  29.364  1.00  0.00     0.064 A 
ATOM     62  C   UNL A   1      38.246  29.661  28.085  1.00  0.00     0.173 A 
ATOM     63  C   UNL A   1      37.905  29.540  30.461  1.00  0.00     0.173 A 
ATOM     64  F   UNL A   1      39.037  29.582  27.004  1.00  0.00    -0.203 F 
ATOM     65  C   UNL A   1      36.911  30.021  27.915  1.00  0.00     0.198 A 
ATOM     66  C   UNL A   1      36.564  29.870  30.285  1.00  0.00     0.198 A 
ATOM     67  F   UNL A   1      38.357  29.323  31.706  1.00  0.00    -0.203 F 
ATOM     68  F   UNL A   1      36.443  30.291  26.688  1.00  0.00    -0.200 F 
ATOM     69  C   UNL A   1      36.070  30.121  29.014  1.00  0.00     0.200 A 
ATOM     70  F   UNL A   1      35.751  29.954  31.347  1.00  0.00    -0.200 F 
ATOM     71  F   UNL A   1      34.786  30.469  28.848  1.00  0.00    -0.200 F 
ENDBRANCH  47  61
BRANCH  48  72
ATOM     72  C   UNL A   1      48.297  26.668  30.356  1.00  0.00     0.064 A 
ATOM     73  C   UNL A   1      48.701  25.862  31.429  1.00  0.00     0.173 A 
ATOM     74  C   UNL A   1      49.275  27.075  29.438  1.00  0.00     0.173 A 
ATOM     75  F   UNL A   1      47.805  25.471  32.347  1.00  0.00    -0.203 F 
ATOM     76  C   UNL A   1      50.033  25.487  31.585  1.00  0.00     0.198 A 
ATOM     77  C   UNL A   1      50.604  26.679  29.583  1.00  0.00     0.198 A 
ATOM     78  F   UNL A   1      48.939  27.848  28.396  1.00  0.00    -0.203 F 
ATOM     79  F   UNL A   1      50.400  24.745  32.640  1.00  0.00    -0.200 F 
ATOM     80  C   UNL A   1      50.983  25.891  30.659  1.00  0.00     0.200 A 
ATOM     81  F   UNL A   1      51.517  27.064  28.680  1.00  0.00    -0.200 F 
ATOM     82  F   UNL A   1      52.263  25.524  30.805  1.00  0.00    -0.200 F 
ENDBRANCH  48  72
BRANCH  60  83
ATOM     83  C   UNL A   1      44.747  32.395  32.115  1.00  0.00     0.064 A 
ATOM     84  C   UNL A   1      45.191  33.522  31.411  1.00  0.00     0.173 A 
ATOM     85  C   UNL A   1      44.637  32.492  33.511  1.00  0.00     0.173 A 
ATOM     86  F   UNL A   1      45.326  33.474  30.076  1.00  0.00    -0.203 F 
ATOM     87  C   UNL A   1      45.532  34.695  32.080  1.00  0.00     0.198 A 
ATOM     88  C   UNL A   1      44.957  33.673  34.175  1.00  0.00     0.198 A 
ATOM     89  F   UNL A   1      44.211  31.443  34.230  1.00  0.00    -0.203 F 
ATOM     90  F   UNL A   1      45.991  35.749  31.390  1.00  0.00    -0.200 F 
ATOM     91  C   UNL A   1      45.409  34.771  33.459  1.00  0.00     0.200 A 
ATOM     92  F   UNL A   1      44.829  33.748  35.506  1.00  0.00    -0.200 F 
ATOM     93  F   UNL A   1      45.733  35.903  34.100  1.00  0.00    -0.200 F 
ENDBRANCH  60  83
ENDBRANCH  34  35
ENDBRANCH  26  29
ENDBRANCH  24  25
ENDBRANCH   1  24
TORSDOF 12
ENDMDL
MODEL 2
REMARK VINA RESULT:     -10.5      5.709     11.101
REMARK SMILES C[C@H]1CC[C@@](C[C@@H]2CCCc3ccccc32)(C(=O)NCCCNC(=O)c2ccc(-c3c4nc(c(-c5c(F)c(F)c(F)c(F)c5F)c5ccc([nH]5)c(-c5c(F)c(F)c(F)c(F)c5F)c5nc(c(-c6c(F)c(F)c(F)c(F)c6F)c6ccc3[nH]6)C=C5)C=C4)cc2)C1
REMARK SMILES IDX 21 1 20 2 19 3 17 4 18 5 5 7 1 8 2 9 3 10 89 11 4 12 6 13
REMARK SMILES IDX 7 14 8 15 16 16 9 17 11 18 15 19 10 20 12 21 14 22 13 23
REMARK SMILES IDX 22 24 23 25 24 26 25 28 26 29 27 30 88 31 28 32 87 33 29 34
REMARK SMILES IDX 30 35 31 36 81 37 32 38 86 39 80 40 82 41 33 42 85 43 79 44
REMARK SMILES IDX 78 45 34 47 66 48 46 49 65 50 47 51 50 52 64 53 83 54 48 55
REMARK SMILES IDX 49 56 63 58 84 59 51 60 35 61 36 62 44 63 37 64 38 65 42 66
REMARK SMILES IDX 45 67 39 68 40 69 43 70 41 71 67 72 68 73 76 74 69 75 70 76
REMARK SMILES IDX 74 77 77 78 71 79 72 80 75 81 73 82 52 83 53 84 61 85 54 86
REMARK SMILES IDX 55 87 59 88 62 89 56 90 57 91 60 92 58 93
REMARK H PARENT 19 6 23 27 82 46 50 57
REMARK Flexibility Score: inf
ROOT
ATOM      1  C   UNL A   1      32.194  29.081  25.290  1.00  0.00     0.042 C 
ENDROOT
BRANCH   1   2
ATOM      2  C   UNL A   1      33.444  28.236  24.988  1.00  0.00     0.117 C 
BRANCH   2   3
ATOM      3  N   UNL A   1      33.408  26.824  25.350  1.00  0.00    -0.356 N 
ATOM      4  C   UNL A   1      33.006  25.896  24.410  1.00  0.00     0.226 C 
ATOM      5  O   UNL A   1      33.183  26.150  23.215  1.00  0.00    -0.274 OA
ATOM      6  H   UNL A   1      33.667  26.535  26.255  1.00  0.00     0.163 HD
BRANCH   4   7
ATOM      7  C   UNL A   1      32.180  24.636  24.856  1.00  0.00     0.050 C 
ATOM      8  C   UNL A   1      32.817  22.475  27.983  1.00  0.00     0.007 C 
ATOM      9  C   UNL A   1      32.217  22.953  26.664  1.00  0.00    -0.013 C 
ATOM     10  C   UNL A   1      30.921  23.743  26.810  1.00  0.00     0.004 C 
ATOM     11  C   UNL A   1      33.113  23.915  25.896  1.00  0.00     0.020 C 
ATOM     12  C   UNL A   1      30.929  24.833  25.721  1.00  0.00     0.017 C 
BRANCH   7  13
ATOM     13  C   UNL A   1      31.961  23.660  23.639  1.00  0.00     0.025 C 
BRANCH  13  14
ATOM     14  C   UNL A   1      32.947  22.553  23.143  1.00  0.00     0.020 C 
ATOM     15  C   UNL A   1      32.411  21.145  22.961  1.00  0.00     0.009 C 
ATOM     16  C   UNL A   1      34.346  22.435  23.727  1.00  0.00    -0.042 A 
ATOM     17  C   UNL A   1      32.399  20.318  24.240  1.00  0.00     0.005 C 
ATOM     18  C   UNL A   1      34.720  21.325  24.514  1.00  0.00    -0.045 A 
ATOM     19  C   UNL A   1      35.352  23.289  23.248  1.00  0.00     0.004 A 
ATOM     20  C   UNL A   1      33.738  20.277  24.961  1.00  0.00     0.036 C 
ATOM     21  C   UNL A   1      36.071  21.106  24.819  1.00  0.00     0.004 A 
ATOM     22  C   UNL A   1      36.699  23.023  23.508  1.00  0.00     0.000 A 
ATOM     23  C   UNL A   1      37.058  21.933  24.294  1.00  0.00     0.000 A 
ENDBRANCH  13  14
ENDBRANCH   7  13
ENDBRANCH   4   7
ENDBRANCH   2   3
ENDBRANCH   1   2
BRANCH   1  24
ATOM     24  C   UNL A   1      32.040  29.606  26.717  1.00  0.00     0.118 C 
BRANCH  24  25
ATOM     25  N   UNL A   1      32.266  31.050  26.696  1.00  0.00    -0.352 N 
ATOM     26  C   UNL A   1      33.162  31.863  27.337  1.00  0.00     0.251 C 
ATOM     27  H   UNL A   1      31.649  31.536  26.103  1.00  0.00     0.163 HD
ATOM     28  O   UNL A   1      32.819  33.025  27.551  1.00  0.00    -0.269 OA
BRANCH  26  29
ATOM     29  C   UNL A   1      34.550  31.456  27.683  1.00  0.00     0.039 A 
ATOM     30  C   UNL A   1      34.766  30.106  28.012  1.00  0.00     0.014 A 
ATOM     31  C   UNL A   1      35.568  32.380  27.926  1.00  0.00     0.014 A 
ATOM     32  C   UNL A   1      35.950  29.696  28.635  1.00  0.00     0.010 A 
ATOM     33  C   UNL A   1      36.774  31.962  28.510  1.00  0.00     0.010 A 
ATOM     34  C   UNL A   1      36.955  30.629  28.918  1.00  0.00    -0.014 A 
BRANCH  34  35
ATOM     35  C   UNL A   1      38.128  30.257  29.762  1.00  0.00     0.031 A 
ATOM     36  C   UNL A   1      39.171  29.316  29.213  1.00  0.00     0.074 A 
ATOM     37  C   UNL A   1      38.268  30.742  31.009  1.00  0.00     0.049 A 
ATOM     38  N   UNL A   1      40.208  28.777  29.809  1.00  0.00    -0.248 NA
ATOM     39  C   UNL A   1      39.012  28.911  27.808  1.00  0.00     0.031 C 
ATOM     40  C   UNL A   1      37.351  31.673  31.662  1.00  0.00     0.029 A 
ATOM     41  N   UNL A   1      39.240  30.511  31.954  1.00  0.00    -0.354 N 
ATOM     42  C   UNL A   1      40.797  27.943  28.865  1.00  0.00     0.074 A 
ATOM     43  C   UNL A   1      39.987  28.025  27.668  1.00  0.00     0.031 C 
ATOM     44  C   UNL A   1      37.806  31.942  32.898  1.00  0.00     0.029 A 
ATOM     45  C   UNL A   1      39.030  31.178  33.135  1.00  0.00     0.049 A 
ATOM     46  H   UNL A   1      40.013  29.923  31.797  1.00  0.00     0.167 HD
ATOM     47  C   UNL A   1      41.916  27.186  28.978  1.00  0.00     0.037 A 
ATOM     48  C   UNL A   1      39.740  31.170  34.280  1.00  0.00     0.037 A 
ATOM     49  C   UNL A   1      42.755  27.140  30.148  1.00  0.00     0.049 A 
ATOM     50  C   UNL A   1      40.987  30.332  34.380  1.00  0.00     0.074 A 
ATOM     51  C   UNL A   1      43.927  26.429  30.347  1.00  0.00     0.029 A 
ATOM     52  N   UNL A   1      42.516  27.850  31.314  1.00  0.00    -0.354 N 
ATOM     53  N   UNL A   1      41.533  29.550  33.483  1.00  0.00    -0.248 NA
ATOM     54  C   UNL A   1      41.720  30.383  35.655  1.00  0.00     0.031 C 
ATOM     55  C   UNL A   1      44.385  26.692  31.643  1.00  0.00     0.029 A 
ATOM     56  C   UNL A   1      43.518  27.594  32.238  1.00  0.00     0.049 A 
ATOM     57  H   UNL A   1      41.749  28.449  31.466  1.00  0.00     0.167 HD
ATOM     58  C   UNL A   1      42.685  29.041  34.069  1.00  0.00     0.074 A 
ATOM     59  C   UNL A   1      42.764  29.607  35.399  1.00  0.00     0.031 C 
ATOM     60  C   UNL A   1      43.595  28.181  33.550  1.00  0.00     0.037 A 
BRANCH  47  61
ATOM     61  C   UNL A   1      42.294  26.333  27.801  1.00  0.00     0.064 A 
ATOM     62  C   UNL A   1      41.727  25.066  27.597  1.00  0.00     0.173 A 
ATOM     63  C   UNL A   1      43.224  26.794  26.856  1.00  0.00     0.173 A 
ATOM     64  F   UNL A   1      40.841  24.574  28.475  1.00  0.00    -0.203 F 
ATOM     65  C   UNL A   1      42.107  24.277  26.514  1.00  0.00     0.198 A 
ATOM     66  C   UNL A   1      43.579  26.016  25.759  1.00  0.00     0.198 A 
ATOM     67  F   UNL A   1      43.789  28.003  26.999  1.00  0.00    -0.203 F 
ATOM     68  F   UNL A   1      41.596  23.046  26.372  1.00  0.00    -0.200 F 
ATOM     69  C   UNL A   1      43.030  24.753  25.593  1.00  0.00     0.200 A 
ATOM     70  F   UNL A   1      44.461  26.483  24.864  1.00  0.00    -0.200 F 
ATOM     71  F   UNL A   1      43.396  23.992  24.553  1.00  0.00    -0.200 F 
ENDBRANCH  47  61
BRANCH  48  72
ATOM     72  C   UNL A   1      39.304  32.013  35.424  1.00  0.00     0.064 A 
ATOM     73  C   UNL A   1      38.488  31.481  36.432  1.00  0.00     0.173 A 
ATOM     74  C   UNL A   1      39.693  33.355  35.535  1.00  0.00     0.173 A 
ATOM     75  F   UNL A   1      38.070  30.210  36.355  1.00  0.00    -0.203 F 
ATOM     76  C   UNL A   1      38.068  32.265  37.505  1.00  0.00     0.198 A 
ATOM     77  C   UNL A   1      39.291  34.131  36.620  1.00  0.00     0.198 A 
ATOM     78  F   UNL A   1      40.471  33.909  34.595  1.00  0.00    -0.203 F 
ATOM     79  F   UNL A   1      37.260  31.743  38.437  1.00  0.00    -0.200 F 
ATOM     80  C   UNL A   1      38.474  33.588  37.601  1.00  0.00     0.200 A 
ATOM     81  F   UNL A   1      39.693  35.406  36.715  1.00  0.00    -0.200 F 
ATOM     82  F   UNL A   1      38.076  34.339  38.636  1.00  0.00    -0.200 F 
ENDBRANCH  48  72
BRANCH  60  83
ATOM     83  C   UNL A   1      44.782  27.836  34.401  1.00  0.00     0.064 A 
ATOM     84  C   UNL A   1      44.779  26.722  35.251  1.00  0.00     0.173 A 
ATOM     85  C   UNL A   1      45.952  28.608  34.329  1.00  0.00     0.173 A 
ATOM     86  F   UNL A   1      43.679  25.962  35.364  1.00  0.00    -0.203 F 
ATOM     87  C   UNL A   1      45.899  26.403  36.015  1.00  0.00     0.198 A 
ATOM     88  C   UNL A   1      47.077  28.273  35.077  1.00  0.00     0.198 A 
ATOM     89  F   UNL A   1      46.006  29.680  33.526  1.00  0.00    -0.203 F 
ATOM     90  F   UNL A   1      45.862  25.355  36.850  1.00  0.00    -0.200 F 
ATOM     91  C   UNL A   1      47.047  27.175  35.923  1.00  0.00     0.200 A 
ATOM     92  F   UNL A   1      48.189  29.015  34.981  1.00  0.00    -0.200 F 
ATOM     93  F   UNL A   1      48.126  26.864  36.656  1.00  0.00    -0.200 F 
ENDBRANCH  60  83
ENDBRANCH  34  35
ENDBRANCH  26  29
ENDBRANCH  24  25
ENDBRANCH   1  24
TORSDOF 12
ENDMDL
MODEL 3
REMARK VINA RESULT:     -10.5      5.754     11.106
REMARK SMILES C[C@H]1CC[C@@](C[C@@H]2CCCc3ccccc32)(C(=O)NCCCNC(=O)c2ccc(-c3c4nc(c(-c5c(F)c(F)c(F)c(F)c5F)c5ccc([nH]5)c(-c5c(F)c(F)c(F)c(F)c5F)c5nc(c(-c6c(F)c(F)c(F)c(F)c6F)c6ccc3[nH]6)C=C5)C=C4)cc2)C1
REMARK SMILES IDX 21 1 20 2 19 3 17 4 18 5 5 7 1 8 2 9 3 10 89 11 4 12 6 13
REMARK SMILES IDX 7 14 8 15 16 16 9 17 11 18 15 19 10 20 12 21 14 22 13 23
REMARK SMILES IDX 22 24 23 25 24 26 25 28 26 29 27 30 88 31 28 32 87 33 29 34
REMARK SMILES IDX 30 35 31 36 81 37 32 38 86 39 80 40 82 41 33 42 85 43 79 44
REMARK SMILES IDX 78 45 34 47 66 48 46 49 65 50 47 51 50 52 64 53 83 54 48 55
REMARK SMILES IDX 49 56 63 58 84 59 51 60 35 61 36 62 44 63 37 64 38 65 42 66
REMARK SMILES IDX 45 67 39 68 40 69 43 70 41 71 67 72 68 73 76 74 69 75 70 76
REMARK SMILES IDX 74 77 77 78 71 79 72 80 75 81 73 82 52 83 53 84 61 85 54 86
REMARK SMILES IDX 55 87 59 88 62 89 56 90 57 91 60 92 58 93
REMARK H PARENT 19 6 23 27 82 46 50 57
REMARK Flexibility Score: inf
ROOT
ATOM      1  C   UNL A   1      32.088  29.035  25.336  1.00  0.00     0.042 C 
ENDROOT
BRANCH   1   2
ATOM      2  C   UNL A   1      33.333  28.212  24.959  1.00  0.00     0.117 C 
BRANCH   2   3
ATOM      3  N   UNL A   1      33.334  26.794  25.301  1.00  0.00    -0.356 N 
ATOM      4  C   UNL A   1      32.882  25.876  24.374  1.00  0.00     0.226 C 
ATOM      5  O   UNL A   1      32.981  26.150  23.174  1.00  0.00    -0.274 OA
ATOM      6  H   UNL A   1      33.653  26.495  26.183  1.00  0.00     0.163 HD
BRANCH   4   7
ATOM      7  C   UNL A   1      32.099  24.600  24.852  1.00  0.00     0.050 C 
ATOM      8  C   UNL A   1      32.866  22.487  27.983  1.00  0.00     0.007 C 
ATOM      9  C   UNL A   1      32.222  22.937  26.674  1.00  0.00    -0.013 C 
ATOM     10  C   UNL A   1      30.911  23.696  26.845  1.00  0.00     0.004 C 
ATOM     11  C   UNL A   1      33.075  23.913  25.875  1.00  0.00     0.020 C 
ATOM     12  C   UNL A   1      30.865  24.776  25.746  1.00  0.00     0.017 C 
BRANCH   7  13
ATOM     13  C   UNL A   1      31.875  23.607  23.650  1.00  0.00     0.025 C 
BRANCH  13  14
ATOM     14  C   UNL A   1      32.875  22.518  23.142  1.00  0.00     0.020 C 
ATOM     15  C   UNL A   1      32.363  21.100  22.970  1.00  0.00     0.009 C 
ATOM     16  C   UNL A   1      34.284  22.428  23.706  1.00  0.00    -0.042 A 
ATOM     17  C   UNL A   1      32.384  20.276  24.251  1.00  0.00     0.005 C 
ATOM     18  C   UNL A   1      34.690  21.327  24.490  1.00  0.00    -0.045 A 
ATOM     19  C   UNL A   1      35.267  23.300  23.212  1.00  0.00     0.004 A 
ATOM     20  C   UNL A   1      33.734  20.261  24.952  1.00  0.00     0.036 C 
ATOM     21  C   UNL A   1      36.049  21.134  24.776  1.00  0.00     0.004 A 
ATOM     22  C   UNL A   1      36.622  23.060  23.453  1.00  0.00     0.000 A 
ATOM     23  C   UNL A   1      37.013  21.978  24.236  1.00  0.00     0.000 A 
ENDBRANCH  13  14
ENDBRANCH   7  13
ENDBRANCH   4   7
ENDBRANCH   2   3
ENDBRANCH   1   2
BRANCH   1  24
ATOM     24  C   UNL A   1      32.024  29.581  26.761  1.00  0.00     0.118 C 
BRANCH  24  25
ATOM     25  N   UNL A   1      32.251  31.024  26.705  1.00  0.00    -0.352 N 
ATOM     26  C   UNL A   1      33.147  31.852  27.325  1.00  0.00     0.251 C 
ATOM     27  H   UNL A   1      31.633  31.496  26.101  1.00  0.00     0.163 HD
ATOM     28  O   UNL A   1      32.805  33.019  27.511  1.00  0.00    -0.269 OA
BRANCH  26  29
ATOM     29  C   UNL A   1      34.535  31.453  27.680  1.00  0.00     0.039 A 
ATOM     30  C   UNL A   1      34.759  30.102  27.998  1.00  0.00     0.014 A 
ATOM     31  C   UNL A   1      35.543  32.382  27.941  1.00  0.00     0.014 A 
ATOM     32  C   UNL A   1      35.941  29.696  28.628  1.00  0.00     0.010 A 
ATOM     33  C   UNL A   1      36.747  31.969  28.533  1.00  0.00     0.010 A 
ATOM     34  C   UNL A   1      36.935  30.633  28.931  1.00  0.00    -0.014 A 
BRANCH  34  35
ATOM     35  C   UNL A   1      38.103  30.263  29.782  1.00  0.00     0.031 A 
ATOM     36  C   UNL A   1      39.152  29.324  29.239  1.00  0.00     0.074 A 
ATOM     37  C   UNL A   1      38.234  30.747  31.030  1.00  0.00     0.049 A 
ATOM     38  N   UNL A   1      40.185  28.786  29.840  1.00  0.00    -0.248 NA
ATOM     39  C   UNL A   1      39.003  28.920  27.832  1.00  0.00     0.031 C 
ATOM     40  C   UNL A   1      37.311  31.675  31.678  1.00  0.00     0.029 A 
ATOM     41  N   UNL A   1      39.200  30.516  31.981  1.00  0.00    -0.354 N 
ATOM     42  C   UNL A   1      40.782  27.954  28.900  1.00  0.00     0.074 A 
ATOM     43  C   UNL A   1      39.981  28.037  27.698  1.00  0.00     0.031 C 
ATOM     44  C   UNL A   1      37.757  31.944  32.917  1.00  0.00     0.029 A 
ATOM     45  C   UNL A   1      38.981  31.182  33.162  1.00  0.00     0.049 A 
ATOM     46  H   UNL A   1      39.975  29.930  31.829  1.00  0.00     0.167 HD
ATOM     47  C   UNL A   1      41.902  27.200  29.019  1.00  0.00     0.037 A 
ATOM     48  C   UNL A   1      39.683  31.174  34.311  1.00  0.00     0.037 A 
ATOM     49  C   UNL A   1      42.733  27.154  30.195  1.00  0.00     0.049 A 
ATOM     50  C   UNL A   1      40.932  30.338  34.419  1.00  0.00     0.074 A 
ATOM     51  C   UNL A   1      43.905  26.445  30.401  1.00  0.00     0.029 A 
ATOM     52  N   UNL A   1      42.486  27.862  31.361  1.00  0.00    -0.354 N 
ATOM     53  N   UNL A   1      41.485  29.558  33.524  1.00  0.00    -0.248 NA
ATOM     54  C   UNL A   1      41.655  30.390  35.698  1.00  0.00     0.031 C 
ATOM     55  C   UNL A   1      44.354  26.707  31.700  1.00  0.00     0.029 A 
ATOM     56  C   UNL A   1      43.482  27.607  32.290  1.00  0.00     0.049 A 
ATOM     57  H   UNL A   1      41.716  28.460  31.508  1.00  0.00     0.167 HD
ATOM     58  C   UNL A   1      42.633  29.050  34.117  1.00  0.00     0.074 A 
ATOM     59  C   UNL A   1      42.703  29.616  35.448  1.00  0.00     0.031 C 
ATOM     60  C   UNL A   1      43.549  28.193  33.603  1.00  0.00     0.037 A 
BRANCH  47  61
ATOM     61  C   UNL A   1      42.290  26.349  27.844  1.00  0.00     0.064 A 
ATOM     62  C   UNL A   1      43.242  26.775  26.907  1.00  0.00     0.173 A 
ATOM     63  C   UNL A   1      41.712  25.083  27.661  1.00  0.00     0.173 A 
ATOM     64  F   UNL A   1      43.817  27.981  27.029  1.00  0.00    -0.203 F 
ATOM     65  C   UNL A   1      43.571  25.984  25.808  1.00  0.00     0.198 A 
ATOM     66  C   UNL A   1      42.065  24.282  26.579  1.00  0.00     0.198 A 
ATOM     67  F   UNL A   1      40.803  24.622  28.534  1.00  0.00    -0.203 F 
ATOM     68  F   UNL A   1      44.440  26.438  24.894  1.00  0.00    -0.200 F 
ATOM     69  C   UNL A   1      42.986  24.737  25.647  1.00  0.00     0.200 A 
ATOM     70  F   UNL A   1      41.508  23.071  26.432  1.00  0.00    -0.200 F 
ATOM     71  F   UNL A   1      43.302  23.977  24.588  1.00  0.00    -0.200 F 
ENDBRANCH  47  61
BRANCH  48  72
ATOM     72  C   UNL A   1      39.238  32.014  35.453  1.00  0.00     0.064 A 
ATOM     73  C   UNL A   1      39.632  33.356  35.549  1.00  0.00     0.173 A 
ATOM     74  C   UNL A   1      38.412  31.500  36.462  1.00  0.00     0.173 A 
ATOM     75  F   UNL A   1      40.443  33.883  34.620  1.00  0.00    -0.203 F 
ATOM     76  C   UNL A   1      39.226  34.150  36.619  1.00  0.00     0.198 A 
ATOM     77  C   UNL A   1      37.987  32.303  37.520  1.00  0.00     0.198 A 
ATOM     78  F   UNL A   1      38.009  30.223  36.416  1.00  0.00    -0.203 F 
ATOM     79  F   UNL A   1      39.645  35.420  36.705  1.00  0.00    -0.200 F 
ATOM     80  C   UNL A   1      38.399  33.625  37.601  1.00  0.00     0.200 A 
ATOM     81  F   UNL A   1      37.181  31.794  38.462  1.00  0.00    -0.200 F 
ATOM     82  F   UNL A   1      38.003  34.391  38.625  1.00  0.00    -0.200 F 
ENDBRANCH  48  72
BRANCH  60  83
ATOM     83  C   UNL A   1      44.730  27.850  34.462  1.00  0.00     0.064 A 
ATOM     84  C   UNL A   1      45.897  28.627  34.453  1.00  0.00     0.173 A 
ATOM     85  C   UNL A   1      44.674  26.754  35.337  1.00  0.00     0.173 A 
ATOM     86  F   UNL A   1      46.003  29.676  33.624  1.00  0.00    -0.203 F 
ATOM     87  C   UNL A   1      46.974  28.307  35.276  1.00  0.00     0.198 A 
ATOM     88  C   UNL A   1      45.745  26.450  36.173  1.00  0.00     0.198 A 
ATOM     89  F   UNL A   1      43.578  25.983  35.386  1.00  0.00    -0.203 F 
ATOM     90  F   UNL A   1      48.095  29.041  35.224  1.00  0.00    -0.200 F 
ATOM     91  C   UNL A   1      46.896  27.224  36.138  1.00  0.00     0.200 A 
ATOM     92  F   UNL A   1      45.664  25.409  37.013  1.00  0.00    -0.200 F 
ATOM     93  F   UNL A   1      47.932  26.920  36.932  1.00  0.00    -0.200 F 
ENDBRANCH  60  83
ENDBRANCH  34  35
ENDBRANCH  26  29
ENDBRANCH  24  25
ENDBRANCH   1  24
TORSDOF 12
ENDMDL
