MODEL 1
REMARK VINA RESULT:     -12.2      0.000      0.000
REMARK SMILES O=C(NCCCNC(=O)[C@H](CO)NC(=O)[C@H](Cc1ccc(O)cc1)NC(=O)c1ccc(F)cc1)c1ccc(-c2c3nc(c(-c4c(F)c(F)c(F)c(F)c4F)c4ccc([nH]4)c(-c4c(F)c(F)c(F)c(F)c4F)c4nc(c(-c5c(F)c(F)c(F)c(F)c5F)c5ccc2[nH]5)C=C4)C=C3)cc1
REMARK SMILES IDX 7 1 8 2 9 3 6 5 5 6 4 7 3 8 1 9 2 10 35 12 36 13 97 14 37 15
REMARK SMILES IDX 96 16 38 17 39 18 40 19 90 20 41 21 95 22 89 23 91 24 42 25
REMARK SMILES IDX 94 26 88 27 87 28 43 30 75 31 55 32 74 33 56 34 59 35 73 36
REMARK SMILES IDX 92 37 57 38 58 39 72 41 93 42 60 43 44 44 45 45 53 46 46 47
REMARK SMILES IDX 47 48 51 49 54 50 48 51 49 52 52 53 50 54 76 55 77 56 85 57
REMARK SMILES IDX 78 58 79 59 83 60 86 61 80 62 81 63 84 64 82 65 61 66 62 67
REMARK SMILES IDX 70 68 63 69 64 70 68 71 71 72 65 73 66 74 69 75 67 76 10 77
REMARK SMILES IDX 13 78 14 79 15 81 16 82 25 83 26 84 27 86 28 87 29 88 34 89
REMARK SMILES IDX 30 90 33 91 31 92 32 93 17 94 18 95 19 96 24 97 20 98 23 99
REMARK SMILES IDX 21 100 22 101 11 103 12 104
REMARK H PARENT 7 4 3 11 91 29 59 40 13 80 25 85 22 102 12 105
REMARK Flexibility Score: inf
ROOT
ATOM      1  N   UNL A   1      30.559  29.742  24.061  1.00  0.00    -0.354 N 
ATOM      2  C   UNL A   1      30.230  28.657  23.308  1.00  0.00     0.244 C 
ATOM      3  O   UNL A   1      29.512  28.864  22.326  1.00  0.00    -0.273 OA
ATOM      4  H   UNL A   1      30.131  30.583  23.777  1.00  0.00     0.163 HD
ENDROOT
BRANCH   1   5
ATOM      5  C   UNL A   1      31.432  29.871  25.213  1.00  0.00     0.117 C 
BRANCH   5   6
ATOM      6  C   UNL A   1      31.213  31.191  25.946  1.00  0.00     0.042 C 
BRANCH   6   7
ATOM      7  C   UNL A   1      32.365  31.602  26.856  1.00  0.00     0.118 C 
BRANCH   7   8
ATOM      8  N   UNL A   1      32.351  33.019  27.177  1.00  0.00    -0.352 N 
ATOM      9  O   UNL A   1      32.867  34.905  28.288  1.00  0.00    -0.269 OA
ATOM     10  C   UNL A   1      33.168  33.748  28.011  1.00  0.00     0.251 C 
ATOM     11  H   UNL A   1      31.648  33.540  26.728  1.00  0.00     0.163 HD
BRANCH  10  12
ATOM     12  C   UNL A   1      34.386  33.146  28.602  1.00  0.00     0.039 A 
ATOM     13  C   UNL A   1      34.369  31.862  29.148  1.00  0.00     0.014 A 
ATOM     14  C   UNL A   1      35.583  33.869  28.572  1.00  0.00     0.014 A 
ATOM     15  C   UNL A   1      35.494  31.372  29.808  1.00  0.00     0.010 A 
ATOM     16  C   UNL A   1      36.741  33.335  29.149  1.00  0.00     0.010 A 
ATOM     17  C   UNL A   1      36.697  32.097  29.808  1.00  0.00    -0.014 A 
BRANCH  17  18
ATOM     18  C   UNL A   1      37.897  31.515  30.466  1.00  0.00     0.031 A 
ATOM     19  C   UNL A   1      38.238  31.838  31.894  1.00  0.00     0.074 A 
ATOM     20  C   UNL A   1      38.655  30.640  29.777  1.00  0.00     0.049 A 
ATOM     21  N   UNL A   1      39.214  31.374  32.635  1.00  0.00    -0.248 NA
ATOM     22  C   UNL A   1      37.381  32.817  32.582  1.00  0.00     0.031 C 
ATOM     23  C   UNL A   1      38.435  30.256  28.382  1.00  0.00     0.029 A 
ATOM     24  N   UNL A   1      39.740  29.891  30.160  1.00  0.00    -0.354 N 
ATOM     25  C   UNL A   1      39.098  32.009  33.863  1.00  0.00     0.074 A 
ATOM     26  C   UNL A   1      37.976  32.917  33.763  1.00  0.00     0.031 C 
ATOM     27  C   UNL A   1      39.312  29.300  28.046  1.00  0.00     0.029 A 
ATOM     28  C   UNL A   1      40.193  29.043  29.180  1.00  0.00     0.049 A 
ATOM     29  H   UNL A   1      40.154  29.958  31.050  1.00  0.00     0.167 HD
ATOM     30  C   UNL A   1      39.852  31.840  34.977  1.00  0.00     0.037 A 
ATOM     31  C   UNL A   1      41.204  28.155  29.188  1.00  0.00     0.037 A 
ATOM     32  C   UNL A   1      40.958  30.922  35.080  1.00  0.00     0.049 A 
ATOM     33  C   UNL A   1      42.026  27.989  30.434  1.00  0.00     0.074 A 
ATOM     34  C   UNL A   1      41.771  30.672  36.173  1.00  0.00     0.029 A 
ATOM     35  N   UNL A   1      41.405  30.103  34.054  1.00  0.00    -0.354 N 
ATOM     36  N   UNL A   1      41.896  28.588  31.592  1.00  0.00    -0.248 NA
ATOM     37  C   UNL A   1      43.135  27.027  30.373  1.00  0.00     0.031 C 
ATOM     38  C   UNL A   1      42.732  29.729  35.797  1.00  0.00     0.029 A 
ATOM     39  C   UNL A   1      42.490  29.356  34.484  1.00  0.00     0.049 A 
ATOM     40  H   UNL A   1      41.010  30.058  33.153  1.00  0.00     0.167 HD
ATOM     41  C   UNL A   1      42.897  28.073  32.401  1.00  0.00     0.074 A 
ATOM     42  C   UNL A   1      43.615  27.096  31.608  1.00  0.00     0.031 C 
ATOM     43  C   UNL A   1      43.195  28.387  33.685  1.00  0.00     0.037 A 
BRANCH  30  44
ATOM     44  C   UNL A   1      39.513  32.668  36.183  1.00  0.00     0.064 A 
ATOM     45  C   UNL A   1      38.532  32.236  37.090  1.00  0.00     0.173 A 
ATOM     46  C   UNL A   1      40.110  33.916  36.408  1.00  0.00     0.173 A 
ATOM     47  F   UNL A   1      37.925  31.052  36.917  1.00  0.00    -0.203 F 
ATOM     48  C   UNL A   1      38.157  33.029  38.171  1.00  0.00     0.198 A 
ATOM     49  C   UNL A   1      39.751  34.695  37.506  1.00  0.00     0.198 A 
ATOM     50  F   UNL A   1      41.062  34.369  35.578  1.00  0.00    -0.203 F 
ATOM     51  F   UNL A   1      37.200  32.608  39.010  1.00  0.00    -0.200 F 
ATOM     52  C   UNL A   1      38.769  34.255  38.381  1.00  0.00     0.200 A 
ATOM     53  F   UNL A   1      40.362  35.869  37.721  1.00  0.00    -0.200 F 
ATOM     54  F   UNL A   1      38.417  35.012  39.430  1.00  0.00    -0.200 F 
ENDBRANCH  30  44
BRANCH  31  55
ATOM     55  C   UNL A   1      41.466  27.343  27.974  1.00  0.00     0.064 A 
ATOM     56  C   UNL A   1      40.900  26.069  27.813  1.00  0.00     0.173 A 
ATOM     57  C   UNL A   1      42.337  27.802  26.977  1.00  0.00     0.173 A 
ATOM     58  F   UNL A   1      40.068  25.584  28.744  1.00  0.00    -0.203 F 
ATOM     59  C   UNL A   1      41.220  25.274  26.715  1.00  0.00     0.198 A 
ATOM     60  C   UNL A   1      42.634  27.017  25.866  1.00  0.00     0.198 A 
ATOM     61  F   UNL A   1      42.888  29.021  27.079  1.00  0.00    -0.203 F 
ATOM     62  F   UNL A   1      40.702  24.043  26.609  1.00  0.00    -0.200 F 
ATOM     63  C   UNL A   1      42.085  25.749  25.742  1.00  0.00     0.200 A 
ATOM     64  F   UNL A   1      43.456  27.486  24.916  1.00  0.00    -0.200 F 
ATOM     65  F   UNL A   1      42.390  24.985  24.684  1.00  0.00    -0.200 F 
ENDBRANCH  31  55
BRANCH  43  66
ATOM     66  C   UNL A   1      44.340  27.659  34.325  1.00  0.00     0.064 A 
ATOM     67  C   UNL A   1      45.640  28.182  34.259  1.00  0.00     0.173 A 
ATOM     68  C   UNL A   1      44.161  26.416  34.948  1.00  0.00     0.173 A 
ATOM     69  F   UNL A   1      45.865  29.365  33.667  1.00  0.00    -0.203 F 
ATOM     70  C   UNL A   1      46.721  27.481  34.787  1.00  0.00     0.198 A 
ATOM     71  C   UNL A   1      45.240  25.730  35.497  1.00  0.00     0.198 A 
ATOM     72  F   UNL A   1      42.934  25.881  35.046  1.00  0.00    -0.203 F 
ATOM     73  F   UNL A   1      47.958  27.988  34.690  1.00  0.00    -0.200 F 
ATOM     74  C   UNL A   1      46.520  26.259  35.409  1.00  0.00     0.200 A 
ATOM     75  F   UNL A   1      45.041  24.559  36.119  1.00  0.00    -0.200 F 
ATOM     76  F   UNL A   1      47.559  25.592  35.929  1.00  0.00    -0.200 F 
ENDBRANCH  43  66
ENDBRANCH  17  18
ENDBRANCH  10  12
ENDBRANCH   7   8
ENDBRANCH   6   7
ENDBRANCH   5   6
ENDBRANCH   1   5
BRANCH   2  77
ATOM     77  C   UNL A   1      30.752  27.248  23.661  1.00  0.00     0.197 C 
BRANCH  77  78
ATOM     78  N   UNL A   1      29.817  26.636  24.617  1.00  0.00    -0.340 N 
ATOM     79  C   UNL A   1      30.051  25.800  25.668  1.00  0.00     0.243 C 
ATOM     80  H   UNL A   1      28.871  26.866  24.474  1.00  0.00     0.164 HD
ATOM     81  O   UNL A   1      29.104  25.487  26.392  1.00  0.00    -0.273 OA
BRANCH  79  82
ATOM     82  C   UNL A   1      31.465  25.224  25.868  1.00  0.00     0.176 C 
BRANCH  82  83
ATOM     83  N   UNL A   1      32.411  26.290  26.198  1.00  0.00    -0.340 N 
ATOM     84  C   UNL A   1      33.749  26.390  25.930  1.00  0.00     0.251 C 
ATOM     85  H   UNL A   1      32.026  27.053  26.687  1.00  0.00     0.164 HD
ATOM     86  O   UNL A   1      34.402  27.359  26.301  1.00  0.00    -0.269 OA
BRANCH  84  87
ATOM     87  C   UNL A   1      34.433  25.283  25.238  1.00  0.00     0.040 A 
ATOM     88  C   UNL A   1      35.448  24.553  25.870  1.00  0.00     0.017 A 
ATOM     89  C   UNL A   1      34.034  24.970  23.933  1.00  0.00     0.017 A 
ATOM     90  C   UNL A   1      36.107  23.545  25.166  1.00  0.00     0.040 A 
ATOM     91  C   UNL A   1      34.693  23.958  23.237  1.00  0.00     0.040 A 
ATOM     92  C   UNL A   1      35.730  23.264  23.855  1.00  0.00     0.123 A 
ATOM     93  F   UNL A   1      36.380  22.309  23.175  1.00  0.00    -0.207 F 
ENDBRANCH  84  87
ENDBRANCH  82  83
BRANCH  82  94
ATOM     94  C   UNL A   1      31.448  24.054  26.876  1.00  0.00     0.070 C 
BRANCH  94  95
ATOM     95  C   UNL A   1      32.214  22.799  26.524  1.00  0.00    -0.045 A 
ATOM     96  C   UNL A   1      33.193  22.260  27.371  1.00  0.00     0.007 A 
ATOM     97  C   UNL A   1      31.918  22.130  25.326  1.00  0.00     0.007 A 
ATOM     98  C   UNL A   1      33.902  21.114  26.998  1.00  0.00     0.046 A 
ATOM     99  C   UNL A   1      32.614  20.978  24.961  1.00  0.00     0.046 A 
ATOM    100  C   UNL A   1      33.611  20.488  25.791  1.00  0.00     0.115 A 
BRANCH 100 101
ATOM    101  O   UNL A   1      34.289  19.379  25.383  1.00  0.00    -0.508 OA
ATOM    102  H   UNL A   1      34.544  19.290  24.487  1.00  0.00     0.293 HD
ENDBRANCH 100 101
ENDBRANCH  94  95
ENDBRANCH  82  94
ENDBRANCH  79  82
ENDBRANCH  77  78
BRANCH  77 103
ATOM    103  C   UNL A   1      30.896  26.336  22.439  1.00  0.00     0.191 C 
BRANCH 103 104
ATOM    104  O   UNL A   1      31.314  27.031  21.268  1.00  0.00    -0.394 OA
ATOM    105  H   UNL A   1      30.970  26.578  20.483  1.00  0.00     0.210 HD
ENDBRANCH 103 104
ENDBRANCH  77 103
ENDBRANCH   2  77
TORSDOF 19
ENDMDL
MODEL 2
REMARK VINA RESULT:     -12.1      0.639      1.787
REMARK SMILES O=C(NCCCNC(=O)[C@H](CO)NC(=O)[C@H](Cc1ccc(O)cc1)NC(=O)c1ccc(F)cc1)c1ccc(-c2c3nc(c(-c4c(F)c(F)c(F)c(F)c4F)c4ccc([nH]4)c(-c4c(F)c(F)c(F)c(F)c4F)c4nc(c(-c5c(F)c(F)c(F)c(F)c5F)c5ccc2[nH]5)C=C4)C=C3)cc1
REMARK SMILES IDX 7 1 8 2 9 3 6 5 5 6 4 7 3 8 1 9 2 10 35 12 36 13 97 14 37 15
REMARK SMILES IDX 96 16 38 17 39 18 40 19 90 20 41 21 95 22 89 23 91 24 42 25
REMARK SMILES IDX 94 26 88 27 87 28 43 30 75 31 55 32 74 33 56 34 59 35 73 36
REMARK SMILES IDX 92 37 57 38 58 39 72 41 93 42 60 43 44 44 45 45 53 46 46 47
REMARK SMILES IDX 47 48 51 49 54 50 48 51 49 52 52 53 50 54 76 55 77 56 85 57
REMARK SMILES IDX 78 58 79 59 83 60 86 61 80 62 81 63 84 64 82 65 61 66 62 67
REMARK SMILES IDX 70 68 63 69 64 70 68 71 71 72 65 73 66 74 69 75 67 76 10 77
REMARK SMILES IDX 13 78 14 79 15 81 16 82 25 83 26 84 27 86 28 87 29 88 34 89
REMARK SMILES IDX 30 90 33 91 31 92 32 93 17 94 18 95 19 96 24 97 20 98 23 99
REMARK SMILES IDX 21 100 22 101 11 103 12 104
REMARK H PARENT 7 4 3 11 91 29 59 40 13 80 25 85 22 102 12 105
REMARK Flexibility Score: inf
ROOT
ATOM      1  N   UNL A   1      30.542  30.029  24.294  1.00  0.00    -0.354 N 
ATOM      2  C   UNL A   1      30.159  28.942  23.569  1.00  0.00     0.244 C 
ATOM      3  O   UNL A   1      29.357  29.144  22.654  1.00  0.00    -0.273 OA
ATOM      4  H   UNL A   1      30.083  30.866  24.050  1.00  0.00     0.163 HD
ENDROOT
BRANCH   1   5
ATOM      5  C   UNL A   1      31.511  30.164  25.367  1.00  0.00     0.117 C 
BRANCH   5   6
ATOM      6  C   UNL A   1      31.230  31.389  26.232  1.00  0.00     0.042 C 
BRANCH   6   7
ATOM      7  C   UNL A   1      32.468  31.986  26.892  1.00  0.00     0.118 C 
BRANCH   7   8
ATOM      8  N   UNL A   1      32.306  33.391  27.226  1.00  0.00    -0.352 N 
ATOM      9  O   UNL A   1      32.554  35.291  28.403  1.00  0.00    -0.269 OA
ATOM     10  C   UNL A   1      32.975  34.168  28.144  1.00  0.00     0.251 C 
ATOM     11  H   UNL A   1      31.608  33.861  26.716  1.00  0.00     0.163 HD
BRANCH  10  12
ATOM     12  C   UNL A   1      34.176  33.656  28.844  1.00  0.00     0.039 A 
ATOM     13  C   UNL A   1      35.439  34.202  28.612  1.00  0.00     0.014 A 
ATOM     14  C   UNL A   1      34.029  32.630  29.784  1.00  0.00     0.014 A 
ATOM     15  C   UNL A   1      36.565  33.619  29.188  1.00  0.00     0.010 A 
ATOM     16  C   UNL A   1      35.151  32.109  30.438  1.00  0.00     0.010 A 
ATOM     17  C   UNL A   1      36.436  32.573  30.116  1.00  0.00    -0.014 A 
BRANCH  17  18
ATOM     18  C   UNL A   1      37.655  32.017  30.760  1.00  0.00     0.031 A 
ATOM     19  C   UNL A   1      38.059  32.423  32.149  1.00  0.00     0.074 A 
ATOM     20  C   UNL A   1      38.376  31.092  30.096  1.00  0.00     0.049 A 
ATOM     21  N   UNL A   1      39.060  31.993  32.877  1.00  0.00    -0.248 NA
ATOM     22  C   UNL A   1      37.241  33.453  32.810  1.00  0.00     0.031 C 
ATOM     23  C   UNL A   1      38.094  30.626  28.737  1.00  0.00     0.029 A 
ATOM     24  N   UNL A   1      39.468  30.355  30.480  1.00  0.00    -0.354 N 
ATOM     25  C   UNL A   1      39.002  32.703  34.068  1.00  0.00     0.074 A 
ATOM     26  C   UNL A   1      37.885  33.618  33.958  1.00  0.00     0.031 C 
ATOM     27  C   UNL A   1      38.946  29.640  28.425  1.00  0.00     0.029 A 
ATOM     28  C   UNL A   1      39.871  29.442  29.536  1.00  0.00     0.049 A 
ATOM     29  H   UNL A   1      39.919  30.470  31.347  1.00  0.00     0.167 HD
ATOM     30  C   UNL A   1      39.799  32.594  35.159  1.00  0.00     0.037 A 
ATOM     31  C   UNL A   1      40.873  28.543  29.558  1.00  0.00     0.037 A 
ATOM     32  C   UNL A   1      40.899  31.670  35.273  1.00  0.00     0.049 A 
ATOM     33  C   UNL A   1      41.744  28.444  30.777  1.00  0.00     0.074 A 
ATOM     34  C   UNL A   1      41.754  31.476  36.345  1.00  0.00     0.029 A 
ATOM     35  N   UNL A   1      41.295  30.783  34.282  1.00  0.00    -0.354 N 
ATOM     36  N   UNL A   1      41.668  29.115  31.900  1.00  0.00    -0.248 NA
ATOM     37  C   UNL A   1      42.839  27.466  30.731  1.00  0.00     0.031 C 
ATOM     38  C   UNL A   1      42.690  30.500  35.989  1.00  0.00     0.029 A 
ATOM     39  C   UNL A   1      42.389  30.050  34.713  1.00  0.00     0.049 A 
ATOM     40  H   UNL A   1      40.862  30.689  33.403  1.00  0.00     0.167 HD
ATOM     41  C   UNL A   1      42.697  28.637  32.698  1.00  0.00     0.074 A 
ATOM     42  C   UNL A   1      43.371  27.604  31.938  1.00  0.00     0.031 C 
ATOM     43  C   UNL A   1      43.051  29.026  33.947  1.00  0.00     0.037 A 
BRANCH  30  44
ATOM     44  C   UNL A   1      39.519  33.498  36.324  1.00  0.00     0.064 A 
ATOM     45  C   UNL A   1      40.118  34.765  36.401  1.00  0.00     0.173 A 
ATOM     46  C   UNL A   1      38.710  33.088  37.393  1.00  0.00     0.173 A 
ATOM     47  F   UNL A   1      40.906  35.203  35.407  1.00  0.00    -0.203 F 
ATOM     48  C   UNL A   1      39.925  35.583  37.511  1.00  0.00     0.198 A 
ATOM     49  C   UNL A   1      38.497  33.920  38.490  1.00  0.00     0.198 A 
ATOM     50  F   UNL A   1      38.104  31.891  37.362  1.00  0.00    -0.203 F 
ATOM     51  F   UNL A   1      40.527  36.778  37.576  1.00  0.00    -0.200 F 
ATOM     52  C   UNL A   1      39.111  35.162  38.553  1.00  0.00     0.200 A 
ATOM     53  F   UNL A   1      37.691  33.522  39.484  1.00  0.00    -0.200 F 
ATOM     54  F   UNL A   1      38.915  35.956  39.615  1.00  0.00    -0.200 F 
ENDBRANCH  30  44
BRANCH  31  55
ATOM     55  C   UNL A   1      41.076  27.655  28.386  1.00  0.00     0.064 A 
ATOM     56  C   UNL A   1      41.954  28.005  27.351  1.00  0.00     0.173 A 
ATOM     57  C   UNL A   1      40.348  26.465  28.253  1.00  0.00     0.173 A 
ATOM     58  F   UNL A   1      42.666  29.138  27.430  1.00  0.00    -0.203 F 
ATOM     59  C   UNL A   1      42.074  27.214  26.211  1.00  0.00     0.198 A 
ATOM     60  C   UNL A   1      40.489  25.661  27.125  1.00  0.00     0.198 A 
ATOM     61  F   UNL A   1      39.508  26.081  29.225  1.00  0.00    -0.203 F 
ATOM     62  F   UNL A   1      42.886  27.595  25.215  1.00  0.00    -0.200 F 
ATOM     63  C   UNL A   1      41.343  26.041  26.100  1.00  0.00     0.200 A 
ATOM     64  F   UNL A   1      39.795  24.517  27.028  1.00  0.00    -0.200 F 
ATOM     65  F   UNL A   1      41.460  25.278  25.005  1.00  0.00    -0.200 F 
ENDBRANCH  31  55
BRANCH  43  66
ATOM     66  C   UNL A   1      44.214  28.323  34.583  1.00  0.00     0.064 A 
ATOM     67  C   UNL A   1      45.513  28.834  34.446  1.00  0.00     0.173 A 
ATOM     68  C   UNL A   1      44.050  27.115  35.275  1.00  0.00     0.173 A 
ATOM     69  F   UNL A   1      45.723  29.983  33.786  1.00  0.00    -0.203 F 
ATOM     70  C   UNL A   1      46.608  28.154  34.972  1.00  0.00     0.198 A 
ATOM     71  C   UNL A   1      45.144  26.451  35.821  1.00  0.00     0.198 A 
ATOM     72  F   UNL A   1      42.825  26.594  35.443  1.00  0.00    -0.203 F 
ATOM     73  F   UNL A   1      47.844  28.647  34.806  1.00  0.00    -0.200 F 
ATOM     74  C   UNL A   1      46.423  26.966  35.662  1.00  0.00     0.200 A 
ATOM     75  F   UNL A   1      44.961  25.315  36.509  1.00  0.00    -0.200 F 
ATOM     76  F   UNL A   1      47.476  26.319  36.179  1.00  0.00    -0.200 F 
ENDBRANCH  43  66
ENDBRANCH  17  18
ENDBRANCH  10  12
ENDBRANCH   7   8
ENDBRANCH   6   7
ENDBRANCH   5   6
ENDBRANCH   1   5
BRANCH   2  77
ATOM     77  C   UNL A   1      30.722  27.538  23.872  1.00  0.00     0.197 C 
BRANCH  77  78
ATOM     78  N   UNL A   1      29.803  26.862  24.799  1.00  0.00    -0.340 N 
ATOM     79  C   UNL A   1      30.050  25.937  25.770  1.00  0.00     0.243 C 
ATOM     80  H   UNL A   1      28.858  27.118  24.703  1.00  0.00     0.164 HD
ATOM     81  O   UNL A   1      29.118  25.579  26.491  1.00  0.00    -0.273 OA
BRANCH  79  82
ATOM     82  C   UNL A   1      31.458  25.323  25.881  1.00  0.00     0.176 C 
BRANCH  82  83
ATOM     83  N   UNL A   1      32.445  26.358  26.195  1.00  0.00    -0.340 N 
ATOM     84  C   UNL A   1      33.776  26.425  25.887  1.00  0.00     0.251 C 
ATOM     85  H   UNL A   1      32.097  27.123  26.708  1.00  0.00     0.164 HD
ATOM     86  O   UNL A   1      34.467  27.369  26.251  1.00  0.00    -0.269 OA
BRANCH  84  87
ATOM     87  C   UNL A   1      34.406  25.309  25.157  1.00  0.00     0.040 A 
ATOM     88  C   UNL A   1      35.403  24.527  25.754  1.00  0.00     0.017 A 
ATOM     89  C   UNL A   1      33.974  25.044  23.853  1.00  0.00     0.017 A 
ATOM     90  C   UNL A   1      36.011  23.513  25.015  1.00  0.00     0.040 A 
ATOM     91  C   UNL A   1      34.583  24.025  23.122  1.00  0.00     0.040 A 
ATOM     92  C   UNL A   1      35.603  23.277  23.705  1.00  0.00     0.123 A 
ATOM     93  F   UNL A   1      36.205  22.316  22.992  1.00  0.00    -0.207 F 
ENDBRANCH  84  87
ENDBRANCH  82  83
BRANCH  82  94
ATOM     94  C   UNL A   1      31.464  24.123  26.851  1.00  0.00     0.070 C 
BRANCH  94  95
ATOM     95  C   UNL A   1      32.162  22.856  26.412  1.00  0.00    -0.045 A 
ATOM     96  C   UNL A   1      31.913  22.258  25.168  1.00  0.00     0.007 A 
ATOM     97  C   UNL A   1      33.117  22.271  27.259  1.00  0.00     0.007 A 
ATOM     98  C   UNL A   1      32.556  21.070  24.808  1.00  0.00     0.046 A 
ATOM     99  C   UNL A   1      33.770  21.095  26.894  1.00  0.00     0.046 A 
ATOM    100  C   UNL A   1      33.474  20.495  25.679  1.00  0.00     0.115 A 
BRANCH 100 101
ATOM    101  O   UNL A   1      34.111  19.330  25.374  1.00  0.00    -0.508 OA
ATOM    102  H   UNL A   1      34.874  19.074  25.853  1.00  0.00     0.293 HD
ENDBRANCH 100 101
ENDBRANCH  94  95
ENDBRANCH  82  94
ENDBRANCH  79  82
ENDBRANCH  77  78
BRANCH  77 103
ATOM    103  C   UNL A   1      30.899  26.677  22.618  1.00  0.00     0.191 C 
BRANCH 103 104
ATOM    104  O   UNL A   1      31.414  27.405  21.507  1.00  0.00    -0.394 OA
ATOM    105  H   UNL A   1      32.146  26.911  21.107  1.00  0.00     0.210 HD
ENDBRANCH 103 104
ENDBRANCH  77 103
ENDBRANCH   2  77
TORSDOF 19
ENDMDL
MODEL 3
REMARK VINA RESULT:     -12.1      1.453      2.826
REMARK SMILES O=C(NCCCNC(=O)[C@H](CO)NC(=O)[C@H](Cc1ccc(O)cc1)NC(=O)c1ccc(F)cc1)c1ccc(-c2c3nc(c(-c4c(F)c(F)c(F)c(F)c4F)c4ccc([nH]4)c(-c4c(F)c(F)c(F)c(F)c4F)c4nc(c(-c5c(F)c(F)c(F)c(F)c5F)c5ccc2[nH]5)C=C4)C=C3)cc1
REMARK SMILES IDX 7 1 8 2 9 3 6 5 5 6 4 7 3 8 1 9 2 10 35 12 36 13 97 14 37 15
REMARK SMILES IDX 96 16 38 17 39 18 40 19 90 20 41 21 95 22 89 23 91 24 42 25
REMARK SMILES IDX 94 26 88 27 87 28 43 30 75 31 55 32 74 33 56 34 59 35 73 36
REMARK SMILES IDX 92 37 57 38 58 39 72 41 93 42 60 43 44 44 45 45 53 46 46 47
REMARK SMILES IDX 47 48 51 49 54 50 48 51 49 52 52 53 50 54 76 55 77 56 85 57
REMARK SMILES IDX 78 58 79 59 83 60 86 61 80 62 81 63 84 64 82 65 61 66 62 67
REMARK SMILES IDX 70 68 63 69 64 70 68 71 71 72 65 73 66 74 69 75 67 76 10 77
REMARK SMILES IDX 13 78 14 79 15 81 16 82 25 83 26 84 27 86 28 87 29 88 34 89
REMARK SMILES IDX 30 90 33 91 31 92 32 93 17 94 18 95 19 96 24 97 20 98 23 99
REMARK SMILES IDX 21 100 22 101 11 103 12 104
REMARK H PARENT 7 4 3 11 91 29 59 40 13 80 25 85 22 102 12 105
REMARK Flexibility Score: inf
ROOT
ATOM      1  N   UNL A   1      31.477  29.697  26.873  1.00  0.00    -0.354 N 
ATOM      2  C   UNL A   1      32.325  28.664  27.129  1.00  0.00     0.244 C 
ATOM      3  O   UNL A   1      31.904  27.775  27.873  1.00  0.00    -0.273 OA
ATOM      4  H   UNL A   1      30.625  29.659  27.367  1.00  0.00     0.163 HD
ENDROOT
BRANCH   1   5
ATOM      5  C   UNL A   1      31.614  30.846  25.997  1.00  0.00     0.117 C 
BRANCH   5   6
ATOM      6  C   UNL A   1      31.407  32.158  26.747  1.00  0.00     0.042 C 
BRANCH   6   7
ATOM      7  C   UNL A   1      32.668  33.004  26.888  1.00  0.00     0.118 C 
BRANCH   7   8
ATOM      8  N   UNL A   1      32.440  34.235  27.627  1.00  0.00    -0.352 N 
ATOM      9  O   UNL A   1      32.572  35.689  29.337  1.00  0.00    -0.269 OA
ATOM     10  C   UNL A   1      33.044  34.709  28.768  1.00  0.00     0.251 C 
ATOM     11  H   UNL A   1      31.746  34.822  27.251  1.00  0.00     0.163 HD
BRANCH  10  12
ATOM     12  C   UNL A   1      34.236  34.037  29.336  1.00  0.00     0.039 A 
ATOM     13  C   UNL A   1      34.112  32.991  30.251  1.00  0.00     0.014 A 
ATOM     14  C   UNL A   1      35.507  34.436  28.912  1.00  0.00     0.014 A 
ATOM     15  C   UNL A   1      35.246  32.463  30.862  1.00  0.00     0.010 A 
ATOM     16  C   UNL A   1      36.650  33.837  29.453  1.00  0.00     0.010 A 
ATOM     17  C   UNL A   1      36.530  32.871  30.464  1.00  0.00    -0.014 A 
BRANCH  17  18
ATOM     18  C   UNL A   1      37.721  32.240  31.092  1.00  0.00     0.031 A 
ATOM     19  C   UNL A   1      38.154  32.603  32.485  1.00  0.00     0.074 A 
ATOM     20  C   UNL A   1      38.387  31.287  30.410  1.00  0.00     0.049 A 
ATOM     21  N   UNL A   1      39.133  32.107  33.201  1.00  0.00    -0.248 NA
ATOM     22  C   UNL A   1      37.397  33.665  33.166  1.00  0.00     0.031 C 
ATOM     23  C   UNL A   1      38.072  30.858  29.046  1.00  0.00     0.029 A 
ATOM     24  N   UNL A   1      39.439  30.486  30.776  1.00  0.00    -0.354 N 
ATOM     25  C   UNL A   1      39.121  32.802  34.402  1.00  0.00     0.074 A 
ATOM     26  C   UNL A   1      38.055  33.778  34.312  1.00  0.00     0.031 C 
ATOM     27  C   UNL A   1      38.868  29.832  28.715  1.00  0.00     0.029 A 
ATOM     28  C   UNL A   1      39.787  29.568  29.817  1.00  0.00     0.049 A 
ATOM     29  H   UNL A   1      39.901  30.564  31.642  1.00  0.00     0.167 HD
ATOM     30  C   UNL A   1      39.917  32.633  35.486  1.00  0.00     0.037 A 
ATOM     31  C   UNL A   1      40.738  28.615  29.820  1.00  0.00     0.037 A 
ATOM     32  C   UNL A   1      40.965  31.649  35.580  1.00  0.00     0.049 A 
ATOM     33  C   UNL A   1      41.609  28.450  31.031  1.00  0.00     0.074 A 
ATOM     34  C   UNL A   1      41.814  31.393  36.643  1.00  0.00     0.029 A 
ATOM     35  N   UNL A   1      41.307  30.757  34.574  1.00  0.00    -0.354 N 
ATOM     36  N   UNL A   1      41.576  29.107  32.164  1.00  0.00    -0.248 NA
ATOM     37  C   UNL A   1      42.649  27.415  30.964  1.00  0.00     0.031 C 
ATOM     38  C   UNL A   1      42.693  30.373  36.268  1.00  0.00     0.029 A 
ATOM     39  C   UNL A   1      42.362  29.959  34.987  1.00  0.00     0.049 A 
ATOM     40  H   UNL A   1      40.865  30.699  33.695  1.00  0.00     0.167 HD
ATOM     41  C   UNL A   1      42.581  28.562  32.949  1.00  0.00     0.074 A 
ATOM     42  C   UNL A   1      43.194  27.505  32.170  1.00  0.00     0.031 C 
ATOM     43  C   UNL A   1      42.963  28.912  34.201  1.00  0.00     0.037 A 
BRANCH  30  44
ATOM     44  C   UNL A   1      39.692  33.533  36.666  1.00  0.00     0.064 A 
ATOM     45  C   UNL A   1      38.800  33.163  37.684  1.00  0.00     0.173 A 
ATOM     46  C   UNL A   1      40.309  34.789  36.759  1.00  0.00     0.173 A 
ATOM     47  F   UNL A   1      38.179  31.974  37.640  1.00  0.00    -0.203 F 
ATOM     48  C   UNL A   1      38.528  34.021  38.746  1.00  0.00     0.198 A 
ATOM     49  C   UNL A   1      40.054  35.634  37.837  1.00  0.00     0.198 A 
ATOM     50  F   UNL A   1      41.180  35.184  35.818  1.00  0.00    -0.203 F 
ATOM     51  F   UNL A   1      37.653  33.658  39.694  1.00  0.00    -0.200 F 
ATOM     52  C   UNL A   1      39.158  35.254  38.824  1.00  0.00     0.200 A 
ATOM     53  F   UNL A   1      40.684  36.814  37.923  1.00  0.00    -0.200 F 
ATOM     54  F   UNL A   1      38.906  36.074  39.854  1.00  0.00    -0.200 F 
ENDBRANCH  30  44
BRANCH  31  55
ATOM     55  C   UNL A   1      40.886  27.735  28.634  1.00  0.00     0.064 A 
ATOM     56  C   UNL A   1      41.756  28.067  27.584  1.00  0.00     0.173 A 
ATOM     57  C   UNL A   1      40.114  26.574  28.500  1.00  0.00     0.173 A 
ATOM     58  F   UNL A   1      42.509  29.173  27.663  1.00  0.00    -0.203 F 
ATOM     59  C   UNL A   1      41.825  27.286  26.433  1.00  0.00     0.198 A 
ATOM     60  C   UNL A   1      40.204  25.778  27.361  1.00  0.00     0.198 A 
ATOM     61  F   UNL A   1      39.281  26.207  29.485  1.00  0.00    -0.203 F 
ATOM     62  F   UNL A   1      42.630  27.650  25.426  1.00  0.00    -0.200 F 
ATOM     63  C   UNL A   1      41.051  26.141  26.323  1.00  0.00     0.200 A 
ATOM     64  F   UNL A   1      39.468  24.662  27.264  1.00  0.00    -0.200 F 
ATOM     65  F   UNL A   1      41.119  25.388  25.217  1.00  0.00    -0.200 F 
ENDBRANCH  31  55
BRANCH  43  66
ATOM     66  C   UNL A   1      44.089  28.138  34.820  1.00  0.00     0.064 A 
ATOM     67  C   UNL A   1      45.415  28.568  34.665  1.00  0.00     0.173 A 
ATOM     68  C   UNL A   1      43.861  26.941  35.513  1.00  0.00     0.173 A 
ATOM     69  F   UNL A   1      45.686  29.703  34.003  1.00  0.00    -0.203 F 
ATOM     70  C   UNL A   1      46.474  27.820  35.174  1.00  0.00     0.198 A 
ATOM     71  C   UNL A   1      44.920  26.209  36.043  1.00  0.00     0.198 A 
ATOM     72  F   UNL A   1      42.609  26.496  35.698  1.00  0.00    -0.203 F 
ATOM     73  F   UNL A   1      47.735  28.236  34.991  1.00  0.00    -0.200 F 
ATOM     74  C   UNL A   1      46.225  26.645  35.865  1.00  0.00     0.200 A 
ATOM     75  F   UNL A   1      44.677  25.085  36.732  1.00  0.00    -0.200 F 
ATOM     76  F   UNL A   1      47.244  25.933  36.366  1.00  0.00    -0.200 F 
ENDBRANCH  43  66
ENDBRANCH  17  18
ENDBRANCH  10  12
ENDBRANCH   7   8
ENDBRANCH   6   7
ENDBRANCH   5   6
ENDBRANCH   1   5
BRANCH   2  77
ATOM     77  C   UNL A   1      33.732  28.607  26.499  1.00  0.00     0.197 C 
BRANCH  77  78
ATOM     78  N   UNL A   1      33.625  29.022  25.092  1.00  0.00    -0.340 N 
ATOM     79  C   UNL A   1      33.122  28.358  24.013  1.00  0.00     0.243 C 
ATOM     80  H   UNL A   1      33.972  29.922  24.899  1.00  0.00     0.164 HD
ATOM     81  O   UNL A   1      33.054  28.954  22.936  1.00  0.00    -0.273 OA
BRANCH  79  82
ATOM     82  C   UNL A   1      32.728  26.877  24.159  1.00  0.00     0.176 C 
BRANCH  82  83
ATOM     83  N   UNL A   1      31.300  26.697  23.889  1.00  0.00    -0.340 N 
ATOM     84  C   UNL A   1      30.470  25.658  24.209  1.00  0.00     0.251 C 
ATOM     85  H   UNL A   1      30.872  27.438  23.402  1.00  0.00     0.164 HD
ATOM     86  O   UNL A   1      29.289  25.664  23.884  1.00  0.00    -0.269 OA
BRANCH  84  87
ATOM     87  C   UNL A   1      31.021  24.479  24.903  1.00  0.00     0.040 A 
ATOM     88  C   UNL A   1      31.329  24.523  26.268  1.00  0.00     0.017 A 
ATOM     89  C   UNL A   1      31.219  23.309  24.162  1.00  0.00     0.017 A 
ATOM     90  C   UNL A   1      31.895  23.404  26.879  1.00  0.00     0.040 A 
ATOM     91  C   UNL A   1      31.780  22.192  24.779  1.00  0.00     0.040 A 
ATOM     92  C   UNL A   1      32.124  22.254  26.127  1.00  0.00     0.123 A 
ATOM     93  F   UNL A   1      32.688  21.189  26.712  1.00  0.00    -0.207 F 
ENDBRANCH  84  87
ENDBRANCH  82  83
BRANCH  82  94
ATOM     94  C   UNL A   1      33.653  25.973  23.317  1.00  0.00     0.070 C 
BRANCH  94  95
ATOM     95  C   UNL A   1      34.403  24.867  24.025  1.00  0.00    -0.045 A 
ATOM     96  C   UNL A   1      34.777  23.682  23.373  1.00  0.00     0.007 A 
ATOM     97  C   UNL A   1      34.769  25.039  25.370  1.00  0.00     0.007 A 
ATOM     98  C   UNL A   1      35.444  22.669  24.068  1.00  0.00     0.046 A 
ATOM     99  C   UNL A   1      35.448  24.035  26.059  1.00  0.00     0.046 A 
ATOM    100  C   UNL A   1      35.767  22.852  25.408  1.00  0.00     0.115 A 
BRANCH 100 101
ATOM    101  O   UNL A   1      36.402  21.884  26.125  1.00  0.00    -0.508 OA
ATOM    102  H   UNL A   1      36.103  20.997  26.084  1.00  0.00     0.293 HD
ENDBRANCH 100 101
ENDBRANCH  94  95
ENDBRANCH  82  94
ENDBRANCH  79  82
ENDBRANCH  77  78
BRANCH  77 103
ATOM    103  C   UNL A   1      34.748  29.503  27.214  1.00  0.00     0.191 C 
BRANCH 103 104
ATOM    104  O   UNL A   1      34.218  30.135  28.375  1.00  0.00    -0.394 OA
ATOM    105  H   UNL A   1      33.307  29.835  28.519  1.00  0.00     0.210 HD
ENDBRANCH 103 104
ENDBRANCH  77 103
ENDBRANCH   2  77
TORSDOF 19
ENDMDL
