MODEL 1
REMARK VINA RESULT:     -14.2      0.000      0.000
REMARK SMILES CN1C(=O)C[C@@H](C(=O)NCCCNC(=O)c2ccc(-c3c4nc(c(-c5c(F)c(F)c(F)c(F)c5F)c5ccc([nH]5)c(-c5c(F)c(F)c(F)c(F)c5F)c5nc(c(-c6c(F)c(F)c(F)c(F)c6F)c6ccc3[nH]6)C=C5)C=C4)cc2)C12CCN(C(=O)c1ccccc1-n1cccn1)CC2
REMARK SMILES IDX 11 1 10 2 9 3 7 4 8 5 6 7 1 8 2 9 3 10 79 11 4 12 5 13 80 14
REMARK SMILES IDX 97 15 81 16 96 17 82 18 83 19 84 20 85 21 86 22 90 23 87 24
REMARK SMILES IDX 89 25 88 26 91 27 92 28 95 29 93 30 94 31 12 32 13 33 14 34
REMARK SMILES IDX 15 36 16 37 17 38 78 39 18 40 77 41 19 42 20 43 21 44 71 45
REMARK SMILES IDX 22 46 76 47 70 48 72 49 23 50 75 51 69 52 68 53 24 55 56 56
REMARK SMILES IDX 36 57 55 58 37 59 40 60 54 61 73 62 38 63 39 64 53 66 74 67
REMARK SMILES IDX 41 68 25 69 26 70 34 71 27 72 28 73 32 74 35 75 29 76 30 77
REMARK SMILES IDX 33 78 31 79 57 80 58 81 66 82 59 83 60 84 64 85 67 86 61 87
REMARK SMILES IDX 62 88 65 89 63 90 42 91 43 92 51 93 44 94 45 95 49 96 52 97
REMARK SMILES IDX 46 98 47 99 50 100 48 101
REMARK H PARENT 9 6 13 35 72 54 40 65
REMARK Flexibility Score: inf
ROOT
ATOM      1  C   UNL A   1      31.117  31.647  26.004  1.00  0.00     0.042 C 
ENDROOT
BRANCH   1   2
ATOM      2  C   UNL A   1      31.209  30.245  25.395  1.00  0.00     0.117 C 
BRANCH   2   3
ATOM      3  N   UNL A   1      32.500  29.927  24.796  1.00  0.00    -0.356 N 
ATOM      4  C   UNL A   1      32.898  29.254  23.687  1.00  0.00     0.226 C 
ATOM      5  O   UNL A   1      34.117  29.252  23.472  1.00  0.00    -0.275 OA
ATOM      6  H   UNL A   1      33.256  30.283  25.315  1.00  0.00     0.163 HD
BRANCH   4   7
ATOM      7  C   UNL A   1      31.993  28.462  22.738  1.00  0.00     0.113 C 
ATOM      8  C   UNL A   1      29.406  26.456  24.532  1.00  0.00     0.147 C 
ATOM      9  N   UNL A   1      30.191  27.352  23.705  1.00  0.00    -0.339 N 
ATOM     10  C   UNL A   1      29.643  28.496  23.139  1.00  0.00     0.223 C 
ATOM     11  C   UNL A   1      31.546  27.060  23.206  1.00  0.00     0.058 C 
ATOM     12  O   UNL A   1      28.495  28.898  23.269  1.00  0.00    -0.275 OA
ATOM     13  C   UNL A   1      30.715  29.209  22.366  1.00  0.00     0.116 C 
ATOM     14  C   UNL A   1      32.501  26.446  24.250  1.00  0.00     0.051 C 
ATOM     15  C   UNL A   1      31.405  26.059  22.015  1.00  0.00     0.051 C 
ATOM     16  C   UNL A   1      33.818  25.969  23.646  1.00  0.00     0.122 C 
ATOM     17  C   UNL A   1      32.727  25.467  21.518  1.00  0.00     0.122 C 
ATOM     18  N   UNL A   1      33.534  24.970  22.628  1.00  0.00    -0.338 N 
ATOM     19  C   UNL A   1      33.994  23.653  22.620  1.00  0.00     0.256 C 
ATOM     20  O   UNL A   1      33.757  22.858  21.713  1.00  0.00    -0.269 OA
BRANCH  19  21
ATOM     21  C   UNL A   1      34.851  23.161  23.729  1.00  0.00     0.065 A 
ATOM     22  C   UNL A   1      36.211  22.996  23.416  1.00  0.00     0.016 A 
ATOM     23  C   UNL A   1      34.412  22.924  25.041  1.00  0.00     0.077 A 
ATOM     24  C   UNL A   1      37.129  22.638  24.406  1.00  0.00     0.001 A 
ATOM     25  C   UNL A   1      35.355  22.624  26.042  1.00  0.00     0.029 A 
ATOM     26  C   UNL A   1      36.704  22.467  25.721  1.00  0.00     0.002 A 
BRANCH  23  27
ATOM     27  N   UNL A   1      33.047  22.950  25.414  1.00  0.00    -0.240 N 
ATOM     28  C   UNL A   1      32.001  22.208  24.909  1.00  0.00     0.115 A 
ATOM     29  N   UNL A   1      32.624  23.781  26.407  1.00  0.00    -0.177 NA
ATOM     30  C   UNL A   1      30.866  22.601  25.580  1.00  0.00     0.042 A 
ATOM     31  C   UNL A   1      31.308  23.584  26.476  1.00  0.00     0.135 A 
ENDBRANCH  23  27
ENDBRANCH  19  21
ENDBRANCH   4   7
ENDBRANCH   2   3
ENDBRANCH   1   2
BRANCH   1  32
ATOM     32  C   UNL A   1      32.276  32.004  26.928  1.00  0.00     0.118 C 
BRANCH  32  33
ATOM     33  N   UNL A   1      32.309  33.431  27.207  1.00  0.00    -0.352 N 
ATOM     34  C   UNL A   1      33.047  34.144  28.116  1.00  0.00     0.251 C 
ATOM     35  H   UNL A   1      31.703  33.973  26.652  1.00  0.00     0.163 HD
ATOM     36  O   UNL A   1      32.683  35.279  28.417  1.00  0.00    -0.269 OA
BRANCH  34  37
ATOM     37  C   UNL A   1      34.270  33.582  28.737  1.00  0.00     0.039 A 
ATOM     38  C   UNL A   1      34.132  32.513  29.628  1.00  0.00     0.014 A 
ATOM     39  C   UNL A   1      35.533  34.144  28.527  1.00  0.00     0.014 A 
ATOM     40  C   UNL A   1      35.254  31.993  30.277  1.00  0.00     0.010 A 
ATOM     41  C   UNL A   1      36.664  33.567  29.105  1.00  0.00     0.010 A 
ATOM     42  C   UNL A   1      36.537  32.497  30.001  1.00  0.00    -0.014 A 
BRANCH  42  43
ATOM     43  C   UNL A   1      37.734  31.900  30.650  1.00  0.00     0.031 A 
ATOM     44  C   UNL A   1      38.145  32.306  32.040  1.00  0.00     0.074 A 
ATOM     45  C   UNL A   1      38.464  30.994  29.971  1.00  0.00     0.049 A 
ATOM     46  N   UNL A   1      39.132  31.856  32.776  1.00  0.00    -0.248 NA
ATOM     47  C   UNL A   1      37.364  33.375  32.681  1.00  0.00     0.031 C 
ATOM     48  C   UNL A   1      38.208  30.566  28.595  1.00  0.00     0.029 A 
ATOM     49  N   UNL A   1      39.562  30.261  30.347  1.00  0.00    -0.354 N 
ATOM     50  C   UNL A   1      39.090  32.585  33.957  1.00  0.00     0.074 A 
ATOM     51  C   UNL A   1      38.023  33.551  33.817  1.00  0.00     0.031 C 
ATOM     52  C   UNL A   1      39.092  29.614  28.258  1.00  0.00     0.029 A 
ATOM     53  C   UNL A   1      39.998  29.390  29.379  1.00  0.00     0.049 A 
ATOM     54  H   UNL A   1      39.996  30.351  31.226  1.00  0.00     0.167 HD
ATOM     55  C   UNL A   1      39.852  32.444  35.069  1.00  0.00     0.037 A 
ATOM     56  C   UNL A   1      41.013  28.505  29.394  1.00  0.00     0.037 A 
ATOM     57  C   UNL A   1      40.905  31.470  35.209  1.00  0.00     0.049 A 
ATOM     58  C   UNL A   1      41.838  28.362  30.643  1.00  0.00     0.074 A 
ATOM     59  C   UNL A   1      41.696  31.205  36.314  1.00  0.00     0.029 A 
ATOM     60  N   UNL A   1      41.319  30.604  34.207  1.00  0.00    -0.354 N 
ATOM     61  N   UNL A   1      41.732  28.997  31.786  1.00  0.00    -0.248 NA
ATOM     62  C   UNL A   1      42.918  27.367  30.609  1.00  0.00     0.031 C 
ATOM     63  C   UNL A   1      42.625  30.218  35.963  1.00  0.00     0.029 A 
ATOM     64  C   UNL A   1      42.373  29.824  34.659  1.00  0.00     0.049 A 
ATOM     65  H   UNL A   1      40.922  30.551  33.308  1.00  0.00     0.167 HD
ATOM     66  C   UNL A   1      42.715  28.468  32.609  1.00  0.00     0.074 A 
ATOM     67  C   UNL A   1      43.385  27.436  31.846  1.00  0.00     0.031 C 
ATOM     68  C   UNL A   1      43.039  28.809  33.882  1.00  0.00     0.037 A 
BRANCH  55  69
ATOM     69  C   UNL A   1      39.577  33.364  36.227  1.00  0.00     0.064 A 
ATOM     70  C   UNL A   1      38.731  32.986  37.283  1.00  0.00     0.173 A 
ATOM     71  C   UNL A   1      40.194  34.621  36.303  1.00  0.00     0.173 A 
ATOM     72  F   UNL A   1      38.108  31.798  37.258  1.00  0.00    -0.203 F 
ATOM     73  C   UNL A   1      38.492  33.845  38.353  1.00  0.00     0.198 A 
ATOM     74  C   UNL A   1      39.977  35.464  37.391  1.00  0.00     0.198 A 
ATOM     75  F   UNL A   1      41.016  35.033  35.326  1.00  0.00    -0.203 F 
ATOM     76  F   UNL A   1      37.640  33.482  39.323  1.00  0.00    -0.200 F 
ATOM     77  C   UNL A   1      39.120  35.079  38.411  1.00  0.00     0.200 A 
ATOM     78  F   UNL A   1      40.598  36.650  37.452  1.00  0.00    -0.200 F 
ATOM     79  F   UNL A   1      38.895  35.901  39.445  1.00  0.00    -0.200 F 
ENDBRANCH  55  69
BRANCH  56  80
ATOM     80  C   UNL A   1      41.280  27.660  28.200  1.00  0.00     0.064 A 
ATOM     81  C   UNL A   1      40.683  26.399  28.057  1.00  0.00     0.173 A 
ATOM     82  C   UNL A   1      42.140  28.092  27.180  1.00  0.00     0.173 A 
ATOM     83  F   UNL A   1      39.867  25.933  29.014  1.00  0.00    -0.203 F 
ATOM     84  C   UNL A   1      40.954  25.594  26.953  1.00  0.00     0.198 A 
ATOM     85  C   UNL A   1      42.384  27.300  26.060  1.00  0.00     0.198 A 
ATOM     86  F   UNL A   1      42.729  29.294  27.261  1.00  0.00    -0.203 F 
ATOM     87  F   UNL A   1      40.410  24.372  26.868  1.00  0.00    -0.200 F 
ATOM     88  C   UNL A   1      41.800  26.047  25.952  1.00  0.00     0.200 A 
ATOM     89  F   UNL A   1      43.186  27.751  25.086  1.00  0.00    -0.200 F 
ATOM     90  F   UNL A   1      42.056  25.275  24.888  1.00  0.00    -0.200 F 
ENDBRANCH  56  80
BRANCH  68  91
ATOM     91  C   UNL A   1      44.159  28.041  34.527  1.00  0.00     0.064 A 
ATOM     92  C   UNL A   1      45.489  28.490  34.468  1.00  0.00     0.173 A 
ATOM     93  C   UNL A   1      43.902  26.844  35.211  1.00  0.00     0.173 A 
ATOM     94  F   UNL A   1      45.791  29.622  33.815  1.00  0.00    -0.203 F 
ATOM     95  C   UNL A   1      46.522  27.743  35.029  1.00  0.00     0.198 A 
ATOM     96  C   UNL A   1      44.932  26.120  35.803  1.00  0.00     0.198 A 
ATOM     97  F   UNL A   1      42.648  26.374  35.306  1.00  0.00    -0.203 F 
ATOM     98  F   UNL A   1      47.790  28.155  34.896  1.00  0.00    -0.200 F 
ATOM     99  C   UNL A   1      46.243  26.563  35.699  1.00  0.00     0.200 A 
ATOM    100  F   UNL A   1      44.659  24.987  36.465  1.00  0.00    -0.200 F 
ATOM    101  F   UNL A   1      47.239  25.844  36.235  1.00  0.00    -0.200 F 
ENDBRANCH  68  91
ENDBRANCH  42  43
ENDBRANCH  34  37
ENDBRANCH  32  33
ENDBRANCH   1  32
TORSDOF 12
ENDMDL
MODEL 2
REMARK VINA RESULT:     -14.1      0.061      1.081
REMARK SMILES CN1C(=O)C[C@@H](C(=O)NCCCNC(=O)c2ccc(-c3c4nc(c(-c5c(F)c(F)c(F)c(F)c5F)c5ccc([nH]5)c(-c5c(F)c(F)c(F)c(F)c5F)c5nc(c(-c6c(F)c(F)c(F)c(F)c6F)c6ccc3[nH]6)C=C5)C=C4)cc2)C12CCN(C(=O)c1ccccc1-n1cccn1)CC2
REMARK SMILES IDX 11 1 10 2 9 3 7 4 8 5 6 7 1 8 2 9 3 10 79 11 4 12 5 13 80 14
REMARK SMILES IDX 97 15 81 16 96 17 82 18 83 19 84 20 85 21 86 22 90 23 87 24
REMARK SMILES IDX 89 25 88 26 91 27 92 28 95 29 93 30 94 31 12 32 13 33 14 34
REMARK SMILES IDX 15 36 16 37 17 38 78 39 18 40 77 41 19 42 20 43 21 44 71 45
REMARK SMILES IDX 22 46 76 47 70 48 72 49 23 50 75 51 69 52 68 53 24 55 56 56
REMARK SMILES IDX 36 57 55 58 37 59 40 60 54 61 73 62 38 63 39 64 53 66 74 67
REMARK SMILES IDX 41 68 25 69 26 70 34 71 27 72 28 73 32 74 35 75 29 76 30 77
REMARK SMILES IDX 33 78 31 79 57 80 58 81 66 82 59 83 60 84 64 85 67 86 61 87
REMARK SMILES IDX 62 88 65 89 63 90 42 91 43 92 51 93 44 94 45 95 49 96 52 97
REMARK SMILES IDX 46 98 47 99 50 100 48 101
REMARK H PARENT 9 6 13 35 72 54 40 65
REMARK Flexibility Score: inf
ROOT
ATOM      1  C   UNL A   1      31.100  31.669  26.071  1.00  0.00     0.042 C 
ENDROOT
BRANCH   1   2
ATOM      2  C   UNL A   1      31.163  30.288  25.410  1.00  0.00     0.117 C 
BRANCH   2   3
ATOM      3  N   UNL A   1      32.460  29.950  24.836  1.00  0.00    -0.356 N 
ATOM      4  C   UNL A   1      32.868  29.264  23.739  1.00  0.00     0.226 C 
ATOM      5  O   UNL A   1      34.091  29.245  23.546  1.00  0.00    -0.275 OA
ATOM      6  H   UNL A   1      33.212  30.299  25.366  1.00  0.00     0.163 HD
BRANCH   4   7
ATOM      7  C   UNL A   1      31.970  28.478  22.778  1.00  0.00     0.113 C 
ATOM      8  C   UNL A   1      29.375  26.455  24.543  1.00  0.00     0.147 C 
ATOM      9  N   UNL A   1      30.164  27.358  23.727  1.00  0.00    -0.339 N 
ATOM     10  C   UNL A   1      29.617  28.506  23.167  1.00  0.00     0.223 C 
ATOM     11  C   UNL A   1      31.522  27.072  23.234  1.00  0.00     0.058 C 
ATOM     12  O   UNL A   1      28.468  28.906  23.294  1.00  0.00    -0.275 OA
ATOM     13  C   UNL A   1      30.693  29.227  22.406  1.00  0.00     0.116 C 
ATOM     14  C   UNL A   1      32.473  26.451  24.278  1.00  0.00     0.051 C 
ATOM     15  C   UNL A   1      31.389  26.080  22.034  1.00  0.00     0.051 C 
ATOM     16  C   UNL A   1      33.793  25.981  23.678  1.00  0.00     0.122 C 
ATOM     17  C   UNL A   1      32.715  25.494  21.540  1.00  0.00     0.122 C 
ATOM     18  N   UNL A   1      33.517  24.989  22.650  1.00  0.00    -0.338 N 
ATOM     19  C   UNL A   1      33.978  23.673  22.635  1.00  0.00     0.256 C 
ATOM     20  O   UNL A   1      33.747  22.885  21.721  1.00  0.00    -0.269 OA
BRANCH  19  21
ATOM     21  C   UNL A   1      34.829  23.174  23.745  1.00  0.00     0.065 A 
ATOM     22  C   UNL A   1      36.188  22.997  23.434  1.00  0.00     0.016 A 
ATOM     23  C   UNL A   1      34.387  22.940  25.056  1.00  0.00     0.077 A 
ATOM     24  C   UNL A   1      37.102  22.631  24.424  1.00  0.00     0.001 A 
ATOM     25  C   UNL A   1      35.327  22.632  26.059  1.00  0.00     0.029 A 
ATOM     26  C   UNL A   1      36.674  22.464  25.739  1.00  0.00     0.002 A 
BRANCH  23  27
ATOM     27  N   UNL A   1      33.022  22.977  25.428  1.00  0.00    -0.240 N 
ATOM     28  C   UNL A   1      31.963  22.280  24.889  1.00  0.00     0.115 A 
ATOM     29  N   UNL A   1      32.614  23.773  26.455  1.00  0.00    -0.177 NA
ATOM     30  C   UNL A   1      30.834  22.666  25.575  1.00  0.00     0.042 A 
ATOM     31  C   UNL A   1      31.293  23.600  26.513  1.00  0.00     0.135 A 
ENDBRANCH  23  27
ENDBRANCH  19  21
ENDBRANCH   4   7
ENDBRANCH   2   3
ENDBRANCH   1   2
BRANCH   1  32
ATOM     32  C   UNL A   1      32.355  32.047  26.849  1.00  0.00     0.118 C 
BRANCH  32  33
ATOM     33  N   UNL A   1      32.359  33.461  27.191  1.00  0.00    -0.352 N 
ATOM     34  C   UNL A   1      33.072  34.146  28.140  1.00  0.00     0.251 C 
ATOM     35  H   UNL A   1      31.750  34.016  26.652  1.00  0.00     0.163 HD
ATOM     36  O   UNL A   1      32.684  35.259  28.486  1.00  0.00    -0.269 OA
BRANCH  34  37
ATOM     37  C   UNL A   1      34.298  33.578  28.751  1.00  0.00     0.039 A 
ATOM     38  C   UNL A   1      34.156  32.572  29.712  1.00  0.00     0.014 A 
ATOM     39  C   UNL A   1      35.570  34.080  28.463  1.00  0.00     0.014 A 
ATOM     40  C   UNL A   1      35.283  32.052  30.352  1.00  0.00     0.010 A 
ATOM     41  C   UNL A   1      36.702  33.498  29.035  1.00  0.00     0.010 A 
ATOM     42  C   UNL A   1      36.572  32.491  30.000  1.00  0.00    -0.014 A 
BRANCH  42  43
ATOM     43  C   UNL A   1      37.770  31.892  30.643  1.00  0.00     0.031 A 
ATOM     44  C   UNL A   1      38.193  32.301  32.029  1.00  0.00     0.074 A 
ATOM     45  C   UNL A   1      38.492  30.980  29.963  1.00  0.00     0.049 A 
ATOM     46  N   UNL A   1      39.184  31.850  32.760  1.00  0.00    -0.248 NA
ATOM     47  C   UNL A   1      37.421  33.376  32.672  1.00  0.00     0.031 C 
ATOM     48  C   UNL A   1      38.225  30.548  28.590  1.00  0.00     0.029 A 
ATOM     49  N   UNL A   1      39.590  30.245  30.333  1.00  0.00    -0.354 N 
ATOM     50  C   UNL A   1      39.153  32.584  33.938  1.00  0.00     0.074 A 
ATOM     51  C   UNL A   1      38.089  33.554  33.802  1.00  0.00     0.031 C 
ATOM     52  C   UNL A   1      39.102  29.591  28.250  1.00  0.00     0.029 A 
ATOM     53  C   UNL A   1      40.016  29.368  29.366  1.00  0.00     0.049 A 
ATOM     54  H   UNL A   1      40.031  30.336  31.210  1.00  0.00     0.167 HD
ATOM     55  C   UNL A   1      39.923  32.444  35.045  1.00  0.00     0.037 A 
ATOM     56  C   UNL A   1      41.027  28.478  29.377  1.00  0.00     0.037 A 
ATOM     57  C   UNL A   1      40.973  31.466  35.182  1.00  0.00     0.049 A 
ATOM     58  C   UNL A   1      41.861  28.338  30.620  1.00  0.00     0.074 A 
ATOM     59  C   UNL A   1      41.770  31.202  36.282  1.00  0.00     0.029 A 
ATOM     60  N   UNL A   1      41.376  30.595  34.180  1.00  0.00    -0.354 N 
ATOM     61  N   UNL A   1      41.765  28.977  31.762  1.00  0.00    -0.248 NA
ATOM     62  C   UNL A   1      42.936  27.338  30.582  1.00  0.00     0.031 C 
ATOM     63  C   UNL A   1      42.693  30.211  35.927  1.00  0.00     0.029 A 
ATOM     64  C   UNL A   1      42.431  29.812  34.627  1.00  0.00     0.049 A 
ATOM     65  H   UNL A   1      40.972  30.540  33.283  1.00  0.00     0.167 HD
ATOM     66  C   UNL A   1      42.752  28.447  32.580  1.00  0.00     0.074 A 
ATOM     67  C   UNL A   1      43.413  27.410  31.816  1.00  0.00     0.031 C 
ATOM     68  C   UNL A   1      43.086  28.792  33.849  1.00  0.00     0.037 A 
BRANCH  55  69
ATOM     69  C   UNL A   1      39.659  33.370  36.201  1.00  0.00     0.064 A 
ATOM     70  C   UNL A   1      40.250  34.642  36.276  1.00  0.00     0.173 A 
ATOM     71  C   UNL A   1      38.776  32.999  37.226  1.00  0.00     0.173 A 
ATOM     72  F   UNL A   1      41.109  35.045  35.328  1.00  0.00    -0.203 F 
ATOM     73  C   UNL A   1      39.990  35.492  37.349  1.00  0.00     0.198 A 
ATOM     74  C   UNL A   1      38.493  33.865  38.280  1.00  0.00     0.198 A 
ATOM     75  F   UNL A   1      38.178  31.798  37.204  1.00  0.00    -0.203 F 
ATOM     76  F   UNL A   1      40.606  36.680  37.424  1.00  0.00    -0.200 F 
ATOM     77  C   UNL A   1      39.106  35.106  38.345  1.00  0.00     0.200 A 
ATOM     78  F   UNL A   1      37.627  33.497  39.234  1.00  0.00    -0.200 F 
ATOM     79  F   UNL A   1      38.851  35.929  39.372  1.00  0.00    -0.200 F 
ENDBRANCH  55  69
BRANCH  56  80
ATOM     80  C   UNL A   1      41.282  27.628  28.184  1.00  0.00     0.064 A 
ATOM     81  C   UNL A   1      40.666  26.376  28.043  1.00  0.00     0.173 A 
ATOM     82  C   UNL A   1      42.149  28.045  27.164  1.00  0.00     0.173 A 
ATOM     83  F   UNL A   1      39.843  25.924  29.000  1.00  0.00    -0.203 F 
ATOM     84  C   UNL A   1      40.926  25.565  26.941  1.00  0.00     0.198 A 
ATOM     85  C   UNL A   1      42.382  27.248  26.046  1.00  0.00     0.198 A 
ATOM     86  F   UNL A   1      42.757  29.238  27.244  1.00  0.00    -0.203 F 
ATOM     87  F   UNL A   1      40.364  24.352  26.856  1.00  0.00    -0.200 F 
ATOM     88  C   UNL A   1      41.779  26.005  25.939  1.00  0.00     0.200 A 
ATOM     89  F   UNL A   1      43.191  27.685  25.072  1.00  0.00    -0.200 F 
ATOM     90  F   UNL A   1      42.025  25.227  24.877  1.00  0.00    -0.200 F 
ENDBRANCH  56  80
BRANCH  68  91
ATOM     91  C   UNL A   1      44.208  28.022  34.489  1.00  0.00     0.064 A 
ATOM     92  C   UNL A   1      45.539  28.464  34.417  1.00  0.00     0.173 A 
ATOM     93  C   UNL A   1      43.951  26.829  35.181  1.00  0.00     0.173 A 
ATOM     94  F   UNL A   1      45.841  29.591  33.755  1.00  0.00    -0.203 F 
ATOM     95  C   UNL A   1      46.574  27.715  34.973  1.00  0.00     0.198 A 
ATOM     96  C   UNL A   1      44.983  26.104  35.769  1.00  0.00     0.198 A 
ATOM     97  F   UNL A   1      42.696  26.367  35.289  1.00  0.00    -0.203 F 
ATOM     98  F   UNL A   1      47.842  28.120  34.829  1.00  0.00    -0.200 F 
ATOM     99  C   UNL A   1      46.294  26.540  35.652  1.00  0.00     0.200 A 
ATOM    100  F   UNL A   1      44.710  24.976  36.439  1.00  0.00    -0.200 F 
ATOM    101  F   UNL A   1      47.291  25.819  36.183  1.00  0.00    -0.200 F 
ENDBRANCH  68  91
ENDBRANCH  42  43
ENDBRANCH  34  37
ENDBRANCH  32  33
ENDBRANCH   1  32
TORSDOF 12
ENDMDL
MODEL 3
REMARK VINA RESULT:     -13.9      4.624     10.112
REMARK SMILES CN1C(=O)C[C@@H](C(=O)NCCCNC(=O)c2ccc(-c3c4nc(c(-c5c(F)c(F)c(F)c(F)c5F)c5ccc([nH]5)c(-c5c(F)c(F)c(F)c(F)c5F)c5nc(c(-c6c(F)c(F)c(F)c(F)c6F)c6ccc3[nH]6)C=C5)C=C4)cc2)C12CCN(C(=O)c1ccccc1-n1cccn1)CC2
REMARK SMILES IDX 11 1 10 2 9 3 7 4 8 5 6 7 1 8 2 9 3 10 79 11 4 12 5 13 80 14
REMARK SMILES IDX 97 15 81 16 96 17 82 18 83 19 84 20 85 21 86 22 90 23 87 24
REMARK SMILES IDX 89 25 88 26 91 27 92 28 95 29 93 30 94 31 12 32 13 33 14 34
REMARK SMILES IDX 15 36 16 37 17 38 78 39 18 40 77 41 19 42 20 43 21 44 71 45
REMARK SMILES IDX 22 46 76 47 70 48 72 49 23 50 75 51 69 52 68 53 24 55 56 56
REMARK SMILES IDX 36 57 55 58 37 59 40 60 54 61 73 62 38 63 39 64 53 66 74 67
REMARK SMILES IDX 41 68 25 69 26 70 34 71 27 72 28 73 32 74 35 75 29 76 30 77
REMARK SMILES IDX 33 78 31 79 57 80 58 81 66 82 59 83 60 84 64 85 67 86 61 87
REMARK SMILES IDX 62 88 65 89 63 90 42 91 43 92 51 93 44 94 45 95 49 96 52 97
REMARK SMILES IDX 46 98 47 99 50 100 48 101
REMARK H PARENT 9 6 13 35 72 54 40 65
REMARK Flexibility Score: inf
ROOT
ATOM      1  C   UNL A   1      37.279  19.593  24.967  1.00  0.00     0.042 C 
ENDROOT
BRANCH   1   2
ATOM      2  C   UNL A   1      36.032  20.479  24.900  1.00  0.00     0.117 C 
BRANCH   2   3
ATOM      3  N   UNL A   1      35.732  21.198  26.132  1.00  0.00    -0.356 N 
ATOM      4  C   UNL A   1      34.594  21.517  26.799  1.00  0.00     0.226 C 
ATOM      5  O   UNL A   1      34.753  22.099  27.880  1.00  0.00    -0.275 OA
ATOM      6  H   UNL A   1      36.541  21.529  26.585  1.00  0.00     0.163 HD
BRANCH   4   7
ATOM      7  C   UNL A   1      33.162  21.278  26.309  1.00  0.00     0.113 C 
ATOM      8  C   UNL A   1      32.758  21.906  22.651  1.00  0.00     0.147 C 
ATOM      9  N   UNL A   1      32.818  21.406  24.010  1.00  0.00    -0.339 N 
ATOM     10  C   UNL A   1      32.860  20.045  24.290  1.00  0.00     0.223 C 
ATOM     11  C   UNL A   1      32.631  22.231  25.216  1.00  0.00     0.058 C 
ATOM     12  O   UNL A   1      32.874  19.133  23.476  1.00  0.00    -0.275 OA
ATOM     13  C   UNL A   1      32.939  19.864  25.779  1.00  0.00     0.116 C 
ATOM     14  C   UNL A   1      33.370  23.586  25.194  1.00  0.00     0.051 C 
ATOM     15  C   UNL A   1      31.100  22.505  25.368  1.00  0.00     0.051 C 
ATOM     16  C   UNL A   1      32.986  24.493  26.358  1.00  0.00     0.122 C 
ATOM     17  C   UNL A   1      30.739  23.538  26.440  1.00  0.00     0.122 C 
ATOM     18  N   UNL A   1      31.554  24.742  26.311  1.00  0.00    -0.338 N 
ATOM     19  C   UNL A   1      30.941  25.990  26.199  1.00  0.00     0.256 C 
ATOM     20  O   UNL A   1      29.722  26.148  26.203  1.00  0.00    -0.269 OA
BRANCH  19  21
ATOM     21  C   UNL A   1      31.772  27.217  26.110  1.00  0.00     0.065 A 
ATOM     22  C   UNL A   1      31.843  27.987  27.284  1.00  0.00     0.016 A 
ATOM     23  C   UNL A   1      32.517  27.605  24.986  1.00  0.00     0.077 A 
ATOM     24  C   UNL A   1      32.676  29.106  27.350  1.00  0.00     0.001 A 
ATOM     25  C   UNL A   1      33.399  28.699  25.084  1.00  0.00     0.029 A 
ATOM     26  C   UNL A   1      33.464  29.453  26.256  1.00  0.00     0.002 A 
BRANCH  23  27
ATOM     27  N   UNL A   1      32.412  26.960  23.731  1.00  0.00    -0.240 N 
ATOM     28  C   UNL A   1      31.301  26.805  22.932  1.00  0.00     0.115 A 
ATOM     29  N   UNL A   1      33.513  26.399  23.155  1.00  0.00    -0.177 NA
ATOM     30  C   UNL A   1      31.697  26.094  21.822  1.00  0.00     0.042 A 
ATOM     31  C   UNL A   1      33.063  25.856  22.024  1.00  0.00     0.135 A 
ENDBRANCH  23  27
ENDBRANCH  19  21
ENDBRANCH   4   7
ENDBRANCH   2   3
ENDBRANCH   1   2
BRANCH   1  32
ATOM     32  C   UNL A   1      38.549  20.330  25.375  1.00  0.00     0.118 C 
BRANCH  32  33
ATOM     33  N   UNL A   1      39.612  19.401  25.721  1.00  0.00    -0.352 N 
ATOM     34  C   UNL A   1      40.916  19.630  26.075  1.00  0.00     0.251 C 
ATOM     35  H   UNL A   1      39.352  18.451  25.699  1.00  0.00     0.163 HD
ATOM     36  O   UNL A   1      41.724  18.707  25.999  1.00  0.00    -0.269 OA
BRANCH  34  37
ATOM     37  C   UNL A   1      41.371  20.960  26.548  1.00  0.00     0.039 A 
ATOM     38  C   UNL A   1      41.798  21.893  25.598  1.00  0.00     0.014 A 
ATOM     39  C   UNL A   1      41.469  21.268  27.908  1.00  0.00     0.014 A 
ATOM     40  C   UNL A   1      42.287  23.135  26.008  1.00  0.00     0.010 A 
ATOM     41  C   UNL A   1      41.872  22.541  28.313  1.00  0.00     0.010 A 
ATOM     42  C   UNL A   1      42.304  23.483  27.370  1.00  0.00    -0.014 A 
BRANCH  42  43
ATOM     43  C   UNL A   1      42.771  24.829  27.795  1.00  0.00     0.031 A 
ATOM     44  C   UNL A   1      44.234  25.181  27.783  1.00  0.00     0.074 A 
ATOM     45  C   UNL A   1      41.865  25.736  28.210  1.00  0.00     0.049 A 
ATOM     46  N   UNL A   1      44.814  26.320  28.077  1.00  0.00    -0.248 NA
ATOM     47  C   UNL A   1      45.175  24.111  27.418  1.00  0.00     0.031 C 
ATOM     48  C   UNL A   1      40.426  25.495  28.330  1.00  0.00     0.029 A 
ATOM     49  N   UNL A   1      42.015  27.044  28.598  1.00  0.00    -0.354 N 
ATOM     50  C   UNL A   1      46.178  26.100  27.935  1.00  0.00     0.074 A 
ATOM     51  C   UNL A   1      46.346  24.705  27.593  1.00  0.00     0.031 C 
ATOM     52  C   UNL A   1      39.820  26.628  28.716  1.00  0.00     0.029 A 
ATOM     53  C   UNL A   1      40.829  27.665  28.905  1.00  0.00     0.049 A 
ATOM     54  H   UNL A   1      42.889  27.494  28.650  1.00  0.00     0.167 HD
ATOM     55  C   UNL A   1      47.197  26.987  28.052  1.00  0.00     0.037 A 
ATOM     56  C   UNL A   1      40.581  28.931  29.292  1.00  0.00     0.037 A 
ATOM     57  C   UNL A   1      47.023  28.379  28.380  1.00  0.00     0.049 A 
ATOM     58  C   UNL A   1      41.729  29.896  29.406  1.00  0.00     0.074 A 
ATOM     59  C   UNL A   1      47.982  29.374  28.464  1.00  0.00     0.029 A 
ATOM     60  N   UNL A   1      45.807  28.973  28.686  1.00  0.00    -0.354 N 
ATOM     61  N   UNL A   1      43.006  29.699  29.184  1.00  0.00    -0.248 NA
ATOM     62  C   UNL A   1      41.397  31.268  29.813  1.00  0.00     0.031 C 
ATOM     63  C   UNL A   1      47.355  30.556  28.876  1.00  0.00     0.029 A 
ATOM     64  C   UNL A   1      45.995  30.314  28.987  1.00  0.00     0.049 A 
ATOM     65  H   UNL A   1      44.937  28.511  28.688  1.00  0.00     0.167 HD
ATOM     66  C   UNL A   1      43.625  30.921  29.404  1.00  0.00     0.074 A 
ATOM     67  C   UNL A   1      42.578  31.862  29.745  1.00  0.00     0.031 C 
ATOM     68  C   UNL A   1      44.943  31.235  29.337  1.00  0.00     0.037 A 
BRANCH  55  69
ATOM     69  C   UNL A   1      48.594  26.480  27.823  1.00  0.00     0.064 A 
ATOM     70  C   UNL A   1      49.138  26.376  26.532  1.00  0.00     0.173 A 
ATOM     71  C   UNL A   1      49.414  26.131  28.906  1.00  0.00     0.173 A 
ATOM     72  F   UNL A   1      48.395  26.688  25.459  1.00  0.00    -0.203 F 
ATOM     73  C   UNL A   1      50.437  25.913  26.336  1.00  0.00     0.198 A 
ATOM     74  C   UNL A   1      50.724  25.700  28.707  1.00  0.00     0.198 A 
ATOM     75  F   UNL A   1      48.950  26.216  30.162  1.00  0.00    -0.203 F 
ATOM     76  F   UNL A   1      50.914  25.773  25.091  1.00  0.00    -0.200 F 
ATOM     77  C   UNL A   1      51.231  25.583  27.422  1.00  0.00     0.200 A 
ATOM     78  F   UNL A   1      51.496  25.396  29.760  1.00  0.00    -0.200 F 
ATOM     79  F   UNL A   1      52.484  25.145  27.231  1.00  0.00    -0.200 F 
ENDBRANCH  55  69
BRANCH  56  80
ATOM     80  C   UNL A   1      39.186  29.365  29.564  1.00  0.00     0.064 A 
ATOM     81  C   UNL A   1      38.674  29.381  30.869  1.00  0.00     0.173 A 
ATOM     82  C   UNL A   1      38.333  29.767  28.525  1.00  0.00     0.173 A 
ATOM     83  F   UNL A   1      39.444  28.987  31.894  1.00  0.00    -0.203 F 
ATOM     84  C   UNL A   1      37.358  29.760  31.123  1.00  0.00     0.198 A 
ATOM     85  C   UNL A   1      37.027  30.178  28.784  1.00  0.00     0.198 A 
ATOM     86  F   UNL A   1      38.774  29.780  27.259  1.00  0.00    -0.203 F 
ATOM     87  F   UNL A   1      36.880  29.717  32.374  1.00  0.00    -0.200 F 
ATOM     88  C   UNL A   1      36.537  30.164  30.081  1.00  0.00     0.200 A 
ATOM     89  F   UNL A   1      36.244  30.587  27.777  1.00  0.00    -0.200 F 
ATOM     90  F   UNL A   1      35.273  30.534  30.325  1.00  0.00    -0.200 F 
ENDBRANCH  56  80
BRANCH  68  91
ATOM     91  C   UNL A   1      45.316  32.663  29.623  1.00  0.00     0.064 A 
ATOM     92  C   UNL A   1      45.655  33.091  30.917  1.00  0.00     0.173 A 
ATOM     93  C   UNL A   1      45.335  33.616  28.593  1.00  0.00     0.173 A 
ATOM     94  F   UNL A   1      45.640  32.224  31.940  1.00  0.00    -0.203 F 
ATOM     95  C   UNL A   1      45.951  34.427  31.176  1.00  0.00     0.198 A 
ATOM     96  C   UNL A   1      45.669  34.942  28.848  1.00  0.00     0.198 A 
ATOM     97  F   UNL A   1      45.030  33.259  27.336  1.00  0.00    -0.203 F 
ATOM     98  F   UNL A   1      46.200  34.825  32.430  1.00  0.00    -0.200 F 
ATOM     99  C   UNL A   1      45.963  35.350  30.141  1.00  0.00     0.200 A 
ATOM    100  F   UNL A   1      45.695  35.830  27.845  1.00  0.00    -0.200 F 
ATOM    101  F   UNL A   1      46.244  36.635  30.392  1.00  0.00    -0.200 F 
ENDBRANCH  68  91
ENDBRANCH  42  43
ENDBRANCH  34  37
ENDBRANCH  32  33
ENDBRANCH   1  32
TORSDOF 12
ENDMDL
