MODEL 1
REMARK VINA RESULT:     -13.3      0.000      0.000
REMARK SMILES Cc1cc(C)c2c(c1)C=C(C(=O)NCCCNC(=O)c1ccc(-c3c4nc(c(-c5c(F)c(F)c(F)c(F)c5F)c5ccc([nH]5)c(-c5c(F)c(F)c(F)c(F)c5F)c5nc(c(-c6c(F)c(F)c(F)c(F)c6F)c6ccc3[nH]6)C=C5)C=C4)cc1)[C@@H](C(F)(F)F)O2
REMARK SMILES IDX 15 1 14 2 13 3 11 4 12 5 10 7 1 8 2 9 3 10 8 11 4 12 7 13
REMARK SMILES IDX 5 14 6 15 9 16 88 17 83 18 84 19 85 20 86 21 87 22 16 23
REMARK SMILES IDX 17 24 18 25 19 27 20 28 21 29 82 30 22 31 81 32 23 33 24 34
REMARK SMILES IDX 25 35 75 36 26 37 80 38 74 39 76 40 27 41 79 42 73 43 72 44
REMARK SMILES IDX 28 46 60 47 40 48 59 49 41 50 44 51 58 52 77 53 42 54 43 55
REMARK SMILES IDX 57 57 78 58 45 59 29 60 30 61 38 62 31 63 32 64 36 65 39 66
REMARK SMILES IDX 33 67 34 68 37 69 35 70 61 71 62 72 70 73 63 74 64 75 68 76
REMARK SMILES IDX 71 77 65 78 66 79 69 80 67 81 46 82 47 83 55 84 48 85 49 86
REMARK SMILES IDX 53 87 56 88 50 89 51 90 54 91 52 92
REMARK H PARENT 13 6 17 26 76 45 44 56
REMARK Flexibility Score: inf
ROOT
ATOM      1  C   UNL A   1      31.392  32.205  26.642  1.00  0.00     0.042 C 
ENDROOT
BRANCH   1   2
ATOM      2  C   UNL A   1      31.513  30.712  26.377  1.00  0.00     0.118 C 
BRANCH   2   3
ATOM      3  N   UNL A   1      31.244  30.385  24.985  1.00  0.00    -0.352 N 
ATOM      4  C   UNL A   1      31.211  29.271  24.217  1.00  0.00     0.251 C 
ATOM      5  O   UNL A   1      30.925  29.460  23.030  1.00  0.00    -0.270 OA
ATOM      6  H   UNL A   1      31.028  31.189  24.462  1.00  0.00     0.163 HD
BRANCH   4   7
ATOM      7  C   UNL A   1      31.492  27.890  24.702  1.00  0.00     0.067 C 
ATOM      8  C   UNL A   1      36.152  23.953  25.730  1.00  0.00     0.044 C 
ATOM      9  C   UNL A   1      34.737  24.450  25.725  1.00  0.00    -0.050 A 
ATOM     10  C   UNL A   1      33.712  23.650  26.249  1.00  0.00     0.010 A 
ATOM     11  C   UNL A   1      34.435  25.738  25.259  1.00  0.00     0.015 A 
ATOM     12  C   UNL A   1      32.393  24.113  26.295  1.00  0.00    -0.008 A 
ATOM     13  C   UNL A   1      33.121  26.212  25.292  1.00  0.00     0.018 A 
ATOM     14  C   UNL A   1      31.293  23.250  26.845  1.00  0.00     0.048 C 
ATOM     15  C   UNL A   1      32.113  25.394  25.809  1.00  0.00     0.130 A 
ATOM     16  C   UNL A   1      32.789  27.558  24.836  1.00  0.00     0.025 C 
ATOM     17  O   UNL A   1      30.819  25.824  25.916  1.00  0.00    -0.475 OA
ATOM     18  C   UNL A   1      30.424  26.882  25.011  1.00  0.00     0.314 C 
BRANCH  18  19
ATOM     19  C   UNL A   1      29.795  26.267  23.746  1.00  0.00     0.429 C 
ATOM     20  F   UNL A   1      28.599  26.854  23.485  1.00  0.00    -0.167 F 
ATOM     21  F   UNL A   1      30.558  26.455  22.642  1.00  0.00    -0.167 F 
ATOM     22  F   UNL A   1      29.583  24.939  23.851  1.00  0.00    -0.167 F 
ENDBRANCH  18  19
ENDBRANCH   4   7
ENDBRANCH   2   3
ENDBRANCH   1   2
BRANCH   1  23
ATOM     23  C   UNL A   1      32.694  32.798  27.160  1.00  0.00     0.118 C 
BRANCH  23  24
ATOM     24  N   UNL A   1      32.523  34.189  27.579  1.00  0.00    -0.352 N 
ATOM     25  C   UNL A   1      33.044  34.859  28.654  1.00  0.00     0.251 C 
ATOM     26  H   UNL A   1      31.942  34.728  26.996  1.00  0.00     0.163 HD
ATOM     27  O   UNL A   1      32.558  35.934  29.002  1.00  0.00    -0.269 OA
BRANCH  25  28
ATOM     28  C   UNL A   1      34.187  34.295  29.393  1.00  0.00     0.039 A 
ATOM     29  C   UNL A   1      33.956  33.555  30.555  1.00  0.00     0.014 A 
ATOM     30  C   UNL A   1      35.492  34.524  28.952  1.00  0.00     0.014 A 
ATOM     31  C   UNL A   1      35.035  32.993  31.237  1.00  0.00     0.010 A 
ATOM     32  C   UNL A   1      36.553  33.881  29.570  1.00  0.00     0.010 A 
ATOM     33  C   UNL A   1      36.339  33.125  30.729  1.00  0.00    -0.014 A 
BRANCH  33  34
ATOM     34  C   UNL A   1      37.501  32.514  31.414  1.00  0.00     0.031 A 
ATOM     35  C   UNL A   1      38.232  31.373  30.762  1.00  0.00     0.074 A 
ATOM     36  C   UNL A   1      37.853  32.944  32.642  1.00  0.00     0.049 A 
ATOM     37  N   UNL A   1      39.218  30.651  31.228  1.00  0.00    -0.248 NA
ATOM     38  C   UNL A   1      37.776  30.966  29.421  1.00  0.00     0.031 C 
ATOM     39  C   UNL A   1      37.181  34.008  33.389  1.00  0.00     0.029 A 
ATOM     40  N   UNL A   1      38.857  32.532  33.480  1.00  0.00    -0.354 N 
ATOM     41  C   UNL A   1      39.488  29.705  30.248  1.00  0.00     0.074 A 
ATOM     42  C   UNL A   1      38.527  29.899  29.188  1.00  0.00     0.031 C 
ATOM     43  C   UNL A   1      37.808  34.185  34.563  1.00  0.00     0.029 A 
ATOM     44  C   UNL A   1      38.897  33.219  34.670  1.00  0.00     0.049 A 
ATOM     45  H   UNL A   1      39.489  31.813  33.253  1.00  0.00     0.167 HD
ATOM     46  C   UNL A   1      40.472  28.779  30.225  1.00  0.00     0.037 A 
ATOM     47  C   UNL A   1      39.717  33.077  35.729  1.00  0.00     0.037 A 
ATOM     48  C   UNL A   1      41.454  28.625  31.264  1.00  0.00     0.049 A 
ATOM     49  C   UNL A   1      40.805  32.038  35.673  1.00  0.00     0.074 A 
ATOM     50  C   UNL A   1      42.535  27.765  31.301  1.00  0.00     0.029 A 
ATOM     51  N   UNL A   1      41.474  29.352  32.444  1.00  0.00    -0.354 N 
ATOM     52  N   UNL A   1      41.095  31.198  34.708  1.00  0.00    -0.248 NA
ATOM     53  C   UNL A   1      41.683  31.928  36.846  1.00  0.00     0.031 C 
ATOM     54  C   UNL A   1      43.181  27.933  32.528  1.00  0.00     0.029 A 
ATOM     55  C   UNL A   1      42.536  28.938  33.230  1.00  0.00     0.049 A 
ATOM     56  H   UNL A   1      40.829  30.055  32.688  1.00  0.00     0.167 HD
ATOM     57  C   UNL A   1      42.198  30.478  35.147  1.00  0.00     0.074 A 
ATOM     58  C   UNL A   1      42.539  30.994  36.456  1.00  0.00     0.031 C 
ATOM     59  C   UNL A   1      42.864  29.475  34.526  1.00  0.00     0.037 A 
BRANCH  46  60
ATOM     60  C   UNL A   1      40.568  27.873  29.034  1.00  0.00     0.064 A 
ATOM     61  C   UNL A   1      39.776  26.720  28.926  1.00  0.00     0.173 A 
ATOM     62  C   UNL A   1      41.381  28.217  27.944  1.00  0.00     0.173 A 
ATOM     63  F   UNL A   1      38.993  26.340  29.946  1.00  0.00    -0.203 F 
ATOM     64  C   UNL A   1      39.796  25.944  27.770  1.00  0.00     0.198 A 
ATOM     65  C   UNL A   1      41.377  27.455  26.779  1.00  0.00     0.198 A 
ATOM     66  F   UNL A   1      42.156  29.311  27.996  1.00  0.00    -0.203 F 
ATOM     67  F   UNL A   1      39.048  24.835  27.697  1.00  0.00    -0.200 F 
ATOM     68  C   UNL A   1      40.584  26.320  26.693  1.00  0.00     0.200 A 
ATOM     69  F   UNL A   1      42.128  27.828  25.734  1.00  0.00    -0.200 F 
ATOM     70  F   UNL A   1      40.579  25.589  25.570  1.00  0.00    -0.200 F 
ENDBRANCH  46  60
BRANCH  47  71
ATOM     71  C   UNL A   1      39.553  33.953  36.920  1.00  0.00     0.064 A 
ATOM     72  C   UNL A   1      40.159  35.216  36.976  1.00  0.00     0.173 A 
ATOM     73  C   UNL A   1      38.791  33.548  38.025  1.00  0.00     0.173 A 
ATOM     74  F   UNL A   1      40.913  35.643  35.953  1.00  0.00    -0.203 F 
ATOM     75  C   UNL A   1      40.026  36.031  38.099  1.00  0.00     0.198 A 
ATOM     76  C   UNL A   1      38.631  34.376  39.135  1.00  0.00     0.198 A 
ATOM     77  F   UNL A   1      38.184  32.351  38.023  1.00  0.00    -0.203 F 
ATOM     78  F   UNL A   1      40.655  37.213  38.144  1.00  0.00    -0.200 F 
ATOM     79  C   UNL A   1      39.257  35.613  39.176  1.00  0.00     0.200 A 
ATOM     80  F   UNL A   1      37.873  33.975  40.164  1.00  0.00    -0.200 F 
ATOM     81  F   UNL A   1      39.125  36.399  40.253  1.00  0.00    -0.200 F 
ENDBRANCH  47  71
BRANCH  59  82
ATOM     82  C   UNL A   1      44.041  28.874  35.236  1.00  0.00     0.064 A 
ATOM     83  C   UNL A   1      43.892  27.782  36.101  1.00  0.00     0.173 A 
ATOM     84  C   UNL A   1      45.339  29.338  34.977  1.00  0.00     0.173 A 
ATOM     85  F   UNL A   1      42.669  27.309  36.388  1.00  0.00    -0.203 F 
ATOM     86  C   UNL A   1      45.000  27.182  36.692  1.00  0.00     0.198 A 
ATOM     87  C   UNL A   1      46.448  28.715  35.543  1.00  0.00     0.198 A 
ATOM     88  F   UNL A   1      45.535  30.374  34.146  1.00  0.00    -0.203 F 
ATOM     89  F   UNL A   1      44.833  26.159  37.541  1.00  0.00    -0.200 F 
ATOM     90  C   UNL A   1      46.277  27.640  36.402  1.00  0.00     0.200 A 
ATOM     91  F   UNL A   1      47.681  29.146  35.244  1.00  0.00    -0.200 F 
ATOM     92  F   UNL A   1      47.344  27.047  36.954  1.00  0.00    -0.200 F 
ENDBRANCH  59  82
ENDBRANCH  33  34
ENDBRANCH  25  28
ENDBRANCH  23  24
ENDBRANCH   1  23
TORSDOF 11
ENDMDL
MODEL 2
REMARK VINA RESULT:     -13.2      1.188      1.756
REMARK SMILES Cc1cc(C)c2c(c1)C=C(C(=O)NCCCNC(=O)c1ccc(-c3c4nc(c(-c5c(F)c(F)c(F)c(F)c5F)c5ccc([nH]5)c(-c5c(F)c(F)c(F)c(F)c5F)c5nc(c(-c6c(F)c(F)c(F)c(F)c6F)c6ccc3[nH]6)C=C5)C=C4)cc1)[C@@H](C(F)(F)F)O2
REMARK SMILES IDX 15 1 14 2 13 3 11 4 12 5 10 7 1 8 2 9 3 10 8 11 4 12 7 13
REMARK SMILES IDX 5 14 6 15 9 16 88 17 83 18 84 19 85 20 86 21 87 22 16 23
REMARK SMILES IDX 17 24 18 25 19 27 20 28 21 29 82 30 22 31 81 32 23 33 24 34
REMARK SMILES IDX 25 35 75 36 26 37 80 38 74 39 76 40 27 41 79 42 73 43 72 44
REMARK SMILES IDX 28 46 60 47 40 48 59 49 41 50 44 51 58 52 77 53 42 54 43 55
REMARK SMILES IDX 57 57 78 58 45 59 29 60 30 61 38 62 31 63 32 64 36 65 39 66
REMARK SMILES IDX 33 67 34 68 37 69 35 70 61 71 62 72 70 73 63 74 64 75 68 76
REMARK SMILES IDX 71 77 65 78 66 79 69 80 67 81 46 82 47 83 55 84 48 85 49 86
REMARK SMILES IDX 53 87 56 88 50 89 51 90 54 91 52 92
REMARK H PARENT 13 6 17 26 76 45 44 56
REMARK Flexibility Score: inf
ROOT
ATOM      1  C   UNL A   1      31.397  32.362  26.499  1.00  0.00     0.042 C 
ENDROOT
BRANCH   1   2
ATOM      2  C   UNL A   1      31.380  30.846  26.368  1.00  0.00     0.118 C 
BRANCH   2   3
ATOM      3  N   UNL A   1      31.173  30.424  24.991  1.00  0.00    -0.352 N 
ATOM      4  C   UNL A   1      31.290  29.280  24.277  1.00  0.00     0.251 C 
ATOM      5  O   UNL A   1      31.000  29.377  23.080  1.00  0.00    -0.270 OA
ATOM      6  H   UNL A   1      30.868  31.170  24.428  1.00  0.00     0.163 HD
BRANCH   4   7
ATOM      7  C   UNL A   1      31.732  27.969  24.831  1.00  0.00     0.067 C 
ATOM      8  C   UNL A   1      29.525  22.700  27.206  1.00  0.00     0.044 C 
ATOM      9  C   UNL A   1      30.557  23.663  26.699  1.00  0.00    -0.050 A 
ATOM     10  C   UNL A   1      31.908  23.291  26.673  1.00  0.00     0.010 A 
ATOM     11  C   UNL A   1      30.176  24.912  26.188  1.00  0.00     0.015 A 
ATOM     12  C   UNL A   1      32.880  24.157  26.161  1.00  0.00    -0.008 A 
ATOM     13  C   UNL A   1      31.136  25.791  25.679  1.00  0.00     0.018 A 
ATOM     14  C   UNL A   1      34.329  23.763  26.144  1.00  0.00     0.048 C 
ATOM     15  C   UNL A   1      32.480  25.404  25.672  1.00  0.00     0.130 A 
ATOM     16  C   UNL A   1      30.760  27.085  25.120  1.00  0.00     0.025 C 
ATOM     17  O   UNL A   1      33.455  26.200  25.139  1.00  0.00    -0.475 OA
ATOM     18  C   UNL A   1      33.167  27.617  25.094  1.00  0.00     0.314 C 
BRANCH  18  19
ATOM     19  C   UNL A   1      33.728  28.296  26.358  1.00  0.00     0.429 C 
ATOM     20  F   UNL A   1      34.839  27.644  26.785  1.00  0.00    -0.167 F 
ATOM     21  F   UNL A   1      34.102  29.579  26.138  1.00  0.00    -0.167 F 
ATOM     22  F   UNL A   1      32.850  28.317  27.383  1.00  0.00    -0.167 F 
ENDBRANCH  18  19
ENDBRANCH   4   7
ENDBRANCH   2   3
ENDBRANCH   1   2
BRANCH   1  23
ATOM     23  C   UNL A   1      32.625  32.853  27.252  1.00  0.00     0.118 C 
BRANCH  23  24
ATOM     24  N   UNL A   1      32.496  34.259  27.634  1.00  0.00    -0.352 N 
ATOM     25  C   UNL A   1      33.048  34.945  28.683  1.00  0.00     0.251 C 
ATOM     26  H   UNL A   1      31.920  34.797  27.044  1.00  0.00     0.163 HD
ATOM     27  O   UNL A   1      32.594  36.041  29.007  1.00  0.00    -0.269 OA
BRANCH  25  28
ATOM     28  C   UNL A   1      34.187  34.372  29.421  1.00  0.00     0.039 A 
ATOM     29  C   UNL A   1      33.957  33.690  30.619  1.00  0.00     0.014 A 
ATOM     30  C   UNL A   1      35.489  34.536  28.945  1.00  0.00     0.014 A 
ATOM     31  C   UNL A   1      35.030  33.120  31.302  1.00  0.00     0.010 A 
ATOM     32  C   UNL A   1      36.541  33.882  29.568  1.00  0.00     0.010 A 
ATOM     33  C   UNL A   1      36.326  33.184  30.763  1.00  0.00    -0.014 A 
BRANCH  33  34
ATOM     34  C   UNL A   1      37.481  32.561  31.449  1.00  0.00     0.031 A 
ATOM     35  C   UNL A   1      38.205  31.416  30.795  1.00  0.00     0.074 A 
ATOM     36  C   UNL A   1      37.833  32.984  32.679  1.00  0.00     0.049 A 
ATOM     37  N   UNL A   1      39.184  30.685  31.262  1.00  0.00    -0.248 NA
ATOM     38  C   UNL A   1      37.750  31.017  29.452  1.00  0.00     0.031 C 
ATOM     39  C   UNL A   1      37.167  34.052  33.427  1.00  0.00     0.029 A 
ATOM     40  N   UNL A   1      38.831  32.562  33.519  1.00  0.00    -0.354 N 
ATOM     41  C   UNL A   1      39.449  29.740  30.281  1.00  0.00     0.074 A 
ATOM     42  C   UNL A   1      38.492  29.945  29.218  1.00  0.00     0.031 C 
ATOM     43  C   UNL A   1      37.792  34.220  34.604  1.00  0.00     0.029 A 
ATOM     44  C   UNL A   1      38.873  33.245  34.711  1.00  0.00     0.049 A 
ATOM     45  H   UNL A   1      39.458  31.838  33.292  1.00  0.00     0.167 HD
ATOM     46  C   UNL A   1      40.425  28.805  30.257  1.00  0.00     0.037 A 
ATOM     47  C   UNL A   1      39.688  33.094  35.773  1.00  0.00     0.037 A 
ATOM     48  C   UNL A   1      41.402  28.640  31.299  1.00  0.00     0.049 A 
ATOM     49  C   UNL A   1      40.768  32.045  35.716  1.00  0.00     0.074 A 
ATOM     50  C   UNL A   1      42.477  27.771  31.336  1.00  0.00     0.029 A 
ATOM     51  N   UNL A   1      41.425  29.363  32.482  1.00  0.00    -0.354 N 
ATOM     52  N   UNL A   1      41.054  31.206  34.749  1.00  0.00    -0.248 NA
ATOM     53  C   UNL A   1      41.641  31.924  36.892  1.00  0.00     0.031 C 
ATOM     54  C   UNL A   1      43.121  27.931  32.566  1.00  0.00     0.029 A 
ATOM     55  C   UNL A   1      42.481  28.939  33.270  1.00  0.00     0.049 A 
ATOM     56  H   UNL A   1      40.785  30.071  32.725  1.00  0.00     0.167 HD
ATOM     57  C   UNL A   1      42.150  30.475  35.190  1.00  0.00     0.074 A 
ATOM     58  C   UNL A   1      42.491  30.985  36.501  1.00  0.00     0.031 C 
ATOM     59  C   UNL A   1      42.810  29.469  34.568  1.00  0.00     0.037 A 
BRANCH  46  60
ATOM     60  C   UNL A   1      40.518  27.903  29.064  1.00  0.00     0.064 A 
ATOM     61  C   UNL A   1      39.757  26.726  28.976  1.00  0.00     0.173 A 
ATOM     62  C   UNL A   1      41.291  28.270  27.954  1.00  0.00     0.173 A 
ATOM     63  F   UNL A   1      39.012  26.324  30.016  1.00  0.00    -0.203 F 
ATOM     64  C   UNL A   1      39.771  25.951  27.819  1.00  0.00     0.198 A 
ATOM     65  C   UNL A   1      41.281  27.508  26.789  1.00  0.00     0.198 A 
ATOM     66  F   UNL A   1      42.035  29.387  27.986  1.00  0.00    -0.203 F 
ATOM     67  F   UNL A   1      39.054  24.820  27.765  1.00  0.00    -0.200 F 
ATOM     68  C   UNL A   1      40.520  26.350  26.723  1.00  0.00     0.200 A 
ATOM     69  F   UNL A   1      41.994  27.902  25.725  1.00  0.00    -0.200 F 
ATOM     70  F   UNL A   1      40.507  25.618  25.600  1.00  0.00    -0.200 F 
ENDBRANCH  46  60
BRANCH  47  71
ATOM     71  C   UNL A   1      39.528  33.967  36.965  1.00  0.00     0.064 A 
ATOM     72  C   UNL A   1      40.125  35.234  37.018  1.00  0.00     0.173 A 
ATOM     73  C   UNL A   1      38.778  33.555  38.077  1.00  0.00     0.173 A 
ATOM     74  F   UNL A   1      40.867  35.667  35.989  1.00  0.00    -0.203 F 
ATOM     75  C   UNL A   1      39.995  36.047  38.143  1.00  0.00     0.198 A 
ATOM     76  C   UNL A   1      38.622  34.381  39.189  1.00  0.00     0.198 A 
ATOM     77  F   UNL A   1      38.180  32.354  38.078  1.00  0.00    -0.203 F 
ATOM     78  F   UNL A   1      40.617  37.233  38.184  1.00  0.00    -0.200 F 
ATOM     79  C   UNL A   1      39.239  35.622  39.225  1.00  0.00     0.200 A 
ATOM     80  F   UNL A   1      37.875  33.974  40.223  1.00  0.00    -0.200 F 
ATOM     81  F   UNL A   1      39.109  36.406  40.304  1.00  0.00    -0.200 F 
ENDBRANCH  47  71
BRANCH  59  82
ATOM     82  C   UNL A   1      43.980  28.857  35.280  1.00  0.00     0.064 A 
ATOM     83  C   UNL A   1      43.817  27.772  36.152  1.00  0.00     0.173 A 
ATOM     84  C   UNL A   1      45.284  29.300  35.015  1.00  0.00     0.173 A 
ATOM     85  F   UNL A   1      42.588  27.319  36.445  1.00  0.00    -0.203 F 
ATOM     86  C   UNL A   1      44.918  27.161  36.745  1.00  0.00     0.198 A 
ATOM     87  C   UNL A   1      46.385  28.666  35.583  1.00  0.00     0.198 A 
ATOM     88  F   UNL A   1      45.493  30.327  34.177  1.00  0.00    -0.203 F 
ATOM     89  F   UNL A   1      44.738  26.147  37.602  1.00  0.00    -0.200 F 
ATOM     90  C   UNL A   1      46.201  27.600  36.450  1.00  0.00     0.200 A 
ATOM     91  F   UNL A   1      47.623  29.077  35.279  1.00  0.00    -0.200 F 
ATOM     92  F   UNL A   1      47.260  26.994  37.003  1.00  0.00    -0.200 F 
ENDBRANCH  59  82
ENDBRANCH  33  34
ENDBRANCH  25  28
ENDBRANCH  23  24
ENDBRANCH   1  23
TORSDOF 11
ENDMDL
MODEL 3
REMARK VINA RESULT:     -13.2      0.084      1.206
REMARK SMILES Cc1cc(C)c2c(c1)C=C(C(=O)NCCCNC(=O)c1ccc(-c3c4nc(c(-c5c(F)c(F)c(F)c(F)c5F)c5ccc([nH]5)c(-c5c(F)c(F)c(F)c(F)c5F)c5nc(c(-c6c(F)c(F)c(F)c(F)c6F)c6ccc3[nH]6)C=C5)C=C4)cc1)[C@@H](C(F)(F)F)O2
REMARK SMILES IDX 15 1 14 2 13 3 11 4 12 5 10 7 1 8 2 9 3 10 8 11 4 12 7 13
REMARK SMILES IDX 5 14 6 15 9 16 88 17 83 18 84 19 85 20 86 21 87 22 16 23
REMARK SMILES IDX 17 24 18 25 19 27 20 28 21 29 82 30 22 31 81 32 23 33 24 34
REMARK SMILES IDX 25 35 75 36 26 37 80 38 74 39 76 40 27 41 79 42 73 43 72 44
REMARK SMILES IDX 28 46 60 47 40 48 59 49 41 50 44 51 58 52 77 53 42 54 43 55
REMARK SMILES IDX 57 57 78 58 45 59 29 60 30 61 38 62 31 63 32 64 36 65 39 66
REMARK SMILES IDX 33 67 34 68 37 69 35 70 61 71 62 72 70 73 63 74 64 75 68 76
REMARK SMILES IDX 71 77 65 78 66 79 69 80 67 81 46 82 47 83 55 84 48 85 49 86
REMARK SMILES IDX 53 87 56 88 50 89 51 90 54 91 52 92
REMARK H PARENT 13 6 17 26 76 45 44 56
REMARK Flexibility Score: inf
ROOT
ATOM      1  C   UNL A   1      31.404  32.306  26.505  1.00  0.00     0.042 C 
ENDROOT
BRANCH   1   2
ATOM      2  C   UNL A   1      31.438  30.802  26.280  1.00  0.00     0.118 C 
BRANCH   2   3
ATOM      3  N   UNL A   1      31.123  30.453  24.903  1.00  0.00    -0.352 N 
ATOM      4  C   UNL A   1      31.067  29.328  24.153  1.00  0.00     0.251 C 
ATOM      5  O   UNL A   1      30.741  29.499  22.974  1.00  0.00    -0.270 OA
ATOM      6  H   UNL A   1      30.886  31.249  24.376  1.00  0.00     0.163 HD
BRANCH   4   7
ATOM      7  C   UNL A   1      31.370  27.956  24.648  1.00  0.00     0.067 C 
ATOM      8  C   UNL A   1      36.086  24.077  25.643  1.00  0.00     0.044 C 
ATOM      9  C   UNL A   1      34.666  24.560  25.655  1.00  0.00    -0.050 A 
ATOM     10  C   UNL A   1      33.658  23.755  26.205  1.00  0.00     0.010 A 
ATOM     11  C   UNL A   1      34.344  25.839  25.180  1.00  0.00     0.015 A 
ATOM     12  C   UNL A   1      32.335  24.205  26.268  1.00  0.00    -0.008 A 
ATOM     13  C   UNL A   1      33.026  26.301  25.230  1.00  0.00     0.018 A 
ATOM     14  C   UNL A   1      31.254  23.338  26.845  1.00  0.00     0.048 C 
ATOM     15  C   UNL A   1      32.034  25.478  25.772  1.00  0.00     0.130 A 
ATOM     16  C   UNL A   1      32.673  27.638  24.764  1.00  0.00     0.025 C 
ATOM     17  O   UNL A   1      30.738  25.896  25.895  1.00  0.00    -0.475 OA
ATOM     18  C   UNL A   1      30.318  26.941  24.986  1.00  0.00     0.314 C 
BRANCH  18  19
ATOM     19  C   UNL A   1      29.675  26.306  23.737  1.00  0.00     0.429 C 
ATOM     20  F   UNL A   1      29.555  24.964  23.904  1.00  0.00    -0.167 F 
ATOM     21  F   UNL A   1      28.425  26.772  23.501  1.00  0.00    -0.167 F 
ATOM     22  F   UNL A   1      30.388  26.514  22.611  1.00  0.00    -0.167 F 
ENDBRANCH  18  19
ENDBRANCH   4   7
ENDBRANCH   2   3
ENDBRANCH   1   2
BRANCH   1  23
ATOM     23  C   UNL A   1      32.622  32.792  27.279  1.00  0.00     0.118 C 
BRANCH  23  24
ATOM     24  N   UNL A   1      32.499  34.203  27.644  1.00  0.00    -0.352 N 
ATOM     25  C   UNL A   1      33.062  34.901  28.680  1.00  0.00     0.251 C 
ATOM     26  H   UNL A   1      31.921  34.735  27.051  1.00  0.00     0.163 HD
ATOM     27  O   UNL A   1      32.614  36.003  28.993  1.00  0.00    -0.269 OA
BRANCH  25  28
ATOM     28  C   UNL A   1      34.204  34.334  29.417  1.00  0.00     0.039 A 
ATOM     29  C   UNL A   1      33.977  33.632  30.604  1.00  0.00     0.014 A 
ATOM     30  C   UNL A   1      35.507  34.523  28.951  1.00  0.00     0.014 A 
ATOM     31  C   UNL A   1      35.054  33.068  31.286  1.00  0.00     0.010 A 
ATOM     32  C   UNL A   1      36.564  33.875  29.571  1.00  0.00     0.010 A 
ATOM     33  C   UNL A   1      36.352  33.158  30.755  1.00  0.00    -0.014 A 
BRANCH  33  34
ATOM     34  C   UNL A   1      37.512  32.541  31.440  1.00  0.00     0.031 A 
ATOM     35  C   UNL A   1      38.242  31.402  30.784  1.00  0.00     0.074 A 
ATOM     36  C   UNL A   1      37.862  32.966  32.670  1.00  0.00     0.049 A 
ATOM     37  N   UNL A   1      39.226  30.677  31.250  1.00  0.00    -0.248 NA
ATOM     38  C   UNL A   1      37.788  31.001  29.441  1.00  0.00     0.031 C 
ATOM     39  C   UNL A   1      37.190  34.029  33.420  1.00  0.00     0.029 A 
ATOM     40  N   UNL A   1      38.864  32.550  33.509  1.00  0.00    -0.354 N 
ATOM     41  C   UNL A   1      39.496  29.734  30.267  1.00  0.00     0.074 A 
ATOM     42  C   UNL A   1      38.537  29.934  29.205  1.00  0.00     0.031 C 
ATOM     43  C   UNL A   1      37.815  34.200  34.596  1.00  0.00     0.029 A 
ATOM     44  C   UNL A   1      38.903  33.232  34.701  1.00  0.00     0.049 A 
ATOM     45  H   UNL A   1      39.495  31.830  33.280  1.00  0.00     0.167 HD
ATOM     46  C   UNL A   1      40.479  28.806  30.242  1.00  0.00     0.037 A 
ATOM     47  C   UNL A   1      39.720  33.085  35.761  1.00  0.00     0.037 A 
ATOM     48  C   UNL A   1      41.458  28.647  31.283  1.00  0.00     0.049 A 
ATOM     49  C   UNL A   1      40.806  32.043  35.703  1.00  0.00     0.074 A 
ATOM     50  C   UNL A   1      42.538  27.784  31.318  1.00  0.00     0.029 A 
ATOM     51  N   UNL A   1      41.477  29.369  32.466  1.00  0.00    -0.354 N 
ATOM     52  N   UNL A   1      41.096  31.207  34.735  1.00  0.00    -0.248 NA
ATOM     53  C   UNL A   1      41.681  31.927  36.878  1.00  0.00     0.031 C 
ATOM     54  C   UNL A   1      43.182  27.947  32.547  1.00  0.00     0.029 A 
ATOM     55  C   UNL A   1      42.537  28.951  33.252  1.00  0.00     0.049 A 
ATOM     56  H   UNL A   1      40.833  30.072  32.711  1.00  0.00     0.167 HD
ATOM     57  C   UNL A   1      42.197  30.483  35.174  1.00  0.00     0.074 A 
ATOM     58  C   UNL A   1      42.537  30.994  36.486  1.00  0.00     0.031 C 
ATOM     59  C   UNL A   1      42.864  29.481  34.550  1.00  0.00     0.037 A 
BRANCH  46  60
ATOM     60  C   UNL A   1      40.576  27.905  29.047  1.00  0.00     0.064 A 
ATOM     61  C   UNL A   1      39.797  26.742  28.943  1.00  0.00     0.173 A 
ATOM     62  C   UNL A   1      41.374  28.262  27.951  1.00  0.00     0.173 A 
ATOM     63  F   UNL A   1      39.028  26.350  29.970  1.00  0.00    -0.203 F 
ATOM     64  C   UNL A   1      39.817  25.969  27.785  1.00  0.00     0.198 A 
ATOM     65  C   UNL A   1      41.370  27.503  26.785  1.00  0.00     0.198 A 
ATOM     66  F   UNL A   1      42.136  29.366  28.000  1.00  0.00    -0.203 F 
ATOM     67  F   UNL A   1      39.082  24.851  27.716  1.00  0.00    -0.200 F 
ATOM     68  C   UNL A   1      40.591  26.358  26.702  1.00  0.00     0.200 A 
ATOM     69  F   UNL A   1      42.107  27.888  25.734  1.00  0.00    -0.200 F 
ATOM     70  F   UNL A   1      40.584  25.630  25.577  1.00  0.00    -0.200 F 
ENDBRANCH  46  60
BRANCH  47  71
ATOM     71  C   UNL A   1      39.555  33.956  36.955  1.00  0.00     0.064 A 
ATOM     72  C   UNL A   1      38.807  33.531  38.062  1.00  0.00     0.173 A 
ATOM     73  C   UNL A   1      40.139  35.230  37.016  1.00  0.00     0.173 A 
ATOM     74  F   UNL A   1      38.214  32.328  38.047  1.00  0.00    -0.203 F 
ATOM     75  C   UNL A   1      38.633  34.353  39.174  1.00  0.00     0.198 A 
ATOM     76  C   UNL A   1      39.991  36.039  38.141  1.00  0.00     0.198 A 
ATOM     77  F   UNL A   1      40.870  35.685  35.987  1.00  0.00    -0.203 F 
ATOM     78  F   UNL A   1      37.873  33.939  40.197  1.00  0.00    -0.200 F 
ATOM     79  C   UNL A   1      39.229  35.605  39.215  1.00  0.00     0.200 A 
ATOM     80  F   UNL A   1      40.584  37.240  38.183  1.00  0.00    -0.200 F 
ATOM     81  F   UNL A   1      39.066  36.392  40.286  1.00  0.00    -0.200 F 
ENDBRANCH  47  71
BRANCH  59  82
ATOM     82  C   UNL A   1      44.038  28.876  35.261  1.00  0.00     0.064 A 
ATOM     83  C   UNL A   1      43.881  27.799  36.144  1.00  0.00     0.173 A 
ATOM     84  C   UNL A   1      45.340  29.318  34.984  1.00  0.00     0.173 A 
ATOM     85  F   UNL A   1      42.654  27.348  36.449  1.00  0.00    -0.203 F 
ATOM     86  C   UNL A   1      44.986  27.194  36.735  1.00  0.00     0.198 A 
ATOM     87  C   UNL A   1      46.445  28.689  35.551  1.00  0.00     0.198 A 
ATOM     88  F   UNL A   1      45.543  30.338  34.135  1.00  0.00    -0.203 F 
ATOM     89  F   UNL A   1      44.812  26.188  37.602  1.00  0.00    -0.200 F 
ATOM     90  C   UNL A   1      46.267  27.630  36.428  1.00  0.00     0.200 A 
ATOM     91  F   UNL A   1      47.681  29.098  35.236  1.00  0.00    -0.200 F 
ATOM     92  F   UNL A   1      47.330  27.031  36.981  1.00  0.00    -0.200 F 
ENDBRANCH  59  82
ENDBRANCH  33  34
ENDBRANCH  25  28
ENDBRANCH  23  24
ENDBRANCH   1  23
TORSDOF 11
ENDMDL
