MODEL 1
REMARK VINA RESULT:     -13.4      0.000      0.000
REMARK SMILES C[C@@H](C(=O)NCCCNC(=O)c1ccc(-c2c3nc(c(-c4c(F)c(F)c(F)c(F)c4F)c4ccc([nH]4)c(-c4c(F)c(F)c(F)c(F)c4F)c4nc(c(-c5c(F)c(F)c(F)c(F)c5F)c5ccc2[nH]5)C=C4)C=C3)cc1)n1ccc(C(=O)N2CC[NH+](Cc3cccc(F)c3)CC2)n1
REMARK SMILES IDX 6 1 5 2 3 3 4 4 2 6 1 7 75 8 76 9 95 10 77 11 78 12 79 13
REMARK SMILES IDX 80 14 81 15 82 16 94 17 83 18 93 19 84 20 85 22 86 23 87 24
REMARK SMILES IDX 92 25 88 26 90 27 89 28 91 29 7 30 8 31 9 32 10 33 11 35
REMARK SMILES IDX 12 36 13 37 74 38 14 39 73 40 15 41 16 42 17 43 67 44 18 45
REMARK SMILES IDX 72 46 66 47 68 48 19 49 71 50 65 51 64 52 20 54 52 55 32 56
REMARK SMILES IDX 51 57 33 58 36 59 50 60 69 61 34 62 35 63 49 65 70 66 37 67
REMARK SMILES IDX 21 68 22 69 30 70 23 71 24 72 28 73 31 74 25 75 26 76 29 77
REMARK SMILES IDX 27 78 53 79 54 80 62 81 55 82 56 83 60 84 63 85 57 86 58 87
REMARK SMILES IDX 61 88 59 89 38 90 39 91 47 92 40 93 41 94 45 95 48 96 42 97
REMARK SMILES IDX 43 98 46 99 44 100
REMARK H PARENT 5 5 84 21 9 34 68 53 36 64
REMARK Flexibility Score: inf
ROOT
ATOM      1  C   UNL A   1      31.376  31.200  26.170  1.00  0.00     0.117 C 
ENDROOT
BRANCH   1   2
ATOM      2  N   UNL A   1      32.674  30.608  26.440  1.00  0.00    -0.354 N 
ATOM      3  C   UNL A   1      33.076  29.299  26.418  1.00  0.00     0.244 C 
ATOM      4  O   UNL A   1      34.237  29.076  26.764  1.00  0.00    -0.273 OA
ATOM      5  H   UNL A   1      33.380  31.252  26.677  1.00  0.00     0.163 HD
BRANCH   3   6
ATOM      6  C   UNL A   1      32.094  28.210  26.004  1.00  0.00     0.193 C 
ATOM      7  C   UNL A   1      31.456  27.524  27.209  1.00  0.00     0.044 C 
BRANCH   6   8
ATOM      8  N   UNL A   1      32.712  27.215  25.123  1.00  0.00    -0.260 N 
ATOM      9  C   UNL A   1      33.156  27.386  23.844  1.00  0.00     0.110 A 
ATOM     10  N   UNL A   1      33.091  26.038  25.661  1.00  0.00    -0.167 NA
ATOM     11  C   UNL A   1      33.880  26.260  23.539  1.00  0.00     0.056 A 
ATOM     12  C   UNL A   1      33.815  25.439  24.696  1.00  0.00     0.150 A 
BRANCH  12  13
ATOM     13  C   UNL A   1      34.532  24.168  24.898  1.00  0.00     0.274 C 
ATOM     14  O   UNL A   1      35.764  24.146  24.861  1.00  0.00    -0.267 OA
ATOM     15  N   UNL A   1      33.789  23.003  25.144  1.00  0.00    -0.326 N 
ATOM     16  C   UNL A   1      34.553  21.812  25.489  1.00  0.00     0.181 C 
ATOM     17  C   UNL A   1      32.465  22.785  24.554  1.00  0.00     0.181 C 
ATOM     18  C   UNL A   1      33.712  20.676  26.093  1.00  0.00     0.284 C 
ATOM     19  C   UNL A   1      31.682  21.614  25.175  1.00  0.00     0.284 C 
ATOM     20  N   UNL A   1      32.439  20.385  25.424  1.00  0.00    -0.328 N 
ATOM     21  H   UNL A   1      31.886  19.847  26.092  1.00  0.00     0.348 HD
BRANCH  20  22
ATOM     22  C   UNL A   1      32.483  19.408  24.334  1.00  0.00     0.299 C 
BRANCH  22  23
ATOM     23  C   UNL A   1      33.048  18.040  24.631  1.00  0.00     0.009 A 
ATOM     24  C   UNL A   1      34.324  17.674  24.169  1.00  0.00     0.010 A 
ATOM     25  C   UNL A   1      32.310  17.104  25.369  1.00  0.00     0.048 A 
ATOM     26  C   UNL A   1      34.871  16.428  24.489  1.00  0.00     0.004 A 
ATOM     27  C   UNL A   1      32.867  15.870  25.689  1.00  0.00     0.123 A 
ATOM     28  C   UNL A   1      34.144  15.527  25.263  1.00  0.00     0.039 A 
ATOM     29  F   UNL A   1      32.164  15.003  26.430  1.00  0.00    -0.207 F 
ENDBRANCH  22  23
ENDBRANCH  20  22
ENDBRANCH  12  13
ENDBRANCH   6   8
ENDBRANCH   3   6
ENDBRANCH   1   2
BRANCH   1  30
ATOM     30  C   UNL A   1      31.327  32.681  26.538  1.00  0.00     0.042 C 
BRANCH  30  31
ATOM     31  C   UNL A   1      32.541  33.193  27.309  1.00  0.00     0.118 C 
BRANCH  31  32
ATOM     32  N   UNL A   1      32.367  34.544  27.812  1.00  0.00    -0.352 N 
ATOM     33  C   UNL A   1      33.028  35.201  28.819  1.00  0.00     0.251 C 
ATOM     34  H   UNL A   1      31.669  35.070  27.361  1.00  0.00     0.163 HD
ATOM     35  O   UNL A   1      32.631  36.308  29.176  1.00  0.00    -0.269 OA
BRANCH  33  36
ATOM     36  C   UNL A   1      34.191  34.590  29.502  1.00  0.00     0.039 A 
ATOM     37  C   UNL A   1      33.984  33.985  30.747  1.00  0.00     0.014 A 
ATOM     38  C   UNL A   1      35.481  34.644  28.964  1.00  0.00     0.014 A 
ATOM     39  C   UNL A   1      35.051  33.389  31.423  1.00  0.00     0.010 A 
ATOM     40  C   UNL A   1      36.538  34.005  29.614  1.00  0.00     0.010 A 
ATOM     41  C   UNL A   1      36.332  33.372  30.849  1.00  0.00    -0.014 A 
BRANCH  41  42
ATOM     42  C   UNL A   1      37.456  32.685  31.533  1.00  0.00     0.031 A 
ATOM     43  C   UNL A   1      38.162  31.533  30.877  1.00  0.00     0.074 A 
ATOM     44  C   UNL A   1      37.817  33.078  32.769  1.00  0.00     0.049 A 
ATOM     45  N   UNL A   1      39.143  30.796  31.335  1.00  0.00    -0.248 NA
ATOM     46  C   UNL A   1      37.693  31.146  29.538  1.00  0.00     0.031 C 
ATOM     47  C   UNL A   1      37.181  34.152  33.533  1.00  0.00     0.029 A 
ATOM     48  N   UNL A   1      38.805  32.615  33.602  1.00  0.00    -0.354 N 
ATOM     49  C   UNL A   1      39.400  29.853  30.349  1.00  0.00     0.074 A 
ATOM     50  C   UNL A   1      38.451  30.089  29.281  1.00  0.00     0.031 C 
ATOM     51  C   UNL A   1      37.802  34.275  34.717  1.00  0.00     0.029 A 
ATOM     52  C   UNL A   1      38.866  33.278  34.803  1.00  0.00     0.049 A 
ATOM     53  H   UNL A   1      39.411  31.877  33.362  1.00  0.00     0.167 HD
ATOM     54  C   UNL A   1      40.353  28.891  30.328  1.00  0.00     0.037 A 
ATOM     55  C   UNL A   1      39.690  33.103  35.853  1.00  0.00     0.037 A 
ATOM     56  C   UNL A   1      41.316  28.670  31.375  1.00  0.00     0.049 A 
ATOM     57  C   UNL A   1      40.760  32.053  35.789  1.00  0.00     0.074 A 
ATOM     58  C   UNL A   1      42.347  27.747  31.420  1.00  0.00     0.029 A 
ATOM     59  N   UNL A   1      41.369  29.387  32.560  1.00  0.00    -0.354 N 
ATOM     60  N   UNL A   1      41.023  31.199  34.830  1.00  0.00    -0.248 NA
ATOM     61  C   UNL A   1      41.655  31.947  36.950  1.00  0.00     0.031 C 
ATOM     62  C   UNL A   1      43.012  27.891  32.644  1.00  0.00     0.029 A 
ATOM     63  C   UNL A   1      42.411  28.921  33.347  1.00  0.00     0.049 A 
ATOM     64  H   UNL A   1      40.758  30.117  32.806  1.00  0.00     0.167 HD
ATOM     65  C   UNL A   1      42.117  30.465  35.264  1.00  0.00     0.074 A 
ATOM     66  C   UNL A   1      42.482  30.984  36.566  1.00  0.00     0.031 C 
ATOM     67  C   UNL A   1      42.759  29.448  34.640  1.00  0.00     0.037 A 
BRANCH  54  68
ATOM     68  C   UNL A   1      40.409  28.003  29.123  1.00  0.00     0.064 A 
ATOM     69  C   UNL A   1      39.656  26.822  29.052  1.00  0.00     0.173 A 
ATOM     70  C   UNL A   1      41.186  28.358  28.010  1.00  0.00     0.173 A 
ATOM     71  F   UNL A   1      38.907  26.436  30.096  1.00  0.00    -0.203 F 
ATOM     72  C   UNL A   1      39.695  26.018  27.917  1.00  0.00     0.198 A 
ATOM     73  C   UNL A   1      41.207  27.562  26.870  1.00  0.00     0.198 A 
ATOM     74  F   UNL A   1      41.922  29.480  28.029  1.00  0.00    -0.203 F 
ATOM     75  F   UNL A   1      38.994  24.876  27.884  1.00  0.00    -0.200 F 
ATOM     76  C   UNL A   1      40.464  26.391  26.825  1.00  0.00     0.200 A 
ATOM     77  F   UNL A   1      41.945  27.925  25.812  1.00  0.00    -0.200 F 
ATOM     78  F   UNL A   1      40.496  25.617  25.731  1.00  0.00    -0.200 F 
ENDBRANCH  54  68
BRANCH  55  79
ATOM     79  C   UNL A   1      39.547  33.969  37.049  1.00  0.00     0.064 A 
ATOM     80  C   UNL A   1      38.803  33.543  38.157  1.00  0.00     0.173 A 
ATOM     81  C   UNL A   1      40.154  35.230  37.109  1.00  0.00     0.173 A 
ATOM     82  F   UNL A   1      38.189  32.351  38.133  1.00  0.00    -0.203 F 
ATOM     83  C   UNL A   1      38.660  34.355  39.279  1.00  0.00     0.198 A 
ATOM     84  C   UNL A   1      40.026  36.033  38.240  1.00  0.00     0.198 A 
ATOM     85  F   UNL A   1      40.879  35.678  36.074  1.00  0.00    -0.203 F 
ATOM     86  F   UNL A   1      37.918  33.939  40.314  1.00  0.00    -0.200 F 
ATOM     87  C   UNL A   1      39.276  35.597  39.322  1.00  0.00     0.200 A 
ATOM     88  F   UNL A   1      40.630  37.229  38.282  1.00  0.00    -0.200 F 
ATOM     89  F   UNL A   1      39.141  36.376  40.403  1.00  0.00    -0.200 F 
ENDBRANCH  55  79
BRANCH  67  90
ATOM     90  C   UNL A   1      43.926  28.840  35.356  1.00  0.00     0.064 A 
ATOM     91  C   UNL A   1      45.231  29.307  35.145  1.00  0.00     0.173 A 
ATOM     92  C   UNL A   1      43.736  27.800  36.276  1.00  0.00     0.173 A 
ATOM     93  F   UNL A   1      45.462  30.290  34.262  1.00  0.00    -0.203 F 
ATOM     94  C   UNL A   1      46.309  28.740  35.820  1.00  0.00     0.198 A 
ATOM     95  C   UNL A   1      44.814  27.247  36.962  1.00  0.00     0.198 A 
ATOM     96  F   UNL A   1      42.505  27.321  36.510  1.00  0.00    -0.203 F 
ATOM     97  F   UNL A   1      47.553  29.176  35.577  1.00  0.00    -0.200 F 
ATOM     98  C   UNL A   1      46.100  27.714  36.730  1.00  0.00     0.200 A 
ATOM     99  F   UNL A   1      44.610  26.259  37.844  1.00  0.00    -0.200 F 
ATOM    100  F   UNL A   1      47.138  27.169  37.377  1.00  0.00    -0.200 F 
ENDBRANCH  67  90
ENDBRANCH  41  42
ENDBRANCH  33  36
ENDBRANCH  31  32
ENDBRANCH  30  31
ENDBRANCH   1  30
TORSDOF 14
ENDMDL
MODEL 2
REMARK VINA RESULT:     -13.1      2.152      3.125
REMARK SMILES C[C@@H](C(=O)NCCCNC(=O)c1ccc(-c2c3nc(c(-c4c(F)c(F)c(F)c(F)c4F)c4ccc([nH]4)c(-c4c(F)c(F)c(F)c(F)c4F)c4nc(c(-c5c(F)c(F)c(F)c(F)c5F)c5ccc2[nH]5)C=C4)C=C3)cc1)n1ccc(C(=O)N2CC[NH+](Cc3cccc(F)c3)CC2)n1
REMARK SMILES IDX 6 1 5 2 3 3 4 4 2 6 1 7 75 8 76 9 95 10 77 11 78 12 79 13
REMARK SMILES IDX 80 14 81 15 82 16 94 17 83 18 93 19 84 20 85 22 86 23 87 24
REMARK SMILES IDX 92 25 88 26 90 27 89 28 91 29 7 30 8 31 9 32 10 33 11 35
REMARK SMILES IDX 12 36 13 37 74 38 14 39 73 40 15 41 16 42 17 43 67 44 18 45
REMARK SMILES IDX 72 46 66 47 68 48 19 49 71 50 65 51 64 52 20 54 52 55 32 56
REMARK SMILES IDX 51 57 33 58 36 59 50 60 69 61 34 62 35 63 49 65 70 66 37 67
REMARK SMILES IDX 21 68 22 69 30 70 23 71 24 72 28 73 31 74 25 75 26 76 29 77
REMARK SMILES IDX 27 78 53 79 54 80 62 81 55 82 56 83 60 84 63 85 57 86 58 87
REMARK SMILES IDX 61 88 59 89 38 90 39 91 47 92 40 93 41 94 45 95 48 96 42 97
REMARK SMILES IDX 43 98 46 99 44 100
REMARK H PARENT 5 5 84 21 9 34 68 53 36 64
REMARK Flexibility Score: inf
ROOT
ATOM      1  C   UNL A   1      31.863  30.618  26.496  1.00  0.00     0.117 C 
ENDROOT
BRANCH   1   2
ATOM      2  N   UNL A   1      31.208  30.128  25.297  1.00  0.00    -0.354 N 
ATOM      3  C   UNL A   1      31.665  29.287  24.317  1.00  0.00     0.244 C 
ATOM      4  O   UNL A   1      30.908  29.095  23.363  1.00  0.00    -0.273 OA
ATOM      5  H   UNL A   1      30.288  30.452  25.166  1.00  0.00     0.163 HD
BRANCH   3   6
ATOM      6  C   UNL A   1      33.050  28.664  24.434  1.00  0.00     0.193 C 
ATOM      7  C   UNL A   1      33.766  28.599  23.087  1.00  0.00     0.044 C 
BRANCH   6   8
ATOM      8  N   UNL A   1      33.010  27.336  25.051  1.00  0.00    -0.260 N 
ATOM      9  C   UNL A   1      32.199  26.904  26.060  1.00  0.00     0.110 A 
ATOM     10  N   UNL A   1      33.688  26.336  24.453  1.00  0.00    -0.167 NA
ATOM     11  C   UNL A   1      32.347  25.540  26.110  1.00  0.00     0.056 A 
ATOM     12  C   UNL A   1      33.288  25.221  25.094  1.00  0.00     0.150 A 
BRANCH  12  13
ATOM     13  C   UNL A   1      33.692  23.866  24.681  1.00  0.00     0.274 C 
ATOM     14  O   UNL A   1      32.837  23.052  24.324  1.00  0.00    -0.267 OA
ATOM     15  N   UNL A   1      35.055  23.532  24.693  1.00  0.00    -0.326 N 
ATOM     16  C   UNL A   1      35.407  22.236  24.130  1.00  0.00     0.181 C 
ATOM     17  C   UNL A   1      35.986  24.096  25.675  1.00  0.00     0.181 C 
ATOM     18  C   UNL A   1      36.905  22.063  23.833  1.00  0.00     0.284 C 
ATOM     19  C   UNL A   1      37.471  23.863  25.344  1.00  0.00     0.284 C 
ATOM     20  N   UNL A   1      37.830  22.523  24.874  1.00  0.00    -0.328 N 
ATOM     21  H   UNL A   1      38.740  22.620  24.421  1.00  0.00     0.348 HD
BRANCH  20  22
ATOM     22  C   UNL A   1      38.198  21.544  25.899  1.00  0.00     0.299 C 
BRANCH  22  23
ATOM     23  C   UNL A   1      39.665  21.257  26.112  1.00  0.00     0.009 A 
ATOM     24  C   UNL A   1      40.554  22.286  26.468  1.00  0.00     0.010 A 
ATOM     25  C   UNL A   1      40.172  19.960  25.953  1.00  0.00     0.048 A 
ATOM     26  C   UNL A   1      41.902  22.013  26.719  1.00  0.00     0.004 A 
ATOM     27  C   UNL A   1      41.513  19.697  26.213  1.00  0.00     0.123 A 
ATOM     28  C   UNL A   1      42.380  20.710  26.602  1.00  0.00     0.039 A 
ATOM     29  F   UNL A   1      41.972  18.444  26.096  1.00  0.00    -0.207 F 
ENDBRANCH  22  23
ENDBRANCH  20  22
ENDBRANCH  12  13
ENDBRANCH   6   8
ENDBRANCH   3   6
ENDBRANCH   1   2
BRANCH   1  30
ATOM     30  C   UNL A   1      31.580  32.099  26.745  1.00  0.00     0.042 C 
BRANCH  30  31
ATOM     31  C   UNL A   1      32.813  32.948  27.042  1.00  0.00     0.118 C 
BRANCH  31  32
ATOM     32  N   UNL A   1      32.490  34.235  27.631  1.00  0.00    -0.352 N 
ATOM     33  C   UNL A   1      33.027  34.864  28.725  1.00  0.00     0.251 C 
ATOM     34  H   UNL A   1      31.775  34.734  27.174  1.00  0.00     0.163 HD
ATOM     35  O   UNL A   1      32.512  35.901  29.136  1.00  0.00    -0.269 OA
BRANCH  33  36
ATOM     36  C   UNL A   1      34.198  34.301  29.438  1.00  0.00     0.039 A 
ATOM     37  C   UNL A   1      33.964  33.496  30.558  1.00  0.00     0.014 A 
ATOM     38  C   UNL A   1      35.510  34.590  29.052  1.00  0.00     0.014 A 
ATOM     39  C   UNL A   1      35.039  32.938  31.255  1.00  0.00     0.010 A 
ATOM     40  C   UNL A   1      36.583  33.992  29.717  1.00  0.00     0.010 A 
ATOM     41  C   UNL A   1      36.356  33.160  30.824  1.00  0.00    -0.014 A 
BRANCH  41  42
ATOM     42  C   UNL A   1      37.497  32.519  31.523  1.00  0.00     0.031 A 
ATOM     43  C   UNL A   1      38.238  31.376  30.888  1.00  0.00     0.074 A 
ATOM     44  C   UNL A   1      37.843  32.943  32.752  1.00  0.00     0.049 A 
ATOM     45  N   UNL A   1      39.239  30.676  31.362  1.00  0.00    -0.248 NA
ATOM     46  C   UNL A   1      37.785  30.953  29.555  1.00  0.00     0.031 C 
ATOM     47  C   UNL A   1      37.174  34.011  33.496  1.00  0.00     0.029 A 
ATOM     48  N   UNL A   1      38.841  32.523  33.595  1.00  0.00    -0.354 N 
ATOM     49  C   UNL A   1      39.527  29.725  30.392  1.00  0.00     0.074 A 
ATOM     50  C   UNL A   1      38.574  29.914  29.318  1.00  0.00     0.031 C 
ATOM     51  C   UNL A   1      37.787  34.172  34.679  1.00  0.00     0.029 A 
ATOM     52  C   UNL A   1      38.880  33.209  34.785  1.00  0.00     0.049 A 
ATOM     53  H   UNL A   1      39.469  31.800  33.370  1.00  0.00     0.167 HD
ATOM     54  C   UNL A   1      40.507  28.790  30.390  1.00  0.00     0.037 A 
ATOM     55  C   UNL A   1      39.705  33.076  35.840  1.00  0.00     0.037 A 
ATOM     56  C   UNL A   1      41.473  28.616  31.444  1.00  0.00     0.049 A 
ATOM     57  C   UNL A   1      40.806  32.056  35.797  1.00  0.00     0.074 A 
ATOM     58  C   UNL A   1      42.530  27.724  31.507  1.00  0.00     0.029 A 
ATOM     59  N   UNL A   1      41.502  29.354  32.616  1.00  0.00    -0.354 N 
ATOM     60  N   UNL A   1      41.096  31.194  34.853  1.00  0.00    -0.248 NA
ATOM     61  C   UNL A   1      41.700  31.996  36.962  1.00  0.00     0.031 C 
ATOM     62  C   UNL A   1      43.186  27.908  32.730  1.00  0.00     0.029 A 
ATOM     63  C   UNL A   1      42.553  28.932  33.414  1.00  0.00     0.049 A 
ATOM     64  H   UNL A   1      40.869  30.071  32.848  1.00  0.00     0.167 HD
ATOM     65  C   UNL A   1      42.210  30.500  35.303  1.00  0.00     0.074 A 
ATOM     66  C   UNL A   1      42.555  31.052  36.597  1.00  0.00     0.031 C 
ATOM     67  C   UNL A   1      42.882  29.491  34.698  1.00  0.00     0.037 A 
BRANCH  54  68
ATOM     68  C   UNL A   1      40.592  27.884  29.201  1.00  0.00     0.064 A 
ATOM     69  C   UNL A   1      39.788  26.739  29.097  1.00  0.00     0.173 A 
ATOM     70  C   UNL A   1      41.452  28.185  28.134  1.00  0.00     0.173 A 
ATOM     71  F   UNL A   1      38.960  26.405  30.098  1.00  0.00    -0.203 F 
ATOM     72  C   UNL A   1      39.856  25.918  27.976  1.00  0.00     0.198 A 
ATOM     73  C   UNL A   1      41.502  27.373  27.006  1.00  0.00     0.198 A 
ATOM     74  F   UNL A   1      42.238  29.271  28.185  1.00  0.00    -0.203 F 
ATOM     75  F   UNL A   1      39.103  24.811  27.912  1.00  0.00    -0.200 F 
ATOM     76  C   UNL A   1      40.707  26.239  26.929  1.00  0.00     0.200 A 
ATOM     77  F   UNL A   1      42.320  27.686  25.991  1.00  0.00    -0.200 F 
ATOM     78  F   UNL A   1      40.767  25.449  25.847  1.00  0.00    -0.200 F 
ENDBRANCH  54  68
BRANCH  55  79
ATOM     79  C   UNL A   1      39.533  33.957  37.021  1.00  0.00     0.064 A 
ATOM     80  C   UNL A   1      40.123  35.228  37.058  1.00  0.00     0.173 A 
ATOM     81  C   UNL A   1      38.776  33.550  38.126  1.00  0.00     0.173 A 
ATOM     82  F   UNL A   1      40.872  35.649  36.029  1.00  0.00    -0.203 F 
ATOM     83  C   UNL A   1      39.971  36.056  38.167  1.00  0.00     0.198 A 
ATOM     84  C   UNL A   1      38.608  34.387  39.228  1.00  0.00     0.198 A 
ATOM     85  F   UNL A   1      38.190  32.344  38.133  1.00  0.00    -0.203 F 
ATOM     86  F   UNL A   1      40.569  37.254  38.194  1.00  0.00    -0.200 F 
ATOM     87  C   UNL A   1      39.209  35.637  39.249  1.00  0.00     0.200 A 
ATOM     88  F   UNL A   1      37.865  33.984  40.266  1.00  0.00    -0.200 F 
ATOM     89  F   UNL A   1      39.061  36.435  40.315  1.00  0.00    -0.200 F 
ENDBRANCH  55  79
BRANCH  67  90
ATOM     90  C   UNL A   1      44.064  28.930  35.427  1.00  0.00     0.064 A 
ATOM     91  C   UNL A   1      45.353  29.447  35.230  1.00  0.00     0.173 A 
ATOM     92  C   UNL A   1      43.905  27.885  36.347  1.00  0.00     0.173 A 
ATOM     93  F   UNL A   1      45.555  30.436  34.347  1.00  0.00    -0.203 F 
ATOM     94  C   UNL A   1      46.445  28.923  35.916  1.00  0.00     0.198 A 
ATOM     95  C   UNL A   1      44.996  27.375  37.046  1.00  0.00     0.198 A 
ATOM     96  F   UNL A   1      42.691  27.359  36.569  1.00  0.00    -0.203 F 
ATOM     97  F   UNL A   1      47.673  29.406  35.686  1.00  0.00    -0.200 F 
ATOM     98  C   UNL A   1      46.265  27.891  36.826  1.00  0.00     0.200 A 
ATOM     99  F   UNL A   1      44.822  26.381  37.927  1.00  0.00    -0.200 F 
ATOM    100  F   UNL A   1      47.318  27.387  37.485  1.00  0.00    -0.200 F 
ENDBRANCH  67  90
ENDBRANCH  41  42
ENDBRANCH  33  36
ENDBRANCH  31  32
ENDBRANCH  30  31
ENDBRANCH   1  30
TORSDOF 14
ENDMDL
MODEL 3
REMARK VINA RESULT:     -13.0      1.179      7.109
REMARK SMILES C[C@@H](C(=O)NCCCNC(=O)c1ccc(-c2c3nc(c(-c4c(F)c(F)c(F)c(F)c4F)c4ccc([nH]4)c(-c4c(F)c(F)c(F)c(F)c4F)c4nc(c(-c5c(F)c(F)c(F)c(F)c5F)c5ccc2[nH]5)C=C4)C=C3)cc1)n1ccc(C(=O)N2CC[NH+](Cc3cccc(F)c3)CC2)n1
REMARK SMILES IDX 6 1 5 2 3 3 4 4 2 6 1 7 75 8 76 9 95 10 77 11 78 12 79 13
REMARK SMILES IDX 80 14 81 15 82 16 94 17 83 18 93 19 84 20 85 22 86 23 87 24
REMARK SMILES IDX 92 25 88 26 90 27 89 28 91 29 7 30 8 31 9 32 10 33 11 35
REMARK SMILES IDX 12 36 13 37 74 38 14 39 73 40 15 41 16 42 17 43 67 44 18 45
REMARK SMILES IDX 72 46 66 47 68 48 19 49 71 50 65 51 64 52 20 54 52 55 32 56
REMARK SMILES IDX 51 57 33 58 36 59 50 60 69 61 34 62 35 63 49 65 70 66 37 67
REMARK SMILES IDX 21 68 22 69 30 70 23 71 24 72 28 73 31 74 25 75 26 76 29 77
REMARK SMILES IDX 27 78 53 79 54 80 62 81 55 82 56 83 60 84 63 85 57 86 58 87
REMARK SMILES IDX 61 88 59 89 38 90 39 91 47 92 40 93 41 94 45 95 48 96 42 97
REMARK SMILES IDX 43 98 46 99 44 100
REMARK H PARENT 5 5 84 21 9 34 68 53 36 64
REMARK Flexibility Score: inf
ROOT
ATOM      1  C   UNL A   1      31.762  30.810  26.358  1.00  0.00     0.117 C 
ENDROOT
BRANCH   1   2
ATOM      2  N   UNL A   1      31.036  30.338  25.193  1.00  0.00    -0.354 N 
ATOM      3  C   UNL A   1      31.439  29.535  24.161  1.00  0.00     0.244 C 
ATOM      4  O   UNL A   1      30.623  29.353  23.256  1.00  0.00    -0.273 OA
ATOM      5  H   UNL A   1      30.102  30.646  25.135  1.00  0.00     0.163 HD
BRANCH   3   6
ATOM      6  C   UNL A   1      32.842  28.940  24.164  1.00  0.00     0.193 C 
ATOM      7  C   UNL A   1      33.330  28.611  22.755  1.00  0.00     0.044 C 
BRANCH   6   8
ATOM      8  N   UNL A   1      32.940  27.757  25.022  1.00  0.00    -0.260 N 
ATOM      9  C   UNL A   1      32.051  27.330  25.966  1.00  0.00     0.110 A 
ATOM     10  N   UNL A   1      33.895  26.847  24.746  1.00  0.00    -0.167 NA
ATOM     11  C   UNL A   1      32.444  26.060  26.311  1.00  0.00     0.056 A 
ATOM     12  C   UNL A   1      33.601  25.793  25.532  1.00  0.00     0.150 A 
BRANCH  12  13
ATOM     13  C   UNL A   1      34.325  24.513  25.465  1.00  0.00     0.274 C 
ATOM     14  O   UNL A   1      35.543  24.504  25.268  1.00  0.00    -0.267 OA
ATOM     15  N   UNL A   1      33.608  23.319  25.641  1.00  0.00    -0.326 N 
ATOM     16  C   UNL A   1      34.397  22.097  25.719  1.00  0.00     0.181 C 
ATOM     17  C   UNL A   1      32.217  23.175  25.202  1.00  0.00     0.181 C 
ATOM     18  C   UNL A   1      33.628  20.883  26.264  1.00  0.00     0.284 C 
ATOM     19  C   UNL A   1      31.507  21.924  25.751  1.00  0.00     0.284 C 
ATOM     20  N   UNL A   1      32.277  20.678  25.731  1.00  0.00    -0.328 N 
ATOM     21  H   UNL A   1      31.808  20.049  26.383  1.00  0.00     0.348 HD
BRANCH  20  22
ATOM     22  C   UNL A   1      32.171  19.860  24.521  1.00  0.00     0.299 C 
BRANCH  22  23
ATOM     23  C   UNL A   1      32.743  18.463  24.557  1.00  0.00     0.009 A 
ATOM     24  C   UNL A   1      32.528  17.627  25.666  1.00  0.00     0.010 A 
ATOM     25  C   UNL A   1      33.507  17.974  23.489  1.00  0.00     0.048 A 
ATOM     26  C   UNL A   1      33.010  16.315  25.678  1.00  0.00     0.004 A 
ATOM     27  C   UNL A   1      33.976  16.664  23.507  1.00  0.00     0.123 A 
ATOM     28  C   UNL A   1      33.727  15.828  24.587  1.00  0.00     0.039 A 
ATOM     29  F   UNL A   1      34.669  16.199  22.459  1.00  0.00    -0.207 F 
ENDBRANCH  22  23
ENDBRANCH  20  22
ENDBRANCH  12  13
ENDBRANCH   6   8
ENDBRANCH   3   6
ENDBRANCH   1   2
BRANCH   1  30
ATOM     30  C   UNL A   1      31.503  32.289  26.642  1.00  0.00     0.042 C 
BRANCH  30  31
ATOM     31  C   UNL A   1      32.754  33.121  26.909  1.00  0.00     0.118 C 
BRANCH  31  32
ATOM     32  N   UNL A   1      32.475  34.353  27.626  1.00  0.00    -0.352 N 
ATOM     33  C   UNL A   1      33.059  34.866  28.757  1.00  0.00     0.251 C 
ATOM     34  H   UNL A   1      31.758  34.906  27.241  1.00  0.00     0.163 HD
ATOM     35  O   UNL A   1      32.578  35.868  29.279  1.00  0.00    -0.269 OA
BRANCH  33  36
ATOM     36  C   UNL A   1      34.238  34.216  29.376  1.00  0.00     0.039 A 
ATOM     37  C   UNL A   1      34.018  33.276  30.389  1.00  0.00     0.014 A 
ATOM     38  C   UNL A   1      35.546  34.551  29.011  1.00  0.00     0.014 A 
ATOM     39  C   UNL A   1      35.101  32.634  30.994  1.00  0.00     0.010 A 
ATOM     40  C   UNL A   1      36.626  33.872  29.580  1.00  0.00     0.010 A 
ATOM     41  C   UNL A   1      36.412  32.907  30.576  1.00  0.00    -0.014 A 
BRANCH  41  42
ATOM     42  C   UNL A   1      37.561  32.182  31.172  1.00  0.00     0.031 A 
ATOM     43  C   UNL A   1      38.040  32.513  32.557  1.00  0.00     0.074 A 
ATOM     44  C   UNL A   1      38.200  31.244  30.447  1.00  0.00     0.049 A 
ATOM     45  N   UNL A   1      39.044  32.004  33.227  1.00  0.00    -0.248 NA
ATOM     46  C   UNL A   1      37.308  33.566  33.275  1.00  0.00     0.031 C 
ATOM     47  C   UNL A   1      37.862  30.863  29.075  1.00  0.00     0.029 A 
ATOM     48  N   UNL A   1      39.270  30.446  30.761  1.00  0.00    -0.354 N 
ATOM     49  C   UNL A   1      39.070  32.681  34.439  1.00  0.00     0.074 A 
ATOM     50  C   UNL A   1      38.004  33.660  34.400  1.00  0.00     0.031 C 
ATOM     51  C   UNL A   1      38.699  29.895  28.670  1.00  0.00     0.029 A 
ATOM     52  C   UNL A   1      39.643  29.601  29.745  1.00  0.00     0.049 A 
ATOM     53  H   UNL A   1      39.728  30.476  31.632  1.00  0.00     0.167 HD
ATOM     54  C   UNL A   1      39.897  32.491  35.495  1.00  0.00     0.037 A 
ATOM     55  C   UNL A   1      40.632  28.690  29.688  1.00  0.00     0.037 A 
ATOM     56  C   UNL A   1      40.941  31.501  35.549  1.00  0.00     0.049 A 
ATOM     57  C   UNL A   1      41.512  28.475  30.886  1.00  0.00     0.074 A 
ATOM     58  C   UNL A   1      41.799  31.207  36.595  1.00  0.00     0.029 A 
ATOM     59  N   UNL A   1      41.264  30.639  34.513  1.00  0.00    -0.354 N 
ATOM     60  N   UNL A   1      41.495  29.089  32.043  1.00  0.00    -0.248 NA
ATOM     61  C   UNL A   1      42.542  27.432  30.773  1.00  0.00     0.031 C 
ATOM     62  C   UNL A   1      42.657  30.180  36.183  1.00  0.00     0.029 A 
ATOM     63  C   UNL A   1      42.314  29.818  34.891  1.00  0.00     0.049 A 
ATOM     64  H   UNL A   1      40.814  30.615  33.638  1.00  0.00     0.167 HD
ATOM     65  C   UNL A   1      42.500  28.503  32.799  1.00  0.00     0.074 A 
ATOM     66  C   UNL A   1      43.096  27.470  31.976  1.00  0.00     0.031 C 
ATOM     67  C   UNL A   1      42.896  28.798  34.061  1.00  0.00     0.037 A 
BRANCH  54  68
ATOM     68  C   UNL A   1      39.699  33.370  36.691  1.00  0.00     0.064 A 
ATOM     69  C   UNL A   1      38.799  33.023  37.710  1.00  0.00     0.173 A 
ATOM     70  C   UNL A   1      40.446  34.548  36.844  1.00  0.00     0.173 A 
ATOM     71  F   UNL A   1      38.054  31.913  37.602  1.00  0.00    -0.203 F 
ATOM     72  C   UNL A   1      38.641  33.834  38.830  1.00  0.00     0.198 A 
ATOM     73  C   UNL A   1      40.300  35.345  37.975  1.00  0.00     0.198 A 
ATOM     74  F   UNL A   1      41.322  34.920  35.898  1.00  0.00    -0.203 F 
ATOM     75  F   UNL A   1      37.751  33.501  39.775  1.00  0.00    -0.200 F 
ATOM     76  C   UNL A   1      39.395  34.990  38.965  1.00  0.00     0.200 A 
ATOM     77  F   UNL A   1      41.034  36.459  38.108  1.00  0.00    -0.200 F 
ATOM     78  F   UNL A   1      39.245  35.766  40.047  1.00  0.00    -0.200 F 
ENDBRANCH  54  68
BRANCH  55  79
ATOM     79  C   UNL A   1      40.824  27.892  28.452  1.00  0.00     0.064 A 
ATOM     80  C   UNL A   1      40.182  26.658  28.290  1.00  0.00     0.173 A 
ATOM     81  C   UNL A   1      41.646  28.349  27.414  1.00  0.00     0.173 A 
ATOM     82  F   UNL A   1      39.403  26.174  29.268  1.00  0.00    -0.203 F 
ATOM     83  C   UNL A   1      40.365  25.901  27.135  1.00  0.00     0.198 A 
ATOM     84  C   UNL A   1      41.813  27.600  26.251  1.00  0.00     0.198 A 
ATOM     85  F   UNL A   1      42.278  29.526  27.524  1.00  0.00    -0.203 F 
ATOM     86  F   UNL A   1      39.765  24.710  27.015  1.00  0.00    -0.200 F 
ATOM     87  C   UNL A   1      41.176  26.376  26.114  1.00  0.00     0.200 A 
ATOM     88  F   UNL A   1      42.589  28.065  25.263  1.00  0.00    -0.200 F 
ATOM     89  F   UNL A   1      41.350  25.649  25.002  1.00  0.00    -0.200 F 
ENDBRANCH  55  79
BRANCH  67  90
ATOM     90  C   UNL A   1      44.018  27.984  34.628  1.00  0.00     0.064 A 
ATOM     91  C   UNL A   1      45.351  28.408  34.519  1.00  0.00     0.173 A 
ATOM     92  C   UNL A   1      43.759  26.787  35.309  1.00  0.00     0.173 A 
ATOM     93  F   UNL A   1      45.647  29.539  33.863  1.00  0.00    -0.203 F 
ATOM     94  C   UNL A   1      46.387  27.649  35.055  1.00  0.00     0.198 A 
ATOM     95  C   UNL A   1      44.795  26.039  35.860  1.00  0.00     0.198 A 
ATOM     96  F   UNL A   1      42.500  26.343  35.439  1.00  0.00    -0.203 F 
ATOM     97  F   UNL A   1      47.656  28.052  34.907  1.00  0.00    -0.200 F 
ATOM     98  C   UNL A   1      46.109  26.468  35.729  1.00  0.00     0.200 A 
ATOM     99  F   UNL A   1      44.526  24.901  36.513  1.00  0.00    -0.200 F 
ATOM    100  F   UNL A   1      47.107  25.737  36.243  1.00  0.00    -0.200 F 
ENDBRANCH  67  90
ENDBRANCH  41  42
ENDBRANCH  33  36
ENDBRANCH  31  32
ENDBRANCH  30  31
ENDBRANCH   1  30
TORSDOF 14
ENDMDL
