MODEL 1
REMARK VINA RESULT:     -11.1      0.000      0.000
REMARK SMILES COc1cc(C(=O)NCCCNC(=O)c2ccc(-c3c4nc(c(-c5c(F)c(F)c(F)c(F)c5F)c5ccc([nH]5)c(-c5c(F)c(F)c(F)c(F)c5F)c5nc(c(-c6c(F)c(F)c(F)c(F)c6F)c6ccc3[nH]6)C=C5)C=C4)cc2)c([N+](=O)[O-])cc1OCC[NH+](C)C
REMARK SMILES IDX 9 1 8 2 6 3 7 4 5 6 3 7 4 8 83 9 82 10 78 11 2 12 1 13 84 14
REMARK SMILES IDX 85 15 86 16 87 17 88 18 89 19 79 21 80 22 81 23 10 24 11 25
REMARK SMILES IDX 12 26 13 27 14 29 15 30 16 31 77 32 17 33 76 34 18 35 19 36
REMARK SMILES IDX 20 37 70 38 21 39 75 40 69 41 71 42 22 43 74 44 68 45 67 46
REMARK SMILES IDX 23 48 55 49 35 50 54 51 36 52 39 53 53 54 72 55 37 56 38 57
REMARK SMILES IDX 52 59 73 60 40 61 24 62 25 63 33 64 26 65 27 66 31 67 34 68
REMARK SMILES IDX 28 69 29 70 32 71 30 72 56 73 57 74 65 75 58 76 59 77 63 78
REMARK SMILES IDX 66 79 60 80 61 81 64 82 62 83 41 84 42 85 50 86 43 87 44 88
REMARK SMILES IDX 48 89 51 90 45 91 46 92 49 93 47 94
REMARK H PARENT 8 5 87 20 12 28 71 47 39 58
REMARK Flexibility Score: inf
ROOT
ATOM      1  C   UNL A   1      33.178  27.544  24.743  1.00  0.00     0.118 C 
ENDROOT
BRANCH   1   2
ATOM      2  N   UNL A   1      33.358  27.132  23.358  1.00  0.00    -0.352 N 
ATOM      3  C   UNL A   1      33.504  25.884  22.797  1.00  0.00     0.258 C 
ATOM      4  O   UNL A   1      33.646  25.785  21.580  1.00  0.00    -0.269 OA
ATOM      5  H   UNL A   1      33.376  27.875  22.711  1.00  0.00     0.163 HD
BRANCH   3   6
ATOM      6  C   UNL A   1      33.582  24.665  23.633  1.00  0.00     0.121 A 
ATOM      7  C   UNL A   1      35.011  23.031  24.750  1.00  0.00     0.162 A 
ATOM      8  C   UNL A   1      34.863  24.152  23.918  1.00  0.00     0.071 A 
ATOM      9  C   UNL A   1      33.882  22.462  25.352  1.00  0.00     0.168 A 
ATOM     10  C   UNL A   1      32.619  22.998  25.116  1.00  0.00     0.136 A 
ATOM     11  C   UNL A   1      32.473  24.016  24.174  1.00  0.00     0.286 A 
BRANCH   7  12
ATOM     12  O   UNL A   1      36.266  22.584  25.068  1.00  0.00    -0.493 OA
ATOM     13  C   UNL A   1      37.162  23.644  25.415  1.00  0.00     0.278 C 
ENDBRANCH   7  12
BRANCH   9  14
ATOM     14  O   UNL A   1      33.862  21.358  26.152  1.00  0.00    -0.484 OA
BRANCH  14  15
ATOM     15  C   UNL A   1      33.094  20.252  25.661  1.00  0.00     0.291 C 
BRANCH  15  16
ATOM     16  C   UNL A   1      33.743  19.301  24.612  1.00  0.00     0.303 C 
BRANCH  16  17
ATOM     17  N   UNL A   1      33.918  17.891  25.024  1.00  0.00    -0.337 N 
ATOM     18  C   UNL A   1      32.716  17.335  25.653  1.00  0.00     0.332 C 
ATOM     19  C   UNL A   1      34.273  17.032  23.889  1.00  0.00     0.332 C 
ATOM     20  H   UNL A   1      34.678  17.905  25.705  1.00  0.00     0.347 HD
ENDBRANCH  16  17
ENDBRANCH  15  16
ENDBRANCH  14  15
ENDBRANCH   9  14
BRANCH  11  21
ATOM     21  N   UNL A   1      31.129  24.250  23.672  1.00  0.00     0.063 N 
ATOM     22  O   UNL A   1      30.656  25.384  23.804  1.00  0.00    -0.258 OA
ATOM     23  O   UNL A   1      30.560  23.297  23.119  1.00  0.00    -0.258 OA
ENDBRANCH  11  21
ENDBRANCH   3   6
ENDBRANCH   1   2
BRANCH   1  24
ATOM     24  C   UNL A   1      32.886  29.015  24.936  1.00  0.00     0.042 C 
BRANCH  24  25
ATOM     25  C   UNL A   1      32.533  29.404  26.358  1.00  0.00     0.118 C 
BRANCH  25  26
ATOM     26  N   UNL A   1      32.467  30.846  26.575  1.00  0.00    -0.352 N 
ATOM     27  C   UNL A   1      33.304  31.706  27.247  1.00  0.00     0.251 C 
ATOM     28  H   UNL A   1      31.684  31.281  26.169  1.00  0.00     0.163 HD
ATOM     29  O   UNL A   1      32.971  32.881  27.396  1.00  0.00    -0.269 OA
BRANCH  27  30
ATOM     30  C   UNL A   1      34.579  31.234  27.830  1.00  0.00     0.039 A 
ATOM     31  C   UNL A   1      35.638  32.136  27.977  1.00  0.00     0.014 A 
ATOM     32  C   UNL A   1      34.748  29.911  28.230  1.00  0.00     0.014 A 
ATOM     33  C   UNL A   1      36.819  31.727  28.603  1.00  0.00     0.010 A 
ATOM     34  C   UNL A   1      35.854  29.548  28.987  1.00  0.00     0.010 A 
ATOM     35  C   UNL A   1      36.918  30.442  29.161  1.00  0.00    -0.014 A 
BRANCH  35  36
ATOM     36  C   UNL A   1      38.133  29.992  29.889  1.00  0.00     0.031 A 
ATOM     37  C   UNL A   1      38.394  30.481  31.291  1.00  0.00     0.074 A 
ATOM     38  C   UNL A   1      39.036  29.206  29.270  1.00  0.00     0.049 A 
ATOM     39  N   UNL A   1      39.428  30.270  32.065  1.00  0.00    -0.248 NA
ATOM     40  C   UNL A   1      37.375  31.361  31.889  1.00  0.00     0.031 C 
ATOM     41  C   UNL A   1      38.936  28.720  27.893  1.00  0.00     0.029 A 
ATOM     42  N   UNL A   1      40.222  28.680  29.719  1.00  0.00    -0.354 N 
ATOM     43  C   UNL A   1      39.194  31.009  33.218  1.00  0.00     0.074 A 
ATOM     44  C   UNL A   1      37.962  31.736  33.013  1.00  0.00     0.031 C 
ATOM     45  C   UNL A   1      39.992  27.936  27.623  1.00  0.00     0.029 A 
ATOM     46  C   UNL A   1      40.867  27.901  28.790  1.00  0.00     0.049 A 
ATOM     47  H   UNL A   1      40.577  28.847  30.622  1.00  0.00     0.167 HD
ATOM     48  C   UNL A   1      39.919  31.052  34.362  1.00  0.00     0.037 A 
ATOM     49  C   UNL A   1      42.034  27.234  28.871  1.00  0.00     0.037 A 
ATOM     50  C   UNL A   1      41.123  30.294  34.576  1.00  0.00     0.049 A 
ATOM     51  C   UNL A   1      42.815  27.284  30.157  1.00  0.00     0.074 A 
ATOM     52  C   UNL A   1      41.896  30.208  35.719  1.00  0.00     0.029 A 
ATOM     53  N   UNL A   1      41.728  29.491  33.620  1.00  0.00    -0.354 N 
ATOM     54  N   UNL A   1      42.542  27.923  31.269  1.00  0.00    -0.248 NA
ATOM     55  C   UNL A   1      44.064  26.510  30.201  1.00  0.00     0.031 C 
ATOM     56  C   UNL A   1      42.999  29.397  35.439  1.00  0.00     0.029 A 
ATOM     57  C   UNL A   1      42.879  28.924  34.141  1.00  0.00     0.049 A 
ATOM     58  H   UNL A   1      41.389  29.346  32.707  1.00  0.00     0.167 HD
ATOM     59  C   UNL A   1      43.563  27.603  32.155  1.00  0.00     0.074 A 
ATOM     60  C   UNL A   1      44.452  26.700  31.454  1.00  0.00     0.031 C 
ATOM     61  C   UNL A   1      43.748  28.019  33.431  1.00  0.00     0.037 A 
BRANCH  48  62
ATOM     62  C   UNL A   1      39.421  31.939  35.468  1.00  0.00     0.064 A 
ATOM     63  C   UNL A   1      38.550  31.465  36.463  1.00  0.00     0.173 A 
ATOM     64  C   UNL A   1      39.834  33.277  35.547  1.00  0.00     0.173 A 
ATOM     65  F   UNL A   1      38.112  30.197  36.430  1.00  0.00    -0.203 F 
ATOM     66  C   UNL A   1      38.081  32.306  37.469  1.00  0.00     0.198 A 
ATOM     67  C   UNL A   1      39.393  34.106  36.576  1.00  0.00     0.198 A 
ATOM     68  F   UNL A   1      40.669  33.784  34.628  1.00  0.00    -0.203 F 
ATOM     69  F   UNL A   1      37.200  31.846  38.368  1.00  0.00    -0.200 F 
ATOM     70  C   UNL A   1      38.509  33.623  37.530  1.00  0.00     0.200 A 
ATOM     71  F   UNL A   1      39.820  35.375  36.643  1.00  0.00    -0.200 F 
ATOM     72  F   UNL A   1      38.062  34.430  38.502  1.00  0.00    -0.200 F 
ENDBRANCH  48  62
BRANCH  49  73
ATOM     73  C   UNL A   1      42.516  26.432  27.714  1.00  0.00     0.064 A 
ATOM     74  C   UNL A   1      43.447  26.961  26.809  1.00  0.00     0.173 A 
ATOM     75  C   UNL A   1      42.056  25.127  27.485  1.00  0.00     0.173 A 
ATOM     76  F   UNL A   1      43.904  28.212  26.973  1.00  0.00    -0.203 F 
ATOM     77  C   UNL A   1      43.879  26.227  25.706  1.00  0.00     0.198 A 
ATOM     78  C   UNL A   1      42.513  24.382  26.400  1.00  0.00     0.198 A 
ATOM     79  F   UNL A   1      41.170  24.571  28.324  1.00  0.00    -0.203 F 
ATOM     80  F   UNL A   1      44.731  26.777  24.829  1.00  0.00    -0.200 F 
ATOM     81  C   UNL A   1      43.417  24.935  25.506  1.00  0.00     0.200 A 
ATOM     82  F   UNL A   1      42.076  23.128  26.219  1.00  0.00    -0.200 F 
ATOM     83  F   UNL A   1      43.836  24.228  24.449  1.00  0.00    -0.200 F 
ENDBRANCH  49  73
BRANCH  61  84
ATOM     84  C   UNL A   1      44.935  27.469  34.170  1.00  0.00     0.064 A 
ATOM     85  C   UNL A   1      46.168  28.138  34.194  1.00  0.00     0.173 A 
ATOM     86  C   UNL A   1      44.823  26.271  34.894  1.00  0.00     0.173 A 
ATOM     87  F   UNL A   1      46.331  29.279  33.509  1.00  0.00    -0.203 F 
ATOM     88  C   UNL A   1      47.253  27.609  34.887  1.00  0.00     0.198 A 
ATOM     89  C   UNL A   1      45.900  25.766  35.616  1.00  0.00     0.198 A 
ATOM     90  F   UNL A   1      43.663  25.597  34.912  1.00  0.00    -0.203 F 
ATOM     91  F   UNL A   1      48.438  28.234  34.848  1.00  0.00    -0.200 F 
ATOM     92  C   UNL A   1      47.117  26.429  35.603  1.00  0.00     0.200 A 
ATOM     93  F   UNL A   1      45.759  24.635  36.321  1.00  0.00    -0.200 F 
ATOM     94  F   UNL A   1      48.161  25.926  36.275  1.00  0.00    -0.200 F 
ENDBRANCH  61  84
ENDBRANCH  35  36
ENDBRANCH  27  30
ENDBRANCH  25  26
ENDBRANCH  24  25
ENDBRANCH   1  24
TORSDOF 16
ENDMDL
MODEL 2
REMARK VINA RESULT:     -11.1      1.068      7.589
REMARK SMILES COc1cc(C(=O)NCCCNC(=O)c2ccc(-c3c4nc(c(-c5c(F)c(F)c(F)c(F)c5F)c5ccc([nH]5)c(-c5c(F)c(F)c(F)c(F)c5F)c5nc(c(-c6c(F)c(F)c(F)c(F)c6F)c6ccc3[nH]6)C=C5)C=C4)cc2)c([N+](=O)[O-])cc1OCC[NH+](C)C
REMARK SMILES IDX 9 1 8 2 6 3 7 4 5 6 3 7 4 8 83 9 82 10 78 11 2 12 1 13 84 14
REMARK SMILES IDX 85 15 86 16 87 17 88 18 89 19 79 21 80 22 81 23 10 24 11 25
REMARK SMILES IDX 12 26 13 27 14 29 15 30 16 31 77 32 17 33 76 34 18 35 19 36
REMARK SMILES IDX 20 37 70 38 21 39 75 40 69 41 71 42 22 43 74 44 68 45 67 46
REMARK SMILES IDX 23 48 55 49 35 50 54 51 36 52 39 53 53 54 72 55 37 56 38 57
REMARK SMILES IDX 52 59 73 60 40 61 24 62 25 63 33 64 26 65 27 66 31 67 34 68
REMARK SMILES IDX 28 69 29 70 32 71 30 72 56 73 57 74 65 75 58 76 59 77 63 78
REMARK SMILES IDX 66 79 60 80 61 81 64 82 62 83 41 84 42 85 50 86 43 87 44 88
REMARK SMILES IDX 48 89 51 90 45 91 46 92 49 93 47 94
REMARK H PARENT 8 5 87 20 12 28 71 47 39 58
REMARK Flexibility Score: inf
ROOT
ATOM      1  C   UNL A   1      33.976  28.447  22.918  1.00  0.00     0.118 C 
ENDROOT
BRANCH   1   2
ATOM      2  N   UNL A   1      33.520  27.470  21.939  1.00  0.00    -0.352 N 
ATOM      3  C   UNL A   1      33.300  26.116  22.049  1.00  0.00     0.258 C 
ATOM      4  O   UNL A   1      32.910  25.489  21.066  1.00  0.00    -0.269 OA
ATOM      5  H   UNL A   1      33.337  27.842  21.046  1.00  0.00     0.163 HD
BRANCH   3   6
ATOM      6  C   UNL A   1      33.603  25.381  23.298  1.00  0.00     0.121 A 
ATOM      7  C   UNL A   1      35.263  24.165  24.612  1.00  0.00     0.162 A 
ATOM      8  C   UNL A   1      34.891  24.827  23.430  1.00  0.00     0.071 A 
ATOM      9  C   UNL A   1      34.368  24.116  25.688  1.00  0.00     0.168 A 
ATOM     10  C   UNL A   1      33.113  24.709  25.581  1.00  0.00     0.136 A 
ATOM     11  C   UNL A   1      32.705  25.231  24.354  1.00  0.00     0.286 A 
BRANCH   7  12
ATOM     12  O   UNL A   1      36.539  23.689  24.749  1.00  0.00    -0.493 OA
ATOM     13  C   UNL A   1      36.727  22.415  24.126  1.00  0.00     0.278 C 
ENDBRANCH   7  12
BRANCH   9  14
ATOM     14  O   UNL A   1      34.571  23.485  26.880  1.00  0.00    -0.484 OA
BRANCH  14  15
ATOM     15  C   UNL A   1      33.502  22.639  27.321  1.00  0.00     0.291 C 
BRANCH  15  16
ATOM     16  C   UNL A   1      33.550  21.124  26.956  1.00  0.00     0.303 C 
BRANCH  16  17
ATOM     17  N   UNL A   1      32.732  20.702  25.799  1.00  0.00    -0.337 N 
ATOM     18  C   UNL A   1      31.604  21.605  25.547  1.00  0.00     0.332 C 
ATOM     19  C   UNL A   1      33.528  20.619  24.570  1.00  0.00     0.332 C 
ATOM     20  H   UNL A   1      32.374  19.779  26.048  1.00  0.00     0.347 HD
ENDBRANCH  16  17
ENDBRANCH  15  16
ENDBRANCH  14  15
ENDBRANCH   9  14
BRANCH  11  21
ATOM     21  N   UNL A   1      31.279  25.456  24.185  1.00  0.00     0.063 N 
ATOM     22  O   UNL A   1      30.616  24.562  23.647  1.00  0.00    -0.258 OA
ATOM     23  O   UNL A   1      30.822  26.523  24.618  1.00  0.00    -0.258 OA
ENDBRANCH  11  21
ENDBRANCH   3   6
ENDBRANCH   1   2
BRANCH   1  24
ATOM     24  C   UNL A   1      32.876  29.103  23.722  1.00  0.00     0.042 C 
BRANCH  24  25
ATOM     25  C   UNL A   1      33.164  29.216  25.205  1.00  0.00     0.118 C 
BRANCH  25  26
ATOM     26  N   UNL A   1      32.661  30.445  25.811  1.00  0.00    -0.352 N 
ATOM     27  C   UNL A   1      33.134  31.207  26.853  1.00  0.00     0.251 C 
ATOM     28  H   UNL A   1      31.836  30.790  25.401  1.00  0.00     0.163 HD
ATOM     29  O   UNL A   1      32.462  32.152  27.266  1.00  0.00    -0.269 OA
BRANCH  27  30
ATOM     30  C   UNL A   1      34.419  30.888  27.515  1.00  0.00     0.039 A 
ATOM     31  C   UNL A   1      35.364  31.902  27.697  1.00  0.00     0.014 A 
ATOM     32  C   UNL A   1      34.706  29.599  27.954  1.00  0.00     0.014 A 
ATOM     33  C   UNL A   1      36.546  31.635  28.395  1.00  0.00     0.010 A 
ATOM     34  C   UNL A   1      35.801  29.371  28.777  1.00  0.00     0.010 A 
ATOM     35  C   UNL A   1      36.751  30.379  28.987  1.00  0.00    -0.014 A 
BRANCH  35  36
ATOM     36  C   UNL A   1      37.965  30.076  29.789  1.00  0.00     0.031 A 
ATOM     37  C   UNL A   1      39.016  29.143  29.240  1.00  0.00     0.074 A 
ATOM     38  C   UNL A   1      38.092  30.577  31.033  1.00  0.00     0.049 A 
ATOM     39  N   UNL A   1      40.103  28.690  29.811  1.00  0.00    -0.248 NA
ATOM     40  C   UNL A   1      38.791  28.613  27.885  1.00  0.00     0.031 C 
ATOM     41  C   UNL A   1      37.116  31.436  31.706  1.00  0.00     0.029 A 
ATOM     42  N   UNL A   1      39.096  30.431  31.959  1.00  0.00    -0.354 N 
ATOM     43  C   UNL A   1      40.669  27.809  28.897  1.00  0.00     0.074 A 
ATOM     44  C   UNL A   1      39.768  27.728  27.771  1.00  0.00     0.031 C 
ATOM     45  C   UNL A   1      37.585  31.773  32.918  1.00  0.00     0.029 A 
ATOM     46  C   UNL A   1      38.873  31.119  33.127  1.00  0.00     0.049 A 
ATOM     47  H   UNL A   1      39.899  29.884  31.801  1.00  0.00     0.167 HD
ATOM     48  C   UNL A   1      41.853  27.154  28.971  1.00  0.00     0.037 A 
ATOM     49  C   UNL A   1      39.623  31.209  34.242  1.00  0.00     0.037 A 
ATOM     50  C   UNL A   1      42.766  27.270  30.076  1.00  0.00     0.049 A 
ATOM     51  C   UNL A   1      40.941  30.484  34.295  1.00  0.00     0.074 A 
ATOM     52  C   UNL A   1      44.021  26.708  30.222  1.00  0.00     0.029 A 
ATOM     53  N   UNL A   1      42.518  28.002  31.229  1.00  0.00    -0.354 N 
ATOM     54  N   UNL A   1      41.503  29.718  33.392  1.00  0.00    -0.248 NA
ATOM     55  C   UNL A   1      41.734  30.646  35.522  1.00  0.00     0.031 C 
ATOM     56  C   UNL A   1      44.509  27.053  31.485  1.00  0.00     0.029 A 
ATOM     57  C   UNL A   1      43.587  27.886  32.101  1.00  0.00     0.049 A 
ATOM     58  H   UNL A   1      41.702  28.527  31.401  1.00  0.00     0.167 HD
ATOM     59  C   UNL A   1      42.727  29.333  33.924  1.00  0.00     0.074 A 
ATOM     60  C   UNL A   1      42.831  29.965  35.223  1.00  0.00     0.031 C 
ATOM     61  C   UNL A   1      43.677  28.530  33.388  1.00  0.00     0.037 A 
BRANCH  48  62
ATOM     62  C   UNL A   1      42.227  26.263  27.820  1.00  0.00     0.064 A 
ATOM     63  C   UNL A   1      43.087  26.695  26.797  1.00  0.00     0.173 A 
ATOM     64  C   UNL A   1      41.734  24.952  27.746  1.00  0.00     0.173 A 
ATOM     65  F   UNL A   1      43.578  27.944  26.810  1.00  0.00    -0.203 F 
ATOM     66  C   UNL A   1      43.407  25.865  25.727  1.00  0.00     0.198 A 
ATOM     67  C   UNL A   1      42.086  24.110  26.693  1.00  0.00     0.198 A 
ATOM     68  F   UNL A   1      40.913  24.482  28.696  1.00  0.00    -0.203 F 
ATOM     69  F   UNL A   1      44.177  26.324  24.731  1.00  0.00    -0.200 F 
ATOM     70  C   UNL A   1      42.913  24.570  25.679  1.00  0.00     0.200 A 
ATOM     71  F   UNL A   1      41.621  22.854  26.657  1.00  0.00    -0.200 F 
ATOM     72  F   UNL A   1      43.226  23.769  24.651  1.00  0.00    -0.200 F 
ENDBRANCH  48  62
BRANCH  49  73
ATOM     73  C   UNL A   1      39.164  32.047  35.383  1.00  0.00     0.064 A 
ATOM     74  C   UNL A   1      38.404  31.493  36.423  1.00  0.00     0.173 A 
ATOM     75  C   UNL A   1      39.468  33.414  35.457  1.00  0.00     0.173 A 
ATOM     76  F   UNL A   1      38.070  30.194  36.390  1.00  0.00    -0.203 F 
ATOM     77  C   UNL A   1      37.945  32.278  37.479  1.00  0.00     0.198 A 
ATOM     78  C   UNL A   1      39.037  34.192  36.529  1.00  0.00     0.198 A 
ATOM     79  F   UNL A   1      40.198  33.992  34.491  1.00  0.00    -0.203 F 
ATOM     80  F   UNL A   1      37.178  31.733  38.433  1.00  0.00    -0.200 F 
ATOM     81  C   UNL A   1      38.268  33.625  37.534  1.00  0.00     0.200 A 
ATOM     82  F   UNL A   1      39.364  35.489  36.588  1.00  0.00    -0.200 F 
ATOM     83  F   UNL A   1      37.831  34.379  38.552  1.00  0.00    -0.200 F 
ENDBRANCH  49  73
BRANCH  61  84
ATOM     84  C   UNL A   1      44.934  28.322  34.184  1.00  0.00     0.064 A 
ATOM     85  C   UNL A   1      45.052  27.289  35.125  1.00  0.00     0.173 A 
ATOM     86  C   UNL A   1      46.048  29.150  33.974  1.00  0.00     0.173 A 
ATOM     87  F   UNL A   1      44.012  26.478  35.373  1.00  0.00    -0.203 F 
ATOM     88  C   UNL A   1      46.227  27.115  35.851  1.00  0.00     0.198 A 
ATOM     89  C   UNL A   1      47.234  28.949  34.675  1.00  0.00     0.198 A 
ATOM     90  F   UNL A   1      45.992  30.147  33.078  1.00  0.00    -0.203 F 
ATOM     91  F   UNL A   1      46.298  26.158  36.787  1.00  0.00    -0.200 F 
ATOM     92  C   UNL A   1      47.319  27.938  35.620  1.00  0.00     0.200 A 
ATOM     93  F   UNL A   1      48.292  29.735  34.436  1.00  0.00    -0.200 F 
ATOM     94  F   UNL A   1      48.451  27.764  36.315  1.00  0.00    -0.200 F 
ENDBRANCH  61  84
ENDBRANCH  35  36
ENDBRANCH  27  30
ENDBRANCH  25  26
ENDBRANCH  24  25
ENDBRANCH   1  24
TORSDOF 16
ENDMDL
MODEL 3
REMARK VINA RESULT:     -11.1      1.424      7.513
REMARK SMILES COc1cc(C(=O)NCCCNC(=O)c2ccc(-c3c4nc(c(-c5c(F)c(F)c(F)c(F)c5F)c5ccc([nH]5)c(-c5c(F)c(F)c(F)c(F)c5F)c5nc(c(-c6c(F)c(F)c(F)c(F)c6F)c6ccc3[nH]6)C=C5)C=C4)cc2)c([N+](=O)[O-])cc1OCC[NH+](C)C
REMARK SMILES IDX 9 1 8 2 6 3 7 4 5 6 3 7 4 8 83 9 82 10 78 11 2 12 1 13 84 14
REMARK SMILES IDX 85 15 86 16 87 17 88 18 89 19 79 21 80 22 81 23 10 24 11 25
REMARK SMILES IDX 12 26 13 27 14 29 15 30 16 31 77 32 17 33 76 34 18 35 19 36
REMARK SMILES IDX 20 37 70 38 21 39 75 40 69 41 71 42 22 43 74 44 68 45 67 46
REMARK SMILES IDX 23 48 55 49 35 50 54 51 36 52 39 53 53 54 72 55 37 56 38 57
REMARK SMILES IDX 52 59 73 60 40 61 24 62 25 63 33 64 26 65 27 66 31 67 34 68
REMARK SMILES IDX 28 69 29 70 32 71 30 72 56 73 57 74 65 75 58 76 59 77 63 78
REMARK SMILES IDX 66 79 60 80 61 81 64 82 62 83 41 84 42 85 50 86 43 87 44 88
REMARK SMILES IDX 48 89 51 90 45 91 46 92 49 93 47 94
REMARK H PARENT 8 5 87 20 12 28 71 47 39 58
REMARK Flexibility Score: inf
ROOT
ATOM      1  C   UNL A   1      31.513  27.711  25.425  1.00  0.00     0.118 C 
ENDROOT
BRANCH   1   2
ATOM      2  N   UNL A   1      31.054  27.861  24.050  1.00  0.00    -0.352 N 
ATOM      3  C   UNL A   1      30.944  26.945  23.029  1.00  0.00     0.258 C 
ATOM      4  O   UNL A   1      30.525  27.313  21.934  1.00  0.00    -0.269 OA
ATOM      5  H   UNL A   1      30.774  28.774  23.812  1.00  0.00     0.163 HD
BRANCH   3   6
ATOM      6  C   UNL A   1      31.400  25.546  23.192  1.00  0.00     0.121 A 
ATOM      7  C   UNL A   1      31.195  23.453  24.431  1.00  0.00     0.162 A 
ATOM      8  C   UNL A   1      30.849  24.802  24.254  1.00  0.00     0.071 A 
ATOM      9  C   UNL A   1      32.042  22.828  23.507  1.00  0.00     0.168 A 
ATOM     10  C   UNL A   1      32.547  23.545  22.425  1.00  0.00     0.136 A 
ATOM     11  C   UNL A   1      32.313  24.917  22.346  1.00  0.00     0.286 A 
BRANCH   7  12
ATOM     12  O   UNL A   1      30.602  22.726  25.429  1.00  0.00    -0.493 OA
ATOM     13  C   UNL A   1      30.259  23.521  26.568  1.00  0.00     0.278 C 
ENDBRANCH   7  12
BRANCH   9  14
ATOM     14  O   UNL A   1      32.492  21.542  23.564  1.00  0.00    -0.484 OA
BRANCH  14  15
ATOM     15  C   UNL A   1      33.775  21.363  24.178  1.00  0.00     0.291 C 
BRANCH  15  16
ATOM     16  C   UNL A   1      33.844  21.194  25.725  1.00  0.00     0.303 C 
BRANCH  16  17
ATOM     17  N   UNL A   1      33.638  22.418  26.529  1.00  0.00    -0.337 N 
ATOM     18  C   UNL A   1      33.536  22.138  27.965  1.00  0.00     0.332 C 
ATOM     19  C   UNL A   1      34.721  23.387  26.333  1.00  0.00     0.332 C 
ATOM     20  H   UNL A   1      32.755  22.808  26.200  1.00  0.00     0.347 HD
ENDBRANCH  16  17
ENDBRANCH  15  16
ENDBRANCH  14  15
ENDBRANCH   9  14
BRANCH  11  21
ATOM     21  N   UNL A   1      33.178  25.674  21.457  1.00  0.00     0.063 N 
ATOM     22  O   UNL A   1      32.969  25.590  20.241  1.00  0.00    -0.258 OA
ATOM     23  O   UNL A   1      34.053  26.377  21.984  1.00  0.00    -0.258 OA
ENDBRANCH  11  21
ENDBRANCH   3   6
ENDBRANCH   1   2
BRANCH   1  24
ATOM     24  C   UNL A   1      32.995  27.935  25.628  1.00  0.00     0.042 C 
BRANCH  24  25
ATOM     25  C   UNL A   1      33.505  29.267  25.117  1.00  0.00     0.118 C 
BRANCH  25  26
ATOM     26  N   UNL A   1      32.929  30.421  25.800  1.00  0.00    -0.352 N 
ATOM     27  C   UNL A   1      33.338  31.120  26.911  1.00  0.00     0.251 C 
ATOM     28  H   UNL A   1      32.099  30.759  25.393  1.00  0.00     0.163 HD
ATOM     29  O   UNL A   1      32.611  31.999  27.374  1.00  0.00    -0.269 OA
BRANCH  27  30
ATOM     30  C   UNL A   1      34.618  30.809  27.584  1.00  0.00     0.039 A 
ATOM     31  C   UNL A   1      35.582  31.813  27.716  1.00  0.00     0.014 A 
ATOM     32  C   UNL A   1      34.883  29.537  28.083  1.00  0.00     0.014 A 
ATOM     33  C   UNL A   1      36.761  31.558  28.423  1.00  0.00     0.010 A 
ATOM     34  C   UNL A   1      35.976  29.328  28.913  1.00  0.00     0.010 A 
ATOM     35  C   UNL A   1      36.945  30.327  29.073  1.00  0.00    -0.014 A 
BRANCH  35  36
ATOM     36  C   UNL A   1      38.156  30.040  29.887  1.00  0.00     0.031 A 
ATOM     37  C   UNL A   1      39.228  29.129  29.343  1.00  0.00     0.074 A 
ATOM     38  C   UNL A   1      38.261  30.535  31.135  1.00  0.00     0.049 A 
ATOM     39  N   UNL A   1      40.318  28.691  29.922  1.00  0.00    -0.248 NA
ATOM     40  C   UNL A   1      39.027  28.604  27.982  1.00  0.00     0.031 C 
ATOM     41  C   UNL A   1      37.264  31.372  31.803  1.00  0.00     0.029 A 
ATOM     42  N   UNL A   1      39.258  30.401  32.070  1.00  0.00    -0.354 N 
ATOM     43  C   UNL A   1      40.908  27.827  29.009  1.00  0.00     0.074 A 
ATOM     44  C   UNL A   1      40.021  27.737  27.873  1.00  0.00     0.031 C 
ATOM     45  C   UNL A   1      37.714  31.710  33.022  1.00  0.00     0.029 A 
ATOM     46  C   UNL A   1      39.011  31.077  33.240  1.00  0.00     0.049 A 
ATOM     47  H   UNL A   1      40.072  29.869  31.917  1.00  0.00     0.167 HD
ATOM     48  C   UNL A   1      42.102  27.192  29.091  1.00  0.00     0.037 A 
ATOM     49  C   UNL A   1      39.747  31.173  34.364  1.00  0.00     0.037 A 
ATOM     50  C   UNL A   1      43.002  27.317  30.206  1.00  0.00     0.049 A 
ATOM     51  C   UNL A   1      41.077  30.471  34.426  1.00  0.00     0.074 A 
ATOM     52  C   UNL A   1      44.265  26.775  30.361  1.00  0.00     0.029 A 
ATOM     53  N   UNL A   1      42.729  28.036  31.361  1.00  0.00    -0.354 N 
ATOM     54  N   UNL A   1      41.662  29.720  33.524  1.00  0.00    -0.248 NA
ATOM     55  C   UNL A   1      41.854  30.638  35.662  1.00  0.00     0.031 C 
ATOM     56  C   UNL A   1      44.734  27.121  31.632  1.00  0.00     0.029 A 
ATOM     57  C   UNL A   1      43.791  27.933  32.244  1.00  0.00     0.049 A 
ATOM     58  H   UNL A   1      41.903  28.545  31.528  1.00  0.00     0.167 HD
ATOM     59  C   UNL A   1      42.887  29.353  34.067  1.00  0.00     0.074 A 
ATOM     60  C   UNL A   1      42.966  29.978  35.370  1.00  0.00     0.031 C 
ATOM     61  C   UNL A   1      43.857  28.570  33.535  1.00  0.00     0.037 A 
BRANCH  48  62
ATOM     62  C   UNL A   1      42.504  26.315  27.938  1.00  0.00     0.064 A 
ATOM     63  C   UNL A   1      42.038  24.997  27.811  1.00  0.00     0.173 A 
ATOM     64  C   UNL A   1      43.355  26.805  26.935  1.00  0.00     0.173 A 
ATOM     65  F   UNL A   1      41.232  24.472  28.747  1.00  0.00    -0.203 F 
ATOM     66  C   UNL A   1      42.437  24.191  26.748  1.00  0.00     0.198 A 
ATOM     67  C   UNL A   1      43.723  26.009  25.853  1.00  0.00     0.198 A 
ATOM     68  F   UNL A   1      43.829  28.058  27.000  1.00  0.00    -0.203 F 
ATOM     69  F   UNL A   1      42.029  22.916  26.686  1.00  0.00    -0.200 F 
ATOM     70  C   UNL A   1      43.272  24.699  25.766  1.00  0.00     0.200 A 
ATOM     71  F   UNL A   1      44.517  26.507  24.896  1.00  0.00    -0.200 F 
ATOM     72  F   UNL A   1      43.652  23.925  24.740  1.00  0.00    -0.200 F 
ENDBRANCH  48  62
BRANCH  49  73
ATOM     73  C   UNL A   1      39.262  31.995  35.505  1.00  0.00     0.064 A 
ATOM     74  C   UNL A   1      39.592  33.355  35.605  1.00  0.00     0.173 A 
ATOM     75  C   UNL A   1      38.465  31.444  36.518  1.00  0.00     0.173 A 
ATOM     76  F   UNL A   1      40.368  33.926  34.671  1.00  0.00    -0.203 F 
ATOM     77  C   UNL A   1      39.166  34.123  36.686  1.00  0.00     0.198 A 
ATOM     78  C   UNL A   1      38.012  32.220  37.582  1.00  0.00     0.198 A 
ATOM     79  F   UNL A   1      38.114  30.150  36.466  1.00  0.00    -0.203 F 
ATOM     80  F   UNL A   1      39.540  35.407  36.782  1.00  0.00    -0.200 F 
ATOM     81  C   UNL A   1      38.371  33.557  37.671  1.00  0.00     0.200 A 
ATOM     82  F   UNL A   1      37.230  31.675  38.523  1.00  0.00    -0.200 F 
ATOM     83  F   UNL A   1      37.957  34.297  38.708  1.00  0.00    -0.200 F 
ENDBRANCH  49  73
BRANCH  61  84
ATOM     84  C   UNL A   1      45.109  28.379  34.343  1.00  0.00     0.064 A 
ATOM     85  C   UNL A   1      46.196  29.260  34.242  1.00  0.00     0.173 A 
ATOM     86  C   UNL A   1      45.205  27.319  35.257  1.00  0.00     0.173 A 
ATOM     87  F   UNL A   1      46.160  30.282  33.374  1.00  0.00    -0.203 F 
ATOM     88  C   UNL A   1      47.346  29.065  35.002  1.00  0.00     0.198 A 
ATOM     89  C   UNL A   1      46.342  27.150  36.042  1.00  0.00     0.198 A 
ATOM     90  F   UNL A   1      44.190  26.454  35.400  1.00  0.00    -0.203 F 
ATOM     91  F   UNL A   1      48.395  29.885  34.846  1.00  0.00    -0.200 F 
ATOM     92  C   UNL A   1      47.415  28.016  35.906  1.00  0.00     0.200 A 
ATOM     93  F   UNL A   1      46.398  26.146  36.928  1.00  0.00    -0.200 F 
ATOM     94  F   UNL A   1      48.521  27.834  36.642  1.00  0.00    -0.200 F 
ENDBRANCH  61  84
ENDBRANCH  35  36
ENDBRANCH  27  30
ENDBRANCH  25  26
ENDBRANCH  24  25
ENDBRANCH   1  24
TORSDOF 16
ENDMDL
