MODEL 1
REMARK VINA RESULT:     -12.8      0.000      0.000
REMARK SMILES CC(=O)N[C@@H](C(=O)NCCCNC(=O)c1ccc(-c2c3nc(c(-c4c(F)c(F)c(F)c(F)c4F)c4ccc([nH]4)c(-c4c(F)c(F)c(F)c(F)c4F)c4nc(c(-c5c(F)c(F)c(F)c(F)c5F)c5ccc2[nH]5)C=C4)C=C3)cc1)C(c1ccccc1)c1ccccc1
REMARK SMILES IDX 10 1 9 2 8 3 6 4 7 5 5 7 4 8 1 9 2 10 3 11 78 13 79 14 80 15
REMARK SMILES IDX 84 16 81 17 83 18 82 19 85 20 86 21 90 22 87 23 89 24 88 25
REMARK SMILES IDX 11 26 12 27 13 28 14 30 15 31 16 32 77 33 17 34 76 35 18 36
REMARK SMILES IDX 19 37 20 38 70 39 21 40 75 41 69 42 71 43 22 44 74 45 68 46
REMARK SMILES IDX 67 47 23 49 55 50 35 51 54 52 36 53 39 54 53 55 72 56 37 57
REMARK SMILES IDX 38 58 52 60 73 61 40 62 24 63 25 64 33 65 26 66 27 67 31 68
REMARK SMILES IDX 34 69 28 70 29 71 32 72 30 73 56 74 57 75 65 76 58 77 59 78
REMARK SMILES IDX 63 79 66 80 60 81 61 82 64 83 62 84 41 85 42 86 50 87 43 88
REMARK SMILES IDX 44 89 48 90 51 91 45 92 46 93 49 94 47 95
REMARK H PARENT 8 6 4 12 12 29 71 48 39 59
REMARK Flexibility Score: inf
ROOT
ATOM      1  C   UNL A   1      31.070  28.046  26.852  1.00  0.00     0.042 C 
ENDROOT
BRANCH   1   2
ATOM      2  C   UNL A   1      31.072  26.728  26.084  1.00  0.00     0.117 C 
BRANCH   2   3
ATOM      3  N   UNL A   1      31.333  25.607  26.963  1.00  0.00    -0.354 N 
ATOM      4  C   UNL A   1      31.789  24.357  26.650  1.00  0.00     0.243 C 
ATOM      5  O   UNL A   1      31.610  23.472  27.490  1.00  0.00    -0.273 OA
ATOM      6  H   UNL A   1      31.156  25.767  27.919  1.00  0.00     0.163 HD
BRANCH   4   7
ATOM      7  C   UNL A   1      32.389  24.082  25.248  1.00  0.00     0.183 C 
BRANCH   7   8
ATOM      8  N   UNL A   1      32.575  22.617  25.190  1.00  0.00    -0.344 N 
ATOM      9  C   UNL A   1      31.958  22.199  22.813  1.00  0.00     0.114 C 
ATOM     10  C   UNL A   1      32.359  21.728  24.185  1.00  0.00     0.217 C 
ATOM     11  O   UNL A   1      32.505  20.528  24.420  1.00  0.00    -0.275 OA
ATOM     12  H   UNL A   1      32.915  22.216  26.022  1.00  0.00     0.164 HD
ENDBRANCH   7   8
BRANCH   7  13
ATOM     13  C   UNL A   1      33.741  24.851  25.091  1.00  0.00     0.081 C 
BRANCH  13  14
ATOM     14  C   UNL A   1      34.955  23.943  24.858  1.00  0.00    -0.038 A 
ATOM     15  C   UNL A   1      35.700  23.489  25.959  1.00  0.00     0.004 A 
ATOM     16  C   UNL A   1      35.381  23.575  23.573  1.00  0.00     0.004 A 
ATOM     17  C   UNL A   1      36.821  22.676  25.777  1.00  0.00     0.000 A 
ATOM     18  C   UNL A   1      36.501  22.761  23.392  1.00  0.00     0.000 A 
ATOM     19  C   UNL A   1      37.219  22.310  24.494  1.00  0.00     0.000 A 
ENDBRANCH  13  14
BRANCH  13  20
ATOM     20  C   UNL A   1      33.686  25.968  24.041  1.00  0.00    -0.038 A 
ATOM     21  C   UNL A   1      33.231  25.749  22.731  1.00  0.00     0.004 A 
ATOM     22  C   UNL A   1      34.125  27.261  24.381  1.00  0.00     0.004 A 
ATOM     23  C   UNL A   1      33.251  26.776  21.784  1.00  0.00     0.000 A 
ATOM     24  C   UNL A   1      34.130  28.290  23.436  1.00  0.00     0.000 A 
ATOM     25  C   UNL A   1      33.703  28.044  22.135  1.00  0.00     0.000 A 
ENDBRANCH  13  20
ENDBRANCH   7  13
ENDBRANCH   4   7
ENDBRANCH   2   3
ENDBRANCH   1   2
BRANCH   1  26
ATOM     26  C   UNL A   1      32.413  28.770  26.804  1.00  0.00     0.118 C 
BRANCH  26  27
ATOM     27  N   UNL A   1      32.257  30.215  26.676  1.00  0.00    -0.352 N 
ATOM     28  C   UNL A   1      33.043  31.232  27.153  1.00  0.00     0.251 C 
ATOM     29  H   UNL A   1      31.464  30.505  26.171  1.00  0.00     0.163 HD
ATOM     30  O   UNL A   1      32.626  32.388  27.138  1.00  0.00    -0.269 OA
BRANCH  28  31
ATOM     31  C   UNL A   1      34.383  30.939  27.698  1.00  0.00     0.039 A 
ATOM     32  C   UNL A   1      35.266  31.996  27.936  1.00  0.00     0.014 A 
ATOM     33  C   UNL A   1      34.768  29.625  27.972  1.00  0.00     0.014 A 
ATOM     34  C   UNL A   1      36.501  31.742  28.532  1.00  0.00     0.010 A 
ATOM     35  C   UNL A   1      35.964  29.381  28.636  1.00  0.00     0.010 A 
ATOM     36  C   UNL A   1      36.837  30.439  28.934  1.00  0.00    -0.014 A 
BRANCH  36  37
ATOM     37  C   UNL A   1      38.075  30.158  29.703  1.00  0.00     0.031 A 
ATOM     38  C   UNL A   1      39.107  29.213  29.158  1.00  0.00     0.074 A 
ATOM     39  C   UNL A   1      38.220  30.687  30.933  1.00  0.00     0.049 A 
ATOM     40  N   UNL A   1      40.192  28.753  29.729  1.00  0.00    -0.248 NA
ATOM     41  C   UNL A   1      38.876  28.695  27.801  1.00  0.00     0.031 C 
ATOM     42  C   UNL A   1      37.265  31.584  31.585  1.00  0.00     0.029 A 
ATOM     43  N   UNL A   1      39.215  30.528  31.866  1.00  0.00    -0.354 N 
ATOM     44  C   UNL A   1      40.762  27.885  28.809  1.00  0.00     0.074 A 
ATOM     45  C   UNL A   1      39.880  27.841  27.662  1.00  0.00     0.031 C 
ATOM     46  C   UNL A   1      37.726  31.908  32.803  1.00  0.00     0.029 A 
ATOM     47  C   UNL A   1      38.980  31.203  33.040  1.00  0.00     0.049 A 
ATOM     48  H   UNL A   1      40.019  29.983  31.709  1.00  0.00     0.167 HD
ATOM     49  C   UNL A   1      41.927  27.202  28.907  1.00  0.00     0.037 A 
ATOM     50  C   UNL A   1      39.686  31.229  34.187  1.00  0.00     0.037 A 
ATOM     51  C   UNL A   1      42.806  27.261  30.046  1.00  0.00     0.049 A 
ATOM     52  C   UNL A   1      40.955  30.427  34.284  1.00  0.00     0.074 A 
ATOM     53  C   UNL A   1      44.040  26.659  30.216  1.00  0.00     0.029 A 
ATOM     54  N   UNL A   1      42.535  27.957  31.217  1.00  0.00    -0.354 N 
ATOM     55  N   UNL A   1      41.526  29.670  33.379  1.00  0.00    -0.248 NA
ATOM     56  C   UNL A   1      41.676  30.479  35.563  1.00  0.00     0.031 C 
ATOM     57  C   UNL A   1      44.488  26.939  31.511  1.00  0.00     0.029 A 
ATOM     58  C   UNL A   1      43.563  27.766  32.127  1.00  0.00     0.049 A 
ATOM     59  H   UNL A   1      41.733  28.504  31.376  1.00  0.00     0.167 HD
ATOM     60  C   UNL A   1      42.682  29.176  33.969  1.00  0.00     0.074 A 
ATOM     61  C   UNL A   1      42.742  29.734  35.303  1.00  0.00     0.031 C 
ATOM     62  C   UNL A   1      43.609  28.332  33.451  1.00  0.00     0.037 A 
BRANCH  49  63
ATOM     63  C   UNL A   1      42.321  26.325  27.753  1.00  0.00     0.064 A 
ATOM     64  C   UNL A   1      43.251  26.747  26.789  1.00  0.00     0.173 A 
ATOM     65  C   UNL A   1      41.798  25.029  27.633  1.00  0.00     0.173 A 
ATOM     66  F   UNL A   1      43.776  27.980  26.852  1.00  0.00    -0.203 F 
ATOM     67  C   UNL A   1      43.617  25.915  25.734  1.00  0.00     0.198 A 
ATOM     68  C   UNL A   1      42.192  24.188  26.595  1.00  0.00     0.198 A 
ATOM     69  F   UNL A   1      40.911  24.571  28.530  1.00  0.00    -0.203 F 
ATOM     70  F   UNL A   1      44.468  26.359  24.799  1.00  0.00    -0.200 F 
ATOM     71  C   UNL A   1      43.094  24.635  25.642  1.00  0.00     0.200 A 
ATOM     72  F   UNL A   1      41.696  22.945  26.516  1.00  0.00    -0.200 F 
ATOM     73  F   UNL A   1      43.454  23.832  24.631  1.00  0.00    -0.200 F 
ENDBRANCH  49  63
BRANCH  50  74
ATOM     74  C   UNL A   1      39.206  32.042  35.336  1.00  0.00     0.064 A 
ATOM     75  C   UNL A   1      39.549  33.397  35.449  1.00  0.00     0.173 A 
ATOM     76  C   UNL A   1      38.406  31.486  36.344  1.00  0.00     0.173 A 
ATOM     77  F   UNL A   1      40.330  33.970  34.522  1.00  0.00    -0.203 F 
ATOM     78  C   UNL A   1      39.126  34.158  36.538  1.00  0.00     0.198 A 
ATOM     79  C   UNL A   1      37.958  32.257  37.415  1.00  0.00     0.198 A 
ATOM     80  F   UNL A   1      38.048  30.195  36.282  1.00  0.00    -0.203 F 
ATOM     81  F   UNL A   1      39.509  35.437  36.646  1.00  0.00    -0.200 F 
ATOM     82  C   UNL A   1      38.325  33.589  37.516  1.00  0.00     0.200 A 
ATOM     83  F   UNL A   1      37.172  31.706  38.351  1.00  0.00    -0.200 F 
ATOM     84  F   UNL A   1      37.917  34.322  38.560  1.00  0.00    -0.200 F 
ENDBRANCH  50  74
BRANCH  62  85
ATOM     85  C   UNL A   1      44.781  27.976  34.320  1.00  0.00     0.064 A 
ATOM     86  C   UNL A   1      45.934  28.773  34.360  1.00  0.00     0.173 A 
ATOM     87  C   UNL A   1      44.723  26.859  35.168  1.00  0.00     0.173 A 
ATOM     88  F   UNL A   1      46.045  29.841  33.556  1.00  0.00    -0.203 F 
ATOM     89  C   UNL A   1      46.994  28.456  35.206  1.00  0.00     0.198 A 
ATOM     90  C   UNL A   1      45.771  26.564  36.036  1.00  0.00     0.198 A 
ATOM     91  F   UNL A   1      43.640  26.068  35.172  1.00  0.00    -0.203 F 
ATOM     92  F   UNL A   1      48.103  29.208  35.198  1.00  0.00    -0.200 F 
ATOM     93  C   UNL A   1      46.906  27.359  36.050  1.00  0.00     0.200 A 
ATOM     94  F   UNL A   1      45.678  25.514  36.863  1.00  0.00    -0.200 F 
ATOM     95  F   UNL A   1      47.920  27.066  36.876  1.00  0.00    -0.200 F 
ENDBRANCH  62  85
ENDBRANCH  36  37
ENDBRANCH  28  31
ENDBRANCH  26  27
ENDBRANCH   1  26
TORSDOF 14
ENDMDL
MODEL 2
REMARK VINA RESULT:     -12.7      2.137      3.683
REMARK SMILES CC(=O)N[C@@H](C(=O)NCCCNC(=O)c1ccc(-c2c3nc(c(-c4c(F)c(F)c(F)c(F)c4F)c4ccc([nH]4)c(-c4c(F)c(F)c(F)c(F)c4F)c4nc(c(-c5c(F)c(F)c(F)c(F)c5F)c5ccc2[nH]5)C=C4)C=C3)cc1)C(c1ccccc1)c1ccccc1
REMARK SMILES IDX 10 1 9 2 8 3 6 4 7 5 5 7 4 8 1 9 2 10 3 11 78 13 79 14 80 15
REMARK SMILES IDX 84 16 81 17 83 18 82 19 85 20 86 21 90 22 87 23 89 24 88 25
REMARK SMILES IDX 11 26 12 27 13 28 14 30 15 31 16 32 77 33 17 34 76 35 18 36
REMARK SMILES IDX 19 37 20 38 70 39 21 40 75 41 69 42 71 43 22 44 74 45 68 46
REMARK SMILES IDX 67 47 23 49 55 50 35 51 54 52 36 53 39 54 53 55 72 56 37 57
REMARK SMILES IDX 38 58 52 60 73 61 40 62 24 63 25 64 33 65 26 66 27 67 31 68
REMARK SMILES IDX 34 69 28 70 29 71 32 72 30 73 56 74 57 75 65 76 58 77 59 78
REMARK SMILES IDX 63 79 66 80 60 81 61 82 64 83 62 84 41 85 42 86 50 87 43 88
REMARK SMILES IDX 44 89 48 90 51 91 45 92 46 93 49 94 47 95
REMARK H PARENT 8 6 4 12 12 29 71 48 39 59
REMARK Flexibility Score: inf
ROOT
ATOM      1  C   UNL A   1      31.407  31.993  26.920  1.00  0.00     0.042 C 
ENDROOT
BRANCH   1   2
ATOM      2  C   UNL A   1      31.670  30.819  25.981  1.00  0.00     0.117 C 
BRANCH   2   3
ATOM      3  N   UNL A   1      32.779  30.011  26.446  1.00  0.00    -0.354 N 
ATOM      4  C   UNL A   1      32.876  28.650  26.525  1.00  0.00     0.243 C 
ATOM      5  O   UNL A   1      33.757  28.197  27.260  1.00  0.00    -0.273 OA
ATOM      6  H   UNL A   1      33.572  30.511  26.747  1.00  0.00     0.163 HD
BRANCH   4   7
ATOM      7  C   UNL A   1      31.835  27.757  25.804  1.00  0.00     0.183 C 
BRANCH   7   8
ATOM      8  N   UNL A   1      32.033  26.405  26.367  1.00  0.00    -0.344 N 
ATOM      9  C   UNL A   1      29.733  25.488  26.101  1.00  0.00     0.114 C 
ATOM     10  C   UNL A   1      31.158  25.387  26.574  1.00  0.00     0.217 C 
ATOM     11  O   UNL A   1      31.557  24.376  27.153  1.00  0.00    -0.275 OA
ATOM     12  H   UNL A   1      32.958  26.207  26.637  1.00  0.00     0.164 HD
ENDBRANCH   7   8
BRANCH   7  13
ATOM     13  C   UNL A   1      32.086  27.792  24.261  1.00  0.00     0.081 C 
BRANCH  13  14
ATOM     14  C   UNL A   1      32.536  26.451  23.669  1.00  0.00    -0.038 A 
ATOM     15  C   UNL A   1      31.620  25.677  22.938  1.00  0.00     0.004 A 
ATOM     16  C   UNL A   1      33.828  25.940  23.864  1.00  0.00     0.004 A 
ATOM     17  C   UNL A   1      31.994  24.442  22.403  1.00  0.00     0.000 A 
ATOM     18  C   UNL A   1      34.202  24.707  23.328  1.00  0.00     0.000 A 
ATOM     19  C   UNL A   1      33.286  23.959  22.595  1.00  0.00     0.000 A 
ENDBRANCH  13  14
BRANCH  13  20
ATOM     20  C   UNL A   1      30.908  28.371  23.468  1.00  0.00    -0.038 A 
ATOM     21  C   UNL A   1      31.080  29.317  22.444  1.00  0.00     0.004 A 
ATOM     22  C   UNL A   1      29.597  27.966  23.780  1.00  0.00     0.004 A 
ATOM     23  C   UNL A   1      29.979  29.867  21.784  1.00  0.00     0.000 A 
ATOM     24  C   UNL A   1      28.499  28.506  23.108  1.00  0.00     0.000 A 
ATOM     25  C   UNL A   1      28.689  29.465  22.117  1.00  0.00     0.000 A 
ENDBRANCH  13  20
ENDBRANCH   7  13
ENDBRANCH   4   7
ENDBRANCH   2   3
ENDBRANCH   1   2
BRANCH   1  26
ATOM     26  C   UNL A   1      32.679  32.728  27.331  1.00  0.00     0.118 C 
BRANCH  26  27
ATOM     27  N   UNL A   1      32.434  34.139  27.613  1.00  0.00    -0.352 N 
ATOM     28  C   UNL A   1      32.990  34.958  28.561  1.00  0.00     0.251 C 
ATOM     29  H   UNL A   1      31.766  34.569  27.033  1.00  0.00     0.163 HD
ATOM     30  O   UNL A   1      32.491  36.057  28.791  1.00  0.00    -0.269 OA
BRANCH  28  31
ATOM     31  C   UNL A   1      34.178  34.516  29.317  1.00  0.00     0.039 A 
ATOM     32  C   UNL A   1      34.008  33.972  30.593  1.00  0.00     0.014 A 
ATOM     33  C   UNL A   1      35.457  34.638  28.769  1.00  0.00     0.014 A 
ATOM     34  C   UNL A   1      35.112  33.469  31.282  1.00  0.00     0.010 A 
ATOM     35  C   UNL A   1      36.544  34.069  29.421  1.00  0.00     0.010 A 
ATOM     36  C   UNL A   1      36.380  33.467  30.678  1.00  0.00    -0.014 A 
BRANCH  36  37
ATOM     37  C   UNL A   1      37.545  32.808  31.320  1.00  0.00     0.031 A 
ATOM     38  C   UNL A   1      38.209  31.633  30.662  1.00  0.00     0.074 A 
ATOM     39  C   UNL A   1      37.940  33.215  32.542  1.00  0.00     0.049 A 
ATOM     40  N   UNL A   1      39.157  30.855  31.118  1.00  0.00    -0.248 NA
ATOM     41  C   UNL A   1      37.723  31.267  29.322  1.00  0.00     0.031 C 
ATOM     42  C   UNL A   1      37.344  34.317  33.299  1.00  0.00     0.029 A 
ATOM     43  N   UNL A   1      38.921  32.734  33.374  1.00  0.00    -0.354 N 
ATOM     44  C   UNL A   1      39.372  29.904  30.131  1.00  0.00     0.074 A 
ATOM     45  C   UNL A   1      38.421  30.168  29.072  1.00  0.00     0.031 C 
ATOM     46  C   UNL A   1      37.981  34.438  34.474  1.00  0.00     0.029 A 
ATOM     47  C   UNL A   1      38.992  33.393  34.577  1.00  0.00     0.049 A 
ATOM     48  H   UNL A   1      39.517  31.990  33.130  1.00  0.00     0.167 HD
ATOM     49  C   UNL A   1      40.293  28.911  30.105  1.00  0.00     0.037 A 
ATOM     50  C   UNL A   1      39.769  33.162  35.653  1.00  0.00     0.037 A 
ATOM     51  C   UNL A   1      41.243  28.663  31.158  1.00  0.00     0.049 A 
ATOM     52  C   UNL A   1      40.754  32.026  35.614  1.00  0.00     0.074 A 
ATOM     53  C   UNL A   1      42.259  27.725  31.198  1.00  0.00     0.029 A 
ATOM     54  N   UNL A   1      41.286  29.351  32.362  1.00  0.00    -0.354 N 
ATOM     55  N   UNL A   1      41.003  31.179  34.644  1.00  0.00    -0.248 NA
ATOM     56  C   UNL A   1      41.566  31.809  36.820  1.00  0.00     0.031 C 
ATOM     57  C   UNL A   1      42.877  27.804  32.450  1.00  0.00     0.029 A 
ATOM     58  C   UNL A   1      42.287  28.832  33.167  1.00  0.00     0.049 A 
ATOM     59  H   UNL A   1      40.693  30.099  32.608  1.00  0.00     0.167 HD
ATOM     60  C   UNL A   1      42.012  30.348  35.112  1.00  0.00     0.074 A 
ATOM     61  C   UNL A   1      42.343  30.803  36.446  1.00  0.00     0.031 C 
ATOM     62  C   UNL A   1      42.607  29.299  34.492  1.00  0.00     0.037 A 
BRANCH  49  63
ATOM     63  C   UNL A   1      40.316  28.013  28.902  1.00  0.00     0.064 A 
ATOM     64  C   UNL A   1      41.059  28.335  27.755  1.00  0.00     0.173 A 
ATOM     65  C   UNL A   1      39.625  26.792  28.912  1.00  0.00     0.173 A 
ATOM     66  F   UNL A   1      41.732  29.494  27.690  1.00  0.00    -0.203 F 
ATOM     67  C   UNL A   1      41.083  27.483  26.653  1.00  0.00     0.198 A 
ATOM     68  C   UNL A   1      39.678  25.928  27.821  1.00  0.00     0.198 A 
ATOM     69  F   UNL A   1      38.904  26.430  29.984  1.00  0.00    -0.203 F 
ATOM     70  F   UNL A   1      41.759  27.837  25.551  1.00  0.00    -0.200 F 
ATOM     71  C   UNL A   1      40.400  26.278  26.690  1.00  0.00     0.200 A 
ATOM     72  F   UNL A   1      39.029  24.756  27.863  1.00  0.00    -0.200 F 
ATOM     73  F   UNL A   1      40.431  25.455  25.633  1.00  0.00    -0.200 F 
ENDBRANCH  49  63
BRANCH  50  74
ATOM     74  C   UNL A   1      39.645  34.024  36.858  1.00  0.00     0.064 A 
ATOM     75  C   UNL A   1      38.845  33.634  37.941  1.00  0.00     0.173 A 
ATOM     76  C   UNL A   1      40.314  35.254  36.952  1.00  0.00     0.173 A 
ATOM     77  F   UNL A   1      38.168  32.477  37.891  1.00  0.00    -0.203 F 
ATOM     78  C   UNL A   1      38.702  34.450  39.062  1.00  0.00     0.198 A 
ATOM     79  C   UNL A   1      40.194  36.053  38.087  1.00  0.00     0.198 A 
ATOM     80  F   UNL A   1      41.094  35.672  35.945  1.00  0.00    -0.203 F 
ATOM     81  F   UNL A   1      37.891  34.075  40.061  1.00  0.00    -0.200 F 
ATOM     82  C   UNL A   1      39.382  35.656  39.136  1.00  0.00     0.200 A 
ATOM     83  F   UNL A   1      40.865  37.211  38.160  1.00  0.00    -0.200 F 
ATOM     84  F   UNL A   1      39.246  36.438  40.216  1.00  0.00    -0.200 F 
ENDBRANCH  50  74
BRANCH  62  85
ATOM     85  C   UNL A   1      43.695  28.582  35.239  1.00  0.00     0.064 A 
ATOM     86  C   UNL A   1      43.413  27.506  36.094  1.00  0.00     0.173 A 
ATOM     87  C   UNL A   1      45.039  28.935  35.048  1.00  0.00     0.173 A 
ATOM     88  F   UNL A   1      42.144  27.141  36.323  1.00  0.00    -0.203 F 
ATOM     89  C   UNL A   1      44.437  26.821  36.743  1.00  0.00     0.198 A 
ATOM     90  C   UNL A   1      46.062  28.226  35.672  1.00  0.00     0.198 A 
ATOM     91  F   UNL A   1      45.363  29.952  34.235  1.00  0.00    -0.203 F 
ATOM     92  F   UNL A   1      44.143  25.822  37.587  1.00  0.00    -0.200 F 
ATOM     93  C   UNL A   1      45.761  27.175  36.522  1.00  0.00     0.200 A 
ATOM     94  F   UNL A   1      47.340  28.559  35.445  1.00  0.00    -0.200 F 
ATOM     95  F   UNL A   1      46.745  26.502  37.134  1.00  0.00    -0.200 F 
ENDBRANCH  62  85
ENDBRANCH  36  37
ENDBRANCH  28  31
ENDBRANCH  26  27
ENDBRANCH   1  26
TORSDOF 14
ENDMDL
MODEL 3
REMARK VINA RESULT:     -12.7      2.482      7.619
REMARK SMILES CC(=O)N[C@@H](C(=O)NCCCNC(=O)c1ccc(-c2c3nc(c(-c4c(F)c(F)c(F)c(F)c4F)c4ccc([nH]4)c(-c4c(F)c(F)c(F)c(F)c4F)c4nc(c(-c5c(F)c(F)c(F)c(F)c5F)c5ccc2[nH]5)C=C4)C=C3)cc1)C(c1ccccc1)c1ccccc1
REMARK SMILES IDX 10 1 9 2 8 3 6 4 7 5 5 7 4 8 1 9 2 10 3 11 78 13 79 14 80 15
REMARK SMILES IDX 84 16 81 17 83 18 82 19 85 20 86 21 90 22 87 23 89 24 88 25
REMARK SMILES IDX 11 26 12 27 13 28 14 30 15 31 16 32 77 33 17 34 76 35 18 36
REMARK SMILES IDX 19 37 20 38 70 39 21 40 75 41 69 42 71 43 22 44 74 45 68 46
REMARK SMILES IDX 67 47 23 49 55 50 35 51 54 52 36 53 39 54 53 55 72 56 37 57
REMARK SMILES IDX 38 58 52 60 73 61 40 62 24 63 25 64 33 65 26 66 27 67 31 68
REMARK SMILES IDX 34 69 28 70 29 71 32 72 30 73 56 74 57 75 65 76 58 77 59 78
REMARK SMILES IDX 63 79 66 80 60 81 61 82 64 83 62 84 41 85 42 86 50 87 43 88
REMARK SMILES IDX 44 89 48 90 51 91 45 92 46 93 49 94 47 95
REMARK H PARENT 8 6 4 12 12 29 71 48 39 59
REMARK Flexibility Score: inf
ROOT
ATOM      1  C   UNL A   1      31.721  28.148  27.348  1.00  0.00     0.042 C 
ENDROOT
BRANCH   1   2
ATOM      2  C   UNL A   1      31.508  26.938  26.442  1.00  0.00     0.117 C 
BRANCH   2   3
ATOM      3  N   UNL A   1      31.622  25.699  27.183  1.00  0.00    -0.354 N 
ATOM      4  C   UNL A   1      31.894  24.442  26.720  1.00  0.00     0.243 C 
ATOM      5  O   UNL A   1      31.606  23.500  27.462  1.00  0.00    -0.273 OA
ATOM      6  H   UNL A   1      31.485  25.772  28.156  1.00  0.00     0.163 HD
BRANCH   4   7
ATOM      7  C   UNL A   1      32.428  24.248  25.278  1.00  0.00     0.183 C 
BRANCH   7   8
ATOM      8  N   UNL A   1      32.597  22.789  25.123  1.00  0.00    -0.344 N 
ATOM      9  C   UNL A   1      31.775  22.506  22.788  1.00  0.00     0.114 C 
ATOM     10  C   UNL A   1      32.289  21.958  24.093  1.00  0.00     0.217 C 
ATOM     11  O   UNL A   1      32.444  20.746  24.248  1.00  0.00    -0.275 OA
ATOM     12  H   UNL A   1      33.003  22.341  25.899  1.00  0.00     0.164 HD
ENDBRANCH   7   8
BRANCH   7  13
ATOM     13  C   UNL A   1      33.779  25.016  25.107  1.00  0.00     0.081 C 
BRANCH  13  14
ATOM     14  C   UNL A   1      34.995  24.105  24.900  1.00  0.00    -0.038 A 
ATOM     15  C   UNL A   1      35.346  23.705  23.600  1.00  0.00     0.004 A 
ATOM     16  C   UNL A   1      35.757  23.615  25.971  1.00  0.00     0.004 A 
ATOM     17  C   UNL A   1      36.436  22.860  23.381  1.00  0.00     0.000 A 
ATOM     18  C   UNL A   1      36.848  22.772  25.753  1.00  0.00     0.000 A 
ATOM     19  C   UNL A   1      37.188  22.397  24.457  1.00  0.00     0.000 A 
ENDBRANCH  13  14
BRANCH  13  20
ATOM     20  C   UNL A   1      33.725  26.107  24.029  1.00  0.00    -0.038 A 
ATOM     21  C   UNL A   1      33.298  25.849  22.717  1.00  0.00     0.004 A 
ATOM     22  C   UNL A   1      34.137  27.414  24.345  1.00  0.00     0.004 A 
ATOM     23  C   UNL A   1      33.319  26.853  21.745  1.00  0.00     0.000 A 
ATOM     24  C   UNL A   1      34.143  28.420  23.376  1.00  0.00     0.000 A 
ATOM     25  C   UNL A   1      33.744  28.137  22.074  1.00  0.00     0.000 A 
ENDBRANCH  13  20
ENDBRANCH   7  13
ENDBRANCH   4   7
ENDBRANCH   2   3
ENDBRANCH   1   2
BRANCH   1  26
ATOM     26  C   UNL A   1      33.179  28.591  27.423  1.00  0.00     0.118 C 
BRANCH  26  27
ATOM     27  N   UNL A   1      33.313  30.044  27.455  1.00  0.00    -0.352 N 
ATOM     28  C   UNL A   1      34.333  30.824  27.935  1.00  0.00     0.251 C 
ATOM     29  H   UNL A   1      32.555  30.540  27.072  1.00  0.00     0.163 HD
ATOM     30  O   UNL A   1      34.164  32.033  28.080  1.00  0.00    -0.269 OA
BRANCH  28  31
ATOM     31  C   UNL A   1      35.627  30.214  28.294  1.00  0.00     0.039 A 
ATOM     32  C   UNL A   1      36.638  30.149  27.332  1.00  0.00     0.014 A 
ATOM     33  C   UNL A   1      35.843  29.705  29.577  1.00  0.00     0.014 A 
ATOM     34  C   UNL A   1      37.895  29.655  27.683  1.00  0.00     0.010 A 
ATOM     35  C   UNL A   1      37.115  29.285  29.947  1.00  0.00     0.010 A 
ATOM     36  C   UNL A   1      38.157  29.268  29.008  1.00  0.00    -0.014 A 
BRANCH  36  37
ATOM     37  C   UNL A   1      39.520  28.880  29.447  1.00  0.00     0.031 A 
ATOM     38  C   UNL A   1      40.330  29.804  30.310  1.00  0.00     0.074 A 
ATOM     39  C   UNL A   1      40.057  27.733  28.989  1.00  0.00     0.049 A 
ATOM     40  N   UNL A   1      41.576  29.696  30.697  1.00  0.00    -0.248 NA
ATOM     41  C   UNL A   1      39.659  31.028  30.777  1.00  0.00     0.031 C 
ATOM     42  C   UNL A   1      39.382  26.775  28.112  1.00  0.00     0.029 A 
ATOM     43  N   UNL A   1      41.303  27.188  29.177  1.00  0.00    -0.354 N 
ATOM     44  C   UNL A   1      41.840  30.838  31.439  1.00  0.00     0.074 A 
ATOM     45  C   UNL A   1      40.644  31.652  31.407  1.00  0.00     0.031 C 
ATOM     46  C   UNL A   1      40.214  25.755  27.852  1.00  0.00     0.029 A 
ATOM     47  C   UNL A   1      41.496  26.010  28.498  1.00  0.00     0.049 A 
ATOM     48  H   UNL A   1      41.992  27.601  29.746  1.00  0.00     0.167 HD
ATOM     49  C   UNL A   1      42.974  31.166  32.102  1.00  0.00     0.037 A 
ATOM     50  C   UNL A   1      42.593  25.235  28.388  1.00  0.00     0.037 A 
ATOM     51  C   UNL A   1      44.156  30.344  32.140  1.00  0.00     0.049 A 
ATOM     52  C   UNL A   1      43.852  25.646  29.101  1.00  0.00     0.074 A 
ATOM     53  C   UNL A   1      45.333  30.557  32.836  1.00  0.00     0.029 A 
ATOM     54  N   UNL A   1      44.314  29.157  31.439  1.00  0.00    -0.354 N 
ATOM     55  N   UNL A   1      44.069  26.689  29.864  1.00  0.00    -0.248 NA
ATOM     56  C   UNL A   1      45.023  24.773  28.934  1.00  0.00     0.031 C 
ATOM     57  C   UNL A   1      46.224  29.531  32.510  1.00  0.00     0.029 A 
ATOM     58  C   UNL A   1      45.584  28.646  31.658  1.00  0.00     0.049 A 
ATOM     59  H   UNL A   1      43.626  28.739  30.872  1.00  0.00     0.167 HD
ATOM     60  C   UNL A   1      45.387  26.587  30.287  1.00  0.00     0.074 A 
ATOM     61  C   UNL A   1      45.917  25.369  29.711  1.00  0.00     0.031 C 
ATOM     62  C   UNL A   1      46.096  27.430  31.079  1.00  0.00     0.037 A 
BRANCH  49  63
ATOM     63  C   UNL A   1      42.997  32.474  32.841  1.00  0.00     0.064 A 
ATOM     64  C   UNL A   1      43.399  33.667  32.217  1.00  0.00     0.173 A 
ATOM     65  C   UNL A   1      42.569  32.546  34.175  1.00  0.00     0.173 A 
ATOM     66  F   UNL A   1      43.825  33.653  30.946  1.00  0.00    -0.203 F 
ATOM     67  C   UNL A   1      43.399  34.873  32.912  1.00  0.00     0.198 A 
ATOM     68  C   UNL A   1      42.539  33.760  34.856  1.00  0.00     0.198 A 
ATOM     69  F   UNL A   1      42.168  31.439  34.818  1.00  0.00    -0.203 F 
ATOM     70  F   UNL A   1      43.834  35.989  32.310  1.00  0.00    -0.200 F 
ATOM     71  C   UNL A   1      42.962  34.921  34.227  1.00  0.00     0.200 A 
ATOM     72  F   UNL A   1      42.102  33.807  36.122  1.00  0.00    -0.200 F 
ATOM     73  F   UNL A   1      42.954  36.085  34.890  1.00  0.00    -0.200 F 
ENDBRANCH  49  63
BRANCH  50  74
ATOM     74  C   UNL A   1      42.548  23.995  27.570  1.00  0.00     0.064 A 
ATOM     75  C   UNL A   1      42.127  22.780  28.129  1.00  0.00     0.173 A 
ATOM     76  C   UNL A   1      42.929  23.993  26.220  1.00  0.00     0.173 A 
ATOM     77  F   UNL A   1      41.773  22.725  29.421  1.00  0.00    -0.203 F 
ATOM     78  C   UNL A   1      42.109  21.608  27.375  1.00  0.00     0.198 A 
ATOM     79  C   UNL A   1      42.879  22.826  25.459  1.00  0.00     0.198 A 
ATOM     80  F   UNL A   1      43.337  25.129  25.636  1.00  0.00    -0.203 F 
ATOM     81  F   UNL A   1      41.749  20.451  27.949  1.00  0.00    -0.200 F 
ATOM     82  C   UNL A   1      42.479  21.634  26.039  1.00  0.00     0.200 A 
ATOM     83  F   UNL A   1      43.225  22.859  24.165  1.00  0.00    -0.200 F 
ATOM     84  F   UNL A   1      42.458  20.506  25.315  1.00  0.00    -0.200 F 
ENDBRANCH  50  74
BRANCH  62  85
ATOM     85  C   UNL A   1      47.516  27.055  31.390  1.00  0.00     0.064 A 
ATOM     86  C   UNL A   1      47.830  26.144  32.409  1.00  0.00     0.173 A 
ATOM     87  C   UNL A   1      48.571  27.566  30.617  1.00  0.00     0.173 A 
ATOM     88  F   UNL A   1      46.859  25.641  33.186  1.00  0.00    -0.203 F 
ATOM     89  C   UNL A   1      49.149  25.771  32.654  1.00  0.00     0.198 A 
ATOM     90  C   UNL A   1      49.884  27.164  30.843  1.00  0.00     0.198 A 
ATOM     91  F   UNL A   1      48.324  28.435  29.626  1.00  0.00    -0.203 F 
ATOM     92  F   UNL A   1      49.429  24.930  33.660  1.00  0.00    -0.200 F 
ATOM     93  C   UNL A   1      50.172  26.273  31.864  1.00  0.00     0.200 A 
ATOM     94  F   UNL A   1      50.870  27.638  30.069  1.00  0.00    -0.200 F 
ATOM     95  F   UNL A   1      51.439  25.898  32.091  1.00  0.00    -0.200 F 
ENDBRANCH  62  85
ENDBRANCH  36  37
ENDBRANCH  28  31
ENDBRANCH  26  27
ENDBRANCH   1  26
TORSDOF 14
ENDMDL
