MODEL 1
REMARK VINA RESULT:     -12.7      0.000      0.000
REMARK SMILES O=C(CCC(=O)N1Cc2[nH]cnc2C[C@H]1C(=O)NCc1ccccc1)NCCCNC(=O)c1ccc(-c2c3nc(c(-c4c(F)c(F)c(F)c(F)c4F)c4ccc([nH]4)c(-c4c(F)c(F)c(F)c(F)c4F)c4nc(c(-c5c(F)c(F)c(F)c(F)c5F)c5ccc2[nH]5)C=C4)C=C3)cc1
REMARK SMILES IDX 1 1 2 2 26 3 3 5 4 6 5 7 6 8 7 9 8 10 15 11 9 12 14 13 10 14
REMARK SMILES IDX 13 15 11 16 12 18 16 19 17 20 18 21 19 23 20 24 21 25 25 26
REMARK SMILES IDX 22 27 24 28 23 29 27 30 28 31 29 32 30 33 31 34 32 36 33 37
REMARK SMILES IDX 34 38 95 39 35 40 94 41 36 42 37 43 38 44 88 45 39 46 93 47
REMARK SMILES IDX 87 48 89 49 40 50 92 51 86 52 85 53 41 55 73 56 53 57 72 58
REMARK SMILES IDX 54 59 57 60 71 61 90 62 55 63 56 64 70 66 91 67 58 68 42 69
REMARK SMILES IDX 43 70 51 71 44 72 45 73 49 74 52 75 46 76 47 77 50 78 48 79
REMARK SMILES IDX 74 80 75 81 83 82 76 83 77 84 81 85 84 86 78 87 79 88 82 89
REMARK SMILES IDX 80 90 59 91 60 92 68 93 61 94 62 95 66 96 69 97 63 98 64 99
REMARK SMILES IDX 67 100 65 101
REMARK H PARENT 26 4 10 17 18 22 30 35 89 54 57 65
REMARK Flexibility Score: inf
ROOT
ATOM      1  O   UNL A   1      38.715  23.878  26.972  1.00  0.00    -0.275 OA
ATOM      2  C   UNL A   1      38.216  23.138  26.129  1.00  0.00     0.220 C 
ATOM      3  N   UNL A   1      38.604  21.805  25.988  1.00  0.00    -0.356 N 
ATOM      4  H   UNL A   1      38.019  21.165  25.524  1.00  0.00     0.163 HD
ENDROOT
BRANCH   2   5
ATOM      5  C   UNL A   1      37.243  23.669  25.060  1.00  0.00     0.110 C 
BRANCH   5   6
ATOM      6  C   UNL A   1      36.647  22.528  24.198  1.00  0.00     0.110 C 
BRANCH   6   7
ATOM      7  C   UNL A   1      35.176  22.660  23.746  1.00  0.00     0.224 C 
ATOM      8  O   UNL A   1      34.908  23.320  22.738  1.00  0.00    -0.275 OA
BRANCH   7   9
ATOM      9  N   UNL A   1      34.187  21.994  24.455  1.00  0.00    -0.324 N 
ATOM     10  C   UNL A   1      34.525  20.892  25.385  1.00  0.00     0.176 C 
ATOM     11  C   UNL A   1      32.756  22.149  24.139  1.00  0.00     0.180 C 
ATOM     12  C   UNL A   1      33.676  19.728  25.019  1.00  0.00     0.058 A 
ATOM     13  C   UNL A   1      32.271  20.932  23.352  1.00  0.00     0.093 C 
ATOM     14  N   UNL A   1      33.603  18.493  25.603  1.00  0.00    -0.347 N 
ATOM     15  C   UNL A   1      32.673  19.725  24.085  1.00  0.00     0.066 A 
ATOM     16  C   UNL A   1      32.618  17.800  24.947  1.00  0.00     0.197 A 
ATOM     17  H   UNL A   1      34.152  18.166  26.351  1.00  0.00     0.167 HD
ATOM     18  N   UNL A   1      32.039  18.534  24.026  1.00  0.00    -0.242 NA
BRANCH  11  19
ATOM     19  C   UNL A   1      31.903  22.880  25.189  1.00  0.00     0.243 C 
ATOM     20  O   UNL A   1      30.944  22.292  25.708  1.00  0.00    -0.273 OA
ATOM     21  N   UNL A   1      32.183  24.109  25.690  1.00  0.00    -0.350 N 
ATOM     22  H   UNL A   1      32.006  24.224  26.651  1.00  0.00     0.163 HD
BRANCH  21  23
ATOM     23  C   UNL A   1      32.706  25.278  25.012  1.00  0.00     0.151 C 
BRANCH  23  24
ATOM     24  C   UNL A   1      32.700  26.510  25.886  1.00  0.00    -0.029 A 
ATOM     25  C   UNL A   1      31.588  26.911  26.645  1.00  0.00     0.005 A 
ATOM     26  C   UNL A   1      33.856  27.300  25.931  1.00  0.00     0.005 A 
ATOM     27  C   UNL A   1      31.617  28.081  27.400  1.00  0.00     0.000 A 
ATOM     28  C   UNL A   1      33.892  28.462  26.702  1.00  0.00     0.000 A 
ATOM     29  C   UNL A   1      32.770  28.856  27.429  1.00  0.00     0.000 A 
ENDBRANCH  23  24
ENDBRANCH  21  23
ENDBRANCH  11  19
ENDBRANCH   7   9
ENDBRANCH   6   7
ENDBRANCH   5   6
ENDBRANCH   2   5
BRANCH   3  30
ATOM     30  C   UNL A   1      39.894  21.365  26.537  1.00  0.00     0.117 C 
BRANCH  30  31
ATOM     31  C   UNL A   1      40.455  20.019  26.056  1.00  0.00     0.042 C 
BRANCH  31  32
ATOM     32  C   UNL A   1      41.877  19.684  26.480  1.00  0.00     0.118 C 
BRANCH  32  33
ATOM     33  N   UNL A   1      42.985  19.947  25.563  1.00  0.00    -0.352 N 
ATOM     34  C   UNL A   1      43.573  21.162  25.192  1.00  0.00     0.251 C 
ATOM     35  H   UNL A   1      43.378  19.147  25.143  1.00  0.00     0.163 HD
ATOM     36  O   UNL A   1      44.405  21.147  24.281  1.00  0.00    -0.269 OA
BRANCH  34  37
ATOM     37  C   UNL A   1      43.305  22.446  25.919  1.00  0.00     0.039 A 
ATOM     38  C   UNL A   1      42.620  23.513  25.307  1.00  0.00     0.014 A 
ATOM     39  C   UNL A   1      43.869  22.677  27.159  1.00  0.00     0.014 A 
ATOM     40  C   UNL A   1      42.632  24.790  25.895  1.00  0.00     0.010 A 
ATOM     41  C   UNL A   1      44.131  23.951  27.584  1.00  0.00     0.010 A 
ATOM     42  C   UNL A   1      43.441  25.008  27.011  1.00  0.00    -0.014 A 
BRANCH  42  43
ATOM     43  C   UNL A   1      43.369  26.187  27.875  1.00  0.00     0.031 A 
ATOM     44  C   UNL A   1      44.368  27.251  27.511  1.00  0.00     0.074 A 
ATOM     45  C   UNL A   1      42.242  26.517  28.540  1.00  0.00     0.049 A 
ATOM     46  N   UNL A   1      45.271  27.811  28.252  1.00  0.00    -0.248 NA
ATOM     47  C   UNL A   1      44.442  27.678  26.094  1.00  0.00     0.031 C 
ATOM     48  C   UNL A   1      40.982  25.764  28.571  1.00  0.00     0.029 A 
ATOM     49  N   UNL A   1      41.930  27.677  29.192  1.00  0.00    -0.354 N 
ATOM     50  C   UNL A   1      45.909  28.737  27.423  1.00  0.00     0.074 A 
ATOM     51  C   UNL A   1      45.530  28.439  26.078  1.00  0.00     0.031 C 
ATOM     52  C   UNL A   1      39.999  26.561  29.051  1.00  0.00     0.029 A 
ATOM     53  C   UNL A   1      40.575  27.838  29.450  1.00  0.00     0.049 A 
ATOM     54  H   UNL A   1      42.608  28.339  29.457  1.00  0.00     0.167 HD
ATOM     55  C   UNL A   1      46.467  29.881  27.896  1.00  0.00     0.037 A 
ATOM     56  C   UNL A   1      39.960  28.958  29.904  1.00  0.00     0.037 A 
ATOM     57  C   UNL A   1      46.587  29.855  29.322  1.00  0.00     0.049 A 
ATOM     58  C   UNL A   1      40.996  29.869  30.447  1.00  0.00     0.074 A 
ATOM     59  C   UNL A   1      47.331  29.146  30.237  1.00  0.00     0.029 A 
ATOM     60  N   UNL A   1      45.550  30.434  30.001  1.00  0.00    -0.354 N 
ATOM     61  N   UNL A   1      41.680  29.643  31.531  1.00  0.00    -0.248 NA
ATOM     62  C   UNL A   1      41.501  30.952  29.610  1.00  0.00     0.031 C 
ATOM     63  C   UNL A   1      46.537  29.089  31.419  1.00  0.00     0.029 A 
ATOM     64  C   UNL A   1      45.344  29.771  31.180  1.00  0.00     0.049 A 
ATOM     65  H   UNL A   1      45.030  31.210  29.688  1.00  0.00     0.167 HD
ATOM     66  C   UNL A   1      42.904  30.243  31.301  1.00  0.00     0.074 A 
ATOM     67  C   UNL A   1      42.671  31.178  30.212  1.00  0.00     0.031 C 
ATOM     68  C   UNL A   1      44.045  29.695  31.806  1.00  0.00     0.037 A 
BRANCH  55  69
ATOM     69  C   UNL A   1      46.517  31.183  27.129  1.00  0.00     0.064 A 
ATOM     70  C   UNL A   1      47.749  31.852  27.001  1.00  0.00     0.173 A 
ATOM     71  C   UNL A   1      45.376  31.935  26.766  1.00  0.00     0.173 A 
ATOM     72  F   UNL A   1      48.891  31.246  27.358  1.00  0.00    -0.203 F 
ATOM     73  C   UNL A   1      47.826  33.183  26.582  1.00  0.00     0.198 A 
ATOM     74  C   UNL A   1      45.462  33.240  26.284  1.00  0.00     0.198 A 
ATOM     75  F   UNL A   1      44.131  31.487  26.972  1.00  0.00    -0.203 F 
ATOM     76  F   UNL A   1      49.007  33.815  26.589  1.00  0.00    -0.200 F 
ATOM     77  C   UNL A   1      46.683  33.875  26.219  1.00  0.00     0.200 A 
ATOM     78  F   UNL A   1      44.340  33.899  25.961  1.00  0.00    -0.200 F 
ATOM     79  F   UNL A   1      46.750  35.163  25.862  1.00  0.00    -0.200 F 
ENDBRANCH  55  69
BRANCH  56  80
ATOM     80  C   UNL A   1      38.552  29.392  29.762  1.00  0.00     0.064 A 
ATOM     81  C   UNL A   1      37.761  29.676  30.889  1.00  0.00     0.173 A 
ATOM     82  C   UNL A   1      38.029  29.777  28.515  1.00  0.00     0.173 A 
ATOM     83  F   UNL A   1      38.206  29.382  32.118  1.00  0.00    -0.203 F 
ATOM     84  C   UNL A   1      36.528  30.326  30.774  1.00  0.00     0.198 A 
ATOM     85  C   UNL A   1      36.792  30.417  28.400  1.00  0.00     0.198 A 
ATOM     86  F   UNL A   1      38.750  29.629  27.394  1.00  0.00    -0.203 F 
ATOM     87  F   UNL A   1      35.832  30.637  31.877  1.00  0.00    -0.200 F 
ATOM     88  C   UNL A   1      36.048  30.703  29.530  1.00  0.00     0.200 A 
ATOM     89  F   UNL A   1      36.359  30.812  27.195  1.00  0.00    -0.200 F 
ATOM     90  F   UNL A   1      34.896  31.378  29.424  1.00  0.00    -0.200 F 
ENDBRANCH  56  80
BRANCH  68  91
ATOM     91  C   UNL A   1      43.886  28.764  32.970  1.00  0.00     0.064 A 
ATOM     92  C   UNL A   1      43.724  27.375  32.853  1.00  0.00     0.173 A 
ATOM     93  C   UNL A   1      43.977  29.302  34.260  1.00  0.00     0.173 A 
ATOM     94  F   UNL A   1      43.726  26.779  31.654  1.00  0.00    -0.203 F 
ATOM     95  C   UNL A   1      43.596  26.569  33.981  1.00  0.00     0.198 A 
ATOM     96  C   UNL A   1      43.893  28.490  35.385  1.00  0.00     0.198 A 
ATOM     97  F   UNL A   1      44.187  30.618  34.427  1.00  0.00    -0.203 F 
ATOM     98  F   UNL A   1      43.409  25.248  33.846  1.00  0.00    -0.200 F 
ATOM     99  C   UNL A   1      43.686  27.127  35.246  1.00  0.00     0.200 A 
ATOM    100  F   UNL A   1      44.030  29.027  36.605  1.00  0.00    -0.200 F 
ATOM    101  F   UNL A   1      43.596  26.348  36.332  1.00  0.00    -0.200 F 
ENDBRANCH  68  91
ENDBRANCH  42  43
ENDBRANCH  34  37
ENDBRANCH  32  33
ENDBRANCH  31  32
ENDBRANCH  30  31
ENDBRANCH   3  30
TORSDOF 16
ENDMDL
MODEL 2
REMARK VINA RESULT:     -12.6      2.717      8.646
REMARK SMILES O=C(CCC(=O)N1Cc2[nH]cnc2C[C@H]1C(=O)NCc1ccccc1)NCCCNC(=O)c1ccc(-c2c3nc(c(-c4c(F)c(F)c(F)c(F)c4F)c4ccc([nH]4)c(-c4c(F)c(F)c(F)c(F)c4F)c4nc(c(-c5c(F)c(F)c(F)c(F)c5F)c5ccc2[nH]5)C=C4)C=C3)cc1
REMARK SMILES IDX 1 1 2 2 26 3 3 5 4 6 5 7 6 8 7 9 8 10 15 11 9 12 14 13 10 14
REMARK SMILES IDX 13 15 11 16 12 18 16 19 17 20 18 21 19 23 20 24 21 25 25 26
REMARK SMILES IDX 22 27 24 28 23 29 27 30 28 31 29 32 30 33 31 34 32 36 33 37
REMARK SMILES IDX 34 38 95 39 35 40 94 41 36 42 37 43 38 44 88 45 39 46 93 47
REMARK SMILES IDX 87 48 89 49 40 50 92 51 86 52 85 53 41 55 73 56 53 57 72 58
REMARK SMILES IDX 54 59 57 60 71 61 90 62 55 63 56 64 70 66 91 67 58 68 42 69
REMARK SMILES IDX 43 70 51 71 44 72 45 73 49 74 52 75 46 76 47 77 50 78 48 79
REMARK SMILES IDX 74 80 75 81 83 82 76 83 77 84 81 85 84 86 78 87 79 88 82 89
REMARK SMILES IDX 80 90 59 91 60 92 68 93 61 94 62 95 66 96 69 97 63 98 64 99
REMARK SMILES IDX 67 100 65 101
REMARK H PARENT 26 4 10 17 18 22 30 35 89 54 57 65
REMARK Flexibility Score: inf
ROOT
ATOM      1  O   UNL A   1      34.049  27.204  26.114  1.00  0.00    -0.275 OA
ATOM      2  C   UNL A   1      33.054  27.185  25.396  1.00  0.00     0.220 C 
ATOM      3  N   UNL A   1      32.060  28.161  25.478  1.00  0.00    -0.356 N 
ATOM      4  H   UNL A   1      31.435  28.296  24.731  1.00  0.00     0.163 HD
ENDROOT
BRANCH   2   5
ATOM      5  C   UNL A   1      32.749  25.996  24.466  1.00  0.00     0.110 C 
BRANCH   5   6
ATOM      6  C   UNL A   1      33.987  25.572  23.638  1.00  0.00     0.110 C 
BRANCH   6   7
ATOM      7  C   UNL A   1      34.325  24.067  23.566  1.00  0.00     0.224 C 
ATOM      8  O   UNL A   1      34.131  23.451  22.515  1.00  0.00    -0.275 OA
BRANCH   7   9
ATOM      9  N   UNL A   1      34.886  23.445  24.672  1.00  0.00    -0.324 N 
ATOM     10  C   UNL A   1      35.725  24.202  25.630  1.00  0.00     0.176 C 
ATOM     11  C   UNL A   1      34.910  21.979  24.819  1.00  0.00     0.180 C 
ATOM     12  C   UNL A   1      37.000  23.454  25.789  1.00  0.00     0.058 A 
ATOM     13  C   UNL A   1      36.304  21.453  24.479  1.00  0.00     0.093 C 
ATOM     14  N   UNL A   1      38.075  23.736  26.586  1.00  0.00    -0.347 N 
ATOM     15  C   UNL A   1      37.284  22.225  25.252  1.00  0.00     0.066 A 
ATOM     16  C   UNL A   1      38.967  22.706  26.432  1.00  0.00     0.197 A 
ATOM     17  H   UNL A   1      38.186  24.528  27.160  1.00  0.00     0.167 HD
ATOM     18  N   UNL A   1      38.501  21.777  25.630  1.00  0.00    -0.242 NA
BRANCH  11  19
ATOM     19  C   UNL A   1      34.027  21.392  25.933  1.00  0.00     0.243 C 
ATOM     20  O   UNL A   1      34.427  21.423  27.105  1.00  0.00    -0.273 OA
ATOM     21  N   UNL A   1      32.764  20.930  25.753  1.00  0.00    -0.350 N 
ATOM     22  H   UNL A   1      32.131  21.138  26.477  1.00  0.00     0.163 HD
BRANCH  21  23
ATOM     23  C   UNL A   1      32.214  20.174  24.646  1.00  0.00     0.151 C 
BRANCH  23  24
ATOM     24  C   UNL A   1      32.705  18.746  24.616  1.00  0.00    -0.029 A 
ATOM     25  C   UNL A   1      32.635  17.883  25.722  1.00  0.00     0.005 A 
ATOM     26  C   UNL A   1      33.273  18.263  23.429  1.00  0.00     0.005 A 
ATOM     27  C   UNL A   1      33.144  16.588  25.657  1.00  0.00     0.000 A 
ATOM     28  C   UNL A   1      33.766  16.960  23.358  1.00  0.00     0.000 A 
ATOM     29  C   UNL A   1      33.709  16.126  24.474  1.00  0.00     0.000 A 
ENDBRANCH  23  24
ENDBRANCH  21  23
ENDBRANCH  11  19
ENDBRANCH   7   9
ENDBRANCH   6   7
ENDBRANCH   5   6
ENDBRANCH   2   5
BRANCH   3  30
ATOM     30  C   UNL A   1      31.954  28.987  26.689  1.00  0.00     0.117 C 
BRANCH  30  31
ATOM     31  C   UNL A   1      32.628  30.366  26.677  1.00  0.00     0.042 C 
BRANCH  31  32
ATOM     32  C   UNL A   1      33.937  30.490  27.443  1.00  0.00     0.118 C 
BRANCH  32  33
ATOM     33  N   UNL A   1      34.094  31.550  28.438  1.00  0.00    -0.352 N 
ATOM     34  C   UNL A   1      35.090  31.731  29.404  1.00  0.00     0.251 C 
ATOM     35  H   UNL A   1      33.392  32.240  28.427  1.00  0.00     0.163 HD
ATOM     36  O   UNL A   1      34.930  32.627  30.238  1.00  0.00    -0.269 OA
BRANCH  34  37
ATOM     37  C   UNL A   1      36.372  30.954  29.402  1.00  0.00     0.039 A 
ATOM     38  C   UNL A   1      36.395  29.564  29.627  1.00  0.00     0.014 A 
ATOM     39  C   UNL A   1      37.587  31.610  29.341  1.00  0.00     0.014 A 
ATOM     40  C   UNL A   1      37.610  28.913  29.902  1.00  0.00     0.010 A 
ATOM     41  C   UNL A   1      38.713  31.055  29.884  1.00  0.00     0.010 A 
ATOM     42  C   UNL A   1      38.760  29.684  30.081  1.00  0.00    -0.014 A 
BRANCH  42  43
ATOM     43  C   UNL A   1      40.123  29.152  30.118  1.00  0.00     0.031 A 
ATOM     44  C   UNL A   1      40.662  28.997  31.515  1.00  0.00     0.074 A 
ATOM     45  C   UNL A   1      40.625  28.404  29.113  1.00  0.00     0.049 A 
ATOM     46  N   UNL A   1      41.744  29.485  32.031  1.00  0.00    -0.248 NA
ATOM     47  C   UNL A   1      39.824  28.284  32.507  1.00  0.00     0.031 C 
ATOM     48  C   UNL A   1      39.962  28.065  27.847  1.00  0.00     0.029 A 
ATOM     49  N   UNL A   1      41.765  27.652  29.080  1.00  0.00    -0.354 N 
ATOM     50  C   UNL A   1      41.770  29.021  33.348  1.00  0.00     0.074 A 
ATOM     51  C   UNL A   1      40.470  28.506  33.645  1.00  0.00     0.031 C 
ATOM     52  C   UNL A   1      40.625  27.044  27.258  1.00  0.00     0.029 A 
ATOM     53  C   UNL A   1      41.805  26.724  28.048  1.00  0.00     0.049 A 
ATOM     54  H   UNL A   1      42.495  27.760  29.732  1.00  0.00     0.167 HD
ATOM     55  C   UNL A   1      42.926  28.802  34.026  1.00  0.00     0.037 A 
ATOM     56  C   UNL A   1      42.710  25.728  27.883  1.00  0.00     0.037 A 
ATOM     57  C   UNL A   1      44.047  29.384  33.351  1.00  0.00     0.049 A 
ATOM     58  C   UNL A   1      43.872  26.006  28.760  1.00  0.00     0.074 A 
ATOM     59  C   UNL A   1      44.480  30.662  33.079  1.00  0.00     0.029 A 
ATOM     60  N   UNL A   1      44.725  28.537  32.518  1.00  0.00    -0.354 N 
ATOM     61  N   UNL A   1      44.714  26.982  28.578  1.00  0.00    -0.248 NA
ATOM     62  C   UNL A   1      43.959  25.347  30.058  1.00  0.00     0.031 C 
ATOM     63  C   UNL A   1      45.218  30.568  31.864  1.00  0.00     0.029 A 
ATOM     64  C   UNL A   1      45.212  29.236  31.447  1.00  0.00     0.049 A 
ATOM     65  H   UNL A   1      44.843  27.571  32.665  1.00  0.00     0.167 HD
ATOM     66  C   UNL A   1      45.124  27.329  29.851  1.00  0.00     0.074 A 
ATOM     67  C   UNL A   1      44.786  26.187  30.685  1.00  0.00     0.031 C 
ATOM     68  C   UNL A   1      45.408  28.628  30.152  1.00  0.00     0.037 A 
BRANCH  55  69
ATOM     69  C   UNL A   1      43.111  27.717  35.062  1.00  0.00     0.064 A 
ATOM     70  C   UNL A   1      43.556  28.072  36.349  1.00  0.00     0.173 A 
ATOM     71  C   UNL A   1      43.148  26.334  34.766  1.00  0.00     0.173 A 
ATOM     72  F   UNL A   1      43.604  29.360  36.719  1.00  0.00    -0.203 F 
ATOM     73  C   UNL A   1      44.037  27.120  37.253  1.00  0.00     0.198 A 
ATOM     74  C   UNL A   1      43.564  25.381  35.693  1.00  0.00     0.198 A 
ATOM     75  F   UNL A   1      42.896  25.860  33.539  1.00  0.00    -0.203 F 
ATOM     76  F   UNL A   1      44.560  27.517  38.420  1.00  0.00    -0.200 F 
ATOM     77  C   UNL A   1      44.036  25.775  36.926  1.00  0.00     0.200 A 
ATOM     78  F   UNL A   1      43.577  24.086  35.347  1.00  0.00    -0.200 F 
ATOM     79  F   UNL A   1      44.540  24.868  37.772  1.00  0.00    -0.200 F 
ENDBRANCH  55  69
BRANCH  56  80
ATOM     80  C   UNL A   1      42.590  24.448  27.147  1.00  0.00     0.064 A 
ATOM     81  C   UNL A   1      43.022  24.332  25.815  1.00  0.00     0.173 A 
ATOM     82  C   UNL A   1      42.280  23.249  27.814  1.00  0.00     0.173 A 
ATOM     83  F   UNL A   1      43.381  25.423  25.123  1.00  0.00    -0.203 F 
ATOM     84  C   UNL A   1      43.155  23.087  25.194  1.00  0.00     0.198 A 
ATOM     85  C   UNL A   1      42.403  22.006  27.188  1.00  0.00     0.198 A 
ATOM     86  F   UNL A   1      41.946  23.254  29.112  1.00  0.00    -0.203 F 
ATOM     87  F   UNL A   1      43.632  23.012  23.942  1.00  0.00    -0.200 F 
ATOM     88  C   UNL A   1      42.853  21.924  25.883  1.00  0.00     0.200 A 
ATOM     89  F   UNL A   1      42.146  20.887  27.880  1.00  0.00    -0.200 F 
ATOM     90  F   UNL A   1      43.037  20.727  25.309  1.00  0.00    -0.200 F 
ENDBRANCH  56  80
BRANCH  68  91
ATOM     91  C   UNL A   1      45.733  29.530  29.001  1.00  0.00     0.064 A 
ATOM     92  C   UNL A   1      47.010  29.653  28.432  1.00  0.00     0.173 A 
ATOM     93  C   UNL A   1      44.685  30.244  28.408  1.00  0.00     0.173 A 
ATOM     94  F   UNL A   1      48.040  28.928  28.884  1.00  0.00    -0.203 F 
ATOM     95  C   UNL A   1      47.237  30.504  27.353  1.00  0.00     0.198 A 
ATOM     96  C   UNL A   1      44.905  31.059  27.303  1.00  0.00     0.198 A 
ATOM     97  F   UNL A   1      43.434  30.120  28.880  1.00  0.00    -0.203 F 
ATOM     98  F   UNL A   1      48.471  30.630  26.845  1.00  0.00    -0.200 F 
ATOM     99  C   UNL A   1      46.183  31.201  26.786  1.00  0.00     0.200 A 
ATOM    100  F   UNL A   1      43.874  31.693  26.728  1.00  0.00    -0.200 F 
ATOM    101  F   UNL A   1      46.394  31.995  25.727  1.00  0.00    -0.200 F 
ENDBRANCH  68  91
ENDBRANCH  42  43
ENDBRANCH  34  37
ENDBRANCH  32  33
ENDBRANCH  31  32
ENDBRANCH  30  31
ENDBRANCH   3  30
TORSDOF 16
ENDMDL
MODEL 3
REMARK VINA RESULT:     -12.6      1.803      2.129
REMARK SMILES O=C(CCC(=O)N1Cc2[nH]cnc2C[C@H]1C(=O)NCc1ccccc1)NCCCNC(=O)c1ccc(-c2c3nc(c(-c4c(F)c(F)c(F)c(F)c4F)c4ccc([nH]4)c(-c4c(F)c(F)c(F)c(F)c4F)c4nc(c(-c5c(F)c(F)c(F)c(F)c5F)c5ccc2[nH]5)C=C4)C=C3)cc1
REMARK SMILES IDX 1 1 2 2 26 3 3 5 4 6 5 7 6 8 7 9 8 10 15 11 9 12 14 13 10 14
REMARK SMILES IDX 13 15 11 16 12 18 16 19 17 20 18 21 19 23 20 24 21 25 25 26
REMARK SMILES IDX 22 27 24 28 23 29 27 30 28 31 29 32 30 33 31 34 32 36 33 37
REMARK SMILES IDX 34 38 95 39 35 40 94 41 36 42 37 43 38 44 88 45 39 46 93 47
REMARK SMILES IDX 87 48 89 49 40 50 92 51 86 52 85 53 41 55 73 56 53 57 72 58
REMARK SMILES IDX 54 59 57 60 71 61 90 62 55 63 56 64 70 66 91 67 58 68 42 69
REMARK SMILES IDX 43 70 51 71 44 72 45 73 49 74 52 75 46 76 47 77 50 78 48 79
REMARK SMILES IDX 74 80 75 81 83 82 76 83 77 84 81 85 84 86 78 87 79 88 82 89
REMARK SMILES IDX 80 90 59 91 60 92 68 93 61 94 62 95 66 96 69 97 63 98 64 99
REMARK SMILES IDX 67 100 65 101
REMARK H PARENT 26 4 10 17 18 22 30 35 89 54 57 65
REMARK Flexibility Score: inf
ROOT
ATOM      1  O   UNL A   1      37.016  20.739  24.596  1.00  0.00    -0.275 OA
ATOM      2  C   UNL A   1      37.383  21.904  24.714  1.00  0.00     0.220 C 
ATOM      3  N   UNL A   1      38.596  22.243  25.314  1.00  0.00    -0.356 N 
ATOM      4  H   UNL A   1      39.000  23.125  25.150  1.00  0.00     0.163 HD
ENDROOT
BRANCH   2   5
ATOM      5  C   UNL A   1      36.459  23.083  24.358  1.00  0.00     0.110 C 
BRANCH   5   6
ATOM      6  C   UNL A   1      36.123  23.954  25.594  1.00  0.00     0.110 C 
BRANCH   6   7
ATOM      7  C   UNL A   1      34.670  24.451  25.752  1.00  0.00     0.224 C 
ATOM      8  O   UNL A   1      34.399  25.626  25.490  1.00  0.00    -0.275 OA
BRANCH   7   9
ATOM      9  N   UNL A   1      33.685  23.554  26.140  1.00  0.00    -0.324 N 
ATOM     10  C   UNL A   1      34.024  22.332  26.905  1.00  0.00     0.176 C 
ATOM     11  C   UNL A   1      32.314  23.613  25.602  1.00  0.00     0.180 C 
ATOM     12  C   UNL A   1      33.417  21.179  26.191  1.00  0.00     0.058 A 
ATOM     13  C   UNL A   1      32.137  22.531  24.537  1.00  0.00     0.093 C 
ATOM     14  N   UNL A   1      33.427  19.853  26.524  1.00  0.00    -0.347 N 
ATOM     15  C   UNL A   1      32.584  21.254  25.104  1.00  0.00     0.066 A 
ATOM     16  C   UNL A   1      32.666  19.201  25.587  1.00  0.00     0.197 A 
ATOM     17  H   UNL A   1      33.892  19.444  27.289  1.00  0.00     0.167 HD
ATOM     18  N   UNL A   1      32.142  20.036  24.721  1.00  0.00    -0.242 NA
BRANCH  11  19
ATOM     19  C   UNL A   1      31.212  24.023  26.591  1.00  0.00     0.243 C 
ATOM     20  O   UNL A   1      30.768  23.185  27.387  1.00  0.00    -0.273 OA
ATOM     21  N   UNL A   1      30.748  25.289  26.747  1.00  0.00    -0.350 N 
ATOM     22  H   UNL A   1      30.550  25.555  27.674  1.00  0.00     0.163 HD
BRANCH  21  23
ATOM     23  C   UNL A   1      30.501  26.304  25.743  1.00  0.00     0.151 C 
BRANCH  23  24
ATOM     24  C   UNL A   1      31.367  27.527  25.927  1.00  0.00    -0.029 A 
ATOM     25  C   UNL A   1      31.621  28.112  27.179  1.00  0.00     0.005 A 
ATOM     26  C   UNL A   1      31.934  28.118  24.790  1.00  0.00     0.005 A 
ATOM     27  C   UNL A   1      32.391  29.268  27.291  1.00  0.00     0.000 A 
ATOM     28  C   UNL A   1      32.720  29.265  24.904  1.00  0.00     0.000 A 
ATOM     29  C   UNL A   1      32.941  29.844  26.152  1.00  0.00     0.000 A 
ENDBRANCH  23  24
ENDBRANCH  21  23
ENDBRANCH  11  19
ENDBRANCH   7   9
ENDBRANCH   6   7
ENDBRANCH   5   6
ENDBRANCH   2   5
BRANCH   3  30
ATOM     30  C   UNL A   1      39.267  21.273  26.191  1.00  0.00     0.117 C 
BRANCH  30  31
ATOM     31  C   UNL A   1      40.358  21.797  27.135  1.00  0.00     0.042 C 
BRANCH  31  32
ATOM     32  C   UNL A   1      41.762  21.248  26.924  1.00  0.00     0.118 C 
BRANCH  32  33
ATOM     33  N   UNL A   1      42.570  21.741  25.809  1.00  0.00    -0.352 N 
ATOM     34  C   UNL A   1      42.809  23.054  25.388  1.00  0.00     0.251 C 
ATOM     35  H   UNL A   1      43.013  21.043  25.275  1.00  0.00     0.163 HD
ATOM     36  O   UNL A   1      43.409  23.219  24.323  1.00  0.00    -0.269 OA
BRANCH  34  37
ATOM     37  C   UNL A   1      42.454  24.249  26.222  1.00  0.00     0.039 A 
ATOM     38  C   UNL A   1      41.518  25.205  25.783  1.00  0.00     0.014 A 
ATOM     39  C   UNL A   1      43.161  24.530  27.376  1.00  0.00     0.014 A 
ATOM     40  C   UNL A   1      41.416  26.445  26.438  1.00  0.00     0.010 A 
ATOM     41  C   UNL A   1      43.277  25.815  27.832  1.00  0.00     0.010 A 
ATOM     42  C   UNL A   1      42.344  26.758  27.433  1.00  0.00    -0.014 A 
BRANCH  42  43
ATOM     43  C   UNL A   1      42.219  27.878  28.366  1.00  0.00     0.031 A 
ATOM     44  C   UNL A   1      43.242  28.958  28.138  1.00  0.00     0.074 A 
ATOM     45  C   UNL A   1      41.052  28.171  28.978  1.00  0.00     0.049 A 
ATOM     46  N   UNL A   1      44.097  29.462  28.971  1.00  0.00    -0.248 NA
ATOM     47  C   UNL A   1      43.408  29.477  26.761  1.00  0.00     0.031 C 
ATOM     48  C   UNL A   1      39.791  27.426  28.878  1.00  0.00     0.029 A 
ATOM     49  N   UNL A   1      40.701  29.287  29.684  1.00  0.00    -0.354 N 
ATOM     50  C   UNL A   1      44.789  30.436  28.249  1.00  0.00     0.074 A 
ATOM     51  C   UNL A   1      44.496  30.230  26.865  1.00  0.00     0.031 C 
ATOM     52  C   UNL A   1      38.782  28.196  29.346  1.00  0.00     0.029 A 
ATOM     53  C   UNL A   1      39.333  29.440  29.864  1.00  0.00     0.049 A 
ATOM     54  H   UNL A   1      41.362  29.927  30.035  1.00  0.00     0.167 HD
ATOM     55  C   UNL A   1      45.318  31.543  28.831  1.00  0.00     0.037 A 
ATOM     56  C   UNL A   1      38.692  30.531  30.351  1.00  0.00     0.037 A 
ATOM     57  C   UNL A   1      45.345  31.422  30.257  1.00  0.00     0.049 A 
ATOM     58  C   UNL A   1      39.693  31.398  31.018  1.00  0.00     0.074 A 
ATOM     59  C   UNL A   1      46.027  30.650  31.169  1.00  0.00     0.029 A 
ATOM     60  N   UNL A   1      44.267  31.962  30.905  1.00  0.00    -0.354 N 
ATOM     61  N   UNL A   1      40.305  31.097  32.127  1.00  0.00    -0.248 NA
ATOM     62  C   UNL A   1      40.253  32.530  30.289  1.00  0.00     0.031 C 
ATOM     63  C   UNL A   1      45.158  30.520  32.291  1.00  0.00     0.029 A 
ATOM     64  C   UNL A   1      43.984  31.224  32.022  1.00  0.00     0.049 A 
ATOM     65  H   UNL A   1      43.770  32.760  30.611  1.00  0.00     0.167 HD
ATOM     66  C   UNL A   1      41.542  31.703  32.016  1.00  0.00     0.074 A 
ATOM     67  C   UNL A   1      41.383  32.709  30.979  1.00  0.00     0.031 C 
ATOM     68  C   UNL A   1      42.647  31.115  32.556  1.00  0.00     0.037 A 
BRANCH  55  69
ATOM     69  C   UNL A   1      45.420  32.893  28.157  1.00  0.00     0.064 A 
ATOM     70  C   UNL A   1      46.693  33.456  27.949  1.00  0.00     0.173 A 
ATOM     71  C   UNL A   1      44.327  33.771  27.968  1.00  0.00     0.173 A 
ATOM     72  F   UNL A   1      47.799  32.724  28.143  1.00  0.00    -0.203 F 
ATOM     73  C   UNL A   1      46.858  34.805  27.620  1.00  0.00     0.198 A 
ATOM     74  C   UNL A   1      44.493  35.097  27.573  1.00  0.00     0.198 A 
ATOM     75  F   UNL A   1      43.070  33.421  28.269  1.00  0.00    -0.203 F 
ATOM     76  F   UNL A   1      48.090  35.326  27.549  1.00  0.00    -0.200 F 
ATOM     77  C   UNL A   1      45.758  35.623  27.427  1.00  0.00     0.200 A 
ATOM     78  F   UNL A   1      43.414  35.877  27.415  1.00  0.00    -0.200 F 
ATOM     79  F   UNL A   1      45.915  36.924  27.157  1.00  0.00    -0.200 F 
ENDBRANCH  55  69
BRANCH  56  80
ATOM     80  C   UNL A   1      37.297  30.983  30.148  1.00  0.00     0.064 A 
ATOM     81  C   UNL A   1      36.511  31.425  31.226  1.00  0.00     0.173 A 
ATOM     82  C   UNL A   1      36.789  31.225  28.859  1.00  0.00     0.173 A 
ATOM     83  F   UNL A   1      36.944  31.273  32.485  1.00  0.00    -0.203 F 
ATOM     84  C   UNL A   1      35.297  32.089  31.024  1.00  0.00     0.198 A 
ATOM     85  C   UNL A   1      35.570  31.879  28.659  1.00  0.00     0.198 A 
ATOM     86  F   UNL A   1      37.508  30.920  27.770  1.00  0.00    -0.203 F 
ATOM     87  F   UNL A   1      34.606  32.552  32.076  1.00  0.00    -0.200 F 
ATOM     88  C   UNL A   1      34.832  32.323  29.741  1.00  0.00     0.200 A 
ATOM     89  F   UNL A   1      35.151  32.135  27.412  1.00  0.00    -0.200 F 
ATOM     90  F   UNL A   1      33.699  33.011  29.546  1.00  0.00    -0.200 F 
ENDBRANCH  56  80
BRANCH  68  91
ATOM     91  C   UNL A   1      42.412  30.111  33.643  1.00  0.00     0.064 A 
ATOM     92  C   UNL A   1      42.161  28.748  33.418  1.00  0.00     0.173 A 
ATOM     93  C   UNL A   1      42.520  30.541  34.972  1.00  0.00     0.173 A 
ATOM     94  F   UNL A   1      42.140  28.247  32.177  1.00  0.00    -0.203 F 
ATOM     95  C   UNL A   1      41.964  27.869  34.479  1.00  0.00     0.198 A 
ATOM     96  C   UNL A   1      42.367  29.652  36.030  1.00  0.00     0.198 A 
ATOM     97  F   UNL A   1      42.813  31.823  35.241  1.00  0.00    -0.203 F 
ATOM     98  F   UNL A   1      41.694  26.577  34.241  1.00  0.00    -0.200 F 
ATOM     99  C   UNL A   1      42.073  28.321  35.784  1.00  0.00     0.200 A 
ATOM    100  F   UNL A   1      42.522  30.084  37.289  1.00  0.00    -0.200 F 
ATOM    101  F   UNL A   1      41.917  27.468  36.806  1.00  0.00    -0.200 F 
ENDBRANCH  68  91
ENDBRANCH  42  43
ENDBRANCH  34  37
ENDBRANCH  32  33
ENDBRANCH  31  32
ENDBRANCH  30  31
ENDBRANCH   3  30
TORSDOF 16
ENDMDL
