MODEL 1
REMARK VINA RESULT:     -13.8      0.000      0.000
REMARK SMILES C/C(=N\NC(N)=O)c1nnn(-c2ccc(C(=O)NCCCNC(=O)c3ccc(-c4c5nc(c(-c6c(F)c(F)c(F)c(F)c6F)c6ccc([nH]6)c(-c6c(F)c(F)c(F)c(F)c6F)c6nc(c(-c7c(F)c(F)c(F)c(F)c7F)c7ccc4[nH]7)C=C6)C=C5)cc3)cc2)c1C
REMARK SMILES IDX 19 1 18 2 16 3 17 4 15 6 12 7 13 8 89 9 14 10 88 11 11 12
REMARK SMILES IDX 8 13 9 14 90 15 10 16 91 17 2 18 1 19 3 20 4 21 5 22 6 24
REMARK SMILES IDX 7 25 20 28 21 29 22 30 23 31 24 33 25 34 26 35 87 36 27 37
REMARK SMILES IDX 86 38 28 39 29 40 30 41 80 42 31 43 85 44 79 45 81 46 32 47
REMARK SMILES IDX 84 48 78 49 77 50 33 52 65 53 45 54 64 55 46 56 49 57 63 58
REMARK SMILES IDX 82 59 47 60 48 61 62 63 83 64 50 65 34 66 35 67 43 68 36 69
REMARK SMILES IDX 37 70 41 71 44 72 38 73 39 74 42 75 40 76 66 77 67 78 75 79
REMARK SMILES IDX 68 80 69 81 73 82 76 83 70 84 71 85 74 86 72 87 51 88 52 89
REMARK SMILES IDX 60 90 53 91 54 92 58 93 61 94 55 95 56 96 59 97 57 98
REMARK H PARENT 18 5 4 23 6 26 6 27 22 32 81 51 49 62
REMARK Flexibility Score: inf
ROOT
ATOM      1  C   UNL A   1      36.361  20.510  25.040  1.00  0.00     0.118 C 
ENDROOT
BRANCH   1   2
ATOM      2  N   UNL A   1      35.292  19.518  25.028  1.00  0.00    -0.352 N 
ATOM      3  C   UNL A   1      33.925  19.635  25.151  1.00  0.00     0.251 C 
ATOM      4  O   UNL A   1      33.245  18.622  24.988  1.00  0.00    -0.269 OA
ATOM      5  H   UNL A   1      35.606  18.592  24.911  1.00  0.00     0.163 HD
BRANCH   3   6
ATOM      6  C   UNL A   1      33.244  20.937  25.407  1.00  0.00     0.039 A 
ATOM      7  C   UNL A   1      32.180  23.500  25.683  1.00  0.00     0.067 A 
ATOM      8  C   UNL A   1      31.908  22.775  24.521  1.00  0.00     0.029 A 
ATOM      9  C   UNL A   1      32.862  22.920  26.746  1.00  0.00     0.029 A 
ATOM     10  C   UNL A   1      32.471  21.501  24.377  1.00  0.00     0.016 A 
ATOM     11  C   UNL A   1      33.345  21.625  26.617  1.00  0.00     0.016 A 
BRANCH   7  12
ATOM     12  N   UNL A   1      31.863  24.864  25.760  1.00  0.00    -0.217 N 
ATOM     13  C   UNL A   1      31.718  27.003  25.428  1.00  0.00     0.132 A 
ATOM     14  N   UNL A   1      30.818  26.644  26.398  1.00  0.00    -0.128 NA
ATOM     15  C   UNL A   1      32.399  25.882  24.994  1.00  0.00     0.071 A 
ATOM     16  N   UNL A   1      30.864  25.325  26.536  1.00  0.00    -0.061 NA
ATOM     17  C   UNL A   1      33.332  25.684  23.857  1.00  0.00     0.069 C 
BRANCH  13  18
ATOM     18  C   UNL A   1      31.708  28.315  24.806  1.00  0.00     0.087 C 
ATOM     19  C   UNL A   1      32.985  29.097  24.958  1.00  0.00     0.071 C 
ATOM     20  N   UNL A   1      30.617  28.632  24.173  1.00  0.00    -0.174 NA
BRANCH  20  21
ATOM     21  N   UNL A   1      30.437  29.829  23.538  1.00  0.00    -0.229 N 
ATOM     22  C   UNL A   1      29.658  30.108  22.440  1.00  0.00     0.332 C 
ATOM     23  H   UNL A   1      30.931  30.592  23.917  1.00  0.00     0.195 HD
ATOM     24  N   UNL A   1      29.673  31.431  22.113  1.00  0.00    -0.350 N 
ATOM     25  O   UNL A   1      28.985  29.326  21.778  1.00  0.00    -0.247 OA
ATOM     26  H   UNL A   1      30.213  32.063  22.642  1.00  0.00     0.161 HD
ATOM     27  H   UNL A   1      29.146  31.756  21.348  1.00  0.00     0.161 HD
ENDBRANCH  20  21
ENDBRANCH  13  18
ENDBRANCH   7  12
ENDBRANCH   3   6
ENDBRANCH   1   2
BRANCH   1  28
ATOM     28  C   UNL A   1      37.720  19.904  24.653  1.00  0.00     0.042 C 
BRANCH  28  29
ATOM     29  C   UNL A   1      38.823  20.299  25.614  1.00  0.00     0.118 C 
BRANCH  29  30
ATOM     30  N   UNL A   1      39.849  19.258  25.750  1.00  0.00    -0.352 N 
ATOM     31  C   UNL A   1      41.202  19.418  25.961  1.00  0.00     0.251 C 
ATOM     32  H   UNL A   1      39.531  18.329  25.682  1.00  0.00     0.163 HD
ATOM     33  O   UNL A   1      41.994  18.508  25.700  1.00  0.00    -0.269 OA
BRANCH  31  34
ATOM     34  C   UNL A   1      41.689  20.689  26.513  1.00  0.00     0.039 A 
ATOM     35  C   UNL A   1      42.204  21.712  25.711  1.00  0.00     0.014 A 
ATOM     36  C   UNL A   1      41.577  20.854  27.889  1.00  0.00     0.014 A 
ATOM     37  C   UNL A   1      42.538  22.926  26.309  1.00  0.00     0.010 A 
ATOM     38  C   UNL A   1      41.672  22.103  28.425  1.00  0.00     0.010 A 
ATOM     39  C   UNL A   1      42.252  23.110  27.670  1.00  0.00    -0.014 A 
BRANCH  39  40
ATOM     40  C   UNL A   1      42.427  24.388  28.344  1.00  0.00     0.031 A 
ATOM     41  C   UNL A   1      41.316  25.337  28.083  1.00  0.00     0.074 A 
ATOM     42  C   UNL A   1      43.347  24.540  29.326  1.00  0.00     0.049 A 
ATOM     43  N   UNL A   1      41.361  26.436  27.407  1.00  0.00    -0.248 NA
ATOM     44  C   UNL A   1      39.949  24.931  28.454  1.00  0.00     0.031 C 
ATOM     45  C   UNL A   1      44.257  23.516  29.868  1.00  0.00     0.029 A 
ATOM     46  N   UNL A   1      43.589  25.603  30.142  1.00  0.00    -0.354 N 
ATOM     47  C   UNL A   1      40.079  26.979  27.487  1.00  0.00     0.074 A 
ATOM     48  C   UNL A   1      39.221  25.909  27.909  1.00  0.00     0.031 C 
ATOM     49  C   UNL A   1      44.768  23.929  31.048  1.00  0.00     0.029 A 
ATOM     50  C   UNL A   1      44.367  25.305  31.262  1.00  0.00     0.049 A 
ATOM     51  H   UNL A   1      43.244  26.506  29.957  1.00  0.00     0.167 HD
ATOM     52  C   UNL A   1      39.914  28.332  27.538  1.00  0.00     0.037 A 
ATOM     53  C   UNL A   1      44.646  26.137  32.297  1.00  0.00     0.037 A 
ATOM     54  C   UNL A   1      41.151  28.985  27.176  1.00  0.00     0.049 A 
ATOM     55  C   UNL A   1      44.380  27.512  31.819  1.00  0.00     0.074 A 
ATOM     56  C   UNL A   1      41.903  29.146  26.034  1.00  0.00     0.029 A 
ATOM     57  N   UNL A   1      41.974  29.231  28.245  1.00  0.00    -0.354 N 
ATOM     58  N   UNL A   1      45.092  28.102  30.900  1.00  0.00    -0.248 NA
ATOM     59  C   UNL A   1      43.071  28.100  32.071  1.00  0.00     0.031 C 
ATOM     60  C   UNL A   1      43.258  29.249  26.473  1.00  0.00     0.029 A 
ATOM     61  C   UNL A   1      43.286  29.216  27.868  1.00  0.00     0.049 A 
ATOM     62  H   UNL A   1      41.660  29.397  29.163  1.00  0.00     0.167 HD
ATOM     63  C   UNL A   1      44.173  28.833  30.170  1.00  0.00     0.074 A 
ATOM     64  C   UNL A   1      42.997  28.932  31.029  1.00  0.00     0.031 C 
ATOM     65  C   UNL A   1      44.346  28.996  28.826  1.00  0.00     0.037 A 
BRANCH  52  66
ATOM     66  C   UNL A   1      38.894  29.060  28.405  1.00  0.00     0.064 A 
ATOM     67  C   UNL A   1      38.883  28.784  29.792  1.00  0.00     0.173 A 
ATOM     68  C   UNL A   1      37.747  29.728  27.924  1.00  0.00     0.173 A 
ATOM     69  F   UNL A   1      39.919  28.160  30.374  1.00  0.00    -0.203 F 
ATOM     70  C   UNL A   1      37.769  29.046  30.596  1.00  0.00     0.198 A 
ATOM     71  C   UNL A   1      36.655  30.028  28.740  1.00  0.00     0.198 A 
ATOM     72  F   UNL A   1      37.571  30.030  26.635  1.00  0.00    -0.203 F 
ATOM     73  F   UNL A   1      37.757  28.636  31.872  1.00  0.00    -0.200 F 
ATOM     74  C   UNL A   1      36.649  29.655  30.065  1.00  0.00     0.200 A 
ATOM     75  F   UNL A   1      35.573  30.608  28.201  1.00  0.00    -0.200 F 
ATOM     76  F   UNL A   1      35.553  29.843  30.812  1.00  0.00    -0.200 F 
ENDBRANCH  52  66
BRANCH  53  77
ATOM     77  C   UNL A   1      44.896  25.843  33.727  1.00  0.00     0.064 A 
ATOM     78  C   UNL A   1      43.833  25.658  34.630  1.00  0.00     0.173 A 
ATOM     79  C   UNL A   1      46.169  25.434  34.167  1.00  0.00     0.173 A 
ATOM     80  F   UNL A   1      42.583  25.987  34.276  1.00  0.00    -0.203 F 
ATOM     81  C   UNL A   1      44.026  25.059  35.880  1.00  0.00     0.198 A 
ATOM     82  C   UNL A   1      46.360  24.837  35.416  1.00  0.00     0.198 A 
ATOM     83  F   UNL A   1      47.229  25.512  33.351  1.00  0.00    -0.203 F 
ATOM     84  F   UNL A   1      42.977  24.835  36.684  1.00  0.00    -0.200 F 
ATOM     85  C   UNL A   1      45.287  24.636  36.265  1.00  0.00     0.200 A 
ATOM     86  F   UNL A   1      47.577  24.396  35.762  1.00  0.00    -0.200 F 
ATOM     87  F   UNL A   1      45.461  23.994  37.430  1.00  0.00    -0.200 F 
ENDBRANCH  53  77
BRANCH  65  88
ATOM     88  C   UNL A   1      45.727  28.771  28.287  1.00  0.00     0.064 A 
ATOM     89  C   UNL A   1      46.186  27.563  27.736  1.00  0.00     0.173 A 
ATOM     90  C   UNL A   1      46.596  29.869  28.252  1.00  0.00     0.173 A 
ATOM     91  F   UNL A   1      45.387  26.493  27.658  1.00  0.00    -0.203 F 
ATOM     92  C   UNL A   1      47.473  27.452  27.214  1.00  0.00     0.198 A 
ATOM     93  C   UNL A   1      47.867  29.766  27.697  1.00  0.00     0.198 A 
ATOM     94  F   UNL A   1      46.191  31.058  28.724  1.00  0.00    -0.203 F 
ATOM     95  F   UNL A   1      47.897  26.283  26.711  1.00  0.00    -0.200 F 
ATOM     96  C   UNL A   1      48.310  28.556  27.190  1.00  0.00     0.200 A 
ATOM     97  F   UNL A   1      48.652  30.850  27.636  1.00  0.00    -0.200 F 
ATOM     98  F   UNL A   1      49.536  28.460  26.657  1.00  0.00    -0.200 F 
ENDBRANCH  65  88
ENDBRANCH  39  40
ENDBRANCH  31  34
ENDBRANCH  29  30
ENDBRANCH  28  29
ENDBRANCH   1  28
TORSDOF 13
ENDMDL
MODEL 2
REMARK VINA RESULT:     -13.6      4.057      9.837
REMARK SMILES C/C(=N\NC(N)=O)c1nnn(-c2ccc(C(=O)NCCCNC(=O)c3ccc(-c4c5nc(c(-c6c(F)c(F)c(F)c(F)c6F)c6ccc([nH]6)c(-c6c(F)c(F)c(F)c(F)c6F)c6nc(c(-c7c(F)c(F)c(F)c(F)c7F)c7ccc4[nH]7)C=C6)C=C5)cc3)cc2)c1C
REMARK SMILES IDX 19 1 18 2 16 3 17 4 15 6 12 7 13 8 89 9 14 10 88 11 11 12
REMARK SMILES IDX 8 13 9 14 90 15 10 16 91 17 2 18 1 19 3 20 4 21 5 22 6 24
REMARK SMILES IDX 7 25 20 28 21 29 22 30 23 31 24 33 25 34 26 35 87 36 27 37
REMARK SMILES IDX 86 38 28 39 29 40 30 41 80 42 31 43 85 44 79 45 81 46 32 47
REMARK SMILES IDX 84 48 78 49 77 50 33 52 65 53 45 54 64 55 46 56 49 57 63 58
REMARK SMILES IDX 82 59 47 60 48 61 62 63 83 64 50 65 34 66 35 67 43 68 36 69
REMARK SMILES IDX 37 70 41 71 44 72 38 73 39 74 42 75 40 76 66 77 67 78 75 79
REMARK SMILES IDX 68 80 69 81 73 82 76 83 70 84 71 85 74 86 72 87 51 88 52 89
REMARK SMILES IDX 60 90 53 91 54 92 58 93 61 94 55 95 56 96 59 97 57 98
REMARK H PARENT 18 5 4 23 6 26 6 27 22 32 81 51 49 62
REMARK Flexibility Score: inf
ROOT
ATOM      1  C   UNL A   1      31.703  30.493  25.852  1.00  0.00     0.118 C 
ENDROOT
BRANCH   1   2
ATOM      2  N   UNL A   1      30.959  30.372  24.604  1.00  0.00    -0.352 N 
ATOM      3  C   UNL A   1      30.723  29.301  23.772  1.00  0.00     0.251 C 
ATOM      4  O   UNL A   1      29.952  29.466  22.826  1.00  0.00    -0.269 OA
ATOM      5  H   UNL A   1      30.550  31.213  24.299  1.00  0.00     0.163 HD
BRANCH   3   6
ATOM      6  C   UNL A   1      31.309  27.949  24.007  1.00  0.00     0.039 A 
ATOM      7  C   UNL A   1      32.376  25.375  24.131  1.00  0.00     0.067 A 
ATOM      8  C   UNL A   1      33.165  26.412  23.629  1.00  0.00     0.029 A 
ATOM      9  C   UNL A   1      31.125  25.629  24.681  1.00  0.00     0.029 A 
ATOM     10  C   UNL A   1      32.612  27.696  23.542  1.00  0.00     0.016 A 
ATOM     11  C   UNL A   1      30.623  26.923  24.658  1.00  0.00     0.016 A 
BRANCH   7  12
ATOM     12  N   UNL A   1      32.786  24.040  23.996  1.00  0.00    -0.217 N 
ATOM     13  C   UNL A   1      33.513  22.027  24.347  1.00  0.00     0.132 A 
ATOM     14  N   UNL A   1      33.050  22.112  23.059  1.00  0.00    -0.128 NA
ATOM     15  C   UNL A   1      33.351  23.247  24.976  1.00  0.00     0.071 A 
ATOM     16  N   UNL A   1      32.539  23.323  22.883  1.00  0.00    -0.061 NA
ATOM     17  C   UNL A   1      33.515  23.644  26.396  1.00  0.00     0.069 C 
BRANCH  13  18
ATOM     18  C   UNL A   1      33.846  20.759  24.971  1.00  0.00     0.087 C 
ATOM     19  C   UNL A   1      35.316  20.436  25.001  1.00  0.00     0.071 C 
ATOM     20  N   UNL A   1      32.843  20.085  25.451  1.00  0.00    -0.174 NA
BRANCH  20  21
ATOM     21  N   UNL A   1      32.978  18.870  26.064  1.00  0.00    -0.229 N 
ATOM     22  C   UNL A   1      32.528  17.642  25.641  1.00  0.00     0.332 C 
ATOM     23  H   UNL A   1      33.462  18.877  26.922  1.00  0.00     0.195 HD
ATOM     24  N   UNL A   1      32.896  16.635  26.482  1.00  0.00    -0.350 N 
ATOM     25  O   UNL A   1      31.877  17.387  24.634  1.00  0.00    -0.247 OA
ATOM     26  H   UNL A   1      33.418  16.836  27.293  1.00  0.00     0.161 HD
ATOM     27  H   UNL A   1      32.639  15.707  26.281  1.00  0.00     0.161 HD
ENDBRANCH  20  21
ENDBRANCH  13  18
ENDBRANCH   7  12
ENDBRANCH   3   6
ENDBRANCH   1   2
BRANCH   1  28
ATOM     28  C   UNL A   1      31.363  31.787  26.609  1.00  0.00     0.042 C 
BRANCH  28  29
ATOM     29  C   UNL A   1      32.581  32.414  27.258  1.00  0.00     0.118 C 
BRANCH  29  30
ATOM     30  N   UNL A   1      32.373  33.826  27.597  1.00  0.00    -0.352 N 
ATOM     31  C   UNL A   1      33.028  34.580  28.547  1.00  0.00     0.251 C 
ATOM     32  H   UNL A   1      31.678  34.295  27.080  1.00  0.00     0.163 HD
ATOM     33  O   UNL A   1      32.530  35.623  28.980  1.00  0.00    -0.269 OA
BRANCH  31  34
ATOM     34  C   UNL A   1      34.337  34.127  29.034  1.00  0.00     0.039 A 
ATOM     35  C   UNL A   1      34.525  33.597  30.314  1.00  0.00     0.014 A 
ATOM     36  C   UNL A   1      35.397  34.210  28.138  1.00  0.00     0.014 A 
ATOM     37  C   UNL A   1      35.778  33.088  30.649  1.00  0.00     0.010 A 
ATOM     38  C   UNL A   1      36.536  33.503  28.378  1.00  0.00     0.010 A 
ATOM     39  C   UNL A   1      36.773  33.036  29.662  1.00  0.00    -0.014 A 
BRANCH  39  40
ATOM     40  C   UNL A   1      38.060  32.390  29.875  1.00  0.00     0.031 A 
ATOM     41  C   UNL A   1      38.071  30.968  29.451  1.00  0.00     0.074 A 
ATOM     42  C   UNL A   1      39.171  33.117  30.141  1.00  0.00     0.049 A 
ATOM     43  N   UNL A   1      38.164  29.923  30.203  1.00  0.00    -0.248 NA
ATOM     44  C   UNL A   1      37.751  30.656  28.047  1.00  0.00     0.031 C 
ATOM     45  C   UNL A   1      39.282  34.583  30.236  1.00  0.00     0.029 A 
ATOM     46  N   UNL A   1      40.468  32.721  30.262  1.00  0.00    -0.354 N 
ATOM     47  C   UNL A   1      38.168  28.834  29.332  1.00  0.00     0.074 A 
ATOM     48  C   UNL A   1      37.664  29.324  28.081  1.00  0.00     0.031 C 
ATOM     49  C   UNL A   1      40.579  34.954  30.164  1.00  0.00     0.029 A 
ATOM     50  C   UNL A   1      41.398  33.759  30.195  1.00  0.00     0.049 A 
ATOM     51  H   UNL A   1      40.728  31.779  30.386  1.00  0.00     0.167 HD
ATOM     52  C   UNL A   1      38.913  27.729  29.626  1.00  0.00     0.037 A 
ATOM     53  C   UNL A   1      42.748  33.634  30.154  1.00  0.00     0.037 A 
ATOM     54  C   UNL A   1      39.341  27.785  31.005  1.00  0.00     0.049 A 
ATOM     55  C   UNL A   1      43.063  32.276  30.650  1.00  0.00     0.074 A 
ATOM     56  C   UNL A   1      38.747  27.682  32.243  1.00  0.00     0.029 A 
ATOM     57  N   UNL A   1      40.545  28.416  31.180  1.00  0.00    -0.354 N 
ATOM     58  N   UNL A   1      42.872  31.901  31.883  1.00  0.00    -0.248 NA
ATOM     59  C   UNL A   1      43.219  31.197  29.683  1.00  0.00     0.031 C 
ATOM     60  C   UNL A   1      39.529  28.498  33.117  1.00  0.00     0.029 A 
ATOM     61  C   UNL A   1      40.610  29.018  32.404  1.00  0.00     0.049 A 
ATOM     62  H   UNL A   1      41.267  28.434  30.512  1.00  0.00     0.167 HD
ATOM     63  C   UNL A   1      42.448  30.588  31.781  1.00  0.00     0.074 A 
ATOM     64  C   UNL A   1      42.845  30.164  30.442  1.00  0.00     0.031 C 
ATOM     65  C   UNL A   1      41.535  30.096  32.669  1.00  0.00     0.037 A 
BRANCH  52  66
ATOM     66  C   UNL A   1      39.710  26.913  28.615  1.00  0.00     0.064 A 
ATOM     67  C   UNL A   1      40.609  27.600  27.767  1.00  0.00     0.173 A 
ATOM     68  C   UNL A   1      39.404  25.595  28.212  1.00  0.00     0.173 A 
ATOM     69  F   UNL A   1      40.987  28.858  28.045  1.00  0.00    -0.203 F 
ATOM     70  C   UNL A   1      41.061  27.055  26.560  1.00  0.00     0.198 A 
ATOM     71  C   UNL A   1      39.894  25.038  27.029  1.00  0.00     0.198 A 
ATOM     72  F   UNL A   1      38.542  24.817  28.871  1.00  0.00    -0.203 F 
ATOM     73  F   UNL A   1      41.798  27.802  25.726  1.00  0.00    -0.200 F 
ATOM     74  C   UNL A   1      40.691  25.779  26.185  1.00  0.00     0.200 A 
ATOM     75  F   UNL A   1      39.510  23.802  26.678  1.00  0.00    -0.200 F 
ATOM     76  F   UNL A   1      41.061  25.279  24.999  1.00  0.00    -0.200 F 
ENDBRANCH  52  66
BRANCH  53  77
ATOM     77  C   UNL A   1      43.775  34.487  29.511  1.00  0.00     0.064 A 
ATOM     78  C   UNL A   1      43.993  34.444  28.122  1.00  0.00     0.173 A 
ATOM     79  C   UNL A   1      44.341  35.576  30.200  1.00  0.00     0.173 A 
ATOM     80  F   UNL A   1      43.457  33.460  27.386  1.00  0.00    -0.203 F 
ATOM     81  C   UNL A   1      44.698  35.454  27.457  1.00  0.00     0.198 A 
ATOM     82  C   UNL A   1      45.045  36.583  29.534  1.00  0.00     0.198 A 
ATOM     83  F   UNL A   1      44.131  35.735  31.514  1.00  0.00    -0.203 F 
ATOM     84  F   UNL A   1      44.823  35.415  26.123  1.00  0.00    -0.200 F 
ATOM     85  C   UNL A   1      45.209  36.530  28.161  1.00  0.00     0.200 A 
ATOM     86  F   UNL A   1      45.502  37.640  30.221  1.00  0.00    -0.200 F 
ATOM     87  F   UNL A   1      45.818  37.535  27.517  1.00  0.00    -0.200 F 
ENDBRANCH  53  77
BRANCH  65  88
ATOM     88  C   UNL A   1      41.376  30.840  33.962  1.00  0.00     0.064 A 
ATOM     89  C   UNL A   1      40.414  31.835  34.201  1.00  0.00     0.173 A 
ATOM     90  C   UNL A   1      42.190  30.456  35.035  1.00  0.00     0.173 A 
ATOM     91  F   UNL A   1      39.546  32.198  33.251  1.00  0.00    -0.203 F 
ATOM     92  C   UNL A   1      40.305  32.445  35.449  1.00  0.00     0.198 A 
ATOM     93  C   UNL A   1      42.054  31.039  36.289  1.00  0.00     0.198 A 
ATOM     94  F   UNL A   1      43.096  29.478  34.872  1.00  0.00    -0.203 F 
ATOM     95  F   UNL A   1      39.391  33.407  35.650  1.00  0.00    -0.200 F 
ATOM     96  C   UNL A   1      41.121  32.042  36.493  1.00  0.00     0.200 A 
ATOM     97  F   UNL A   1      42.816  30.612  37.305  1.00  0.00    -0.200 F 
ATOM     98  F   UNL A   1      40.993  32.604  37.704  1.00  0.00    -0.200 F 
ENDBRANCH  65  88
ENDBRANCH  39  40
ENDBRANCH  31  34
ENDBRANCH  29  30
ENDBRANCH  28  29
ENDBRANCH   1  28
TORSDOF 13
ENDMDL
MODEL 3
REMARK VINA RESULT:     -13.4      0.674      2.027
REMARK SMILES C/C(=N\NC(N)=O)c1nnn(-c2ccc(C(=O)NCCCNC(=O)c3ccc(-c4c5nc(c(-c6c(F)c(F)c(F)c(F)c6F)c6ccc([nH]6)c(-c6c(F)c(F)c(F)c(F)c6F)c6nc(c(-c7c(F)c(F)c(F)c(F)c7F)c7ccc4[nH]7)C=C6)C=C5)cc3)cc2)c1C
REMARK SMILES IDX 19 1 18 2 16 3 17 4 15 6 12 7 13 8 89 9 14 10 88 11 11 12
REMARK SMILES IDX 8 13 9 14 90 15 10 16 91 17 2 18 1 19 3 20 4 21 5 22 6 24
REMARK SMILES IDX 7 25 20 28 21 29 22 30 23 31 24 33 25 34 26 35 87 36 27 37
REMARK SMILES IDX 86 38 28 39 29 40 30 41 80 42 31 43 85 44 79 45 81 46 32 47
REMARK SMILES IDX 84 48 78 49 77 50 33 52 65 53 45 54 64 55 46 56 49 57 63 58
REMARK SMILES IDX 82 59 47 60 48 61 62 63 83 64 50 65 34 66 35 67 43 68 36 69
REMARK SMILES IDX 37 70 41 71 44 72 38 73 39 74 42 75 40 76 66 77 67 78 75 79
REMARK SMILES IDX 68 80 69 81 73 82 76 83 70 84 71 85 74 86 72 87 51 88 52 89
REMARK SMILES IDX 60 90 53 91 54 92 58 93 61 94 55 95 56 96 59 97 57 98
REMARK H PARENT 18 5 4 23 6 26 6 27 22 32 81 51 49 62
REMARK Flexibility Score: inf
ROOT
ATOM      1  C   UNL A   1      36.425  20.459  25.010  1.00  0.00     0.118 C 
ENDROOT
BRANCH   1   2
ATOM      2  N   UNL A   1      35.302  19.529  25.014  1.00  0.00    -0.352 N 
ATOM      3  C   UNL A   1      33.949  19.720  25.188  1.00  0.00     0.251 C 
ATOM      4  O   UNL A   1      33.206  18.751  25.028  1.00  0.00    -0.269 OA
ATOM      5  H   UNL A   1      35.558  18.590  24.867  1.00  0.00     0.163 HD
BRANCH   3   6
ATOM      6  C   UNL A   1      33.353  21.052  25.497  1.00  0.00     0.039 A 
ATOM      7  C   UNL A   1      32.400  23.653  25.823  1.00  0.00     0.067 A 
ATOM      8  C   UNL A   1      31.878  22.864  24.796  1.00  0.00     0.029 A 
ATOM      9  C   UNL A   1      33.286  23.122  26.754  1.00  0.00     0.029 A 
ATOM     10  C   UNL A   1      32.384  21.570  24.620  1.00  0.00     0.016 A 
ATOM     11  C   UNL A   1      33.716  21.810  26.610  1.00  0.00     0.016 A 
BRANCH   7  12
ATOM     12  N   UNL A   1      32.122  25.026  25.877  1.00  0.00    -0.217 N 
ATOM     13  C   UNL A   1      31.924  27.142  25.440  1.00  0.00     0.132 A 
ATOM     14  N   UNL A   1      31.268  26.869  26.612  1.00  0.00    -0.128 NA
ATOM     15  C   UNL A   1      32.477  25.978  24.940  1.00  0.00     0.071 A 
ATOM     16  N   UNL A   1      31.331  25.562  26.826  1.00  0.00    -0.061 NA
ATOM     17  C   UNL A   1      33.123  25.684  23.637  1.00  0.00     0.069 C 
BRANCH  13  18
ATOM     18  C   UNL A   1      31.784  28.410  24.747  1.00  0.00     0.087 C 
ATOM     19  C   UNL A   1      33.074  29.155  24.524  1.00  0.00     0.071 C 
ATOM     20  N   UNL A   1      30.577  28.724  24.381  1.00  0.00    -0.174 NA
BRANCH  20  21
ATOM     21  N   UNL A   1      30.267  29.884  23.726  1.00  0.00    -0.229 N 
ATOM     22  C   UNL A   1      29.910  30.054  22.409  1.00  0.00     0.332 C 
ATOM     23  H   UNL A   1      30.304  30.704  24.269  1.00  0.00     0.195 HD
ATOM     24  N   UNL A   1      29.613  31.351  22.114  1.00  0.00    -0.350 N 
ATOM     25  O   UNL A   1      29.829  29.198  21.535  1.00  0.00    -0.247 OA
ATOM     26  H   UNL A   1      29.677  32.042  22.813  1.00  0.00     0.161 HD
ATOM     27  H   UNL A   1      29.335  31.598  21.203  1.00  0.00     0.161 HD
ENDBRANCH  20  21
ENDBRANCH  13  18
ENDBRANCH   7  12
ENDBRANCH   3   6
ENDBRANCH   1   2
BRANCH   1  28
ATOM     28  C   UNL A   1      37.759  19.756  24.709  1.00  0.00     0.042 C 
BRANCH  28  29
ATOM     29  C   UNL A   1      38.870  20.204  25.637  1.00  0.00     0.118 C 
BRANCH  29  30
ATOM     30  N   UNL A   1      39.920  19.190  25.787  1.00  0.00    -0.352 N 
ATOM     31  C   UNL A   1      41.269  19.383  26.001  1.00  0.00     0.251 C 
ATOM     32  H   UNL A   1      39.625  18.252  25.727  1.00  0.00     0.163 HD
ATOM     33  O   UNL A   1      42.083  18.490  25.752  1.00  0.00    -0.269 OA
BRANCH  31  34
ATOM     34  C   UNL A   1      41.724  20.671  26.541  1.00  0.00     0.039 A 
ATOM     35  C   UNL A   1      42.275  21.674  25.737  1.00  0.00     0.014 A 
ATOM     36  C   UNL A   1      41.543  20.874  27.904  1.00  0.00     0.014 A 
ATOM     37  C   UNL A   1      42.574  22.906  26.317  1.00  0.00     0.010 A 
ATOM     38  C   UNL A   1      41.607  22.137  28.410  1.00  0.00     0.010 A 
ATOM     39  C   UNL A   1      42.220  23.126  27.656  1.00  0.00    -0.014 A 
BRANCH  39  40
ATOM     40  C   UNL A   1      42.357  24.423  28.303  1.00  0.00     0.031 A 
ATOM     41  C   UNL A   1      41.184  25.305  28.086  1.00  0.00     0.074 A 
ATOM     42  C   UNL A   1      43.316  24.641  29.234  1.00  0.00     0.049 A 
ATOM     43  N   UNL A   1      41.133  26.393  27.393  1.00  0.00    -0.248 NA
ATOM     44  C   UNL A   1      39.862  24.829  28.532  1.00  0.00     0.031 C 
ATOM     45  C   UNL A   1      44.308  23.679  29.742  1.00  0.00     0.029 A 
ATOM     46  N   UNL A   1      43.540  25.730  30.021  1.00  0.00    -0.354 N 
ATOM     47  C   UNL A   1      39.828  26.865  27.531  1.00  0.00     0.074 A 
ATOM     48  C   UNL A   1      39.054  25.757  28.013  1.00  0.00     0.031 C 
ATOM     49  C   UNL A   1      44.854  24.139  30.888  1.00  0.00     0.029 A 
ATOM     50  C   UNL A   1      44.389  25.494  31.104  1.00  0.00     0.049 A 
ATOM     51  H   UNL A   1      43.135  26.609  29.842  1.00  0.00     0.167 HD
ATOM     52  C   UNL A   1      39.591  28.207  27.572  1.00  0.00     0.037 A 
ATOM     53  C   UNL A   1      44.672  26.358  32.111  1.00  0.00     0.037 A 
ATOM     54  C   UNL A   1      40.769  28.922  27.138  1.00  0.00     0.049 A 
ATOM     55  C   UNL A   1      44.306  27.708  31.628  1.00  0.00     0.074 A 
ATOM     56  C   UNL A   1      41.452  29.105  25.956  1.00  0.00     0.029 A 
ATOM     57  N   UNL A   1      41.630  29.231  28.159  1.00  0.00    -0.354 N 
ATOM     58  N   UNL A   1      44.937  28.321  30.666  1.00  0.00    -0.248 NA
ATOM     59  C   UNL A   1      42.981  28.227  31.940  1.00  0.00     0.031 C 
ATOM     60  C   UNL A   1      42.820  29.290  26.324  1.00  0.00     0.029 A 
ATOM     61  C   UNL A   1      42.920  29.282  27.716  1.00  0.00     0.049 A 
ATOM     62  H   UNL A   1      41.354  29.395  29.090  1.00  0.00     0.167 HD
ATOM     63  C   UNL A   1      43.942  28.987  29.974  1.00  0.00     0.074 A 
ATOM     64  C   UNL A   1      42.808  29.036  30.891  1.00  0.00     0.031 C 
ATOM     65  C   UNL A   1      44.037  29.137  28.620  1.00  0.00     0.037 A 
BRANCH  52  66
ATOM     66  C   UNL A   1      38.577  28.893  28.481  1.00  0.00     0.064 A 
ATOM     67  C   UNL A   1      37.736  29.879  27.913  1.00  0.00     0.173 A 
ATOM     68  C   UNL A   1      38.615  28.887  29.892  1.00  0.00     0.173 A 
ATOM     69  F   UNL A   1      37.607  29.984  26.582  1.00  0.00    -0.203 F 
ATOM     70  C   UNL A   1      37.090  30.846  28.691  1.00  0.00     0.198 A 
ATOM     71  C   UNL A   1      37.931  29.826  30.666  1.00  0.00     0.198 A 
ATOM     72  F   UNL A   1      39.387  28.052  30.592  1.00  0.00    -0.203 F 
ATOM     73  F   UNL A   1      36.419  31.841  28.094  1.00  0.00    -0.200 F 
ATOM     74  C   UNL A   1      37.200  30.827  30.067  1.00  0.00     0.200 A 
ATOM     75  F   UNL A   1      38.064  29.798  32.000  1.00  0.00    -0.200 F 
ATOM     76  F   UNL A   1      36.643  31.791  30.812  1.00  0.00    -0.200 F 
ENDBRANCH  52  66
BRANCH  53  77
ATOM     77  C   UNL A   1      45.011  26.102  33.531  1.00  0.00     0.064 A 
ATOM     78  C   UNL A   1      46.310  26.325  34.022  1.00  0.00     0.173 A 
ATOM     79  C   UNL A   1      43.998  25.933  34.494  1.00  0.00     0.173 A 
ATOM     80  F   UNL A   1      47.325  26.532  33.172  1.00  0.00    -0.203 F 
ATOM     81  C   UNL A   1      46.572  26.416  35.394  1.00  0.00     0.198 A 
ATOM     82  C   UNL A   1      44.262  26.024  35.863  1.00  0.00     0.198 A 
ATOM     83  F   UNL A   1      42.721  25.781  34.120  1.00  0.00    -0.203 F 
ATOM     84  F   UNL A   1      47.810  26.701  35.822  1.00  0.00    -0.200 F 
ATOM     85  C   UNL A   1      45.545  26.281  36.312  1.00  0.00     0.200 A 
ATOM     86  F   UNL A   1      43.253  25.931  36.741  1.00  0.00    -0.200 F 
ATOM     87  F   UNL A   1      45.780  26.444  37.622  1.00  0.00    -0.200 F 
ENDBRANCH  53  77
BRANCH  65  88
ATOM     88  C   UNL A   1      45.400  28.980  28.014  1.00  0.00     0.064 A 
ATOM     89  C   UNL A   1      46.411  29.954  28.052  1.00  0.00     0.173 A 
ATOM     90  C   UNL A   1      45.717  27.741  27.444  1.00  0.00     0.173 A 
ATOM     91  F   UNL A   1      46.212  31.133  28.652  1.00  0.00    -0.203 F 
ATOM     92  C   UNL A   1      47.668  29.709  27.502  1.00  0.00     0.198 A 
ATOM     93  C   UNL A   1      46.984  27.485  26.931  1.00  0.00     0.198 A 
ATOM     94  F   UNL A   1      44.802  26.759  27.424  1.00  0.00    -0.203 F 
ATOM     95  F   UNL A   1      48.613  30.661  27.531  1.00  0.00    -0.200 F 
ATOM     96  C   UNL A   1      47.955  28.472  26.948  1.00  0.00     0.200 A 
ATOM     97  F   UNL A   1      47.266  26.272  26.438  1.00  0.00    -0.200 F 
ATOM     98  F   UNL A   1      49.174  28.223  26.451  1.00  0.00    -0.200 F 
ENDBRANCH  65  88
ENDBRANCH  39  40
ENDBRANCH  31  34
ENDBRANCH  29  30
ENDBRANCH  28  29
ENDBRANCH   1  28
TORSDOF 13
ENDMDL
