MODEL 1
REMARK VINA RESULT:     -11.7      0.000      0.000
REMARK SMILES CCC(CC)(NC(=O)NCCc1nccs1)C(=O)NCCCNC(=O)c1ccc(-c2c3nc(c(-c4c(F)c(F)c(F)c(F)c4F)c4ccc([nH]4)c(-c4c(F)c(F)c(F)c(F)c4F)c4nc(c(-c5c(F)c(F)c(F)c(F)c5F)c5ccc2[nH]5)C=C4)C=C3)cc1
REMARK SMILES IDX 20 1 19 2 17 3 18 4 3 6 2 7 1 8 4 9 5 10 6 11 7 12 8 14 9 15
REMARK SMILES IDX 10 17 11 18 12 19 13 20 16 21 14 22 15 23 21 24 22 25 23 26
REMARK SMILES IDX 24 27 25 29 26 30 27 31 88 32 28 33 87 34 29 35 30 36 31 37
REMARK SMILES IDX 81 38 32 39 86 40 80 41 82 42 33 43 85 44 79 45 78 46 34 48
REMARK SMILES IDX 66 49 46 50 65 51 47 52 50 53 64 54 83 55 48 56 49 57 63 59
REMARK SMILES IDX 84 60 51 61 35 62 36 63 44 64 37 65 38 66 42 67 45 68 39 69
REMARK SMILES IDX 40 70 43 71 41 72 67 73 68 74 76 75 69 76 70 77 74 78 77 79
REMARK SMILES IDX 71 80 72 81 75 82 73 83 52 84 53 85 61 86 54 87 55 88 59 89
REMARK SMILES IDX 62 90 56 91 57 92 60 93 58 94
REMARK H PARENT 19 5 6 13 9 16 23 28 82 47 50 58
REMARK Flexibility Score: inf
ROOT
ATOM      1  C   UNL A   1      31.916  30.201  26.215  1.00  0.00     0.117 C 
ENDROOT
BRANCH   1   2
ATOM      2  N   UNL A   1      32.886  29.910  25.162  1.00  0.00    -0.354 N 
ATOM      3  C   UNL A   1      33.191  28.766  24.455  1.00  0.00     0.245 C 
ATOM      4  O   UNL A   1      33.895  28.915  23.450  1.00  0.00    -0.272 OA
ATOM      5  H   UNL A   1      33.431  30.688  24.904  1.00  0.00     0.163 HD
BRANCH   3   6
ATOM      6  C   UNL A   1      32.582  27.384  24.821  1.00  0.00     0.120 C 
BRANCH   6   7
ATOM      7  C   UNL A   1      31.186  27.362  25.508  1.00  0.00     0.035 C 
ATOM      8  C   UNL A   1      30.688  26.048  26.095  1.00  0.00     0.007 C 
ENDBRANCH   6   7
BRANCH   6   9
ATOM      9  C   UNL A   1      33.646  26.764  25.801  1.00  0.00     0.035 C 
ATOM     10  C   UNL A   1      34.314  25.461  25.394  1.00  0.00     0.007 C 
ENDBRANCH   6   9
BRANCH   6  11
ATOM     11  N   UNL A   1      32.451  26.624  23.558  1.00  0.00    -0.324 N 
ATOM     12  C   UNL A   1      31.733  26.750  22.433  1.00  0.00     0.315 C 
ATOM     13  H   UNL A   1      33.035  25.832  23.540  1.00  0.00     0.166 HD
ATOM     14  O   UNL A   1      31.781  25.794  21.652  1.00  0.00    -0.249 OA
ATOM     15  N   UNL A   1      31.062  27.832  22.022  1.00  0.00    -0.338 N 
ATOM     16  H   UNL A   1      30.940  27.820  21.044  1.00  0.00     0.165 HD
BRANCH  15  17
ATOM     17  C   UNL A   1      30.456  29.028  22.611  1.00  0.00     0.125 C 
BRANCH  17  18
ATOM     18  C   UNL A   1      28.934  29.155  22.485  1.00  0.00     0.089 C 
BRANCH  18  19
ATOM     19  C   UNL A   1      28.440  30.433  21.871  1.00  0.00     0.094 A 
ATOM     20  N   UNL A   1      28.068  30.580  20.614  1.00  0.00    -0.250 NA
ATOM     21  S   UNL A   1      28.491  31.892  22.793  1.00  0.00    -0.127 S 
ATOM     22  C   UNL A   1      27.824  31.918  20.354  1.00  0.00     0.123 A 
ATOM     23  C   UNL A   1      28.018  32.779  21.410  1.00  0.00     0.087 A 
ENDBRANCH  18  19
ENDBRANCH  17  18
ENDBRANCH  15  17
ENDBRANCH   6  11
ENDBRANCH   3   6
ENDBRANCH   1   2
BRANCH   1  24
ATOM     24  C   UNL A   1      31.664  31.658  26.608  1.00  0.00     0.042 C 
BRANCH  24  25
ATOM     25  C   UNL A   1      32.816  32.480  27.160  1.00  0.00     0.118 C 
BRANCH  25  26
ATOM     26  N   UNL A   1      32.448  33.833  27.532  1.00  0.00    -0.352 N 
ATOM     27  C   UNL A   1      33.008  34.653  28.484  1.00  0.00     0.251 C 
ATOM     28  H   UNL A   1      31.692  34.218  27.034  1.00  0.00     0.163 HD
ATOM     29  O   UNL A   1      32.510  35.746  28.722  1.00  0.00    -0.269 OA
BRANCH  27  30
ATOM     30  C   UNL A   1      34.191  34.203  29.252  1.00  0.00     0.039 A 
ATOM     31  C   UNL A   1      33.991  33.469  30.423  1.00  0.00     0.014 A 
ATOM     32  C   UNL A   1      35.488  34.502  28.826  1.00  0.00     0.014 A 
ATOM     33  C   UNL A   1      35.091  32.974  31.129  1.00  0.00     0.010 A 
ATOM     34  C   UNL A   1      36.586  33.970  29.507  1.00  0.00     0.010 A 
ATOM     35  C   UNL A   1      36.399  33.187  30.656  1.00  0.00    -0.014 A 
BRANCH  35  36
ATOM     36  C   UNL A   1      37.558  32.518  31.306  1.00  0.00     0.031 A 
ATOM     37  C   UNL A   1      38.261  31.360  30.654  1.00  0.00     0.074 A 
ATOM     38  C   UNL A   1      37.944  32.926  32.531  1.00  0.00     0.049 A 
ATOM     39  N   UNL A   1      39.272  30.653  31.094  1.00  0.00    -0.248 NA
ATOM     40  C   UNL A   1      37.752  30.930  29.344  1.00  0.00     0.031 C 
ATOM     41  C   UNL A   1      37.313  34.001  33.297  1.00  0.00     0.029 A 
ATOM     42  N   UNL A   1      38.951  32.481  33.353  1.00  0.00    -0.354 N 
ATOM     43  C   UNL A   1      39.521  29.695  30.119  1.00  0.00     0.074 A 
ATOM     44  C   UNL A   1      38.524  29.882  29.086  1.00  0.00     0.031 C 
ATOM     45  C   UNL A   1      37.955  34.146  34.465  1.00  0.00     0.029 A 
ATOM     46  C   UNL A   1      39.019  33.149  34.551  1.00  0.00     0.049 A 
ATOM     47  H   UNL A   1      39.564  31.751  33.108  1.00  0.00     0.167 HD
ATOM     48  C   UNL A   1      40.503  28.761  30.082  1.00  0.00     0.037 A 
ATOM     49  C   UNL A   1      39.835  32.976  35.608  1.00  0.00     0.037 A 
ATOM     50  C   UNL A   1      41.496  28.577  31.112  1.00  0.00     0.049 A 
ATOM     51  C   UNL A   1      40.896  31.910  35.553  1.00  0.00     0.074 A 
ATOM     52  C   UNL A   1      42.568  27.700  31.131  1.00  0.00     0.029 A 
ATOM     53  N   UNL A   1      41.531  29.271  32.314  1.00  0.00    -0.354 N 
ATOM     54  N   UNL A   1      41.180  31.072  34.586  1.00  0.00    -0.248 NA
ATOM     55  C   UNL A   1      41.754  31.768  36.738  1.00  0.00     0.031 C 
ATOM     56  C   UNL A   1      43.212  27.817  32.368  1.00  0.00     0.029 A 
ATOM     57  C   UNL A   1      42.582  28.814  33.095  1.00  0.00     0.049 A 
ATOM     58  H   UNL A   1      40.902  29.983  32.573  1.00  0.00     0.167 HD
ATOM     59  C   UNL A   1      42.259  30.322  35.033  1.00  0.00     0.074 A 
ATOM     60  C   UNL A   1      42.596  30.821  36.350  1.00  0.00     0.031 C 
ATOM     61  C   UNL A   1      42.911  29.311  34.408  1.00  0.00     0.037 A 
BRANCH  48  62
ATOM     62  C   UNL A   1      40.559  27.852  28.886  1.00  0.00     0.064 A 
ATOM     63  C   UNL A   1      39.808  26.668  28.825  1.00  0.00     0.173 A 
ATOM     64  C   UNL A   1      41.326  28.197  27.761  1.00  0.00     0.173 A 
ATOM     65  F   UNL A   1      39.061  26.287  29.872  1.00  0.00    -0.203 F 
ATOM     66  C   UNL A   1      39.846  25.850  27.697  1.00  0.00     0.198 A 
ATOM     67  C   UNL A   1      41.335  27.394  26.623  1.00  0.00     0.198 A 
ATOM     68  F   UNL A   1      42.054  29.324  27.758  1.00  0.00    -0.203 F 
ATOM     69  F   UNL A   1      39.157  24.701  27.682  1.00  0.00    -0.200 F 
ATOM     70  C   UNL A   1      40.602  26.218  26.595  1.00  0.00     0.200 A 
ATOM     71  F   UNL A   1      42.053  27.760  25.552  1.00  0.00    -0.200 F 
ATOM     72  F   UNL A   1      40.628  25.435  25.507  1.00  0.00    -0.200 F 
ENDBRANCH  48  62
BRANCH  49  73
ATOM     73  C   UNL A   1      39.691  33.842  36.807  1.00  0.00     0.064 A 
ATOM     74  C   UNL A   1      38.897  33.445  37.892  1.00  0.00     0.173 A 
ATOM     75  C   UNL A   1      40.337  35.085  36.891  1.00  0.00     0.173 A 
ATOM     76  F   UNL A   1      38.242  32.276  37.849  1.00  0.00    -0.203 F 
ATOM     77  C   UNL A   1      38.734  34.269  39.005  1.00  0.00     0.198 A 
ATOM     78  C   UNL A   1      40.200  35.892  38.019  1.00  0.00     0.198 A 
ATOM     79  F   UNL A   1      41.111  35.511  35.883  1.00  0.00    -0.203 F 
ATOM     80  F   UNL A   1      37.927  33.888  40.003  1.00  0.00    -0.200 F 
ATOM     81  C   UNL A   1      39.391  35.488  39.070  1.00  0.00     0.200 A 
ATOM     82  F   UNL A   1      40.849  37.062  38.085  1.00  0.00    -0.200 F 
ATOM     83  F   UNL A   1      39.238  36.276  40.143  1.00  0.00    -0.200 F 
ENDBRANCH  49  73
BRANCH  61  84
ATOM     84  C   UNL A   1      44.072  28.687  35.131  1.00  0.00     0.064 A 
ATOM     85  C   UNL A   1      45.375  29.194  35.010  1.00  0.00     0.173 A 
ATOM     86  C   UNL A   1      43.875  27.585  35.979  1.00  0.00     0.173 A 
ATOM     87  F   UNL A   1      45.622  30.235  34.200  1.00  0.00    -0.203 F 
ATOM     88  C   UNL A   1      46.440  28.604  35.688  1.00  0.00     0.198 A 
ATOM     89  C   UNL A   1      44.936  27.021  36.682  1.00  0.00     0.198 A 
ATOM     90  F   UNL A   1      42.649  27.064  36.137  1.00  0.00    -0.203 F 
ATOM     91  F   UNL A   1      47.684  29.072  35.514  1.00  0.00    -0.200 F 
ATOM     92  C   UNL A   1      46.218  27.525  36.528  1.00  0.00     0.200 A 
ATOM     93  F   UNL A   1      44.717  25.987  37.506  1.00  0.00    -0.200 F 
ATOM     94  F   UNL A   1      47.243  26.964  37.186  1.00  0.00    -0.200 F 
ENDBRANCH  61  84
ENDBRANCH  35  36
ENDBRANCH  27  30
ENDBRANCH  25  26
ENDBRANCH  24  25
ENDBRANCH   1  24
TORSDOF 16
ENDMDL
MODEL 2
REMARK VINA RESULT:     -11.6      0.400      7.350
REMARK SMILES CCC(CC)(NC(=O)NCCc1nccs1)C(=O)NCCCNC(=O)c1ccc(-c2c3nc(c(-c4c(F)c(F)c(F)c(F)c4F)c4ccc([nH]4)c(-c4c(F)c(F)c(F)c(F)c4F)c4nc(c(-c5c(F)c(F)c(F)c(F)c5F)c5ccc2[nH]5)C=C4)C=C3)cc1
REMARK SMILES IDX 20 1 19 2 17 3 18 4 3 6 2 7 1 8 4 9 5 10 6 11 7 12 8 14 9 15
REMARK SMILES IDX 10 17 11 18 12 19 13 20 16 21 14 22 15 23 21 24 22 25 23 26
REMARK SMILES IDX 24 27 25 29 26 30 27 31 88 32 28 33 87 34 29 35 30 36 31 37
REMARK SMILES IDX 81 38 32 39 86 40 80 41 82 42 33 43 85 44 79 45 78 46 34 48
REMARK SMILES IDX 66 49 46 50 65 51 47 52 50 53 64 54 83 55 48 56 49 57 63 59
REMARK SMILES IDX 84 60 51 61 35 62 36 63 44 64 37 65 38 66 42 67 45 68 39 69
REMARK SMILES IDX 40 70 43 71 41 72 67 73 68 74 76 75 69 76 70 77 74 78 77 79
REMARK SMILES IDX 71 80 72 81 75 82 73 83 52 84 53 85 61 86 54 87 55 88 59 89
REMARK SMILES IDX 62 90 56 91 57 92 60 93 58 94
REMARK H PARENT 19 5 6 13 9 16 23 28 82 47 50 58
REMARK Flexibility Score: inf
ROOT
ATOM      1  C   UNL A   1      31.817  30.284  26.090  1.00  0.00     0.117 C 
ENDROOT
BRANCH   1   2
ATOM      2  N   UNL A   1      32.795  29.961  25.053  1.00  0.00    -0.354 N 
ATOM      3  C   UNL A   1      33.130  28.788  24.409  1.00  0.00     0.245 C 
ATOM      4  O   UNL A   1      33.830  28.900  23.397  1.00  0.00    -0.272 OA
ATOM      5  H   UNL A   1      33.319  30.737  24.752  1.00  0.00     0.163 HD
BRANCH   3   6
ATOM      6  C   UNL A   1      32.558  27.413  24.852  1.00  0.00     0.120 C 
BRANCH   6   7
ATOM      7  C   UNL A   1      31.217  27.401  25.642  1.00  0.00     0.035 C 
ATOM      8  C   UNL A   1      30.664  26.062  26.112  1.00  0.00     0.007 C 
ENDBRANCH   6   7
BRANCH   6   9
ATOM      9  C   UNL A   1      33.696  26.820  25.764  1.00  0.00     0.035 C 
ATOM     10  C   UNL A   1      34.363  25.528  25.320  1.00  0.00     0.007 C 
ENDBRANCH   6   9
BRANCH   6  11
ATOM     11  N   UNL A   1      32.337  26.623  23.621  1.00  0.00    -0.324 N 
ATOM     12  C   UNL A   1      31.441  26.631  22.623  1.00  0.00     0.315 C 
ATOM     13  H   UNL A   1      33.015  25.919  23.505  1.00  0.00     0.166 HD
ATOM     14  O   UNL A   1      31.498  25.679  21.838  1.00  0.00    -0.249 OA
ATOM     15  N   UNL A   1      30.570  27.604  22.330  1.00  0.00    -0.338 N 
ATOM     16  H   UNL A   1      30.300  27.561  21.384  1.00  0.00     0.165 HD
BRANCH  15  17
ATOM     17  C   UNL A   1      29.905  28.713  23.016  1.00  0.00     0.125 C 
BRANCH  17  18
ATOM     18  C   UNL A   1      28.445  28.977  22.631  1.00  0.00     0.089 C 
BRANCH  18  19
ATOM     19  C   UNL A   1      28.174  30.306  21.988  1.00  0.00     0.094 A 
ATOM     20  N   UNL A   1      28.047  30.514  20.692  1.00  0.00    -0.250 NA
ATOM     21  S   UNL A   1      28.176  31.734  22.960  1.00  0.00    -0.127 S 
ATOM     22  C   UNL A   1      27.963  31.874  20.443  1.00  0.00     0.123 A 
ATOM     23  C   UNL A   1      28.033  32.689  21.550  1.00  0.00     0.087 A 
ENDBRANCH  18  19
ENDBRANCH  17  18
ENDBRANCH  15  17
ENDBRANCH   6  11
ENDBRANCH   3   6
ENDBRANCH   1   2
BRANCH   1  24
ATOM     24  C   UNL A   1      31.630  31.745  26.502  1.00  0.00     0.042 C 
BRANCH  24  25
ATOM     25  C   UNL A   1      32.776  32.469  27.185  1.00  0.00     0.118 C 
BRANCH  25  26
ATOM     26  N   UNL A   1      32.467  33.835  27.564  1.00  0.00    -0.352 N 
ATOM     27  C   UNL A   1      33.065  34.627  28.516  1.00  0.00     0.251 C 
ATOM     28  H   UNL A   1      31.726  34.253  27.071  1.00  0.00     0.163 HD
ATOM     29  O   UNL A   1      32.615  35.740  28.760  1.00  0.00    -0.269 OA
BRANCH  27  30
ATOM     30  C   UNL A   1      34.232  34.126  29.277  1.00  0.00     0.039 A 
ATOM     31  C   UNL A   1      34.006  33.384  30.438  1.00  0.00     0.014 A 
ATOM     32  C   UNL A   1      35.538  34.383  28.854  1.00  0.00     0.014 A 
ATOM     33  C   UNL A   1      35.088  32.841  31.137  1.00  0.00     0.010 A 
ATOM     34  C   UNL A   1      36.617  33.804  29.527  1.00  0.00     0.010 A 
ATOM     35  C   UNL A   1      36.403  33.013  30.665  1.00  0.00    -0.014 A 
BRANCH  35  36
ATOM     36  C   UNL A   1      37.538  32.294  31.306  1.00  0.00     0.031 A 
ATOM     37  C   UNL A   1      38.035  32.677  32.672  1.00  0.00     0.074 A 
ATOM     38  C   UNL A   1      38.166  31.321  30.617  1.00  0.00     0.049 A 
ATOM     39  N   UNL A   1      39.025  32.168  33.364  1.00  0.00    -0.248 NA
ATOM     40  C   UNL A   1      37.341  33.785  33.343  1.00  0.00     0.031 C 
ATOM     41  C   UNL A   1      37.817  30.890  29.263  1.00  0.00     0.029 A 
ATOM     42  N   UNL A   1      39.233  30.524  30.954  1.00  0.00    -0.354 N 
ATOM     43  C   UNL A   1      39.075  32.892  34.548  1.00  0.00     0.074 A 
ATOM     44  C   UNL A   1      38.046  33.907  34.460  1.00  0.00     0.031 C 
ATOM     45  C   UNL A   1      38.640  29.898  28.891  1.00  0.00     0.029 A 
ATOM     46  C   UNL A   1      39.599  29.647  29.963  1.00  0.00     0.049 A 
ATOM     47  H   UNL A   1      39.692  30.578  31.823  1.00  0.00     0.167 HD
ATOM     48  C   UNL A   1      39.890  32.712  35.616  1.00  0.00     0.037 A 
ATOM     49  C   UNL A   1      40.602  28.749  29.912  1.00  0.00     0.037 A 
ATOM     50  C   UNL A   1      40.915  31.700  35.701  1.00  0.00     0.049 A 
ATOM     51  C   UNL A   1      41.513  28.593  31.100  1.00  0.00     0.074 A 
ATOM     52  C   UNL A   1      41.746  31.401  36.768  1.00  0.00     0.029 A 
ATOM     53  N   UNL A   1      41.260  30.832  34.675  1.00  0.00    -0.354 N 
ATOM     54  N   UNL A   1      41.490  29.220  32.250  1.00  0.00    -0.248 NA
ATOM     55  C   UNL A   1      42.588  27.597  30.982  1.00  0.00     0.031 C 
ATOM     56  C   UNL A   1      42.635  30.398  36.366  1.00  0.00     0.029 A 
ATOM     57  C   UNL A   1      42.316  30.024  35.071  1.00  0.00     0.049 A 
ATOM     58  H   UNL A   1      40.819  30.795  33.794  1.00  0.00     0.167 HD
ATOM     59  C   UNL A   1      42.527  28.683  33.000  1.00  0.00     0.074 A 
ATOM     60  C   UNL A   1      43.146  27.659  32.183  1.00  0.00     0.031 C 
ATOM     61  C   UNL A   1      42.931  29.009  34.252  1.00  0.00     0.037 A 
BRANCH  48  62
ATOM     62  C   UNL A   1      39.717  33.633  36.791  1.00  0.00     0.064 A 
ATOM     63  C   UNL A   1      40.370  34.873  36.858  1.00  0.00     0.173 A 
ATOM     64  C   UNL A   1      38.841  33.300  37.837  1.00  0.00     0.173 A 
ATOM     65  F   UNL A   1      41.221  35.241  35.889  1.00  0.00    -0.203 F 
ATOM     66  C   UNL A   1      40.177  35.731  37.939  1.00  0.00     0.198 A 
ATOM     67  C   UNL A   1      38.625  34.174  38.900  1.00  0.00     0.198 A 
ATOM     68  F   UNL A   1      38.180  32.132  37.821  1.00  0.00    -0.203 F 
ATOM     69  F   UNL A   1      40.849  36.888  38.002  1.00  0.00    -0.200 F 
ATOM     70  C   UNL A   1      39.299  35.384  38.954  1.00  0.00     0.200 A 
ATOM     71  F   UNL A   1      37.763  33.845  39.872  1.00  0.00    -0.200 F 
ATOM     72  F   UNL A   1      39.106  36.215  39.988  1.00  0.00    -0.200 F 
ENDBRANCH  48  62
BRANCH  49  73
ATOM     73  C   UNL A   1      40.790  27.916  28.696  1.00  0.00     0.064 A 
ATOM     74  C   UNL A   1      40.095  26.709  28.533  1.00  0.00     0.173 A 
ATOM     75  C   UNL A   1      41.675  28.302  27.677  1.00  0.00     0.173 A 
ATOM     76  F   UNL A   1      39.256  26.286  29.489  1.00  0.00    -0.203 F 
ATOM     77  C   UNL A   1      40.293  25.910  27.408  1.00  0.00     0.198 A 
ATOM     78  C   UNL A   1      41.847  27.518  26.538  1.00  0.00     0.198 A 
ATOM     79  F   UNL A   1      42.362  29.448  27.781  1.00  0.00    -0.203 F 
ATOM     80  F   UNL A   1      39.655  24.737  27.304  1.00  0.00    -0.200 F 
ATOM     81  C   UNL A   1      41.164  26.318  26.409  1.00  0.00     0.200 A 
ATOM     82  F   UNL A   1      42.676  27.924  25.567  1.00  0.00    -0.200 F 
ATOM     83  F   UNL A   1      41.349  25.551  25.326  1.00  0.00    -0.200 F 
ENDBRANCH  49  73
BRANCH  61  84
ATOM     84  C   UNL A   1      44.085  28.238  34.828  1.00  0.00     0.064 A 
ATOM     85  C   UNL A   1      45.408  28.690  34.709  1.00  0.00     0.173 A 
ATOM     86  C   UNL A   1      43.862  27.045  35.535  1.00  0.00     0.173 A 
ATOM     87  F   UNL A   1      45.678  29.815  34.030  1.00  0.00    -0.203 F 
ATOM     88  C   UNL A   1      46.466  27.963  35.251  1.00  0.00     0.198 A 
ATOM     89  C   UNL A   1      44.919  26.340  36.105  1.00  0.00     0.198 A 
ATOM     90  F   UNL A   1      42.617  26.570  35.684  1.00  0.00    -0.203 F 
ATOM     91  F   UNL A   1      47.726  28.387  35.078  1.00  0.00    -0.200 F 
ATOM     92  C   UNL A   1      46.219  26.794  35.955  1.00  0.00     0.200 A 
ATOM     93  F   UNL A   1      44.677  25.218  36.798  1.00  0.00    -0.200 F 
ATOM     94  F   UNL A   1      47.238  26.101  36.482  1.00  0.00    -0.200 F 
ENDBRANCH  61  84
ENDBRANCH  35  36
ENDBRANCH  27  30
ENDBRANCH  25  26
ENDBRANCH  24  25
ENDBRANCH   1  24
TORSDOF 16
ENDMDL
MODEL 3
REMARK VINA RESULT:     -11.6      6.411     11.723
REMARK SMILES CCC(CC)(NC(=O)NCCc1nccs1)C(=O)NCCCNC(=O)c1ccc(-c2c3nc(c(-c4c(F)c(F)c(F)c(F)c4F)c4ccc([nH]4)c(-c4c(F)c(F)c(F)c(F)c4F)c4nc(c(-c5c(F)c(F)c(F)c(F)c5F)c5ccc2[nH]5)C=C4)C=C3)cc1
REMARK SMILES IDX 20 1 19 2 17 3 18 4 3 6 2 7 1 8 4 9 5 10 6 11 7 12 8 14 9 15
REMARK SMILES IDX 10 17 11 18 12 19 13 20 16 21 14 22 15 23 21 24 22 25 23 26
REMARK SMILES IDX 24 27 25 29 26 30 27 31 88 32 28 33 87 34 29 35 30 36 31 37
REMARK SMILES IDX 81 38 32 39 86 40 80 41 82 42 33 43 85 44 79 45 78 46 34 48
REMARK SMILES IDX 66 49 46 50 65 51 47 52 50 53 64 54 83 55 48 56 49 57 63 59
REMARK SMILES IDX 84 60 51 61 35 62 36 63 44 64 37 65 38 66 42 67 45 68 39 69
REMARK SMILES IDX 40 70 43 71 41 72 67 73 68 74 76 75 69 76 70 77 74 78 77 79
REMARK SMILES IDX 71 80 72 81 75 82 73 83 52 84 53 85 61 86 54 87 55 88 59 89
REMARK SMILES IDX 62 90 56 91 57 92 60 93 58 94
REMARK H PARENT 19 5 6 13 9 16 23 28 82 47 50 58
REMARK Flexibility Score: inf
ROOT
ATOM      1  C   UNL A   1      36.708  21.203  24.892  1.00  0.00     0.117 C 
ENDROOT
BRANCH   1   2
ATOM      2  N   UNL A   1      36.022  21.654  26.101  1.00  0.00    -0.354 N 
ATOM      3  C   UNL A   1      34.911  22.443  26.313  1.00  0.00     0.245 C 
ATOM      4  O   UNL A   1      34.438  22.428  27.455  1.00  0.00    -0.272 OA
ATOM      5  H   UNL A   1      36.436  21.329  26.932  1.00  0.00     0.163 HD
BRANCH   3   6
ATOM      6  C   UNL A   1      34.210  23.207  25.155  1.00  0.00     0.120 C 
BRANCH   6   7
ATOM      7  C   UNL A   1      34.332  22.624  23.718  1.00  0.00     0.035 C 
ATOM      8  C   UNL A   1      33.623  23.346  22.579  1.00  0.00     0.007 C 
ENDBRANCH   6   7
BRANCH   6   9
ATOM      9  C   UNL A   1      34.890  24.627  25.191  1.00  0.00     0.035 C 
ATOM     10  C   UNL A   1      34.016  25.825  25.529  1.00  0.00     0.007 C 
ENDBRANCH   6   9
BRANCH   6  11
ATOM     11  N   UNL A   1      32.768  23.251  25.480  1.00  0.00    -0.324 N 
ATOM     12  C   UNL A   1      31.785  22.348  25.608  1.00  0.00     0.315 C 
ATOM     13  H   UNL A   1      32.452  24.169  25.643  1.00  0.00     0.166 HD
ATOM     14  O   UNL A   1      30.644  22.805  25.731  1.00  0.00    -0.249 OA
ATOM     15  N   UNL A   1      31.920  21.021  25.721  1.00  0.00    -0.338 N 
ATOM     16  H   UNL A   1      31.135  20.625  26.165  1.00  0.00     0.165 HD
BRANCH  15  17
ATOM     17  C   UNL A   1      32.900  19.992  25.372  1.00  0.00     0.125 C 
BRANCH  17  18
ATOM     18  C   UNL A   1      32.402  18.847  24.483  1.00  0.00     0.089 C 
BRANCH  18  19
ATOM     19  C   UNL A   1      33.088  17.526  24.683  1.00  0.00     0.094 A 
ATOM     20  N   UNL A   1      32.527  16.445  25.190  1.00  0.00    -0.250 NA
ATOM     21  S   UNL A   1      34.786  17.400  24.391  1.00  0.00    -0.127 S 
ATOM     22  C   UNL A   1      33.488  15.465  25.376  1.00  0.00     0.123 A 
ATOM     23  C   UNL A   1      34.771  15.809  25.016  1.00  0.00     0.087 A 
ENDBRANCH  18  19
ENDBRANCH  17  18
ENDBRANCH  15  17
ENDBRANCH   6  11
ENDBRANCH   3   6
ENDBRANCH   1   2
BRANCH   1  24
ATOM     24  C   UNL A   1      37.796  20.134  25.013  1.00  0.00     0.042 C 
BRANCH  24  25
ATOM     25  C   UNL A   1      39.011  20.417  25.878  1.00  0.00     0.118 C 
BRANCH  25  26
ATOM     26  N   UNL A   1      39.975  19.334  25.910  1.00  0.00    -0.352 N 
ATOM     27  C   UNL A   1      41.332  19.386  26.128  1.00  0.00     0.251 C 
ATOM     28  H   UNL A   1      39.607  18.435  25.754  1.00  0.00     0.163 HD
ATOM     29  O   UNL A   1      42.009  18.370  26.037  1.00  0.00    -0.269 OA
BRANCH  27  30
ATOM     30  C   UNL A   1      41.987  20.677  26.436  1.00  0.00     0.039 A 
ATOM     31  C   UNL A   1      42.408  21.486  25.378  1.00  0.00     0.014 A 
ATOM     32  C   UNL A   1      42.189  21.091  27.755  1.00  0.00     0.014 A 
ATOM     33  C   UNL A   1      42.966  22.740  25.640  1.00  0.00     0.010 A 
ATOM     34  C   UNL A   1      42.707  22.363  28.016  1.00  0.00     0.010 A 
ATOM     35  C   UNL A   1      43.085  23.207  26.962  1.00  0.00    -0.014 A 
BRANCH  35  36
ATOM     36  C   UNL A   1      43.517  24.605  27.236  1.00  0.00     0.031 A 
ATOM     37  C   UNL A   1      42.553  25.633  27.758  1.00  0.00     0.074 A 
ATOM     38  C   UNL A   1      44.784  24.964  26.952  1.00  0.00     0.049 A 
ATOM     39  N   UNL A   1      42.761  26.898  28.030  1.00  0.00    -0.248 NA
ATOM     40  C   UNL A   1      41.172  25.188  27.991  1.00  0.00     0.031 C 
ATOM     41  C   UNL A   1      45.804  24.077  26.391  1.00  0.00     0.029 A 
ATOM     42  N   UNL A   1      45.431  26.168  27.087  1.00  0.00    -0.354 N 
ATOM     43  C   UNL A   1      41.541  27.401  28.464  1.00  0.00     0.074 A 
ATOM     44  C   UNL A   1      40.586  26.316  28.374  1.00  0.00     0.031 C 
ATOM     45  C   UNL A   1      46.950  24.759  26.246  1.00  0.00     0.029 A 
ATOM     46  C   UNL A   1      46.738  26.141  26.666  1.00  0.00     0.049 A 
ATOM     47  H   UNL A   1      44.998  26.975  27.448  1.00  0.00     0.167 HD
ATOM     48  C   UNL A   1      41.251  28.647  28.915  1.00  0.00     0.037 A 
ATOM     49  C   UNL A   1      47.663  27.118  26.612  1.00  0.00     0.037 A 
ATOM     50  C   UNL A   1      42.204  29.726  29.004  1.00  0.00     0.049 A 
ATOM     51  C   UNL A   1      47.305  28.500  27.088  1.00  0.00     0.074 A 
ATOM     52  C   UNL A   1      42.017  31.002  29.508  1.00  0.00     0.029 A 
ATOM     53  N   UNL A   1      43.519  29.662  28.565  1.00  0.00    -0.354 N 
ATOM     54  N   UNL A   1      46.173  28.939  27.583  1.00  0.00    -0.248 NA
ATOM     55  C   UNL A   1      48.356  29.524  27.002  1.00  0.00     0.031 C 
ATOM     56  C   UNL A   1      43.197  31.729  29.316  1.00  0.00     0.029 A 
ATOM     57  C   UNL A   1      44.142  30.887  28.752  1.00  0.00     0.049 A 
ATOM     58  H   UNL A   1      43.947  28.864  28.178  1.00  0.00     0.167 HD
ATOM     59  C   UNL A   1      46.381  30.277  27.888  1.00  0.00     0.074 A 
ATOM     60  C   UNL A   1      47.757  30.573  27.544  1.00  0.00     0.031 C 
ATOM     61  C   UNL A   1      45.511  31.178  28.404  1.00  0.00     0.037 A 
BRANCH  48  62
ATOM     62  C   UNL A   1      39.838  28.922  29.348  1.00  0.00     0.064 A 
ATOM     63  C   UNL A   1      38.875  29.408  28.451  1.00  0.00     0.173 A 
ATOM     64  C   UNL A   1      39.426  28.642  30.660  1.00  0.00     0.173 A 
ATOM     65  F   UNL A   1      39.214  29.697  27.186  1.00  0.00    -0.203 F 
ATOM     66  C   UNL A   1      37.561  29.631  28.858  1.00  0.00     0.198 A 
ATOM     67  C   UNL A   1      38.104  28.834  31.055  1.00  0.00     0.198 A 
ATOM     68  F   UNL A   1      40.301  28.164  31.558  1.00  0.00    -0.203 F 
ATOM     69  F   UNL A   1      36.671  30.140  27.995  1.00  0.00    -0.200 F 
ATOM     70  C   UNL A   1      37.175  29.336  30.157  1.00  0.00     0.200 A 
ATOM     71  F   UNL A   1      37.729  28.532  32.306  1.00  0.00    -0.200 F 
ATOM     72  F   UNL A   1      35.908  29.541  30.544  1.00  0.00    -0.200 F 
ENDBRANCH  48  62
BRANCH  49  73
ATOM     73  C   UNL A   1      49.026  26.823  26.097  1.00  0.00     0.064 A 
ATOM     74  C   UNL A   1      49.347  27.029  24.748  1.00  0.00     0.173 A 
ATOM     75  C   UNL A   1      50.030  26.321  26.938  1.00  0.00     0.173 A 
ATOM     76  F   UNL A   1      48.415  27.486  23.900  1.00  0.00    -0.203 F 
ATOM     77  C   UNL A   1      50.615  26.724  24.255  1.00  0.00     0.198 A 
ATOM     78  C   UNL A   1      51.307  26.047  26.450  1.00  0.00     0.198 A 
ATOM     79  F   UNL A   1      49.776  26.108  28.237  1.00  0.00    -0.203 F 
ATOM     80  F   UNL A   1      50.878  26.881  22.951  1.00  0.00    -0.200 F 
ATOM     81  C   UNL A   1      51.595  26.240  25.108  1.00  0.00     0.200 A 
ATOM     82  F   UNL A   1      52.256  25.595  27.281  1.00  0.00    -0.200 F 
ATOM     83  F   UNL A   1      52.814  25.951  24.633  1.00  0.00    -0.200 F 
ENDBRANCH  49  73
BRANCH  61  84
ATOM     84  C   UNL A   1      46.023  32.569  28.652  1.00  0.00     0.064 A 
ATOM     85  C   UNL A   1      46.644  32.923  29.861  1.00  0.00     0.173 A 
ATOM     86  C   UNL A   1      45.920  33.556  27.658  1.00  0.00     0.173 A 
ATOM     87  F   UNL A   1      46.754  32.024  30.851  1.00  0.00    -0.203 F 
ATOM     88  C   UNL A   1      47.114  34.217  30.074  1.00  0.00     0.198 A 
ATOM     89  C   UNL A   1      46.422  34.838  27.863  1.00  0.00     0.198 A 
ATOM     90  F   UNL A   1      45.341  33.271  26.482  1.00  0.00    -0.203 F 
ATOM     91  F   UNL A   1      47.654  34.545  31.257  1.00  0.00    -0.200 F 
ATOM     92  C   UNL A   1      47.010  35.169  29.073  1.00  0.00     0.200 A 
ATOM     93  F   UNL A   1      46.336  35.753  26.887  1.00  0.00    -0.200 F 
ATOM     94  F   UNL A   1      47.471  36.411  29.277  1.00  0.00    -0.200 F 
ENDBRANCH  61  84
ENDBRANCH  35  36
ENDBRANCH  27  30
ENDBRANCH  25  26
ENDBRANCH  24  25
ENDBRANCH   1  24
TORSDOF 16
ENDMDL
