MODEL 1
REMARK VINA RESULT:     -12.5      0.000      0.000
REMARK SMILES CC[NH2+][C@@]1(C(=O)NCCCNC(=O)c2ccc(-c3c4nc(c(-c5c(F)c(F)c(F)c(F)c5F)c5ccc([nH]5)c(-c5c(F)c(F)c(F)c(F)c5F)c5nc(c(-c6c(F)c(F)c(F)c(F)c6F)c6ccc3[nH]6)C=C5)C=C4)cc2)CCC[C@@H]1CC[N@@H+](C)C1CCCC1
REMARK SMILES IDX 8 1 7 2 5 3 6 4 4 6 77 7 80 8 78 9 79 10 3 11 2 14 1 15
REMARK SMILES IDX 81 16 82 17 83 18 84 19 85 21 86 22 89 23 87 24 88 25 9 26
REMARK SMILES IDX 10 27 11 28 12 29 13 31 14 32 15 33 76 34 16 35 75 36 17 37
REMARK SMILES IDX 18 38 19 39 69 40 20 41 74 42 68 43 70 44 21 45 73 46 67 47
REMARK SMILES IDX 66 48 22 50 54 51 34 52 53 53 35 54 38 55 52 56 71 57 36 58
REMARK SMILES IDX 37 59 51 61 72 62 39 63 23 64 24 65 32 66 25 67 26 68 30 69
REMARK SMILES IDX 33 70 27 71 28 72 31 73 29 74 55 75 56 76 64 77 57 78 58 79
REMARK SMILES IDX 62 80 65 81 59 82 60 83 63 84 61 85 40 86 41 87 49 88 42 89
REMARK SMILES IDX 43 90 47 91 50 92 44 93 45 94 48 95 46 96
REMARK H PARENT 7 5 3 12 3 13 83 20 11 30 70 49 38 60
REMARK Flexibility Score: inf
ROOT
ATOM      1  C   UNL A   1      36.865  20.176  24.733  1.00  0.00     0.118 C 
ENDROOT
BRANCH   1   2
ATOM      2  N   UNL A   1      36.423  21.529  25.520  1.00  0.00    -0.351 N 
ATOM      3  C   UNL A   1      35.401  22.543  25.719  1.00  0.00     0.281 C 
ATOM      4  O   UNL A   1      35.886  23.527  26.314  1.00  0.00    -0.268 OA
ATOM      5  H   UNL A   1      37.169  21.762  26.118  1.00  0.00     0.163 HD
BRANCH   3   6
ATOM      6  C   UNL A   1      33.570  22.549  25.307  1.00  0.00     0.178 C 
ATOM      7  C   UNL A   1      33.288  20.691  25.790  1.00  0.00     0.079 C 
ATOM      8  C   UNL A   1      32.515  22.697  23.635  1.00  0.00     0.066 C 
ATOM      9  C   UNL A   1      32.568  19.696  23.983  1.00  0.00     0.008 C 
ATOM     10  C   UNL A   1      32.265  21.068  22.711  1.00  0.00     0.011 C 
BRANCH   6  11
ATOM     11  N   UNL A   1      33.022  23.628  26.171  1.00  0.00    -0.334 N 
ATOM     12  H   UNL A   1      33.808  24.079  26.638  1.00  0.00     0.347 HD
ATOM     13  H   UNL A   1      32.496  24.234  25.539  1.00  0.00     0.347 HD
BRANCH  11  14
ATOM     14  C   UNL A   1      32.069  23.229  27.196  1.00  0.00     0.257 C 
ATOM     15  C   UNL A   1      30.661  23.323  26.621  1.00  0.00     0.071 C 
ENDBRANCH  11  14
ENDBRANCH   6  11
BRANCH   8  16
ATOM     16  C   UNL A   1      32.822  23.569  22.484  1.00  0.00     0.072 C 
BRANCH  16  17
ATOM     17  C   UNL A   1      32.077  24.693  22.967  1.00  0.00     0.262 C 
BRANCH  17  18
ATOM     18  N   UNL A   1      32.941  25.915  23.203  1.00  0.00    -0.335 N 
ATOM     19  C   UNL A   1      32.683  26.330  21.704  1.00  0.00     0.332 C 
ATOM     20  H   UNL A   1      33.911  25.930  23.519  1.00  0.00     0.348 HD
BRANCH  18  21
ATOM     21  C   UNL A   1      32.795  26.904  24.774  1.00  0.00     0.183 C 
ATOM     22  C   UNL A   1      31.115  26.975  26.188  1.00  0.00     0.065 C 
ATOM     23  C   UNL A   1      34.032  28.230  25.686  1.00  0.00     0.065 C 
ATOM     24  C   UNL A   1      31.577  28.205  27.626  1.00  0.00     0.006 C 
ATOM     25  C   UNL A   1      33.220  28.907  27.259  1.00  0.00     0.006 C 
ENDBRANCH  18  21
ENDBRANCH  17  18
ENDBRANCH  16  17
ENDBRANCH   8  16
ENDBRANCH   3   6
ENDBRANCH   1   2
BRANCH   1  26
ATOM     26  C   UNL A   1      38.104  19.201  24.995  1.00  0.00     0.042 C 
BRANCH  26  27
ATOM     27  C   UNL A   1      39.230  19.858  25.760  1.00  0.00     0.118 C 
BRANCH  27  28
ATOM     28  N   UNL A   1      40.374  18.982  25.850  1.00  0.00    -0.352 N 
ATOM     29  C   UNL A   1      41.696  19.321  25.983  1.00  0.00     0.251 C 
ATOM     30  H   UNL A   1      40.179  18.017  25.810  1.00  0.00     0.163 HD
ATOM     31  O   UNL A   1      42.568  18.492  25.755  1.00  0.00    -0.269 OA
BRANCH  29  32
ATOM     32  C   UNL A   1      42.046  20.706  26.362  1.00  0.00     0.039 A 
ATOM     33  C   UNL A   1      42.294  21.011  27.701  1.00  0.00     0.014 A 
ATOM     34  C   UNL A   1      42.195  21.683  25.377  1.00  0.00     0.014 A 
ATOM     35  C   UNL A   1      42.749  22.285  28.037  1.00  0.00     0.010 A 
ATOM     36  C   UNL A   1      42.827  22.870  25.686  1.00  0.00     0.010 A 
ATOM     37  C   UNL A   1      43.060  23.206  27.025  1.00  0.00    -0.014 A 
BRANCH  37  38
ATOM     38  C   UNL A   1      43.559  24.568  27.313  1.00  0.00     0.031 A 
ATOM     39  C   UNL A   1      42.599  25.586  27.866  1.00  0.00     0.074 A 
ATOM     40  C   UNL A   1      44.821  24.903  26.992  1.00  0.00     0.049 A 
ATOM     41  N   UNL A   1      42.767  26.869  28.049  1.00  0.00    -0.248 NA
ATOM     42  C   UNL A   1      41.245  25.109  28.207  1.00  0.00     0.031 C 
ATOM     43  C   UNL A   1      45.816  24.003  26.407  1.00  0.00     0.029 A 
ATOM     44  N   UNL A   1      45.479  26.100  27.102  1.00  0.00    -0.354 N 
ATOM     45  C   UNL A   1      41.542  27.344  28.498  1.00  0.00     0.074 A 
ATOM     46  C   UNL A   1      40.614  26.240  28.469  1.00  0.00     0.031 C 
ATOM     47  C   UNL A   1      46.970  24.669  26.245  1.00  0.00     0.029 A 
ATOM     48  C   UNL A   1      46.775  26.056  26.651  1.00  0.00     0.049 A 
ATOM     49  H   UNL A   1      45.062  26.913  27.469  1.00  0.00     0.167 HD
ATOM     50  C   UNL A   1      41.230  28.586  28.930  1.00  0.00     0.037 A 
ATOM     51  C   UNL A   1      47.691  27.038  26.559  1.00  0.00     0.037 A 
ATOM     52  C   UNL A   1      42.175  29.665  28.973  1.00  0.00     0.049 A 
ATOM     53  C   UNL A   1      47.309  28.422  27.013  1.00  0.00     0.074 A 
ATOM     54  C   UNL A   1      41.992  30.952  29.439  1.00  0.00     0.029 A 
ATOM     55  N   UNL A   1      43.485  29.580  28.520  1.00  0.00    -0.354 N 
ATOM     56  N   UNL A   1      46.167  28.850  27.494  1.00  0.00    -0.248 NA
ATOM     57  C   UNL A   1      48.345  29.458  26.917  1.00  0.00     0.031 C 
ATOM     58  C   UNL A   1      43.164  31.670  29.192  1.00  0.00     0.029 A 
ATOM     59  C   UNL A   1      44.111  30.804  28.667  1.00  0.00     0.049 A 
ATOM     60  H   UNL A   1      43.905  28.770  28.152  1.00  0.00     0.167 HD
ATOM     61  C   UNL A   1      46.359  30.190  27.803  1.00  0.00     0.074 A 
ATOM     62  C   UNL A   1      47.730  30.503  27.454  1.00  0.00     0.031 C 
ATOM     63  C   UNL A   1      45.486  31.081  28.333  1.00  0.00     0.037 A 
BRANCH  50  64
ATOM     64  C   UNL A   1      39.819  28.836  29.380  1.00  0.00     0.064 A 
ATOM     65  C   UNL A   1      39.419  28.655  30.714  1.00  0.00     0.173 A 
ATOM     66  C   UNL A   1      38.855  29.283  28.465  1.00  0.00     0.173 A 
ATOM     67  F   UNL A   1      40.296  28.213  31.630  1.00  0.00    -0.203 F 
ATOM     68  C   UNL A   1      38.101  28.873  31.104  1.00  0.00     0.198 A 
ATOM     69  C   UNL A   1      37.548  29.546  28.869  1.00  0.00     0.198 A 
ATOM     70  F   UNL A   1      39.180  29.474  27.177  1.00  0.00    -0.203 F 
ATOM     71  F   UNL A   1      37.729  28.626  32.368  1.00  0.00    -0.200 F 
ATOM     72  C   UNL A   1      37.169  29.329  30.185  1.00  0.00     0.200 A 
ATOM     73  F   UNL A   1      36.655  30.002  27.981  1.00  0.00    -0.200 F 
ATOM     74  F   UNL A   1      35.904  29.551  30.564  1.00  0.00    -0.200 F 
ENDBRANCH  50  64
BRANCH  51  75
ATOM     75  C   UNL A   1      49.050  26.745  26.033  1.00  0.00     0.064 A 
ATOM     76  C   UNL A   1      50.049  26.222  26.867  1.00  0.00     0.173 A 
ATOM     77  C   UNL A   1      49.384  26.988  24.692  1.00  0.00     0.173 A 
ATOM     78  F   UNL A   1      49.783  25.980  28.159  1.00  0.00    -0.203 F 
ATOM     79  C   UNL A   1      51.337  25.990  26.390  1.00  0.00     0.198 A 
ATOM     80  C   UNL A   1      50.662  26.718  24.207  1.00  0.00     0.198 A 
ATOM     81  F   UNL A   1      48.464  27.474  23.847  1.00  0.00    -0.203 F 
ATOM     82  F   UNL A   1      52.288  25.550  27.226  1.00  0.00    -0.200 F 
ATOM     83  C   UNL A   1      51.642  26.233  25.060  1.00  0.00     0.200 A 
ATOM     84  F   UNL A   1      50.944  26.932  22.915  1.00  0.00    -0.200 F 
ATOM     85  F   UNL A   1      52.880  26.009  24.601  1.00  0.00    -0.200 F 
ENDBRANCH  51  75
BRANCH  63  86
ATOM     86  C   UNL A   1      45.998  32.456  28.649  1.00  0.00     0.064 A 
ATOM     87  C   UNL A   1      45.916  33.513  27.733  1.00  0.00     0.173 A 
ATOM     88  C   UNL A   1      46.508  32.731  29.928  1.00  0.00     0.173 A 
ATOM     89  F   UNL A   1      45.445  33.302  26.495  1.00  0.00    -0.203 F 
ATOM     90  C   UNL A   1      46.351  34.790  28.077  1.00  0.00     0.198 A 
ATOM     91  C   UNL A   1      46.900  34.017  30.283  1.00  0.00     0.198 A 
ATOM     92  F   UNL A   1      46.597  31.757  30.846  1.00  0.00    -0.203 F 
ATOM     93  F   UNL A   1      46.312  35.776  27.170  1.00  0.00    -0.200 F 
ATOM     94  C   UNL A   1      46.830  35.044  29.355  1.00  0.00     0.200 A 
ATOM     95  F   UNL A   1      47.335  34.264  31.526  1.00  0.00    -0.200 F 
ATOM     96  F   UNL A   1      47.225  36.279  29.691  1.00  0.00    -0.200 F 
ENDBRANCH  63  86
ENDBRANCH  37  38
ENDBRANCH  29  32
ENDBRANCH  27  28
ENDBRANCH  26  27
ENDBRANCH   1  26
TORSDOF 16
ENDMDL
MODEL 2
REMARK VINA RESULT:     -12.5      5.516     11.112
REMARK SMILES CC[NH2+][C@@]1(C(=O)NCCCNC(=O)c2ccc(-c3c4nc(c(-c5c(F)c(F)c(F)c(F)c5F)c5ccc([nH]5)c(-c5c(F)c(F)c(F)c(F)c5F)c5nc(c(-c6c(F)c(F)c(F)c(F)c6F)c6ccc3[nH]6)C=C5)C=C4)cc2)CCC[C@@H]1CC[N@@H+](C)C1CCCC1
REMARK SMILES IDX 8 1 7 2 5 3 6 4 4 6 77 7 80 8 78 9 79 10 3 11 2 14 1 15
REMARK SMILES IDX 81 16 82 17 83 18 84 19 85 21 86 22 89 23 87 24 88 25 9 26
REMARK SMILES IDX 10 27 11 28 12 29 13 31 14 32 15 33 76 34 16 35 75 36 17 37
REMARK SMILES IDX 18 38 19 39 69 40 20 41 74 42 68 43 70 44 21 45 73 46 67 47
REMARK SMILES IDX 66 48 22 50 54 51 34 52 53 53 35 54 38 55 52 56 71 57 36 58
REMARK SMILES IDX 37 59 51 61 72 62 39 63 23 64 24 65 32 66 25 67 26 68 30 69
REMARK SMILES IDX 33 70 27 71 28 72 31 73 29 74 55 75 56 76 64 77 57 78 58 79
REMARK SMILES IDX 62 80 65 81 59 82 60 83 63 84 61 85 40 86 41 87 49 88 42 89
REMARK SMILES IDX 43 90 47 91 50 92 44 93 45 94 48 95 46 96
REMARK H PARENT 7 5 3 12 3 13 83 20 11 30 70 49 38 60
REMARK Flexibility Score: inf
ROOT
ATOM      1  C   UNL A   1      31.814  30.509  26.312  1.00  0.00     0.118 C 
ENDROOT
BRANCH   1   2
ATOM      2  N   UNL A   1      32.860  29.892  25.230  1.00  0.00    -0.351 N 
ATOM      3  C   UNL A   1      33.165  28.807  24.313  1.00  0.00     0.281 C 
ATOM      4  O   UNL A   1      34.370  28.844  23.992  1.00  0.00    -0.268 OA
ATOM      5  H   UNL A   1      33.611  30.526  25.173  1.00  0.00     0.163 HD
BRANCH   3   6
ATOM      6  C   UNL A   1      32.064  27.499  23.538  1.00  0.00     0.178 C 
ATOM      7  C   UNL A   1      31.245  28.710  22.262  1.00  0.00     0.079 C 
ATOM      8  C   UNL A   1      30.503  26.443  24.154  1.00  0.00     0.066 C 
ATOM      9  C   UNL A   1      29.102  28.686  22.691  1.00  0.00     0.008 C 
ATOM     10  C   UNL A   1      28.837  27.317  23.975  1.00  0.00     0.011 C 
BRANCH   6  11
ATOM     11  N   UNL A   1      33.027  26.469  23.065  1.00  0.00    -0.334 N 
ATOM     12  H   UNL A   1      33.924  26.930  22.916  1.00  0.00     0.347 HD
ATOM     13  H   UNL A   1      33.031  25.753  23.793  1.00  0.00     0.347 HD
BRANCH  11  14
ATOM     14  C   UNL A   1      32.684  25.763  21.839  1.00  0.00     0.257 C 
ATOM     15  C   UNL A   1      33.036  24.290  22.006  1.00  0.00     0.071 C 
ENDBRANCH  11  14
ENDBRANCH   6  11
BRANCH   8  16
ATOM     16  C   UNL A   1      30.317  25.866  25.499  1.00  0.00     0.072 C 
BRANCH  16  17
ATOM     17  C   UNL A   1      30.737  24.545  25.137  1.00  0.00     0.262 C 
BRANCH  17  18
ATOM     18  N   UNL A   1      31.733  23.955  26.115  1.00  0.00    -0.335 N 
ATOM     19  C   UNL A   1      30.566  23.068  26.696  1.00  0.00     0.332 C 
ATOM     20  H   UNL A   1      32.300  24.462  26.794  1.00  0.00     0.348 HD
BRANCH  18  21
ATOM     21  C   UNL A   1      33.451  23.488  25.569  1.00  0.00     0.183 C 
ATOM     22  C   UNL A   1      34.204  21.507  24.989  1.00  0.00     0.065 C 
ATOM     23  C   UNL A   1      35.166  24.552  25.361  1.00  0.00     0.065 C 
ATOM     24  C   UNL A   1      36.089  21.680  24.530  1.00  0.00     0.006 C 
ATOM     25  C   UNL A   1      36.576  23.417  24.800  1.00  0.00     0.006 C 
ENDBRANCH  18  21
ENDBRANCH  17  18
ENDBRANCH  16  17
ENDBRANCH   8  16
ENDBRANCH   3   6
ENDBRANCH   1   2
BRANCH   1  26
ATOM     26  C   UNL A   1      31.551  32.029  26.726  1.00  0.00     0.042 C 
BRANCH  26  27
ATOM     27  C   UNL A   1      32.750  32.690  27.366  1.00  0.00     0.118 C 
BRANCH  27  28
ATOM     28  N   UNL A   1      32.510  34.098  27.582  1.00  0.00    -0.352 N 
ATOM     29  C   UNL A   1      33.024  34.906  28.564  1.00  0.00     0.251 C 
ATOM     30  H   UNL A   1      31.898  34.532  26.944  1.00  0.00     0.163 HD
ATOM     31  O   UNL A   1      32.510  35.994  28.794  1.00  0.00    -0.269 OA
BRANCH  29  32
ATOM     32  C   UNL A   1      34.174  34.426  29.359  1.00  0.00     0.039 A 
ATOM     33  C   UNL A   1      33.946  33.726  30.545  1.00  0.00     0.014 A 
ATOM     34  C   UNL A   1      35.474  34.611  28.888  1.00  0.00     0.014 A 
ATOM     35  C   UNL A   1      35.026  33.165  31.223  1.00  0.00     0.010 A 
ATOM     36  C   UNL A   1      36.510  33.893  29.451  1.00  0.00     0.010 A 
ATOM     37  C   UNL A   1      36.308  33.208  30.655  1.00  0.00    -0.014 A 
BRANCH  37  38
ATOM     38  C   UNL A   1      37.493  32.620  31.316  1.00  0.00     0.031 A 
ATOM     39  C   UNL A   1      38.218  31.495  30.629  1.00  0.00     0.074 A 
ATOM     40  C   UNL A   1      37.846  33.027  32.547  1.00  0.00     0.049 A 
ATOM     41  N   UNL A   1      39.177  30.730  31.080  1.00  0.00    -0.248 NA
ATOM     42  C   UNL A   1      37.767  31.143  29.269  1.00  0.00     0.031 C 
ATOM     43  C   UNL A   1      37.179  34.078  33.319  1.00  0.00     0.029 A 
ATOM     44  N   UNL A   1      38.849  32.593  33.374  1.00  0.00    -0.354 N 
ATOM     45  C   UNL A   1      39.416  29.802  30.075  1.00  0.00     0.074 A 
ATOM     46  C   UNL A   1      38.445  30.034  29.033  1.00  0.00     0.031 C 
ATOM     47  C   UNL A   1      37.815  34.233  34.491  1.00  0.00     0.029 A 
ATOM     48  C   UNL A   1      38.888  33.250  34.579  1.00  0.00     0.049 A 
ATOM     49  H   UNL A   1      39.480  31.879  33.128  1.00  0.00     0.167 HD
ATOM     50  C   UNL A   1      40.386  28.864  30.013  1.00  0.00     0.037 A 
ATOM     51  C   UNL A   1      39.693  33.058  35.641  1.00  0.00     0.037 A 
ATOM     52  C   UNL A   1      41.357  28.664  31.051  1.00  0.00     0.049 A 
ATOM     53  C   UNL A   1      40.743  31.982  35.563  1.00  0.00     0.074 A 
ATOM     54  C   UNL A   1      42.419  27.781  31.079  1.00  0.00     0.029 A 
ATOM     55  N   UNL A   1      41.375  29.359  32.252  1.00  0.00    -0.354 N 
ATOM     56  N   UNL A   1      41.004  31.149  34.584  1.00  0.00    -0.248 NA
ATOM     57  C   UNL A   1      41.614  31.822  36.734  1.00  0.00     0.031 C 
ATOM     58  C   UNL A   1      43.029  27.882  32.331  1.00  0.00     0.029 A 
ATOM     59  C   UNL A   1      42.412  28.899  33.043  1.00  0.00     0.049 A 
ATOM     60  H   UNL A   1      40.745  30.073  32.504  1.00  0.00     0.167 HD
ATOM     61  C   UNL A   1      42.097  30.400  35.000  1.00  0.00     0.074 A 
ATOM     62  C   UNL A   1      42.449  30.879  36.320  1.00  0.00     0.031 C 
ATOM     63  C   UNL A   1      42.754  29.411  34.347  1.00  0.00     0.037 A 
BRANCH  50  64
ATOM     64  C   UNL A   1      40.435  27.988  28.794  1.00  0.00     0.064 A 
ATOM     65  C   UNL A   1      39.749  26.764  28.727  1.00  0.00     0.173 A 
ATOM     66  C   UNL A   1      41.164  28.389  27.664  1.00  0.00     0.173 A 
ATOM     67  F   UNL A   1      39.048  26.322  29.783  1.00  0.00    -0.203 F 
ATOM     68  C   UNL A   1      39.824  25.960  27.593  1.00  0.00     0.198 A 
ATOM     69  C   UNL A   1      41.199  27.604  26.515  1.00  0.00     0.198 A 
ATOM     70  F   UNL A   1      41.839  29.549  27.670  1.00  0.00    -0.203 F 
ATOM     71  F   UNL A   1      39.219  24.764  27.582  1.00  0.00    -0.200 F 
ATOM     72  C   UNL A   1      40.540  26.385  26.485  1.00  0.00     0.200 A 
ATOM     73  F   UNL A   1      41.877  28.026  25.439  1.00  0.00    -0.200 F 
ATOM     74  F   UNL A   1      40.602  25.615  25.389  1.00  0.00    -0.200 F 
ENDBRANCH  50  64
BRANCH  51  75
ATOM     75  C   UNL A   1      39.546  33.908  36.852  1.00  0.00     0.064 A 
ATOM     76  C   UNL A   1      38.787  33.476  37.949  1.00  0.00     0.173 A 
ATOM     77  C   UNL A   1      40.150  35.172  36.938  1.00  0.00     0.173 A 
ATOM     78  F   UNL A   1      38.181  32.279  37.914  1.00  0.00    -0.203 F 
ATOM     79  C   UNL A   1      38.607  34.288  39.067  1.00  0.00     0.198 A 
ATOM     80  C   UNL A   1      40.002  35.967  38.073  1.00  0.00     0.198 A 
ATOM     81  F   UNL A   1      40.898  35.629  35.924  1.00  0.00    -0.203 F 
ATOM     82  F   UNL A   1      37.824  33.874  40.072  1.00  0.00    -0.200 F 
ATOM     83  C   UNL A   1      39.218  35.531  39.130  1.00  0.00     0.200 A 
ATOM     84  F   UNL A   1      40.615  37.157  38.138  1.00  0.00    -0.200 F 
ATOM     85  F   UNL A   1      39.046  36.311  40.204  1.00  0.00    -0.200 F 
ENDBRANCH  51  75
BRANCH  63  86
ATOM     86  C   UNL A   1      43.973  28.831  35.006  1.00  0.00     0.064 A 
ATOM     87  C   UNL A   1      43.918  27.668  35.785  1.00  0.00     0.173 A 
ATOM     88  C   UNL A   1      45.230  29.415  34.780  1.00  0.00     0.173 A 
ATOM     89  F   UNL A   1      42.741  27.076  36.037  1.00  0.00    -0.203 F 
ATOM     90  C   UNL A   1      45.075  27.125  36.338  1.00  0.00     0.198 A 
ATOM     91  C   UNL A   1      46.388  28.845  35.297  1.00  0.00     0.198 A 
ATOM     92  F   UNL A   1      45.338  30.523  34.033  1.00  0.00    -0.203 F 
ATOM     93  F   UNL A   1      44.996  26.041  37.122  1.00  0.00    -0.200 F 
ATOM     94  C   UNL A   1      46.309  27.706  36.082  1.00  0.00     0.200 A 
ATOM     95  F   UNL A   1      47.580  29.393  35.026  1.00  0.00    -0.200 F 
ATOM     96  F   UNL A   1      47.424  27.168  36.596  1.00  0.00    -0.200 F 
ENDBRANCH  63  86
ENDBRANCH  37  38
ENDBRANCH  29  32
ENDBRANCH  27  28
ENDBRANCH  26  27
ENDBRANCH   1  26
TORSDOF 16
ENDMDL
MODEL 3
REMARK VINA RESULT:     -12.5      5.309      9.782
REMARK SMILES CC[NH2+][C@@]1(C(=O)NCCCNC(=O)c2ccc(-c3c4nc(c(-c5c(F)c(F)c(F)c(F)c5F)c5ccc([nH]5)c(-c5c(F)c(F)c(F)c(F)c5F)c5nc(c(-c6c(F)c(F)c(F)c(F)c6F)c6ccc3[nH]6)C=C5)C=C4)cc2)CCC[C@@H]1CC[N@@H+](C)C1CCCC1
REMARK SMILES IDX 8 1 7 2 5 3 6 4 4 6 77 7 80 8 78 9 79 10 3 11 2 14 1 15
REMARK SMILES IDX 81 16 82 17 83 18 84 19 85 21 86 22 89 23 87 24 88 25 9 26
REMARK SMILES IDX 10 27 11 28 12 29 13 31 14 32 15 33 76 34 16 35 75 36 17 37
REMARK SMILES IDX 18 38 19 39 69 40 20 41 74 42 68 43 70 44 21 45 73 46 67 47
REMARK SMILES IDX 66 48 22 50 54 51 34 52 53 53 35 54 38 55 52 56 71 57 36 58
REMARK SMILES IDX 37 59 51 61 72 62 39 63 23 64 24 65 32 66 25 67 26 68 30 69
REMARK SMILES IDX 33 70 27 71 28 72 31 73 29 74 55 75 56 76 64 77 57 78 58 79
REMARK SMILES IDX 62 80 65 81 59 82 60 83 63 84 61 85 40 86 41 87 49 88 42 89
REMARK SMILES IDX 43 90 47 91 50 92 44 93 45 94 48 95 46 96
REMARK H PARENT 7 5 3 12 3 13 83 20 11 30 70 49 38 60
REMARK Flexibility Score: inf
ROOT
ATOM      1  C   UNL A   1      31.417  30.828  26.125  1.00  0.00     0.118 C 
ENDROOT
BRANCH   1   2
ATOM      2  N   UNL A   1      32.664  29.953  25.554  1.00  0.00    -0.351 N 
ATOM      3  C   UNL A   1      33.088  28.751  24.856  1.00  0.00     0.281 C 
ATOM      4  O   UNL A   1      34.310  28.566  25.030  1.00  0.00    -0.268 OA
ATOM      5  H   UNL A   1      33.483  30.452  25.778  1.00  0.00     0.163 HD
BRANCH   3   6
ATOM      6  C   UNL A   1      32.145  27.568  23.748  1.00  0.00     0.178 C 
ATOM      7  C   UNL A   1      31.366  28.962  22.646  1.00  0.00     0.079 C 
ATOM      8  C   UNL A   1      30.605  26.343  24.000  1.00  0.00     0.066 C 
ATOM      9  C   UNL A   1      29.199  28.759  22.851  1.00  0.00     0.008 C 
ATOM     10  C   UNL A   1      28.910  27.160  23.825  1.00  0.00     0.011 C 
BRANCH   6  11
ATOM     11  N   UNL A   1      33.208  26.691  23.188  1.00  0.00    -0.334 N 
ATOM     12  H   UNL A   1      34.090  26.960  23.622  1.00  0.00     0.347 HD
ATOM     13  H   UNL A   1      32.904  25.738  23.393  1.00  0.00     0.347 HD
BRANCH  11  14
ATOM     14  C   UNL A   1      33.397  26.728  21.745  1.00  0.00     0.257 C 
ATOM     15  C   UNL A   1      32.625  25.573  21.119  1.00  0.00     0.071 C 
ENDBRANCH  11  14
ENDBRANCH   6  11
BRANCH   8  16
ATOM     16  C   UNL A   1      30.338  25.512  25.190  1.00  0.00     0.072 C 
BRANCH  16  17
ATOM     17  C   UNL A   1      30.978  24.337  24.678  1.00  0.00     0.262 C 
BRANCH  17  18
ATOM     18  N   UNL A   1      32.013  23.769  25.627  1.00  0.00    -0.335 N 
ATOM     19  C   UNL A   1      30.941  22.707  26.085  1.00  0.00     0.332 C 
ATOM     20  H   UNL A   1      32.505  24.267  26.369  1.00  0.00     0.348 HD
BRANCH  18  21
ATOM     21  C   UNL A   1      33.783  23.548  25.095  1.00  0.00     0.183 C 
ATOM     22  C   UNL A   1      34.553  23.015  23.107  1.00  0.00     0.065 C 
ATOM     23  C   UNL A   1      35.546  23.667  26.095  1.00  0.00     0.065 C 
ATOM     24  C   UNL A   1      36.496  22.934  23.205  1.00  0.00     0.006 C 
ATOM     25  C   UNL A   1      36.987  23.274  24.928  1.00  0.00     0.006 C 
ENDBRANCH  18  21
ENDBRANCH  17  18
ENDBRANCH  16  17
ENDBRANCH   8  16
ENDBRANCH   3   6
ENDBRANCH   1   2
BRANCH   1  26
ATOM     26  C   UNL A   1      31.368  32.360  26.578  1.00  0.00     0.042 C 
BRANCH  26  27
ATOM     27  C   UNL A   1      32.585  32.790  27.366  1.00  0.00     0.118 C 
BRANCH  27  28
ATOM     28  N   UNL A   1      32.569  34.214  27.604  1.00  0.00    -0.352 N 
ATOM     29  C   UNL A   1      33.230  34.920  28.576  1.00  0.00     0.251 C 
ATOM     30  H   UNL A   1      32.011  34.745  26.991  1.00  0.00     0.163 HD
ATOM     31  O   UNL A   1      32.896  36.070  28.834  1.00  0.00    -0.269 OA
BRANCH  29  32
ATOM     32  C   UNL A   1      34.317  34.258  29.329  1.00  0.00     0.039 A 
ATOM     33  C   UNL A   1      33.999  33.366  30.354  1.00  0.00     0.014 A 
ATOM     34  C   UNL A   1      35.647  34.473  28.967  1.00  0.00     0.014 A 
ATOM     35  C   UNL A   1      35.021  32.649  30.973  1.00  0.00     0.010 A 
ATOM     36  C   UNL A   1      36.626  33.625  29.442  1.00  0.00     0.010 A 
ATOM     37  C   UNL A   1      36.335  32.742  30.489  1.00  0.00    -0.014 A 
BRANCH  37  38
ATOM     38  C   UNL A   1      37.462  31.998  31.092  1.00  0.00     0.031 A 
ATOM     39  C   UNL A   1      37.935  32.393  32.465  1.00  0.00     0.074 A 
ATOM     40  C   UNL A   1      38.102  31.056  30.378  1.00  0.00     0.049 A 
ATOM     41  N   UNL A   1      38.990  31.992  33.124  1.00  0.00    -0.248 NA
ATOM     42  C   UNL A   1      37.147  33.421  33.171  1.00  0.00     0.031 C 
ATOM     43  C   UNL A   1      37.752  30.633  29.021  1.00  0.00     0.029 A 
ATOM     44  N   UNL A   1      39.195  30.290  30.693  1.00  0.00    -0.354 N 
ATOM     45  C   UNL A   1      38.999  32.735  34.297  1.00  0.00     0.074 A 
ATOM     46  C   UNL A   1      37.907  33.674  34.222  1.00  0.00     0.031 C 
ATOM     47  C   UNL A   1      38.589  29.657  28.635  1.00  0.00     0.029 A 
ATOM     48  C   UNL A   1      39.573  29.435  29.688  1.00  0.00     0.049 A 
ATOM     49  H   UNL A   1      39.663  30.349  31.558  1.00  0.00     0.167 HD
ATOM     50  C   UNL A   1      39.825  32.615  35.359  1.00  0.00     0.037 A 
ATOM     51  C   UNL A   1      40.613  28.584  29.625  1.00  0.00     0.037 A 
ATOM     52  C   UNL A   1      40.892  31.657  35.424  1.00  0.00     0.049 A 
ATOM     53  C   UNL A   1      41.542  28.494  30.807  1.00  0.00     0.074 A 
ATOM     54  C   UNL A   1      41.762  31.407  36.467  1.00  0.00     0.029 A 
ATOM     55  N   UNL A   1      41.237  30.796  34.391  1.00  0.00    -0.354 N 
ATOM     56  N   UNL A   1      41.508  29.156  31.939  1.00  0.00    -0.248 NA
ATOM     57  C   UNL A   1      42.651  27.537  30.705  1.00  0.00     0.031 C 
ATOM     58  C   UNL A   1      42.687  30.453  36.035  1.00  0.00     0.029 A 
ATOM     59  C   UNL A   1      42.331  30.036  34.762  1.00  0.00     0.049 A 
ATOM     60  H   UNL A   1      40.773  30.735  33.525  1.00  0.00     0.167 HD
ATOM     61  C   UNL A   1      42.558  28.662  32.702  1.00  0.00     0.074 A 
ATOM     62  C   UNL A   1      43.209  27.645  31.903  1.00  0.00     0.031 C 
ATOM     63  C   UNL A   1      42.944  29.012  33.953  1.00  0.00     0.037 A 
BRANCH  50  64
ATOM     64  C   UNL A   1      39.609  33.542  36.521  1.00  0.00     0.064 A 
ATOM     65  C   UNL A   1      40.200  34.815  36.580  1.00  0.00     0.173 A 
ATOM     66  C   UNL A   1      38.779  33.159  37.586  1.00  0.00     0.173 A 
ATOM     67  F   UNL A   1      41.016  35.228  35.597  1.00  0.00    -0.203 F 
ATOM     68  C   UNL A   1      40.001  35.649  37.676  1.00  0.00     0.198 A 
ATOM     69  C   UNL A   1      38.545  34.015  38.658  1.00  0.00     0.198 A 
ATOM     70  F   UNL A   1      38.187  31.955  37.584  1.00  0.00    -0.203 F 
ATOM     71  F   UNL A   1      40.633  36.829  37.740  1.00  0.00    -0.200 F 
ATOM     72  C   UNL A   1      39.165  35.254  38.709  1.00  0.00     0.200 A 
ATOM     73  F   UNL A   1      37.723  33.637  39.647  1.00  0.00    -0.200 F 
ATOM     74  F   UNL A   1      38.964  36.063  39.758  1.00  0.00    -0.200 F 
ENDBRANCH  50  64
BRANCH  51  75
ATOM     75  C   UNL A   1      40.820  27.746  28.415  1.00  0.00     0.064 A 
ATOM     76  C   UNL A   1      41.646  28.182  27.368  1.00  0.00     0.173 A 
ATOM     77  C   UNL A   1      40.191  26.500  28.270  1.00  0.00     0.173 A 
ATOM     78  F   UNL A   1      42.263  29.370  27.452  1.00  0.00    -0.203 F 
ATOM     79  C   UNL A   1      41.805  27.422  26.211  1.00  0.00     0.198 A 
ATOM     80  C   UNL A   1      40.383  25.723  27.130  1.00  0.00     0.198 A 
ATOM     81  F   UNL A   1      39.402  26.028  29.246  1.00  0.00    -0.203 F 
ATOM     82  F   UNL A   1      42.550  27.893  25.202  1.00  0.00    -0.200 F 
ATOM     83  C   UNL A   1      41.178  26.191  26.094  1.00  0.00     0.200 A 
ATOM     84  F   UNL A   1      39.794  24.524  27.033  1.00  0.00    -0.200 F 
ATOM     85  F   UNL A   1      41.332  25.460  24.983  1.00  0.00    -0.200 F 
ENDBRANCH  51  75
BRANCH  63  86
ATOM     86  C   UNL A   1      44.072  28.240  34.576  1.00  0.00     0.064 A 
ATOM     87  C   UNL A   1      43.858  27.058  35.297  1.00  0.00     0.173 A 
ATOM     88  C   UNL A   1      45.397  28.657  34.372  1.00  0.00     0.173 A 
ATOM     89  F   UNL A   1      42.611  26.620  35.527  1.00  0.00    -0.203 F 
ATOM     90  C   UNL A   1      44.930  26.336  35.816  1.00  0.00     0.198 A 
ATOM     91  C   UNL A   1      46.466  27.910  34.853  1.00  0.00     0.198 A 
ATOM     92  F   UNL A   1      45.656  29.776  33.679  1.00  0.00    -0.203 F 
ATOM     93  F   UNL A   1      44.703  25.235  36.547  1.00  0.00    -0.200 F 
ATOM     94  C   UNL A   1      46.232  26.755  35.582  1.00  0.00     0.200 A 
ATOM     95  F   UNL A   1      47.722  28.303  34.603  1.00  0.00    -0.200 F 
ATOM     96  F   UNL A   1      47.262  26.045  36.062  1.00  0.00    -0.200 F 
ENDBRANCH  63  86
ENDBRANCH  37  38
ENDBRANCH  29  32
ENDBRANCH  27  28
ENDBRANCH  26  27
ENDBRANCH   1  26
TORSDOF 16
ENDMDL
