MODEL 1
REMARK VINA RESULT:     -13.0      0.000      0.000
REMARK SMILES CC[C@@](C)(NC(=O)c1cc(C)c(Br)s1)C(=O)NCCCNC(=O)c1ccc(-c2c3nc(c(-c4c(F)c(F)c(F)c(F)c4F)c4ccc([nH]4)c(-c4c(F)c(F)c(F)c(F)c4F)c4nc(c(-c5c(F)c(F)c(F)c(F)c5F)c5ccc2[nH]5)C=C4)C=C3)cc1
REMARK SMILES IDX 19 1 18 2 17 3 15 4 16 5 3 7 4 8 2 9 1 10 5 11 6 12 7 14
REMARK SMILES IDX 8 15 9 16 14 17 10 18 12 19 11 20 13 21 20 22 21 23 22 24
REMARK SMILES IDX 23 26 24 27 25 28 86 29 26 30 85 31 27 32 28 33 29 34 79 35
REMARK SMILES IDX 30 36 84 37 78 38 80 39 31 40 83 41 77 42 76 43 32 45 64 46
REMARK SMILES IDX 44 47 63 48 45 49 48 50 62 51 81 52 46 53 47 54 61 56 82 57
REMARK SMILES IDX 49 58 33 59 34 60 42 61 35 62 36 63 40 64 43 65 37 66 38 67
REMARK SMILES IDX 41 68 39 69 65 70 66 71 74 72 67 73 68 74 72 75 75 76 69 77
REMARK SMILES IDX 70 78 73 79 71 80 50 81 51 82 59 83 52 84 53 85 57 86 60 87
REMARK SMILES IDX 54 88 55 89 58 90 56 91
REMARK H PARENT 17 6 5 13 21 25 80 44 48 55
REMARK Flexibility Score: inf
ROOT
ATOM      1  C   UNL A   1      37.712  21.560  24.963  1.00  0.00     0.042 C 
ENDROOT
BRANCH   1   2
ATOM      2  C   UNL A   1      36.331  21.056  25.390  1.00  0.00     0.117 C 
BRANCH   2   3
ATOM      3  N   UNL A   1      35.627  21.810  26.417  1.00  0.00    -0.354 N 
ATOM      4  C   UNL A   1      34.311  21.982  26.749  1.00  0.00     0.245 C 
ATOM      5  O   UNL A   1      34.117  22.480  27.864  1.00  0.00    -0.272 OA
ATOM      6  H   UNL A   1      36.235  22.311  27.007  1.00  0.00     0.163 HD
BRANCH   4   7
ATOM      7  C   UNL A   1      33.123  21.527  25.851  1.00  0.00     0.116 C 
ATOM      8  C   UNL A   1      33.289  22.252  24.496  1.00  0.00     0.045 C 
BRANCH   7   9
ATOM      9  C   UNL A   1      33.100  19.989  25.581  1.00  0.00     0.035 C 
ATOM     10  C   UNL A   1      32.582  19.511  24.227  1.00  0.00     0.007 C 
ENDBRANCH   7   9
BRANCH   7  11
ATOM     11  N   UNL A   1      31.806  21.913  26.414  1.00  0.00    -0.337 N 
ATOM     12  C   UNL A   1      31.209  23.136  26.644  1.00  0.00     0.262 C 
ATOM     13  H   UNL A   1      31.248  21.145  26.676  1.00  0.00     0.164 HD
ATOM     14  O   UNL A   1      30.281  23.106  27.454  1.00  0.00    -0.268 OA
BRANCH  12  15
ATOM     15  C   UNL A   1      31.619  24.356  25.965  1.00  0.00     0.093 A 
ATOM     16  C   UNL A   1      32.669  25.227  26.174  1.00  0.00     0.030 A 
ATOM     17  S   UNL A   1      30.762  24.827  24.550  1.00  0.00    -0.123 S 
ATOM     18  C   UNL A   1      32.734  26.329  25.263  1.00  0.00    -0.025 A 
ATOM     19  C   UNL A   1      31.754  26.180  24.313  1.00  0.00     0.074 A 
ATOM     20  C   UNL A   1      33.746  27.422  25.384  1.00  0.00     0.046 C 
ATOM     21  Br  UNL A   1      31.507  27.329  22.859  1.00  0.00    -0.039 Br
ENDBRANCH  12  15
ENDBRANCH   7  11
ENDBRANCH   4   7
ENDBRANCH   2   3
ENDBRANCH   1   2
BRANCH   1  22
ATOM     22  C   UNL A   1      38.630  22.043  26.079  1.00  0.00     0.118 C 
BRANCH  22  23
ATOM     23  N   UNL A   1      40.039  21.747  25.886  1.00  0.00    -0.352 N 
ATOM     24  C   UNL A   1      41.124  22.580  26.083  1.00  0.00     0.251 C 
ATOM     25  H   UNL A   1      40.248  20.837  25.575  1.00  0.00     0.163 HD
ATOM     26  O   UNL A   1      42.227  22.242  25.664  1.00  0.00    -0.269 OA
BRANCH  24  27
ATOM     27  C   UNL A   1      40.967  23.900  26.751  1.00  0.00     0.039 A 
ATOM     28  C   UNL A   1      41.730  24.192  27.886  1.00  0.00     0.014 A 
ATOM     29  C   UNL A   1      40.062  24.850  26.283  1.00  0.00     0.014 A 
ATOM     30  C   UNL A   1      41.634  25.451  28.492  1.00  0.00     0.010 A 
ATOM     31  C   UNL A   1      40.036  26.127  26.831  1.00  0.00     0.010 A 
ATOM     32  C   UNL A   1      40.798  26.443  27.954  1.00  0.00    -0.014 A 
BRANCH  32  33
ATOM     33  C   UNL A   1      40.803  27.806  28.517  1.00  0.00     0.031 A 
ATOM     34  C   UNL A   1      41.892  28.726  28.062  1.00  0.00     0.074 A 
ATOM     35  C   UNL A   1      39.823  28.388  29.248  1.00  0.00     0.049 A 
ATOM     36  N   UNL A   1      42.776  29.338  28.785  1.00  0.00    -0.248 NA
ATOM     37  C   UNL A   1      41.989  29.017  26.625  1.00  0.00     0.031 C 
ATOM     38  C   UNL A   1      38.491  27.883  29.581  1.00  0.00     0.029 A 
ATOM     39  N   UNL A   1      39.811  29.651  29.785  1.00  0.00    -0.354 N 
ATOM     40  C   UNL A   1      43.467  30.191  27.927  1.00  0.00     0.074 A 
ATOM     41  C   UNL A   1      42.979  29.912  26.599  1.00  0.00     0.031 C 
ATOM     42  C   UNL A   1      37.735  28.893  30.071  1.00  0.00     0.029 A 
ATOM     43  C   UNL A   1      38.575  30.064  30.251  1.00  0.00     0.049 A 
ATOM     44  H   UNL A   1      40.616  30.217  29.834  1.00  0.00     0.167 HD
ATOM     45  C   UNL A   1      44.302  31.168  28.382  1.00  0.00     0.037 A 
ATOM     46  C   UNL A   1      38.250  31.279  30.755  1.00  0.00     0.037 A 
ATOM     47  C   UNL A   1      44.685  30.968  29.752  1.00  0.00     0.049 A 
ATOM     48  C   UNL A   1      39.496  31.939  31.202  1.00  0.00     0.074 A 
ATOM     49  C   UNL A   1      45.306  29.953  30.455  1.00  0.00     0.029 A 
ATOM     50  N   UNL A   1      44.190  31.811  30.714  1.00  0.00    -0.354 N 
ATOM     51  N   UNL A   1      40.179  31.592  32.254  1.00  0.00    -0.248 NA
ATOM     52  C   UNL A   1      40.163  32.860  30.295  1.00  0.00     0.031 C 
ATOM     53  C   UNL A   1      44.713  29.978  31.754  1.00  0.00     0.029 A 
ATOM     54  C   UNL A   1      43.775  31.008  31.745  1.00  0.00     0.049 A 
ATOM     55  H   UNL A   1      44.143  32.793  30.673  1.00  0.00     0.167 HD
ATOM     56  C   UNL A   1      41.487  31.914  31.942  1.00  0.00     0.074 A 
ATOM     57  C   UNL A   1      41.394  32.823  30.808  1.00  0.00     0.031 C 
ATOM     58  C   UNL A   1      42.527  31.188  32.444  1.00  0.00     0.037 A 
BRANCH  45  59
ATOM     59  C   UNL A   1      44.601  32.455  27.656  1.00  0.00     0.064 A 
ATOM     60  C   UNL A   1      45.800  32.589  26.926  1.00  0.00     0.173 A 
ATOM     61  C   UNL A   1      43.881  33.647  27.875  1.00  0.00     0.173 A 
ATOM     62  F   UNL A   1      46.585  31.526  26.700  1.00  0.00    -0.203 F 
ATOM     63  C   UNL A   1      46.261  33.833  26.484  1.00  0.00     0.198 A 
ATOM     64  C   UNL A   1      44.318  34.879  27.387  1.00  0.00     0.198 A 
ATOM     65  F   UNL A   1      42.790  33.672  28.652  1.00  0.00    -0.203 F 
ATOM     66  F   UNL A   1      47.458  33.925  25.888  1.00  0.00    -0.200 F 
ATOM     67  C   UNL A   1      45.519  34.977  26.713  1.00  0.00     0.200 A 
ATOM     68  F   UNL A   1      43.599  35.983  27.638  1.00  0.00    -0.200 F 
ATOM     69  F   UNL A   1      45.980  36.173  26.328  1.00  0.00    -0.200 F 
ENDBRANCH  45  59
BRANCH  46  70
ATOM     70  C   UNL A   1      36.948  31.982  30.790  1.00  0.00     0.064 A 
ATOM     71  C   UNL A   1      36.141  31.987  31.939  1.00  0.00     0.173 A 
ATOM     72  C   UNL A   1      36.595  32.889  29.779  1.00  0.00     0.173 A 
ATOM     73  F   UNL A   1      36.429  31.183  32.972  1.00  0.00    -0.203 F 
ATOM     74  C   UNL A   1      35.063  32.867  32.072  1.00  0.00     0.198 A 
ATOM     75  C   UNL A   1      35.516  33.764  29.906  1.00  0.00     0.198 A 
ATOM     76  F   UNL A   1      37.351  33.004  28.683  1.00  0.00    -0.203 F 
ATOM     77  F   UNL A   1      34.351  32.883  33.208  1.00  0.00    -0.200 F 
ATOM     78  C   UNL A   1      34.757  33.762  31.061  1.00  0.00     0.200 A 
ATOM     79  F   UNL A   1      35.254  34.645  28.931  1.00  0.00    -0.200 F 
ATOM     80  F   UNL A   1      33.760  34.643  31.212  1.00  0.00    -0.200 F 
ENDBRANCH  46  70
BRANCH  58  81
ATOM     81  C   UNL A   1      42.246  30.272  33.599  1.00  0.00     0.064 A 
ATOM     82  C   UNL A   1      41.784  28.954  33.452  1.00  0.00     0.173 A 
ATOM     83  C   UNL A   1      42.568  30.704  34.893  1.00  0.00     0.173 A 
ATOM     84  F   UNL A   1      41.561  28.433  32.239  1.00  0.00    -0.203 F 
ATOM     85  C   UNL A   1      41.595  28.127  34.558  1.00  0.00     0.198 A 
ATOM     86  C   UNL A   1      42.414  29.864  35.992  1.00  0.00     0.198 A 
ATOM     87  F   UNL A   1      43.073  31.933  35.086  1.00  0.00    -0.203 F 
ATOM     88  F   UNL A   1      41.131  26.880  34.393  1.00  0.00    -0.200 F 
ATOM     89  C   UNL A   1      41.915  28.582  35.827  1.00  0.00     0.200 A 
ATOM     90  F   UNL A   1      42.771  30.289  37.213  1.00  0.00    -0.200 F 
ATOM     91  F   UNL A   1      41.765  27.776  36.887  1.00  0.00    -0.200 F 
ENDBRANCH  58  81
ENDBRANCH  32  33
ENDBRANCH  24  27
ENDBRANCH  22  23
ENDBRANCH   1  22
TORSDOF 13
ENDMDL
MODEL 2
REMARK VINA RESULT:     -12.9      1.316      1.882
REMARK SMILES CC[C@@](C)(NC(=O)c1cc(C)c(Br)s1)C(=O)NCCCNC(=O)c1ccc(-c2c3nc(c(-c4c(F)c(F)c(F)c(F)c4F)c4ccc([nH]4)c(-c4c(F)c(F)c(F)c(F)c4F)c4nc(c(-c5c(F)c(F)c(F)c(F)c5F)c5ccc2[nH]5)C=C4)C=C3)cc1
REMARK SMILES IDX 19 1 18 2 17 3 15 4 16 5 3 7 4 8 2 9 1 10 5 11 6 12 7 14
REMARK SMILES IDX 8 15 9 16 14 17 10 18 12 19 11 20 13 21 20 22 21 23 22 24
REMARK SMILES IDX 23 26 24 27 25 28 86 29 26 30 85 31 27 32 28 33 29 34 79 35
REMARK SMILES IDX 30 36 84 37 78 38 80 39 31 40 83 41 77 42 76 43 32 45 64 46
REMARK SMILES IDX 44 47 63 48 45 49 48 50 62 51 81 52 46 53 47 54 61 56 82 57
REMARK SMILES IDX 49 58 33 59 34 60 42 61 35 62 36 63 40 64 43 65 37 66 38 67
REMARK SMILES IDX 41 68 39 69 65 70 66 71 74 72 67 73 68 74 72 75 75 76 69 77
REMARK SMILES IDX 70 78 73 79 71 80 50 81 51 82 59 83 52 84 53 85 57 86 60 87
REMARK SMILES IDX 54 88 55 89 58 90 56 91
REMARK H PARENT 17 6 5 13 21 25 80 44 48 55
REMARK Flexibility Score: inf
ROOT
ATOM      1  C   UNL A   1      38.898  21.594  26.058  1.00  0.00     0.042 C 
ENDROOT
BRANCH   1   2
ATOM      2  C   UNL A   1      38.113  22.882  25.790  1.00  0.00     0.117 C 
BRANCH   2   3
ATOM      3  N   UNL A   1      37.483  23.027  24.486  1.00  0.00    -0.354 N 
ATOM      4  C   UNL A   1      36.215  22.841  24.006  1.00  0.00     0.245 C 
ATOM      5  O   UNL A   1      36.003  23.338  22.894  1.00  0.00    -0.272 OA
ATOM      6  H   UNL A   1      38.111  23.327  23.790  1.00  0.00     0.163 HD
BRANCH   4   7
ATOM      7  C   UNL A   1      35.081  22.134  24.804  1.00  0.00     0.116 C 
ATOM      8  C   UNL A   1      35.518  20.661  24.985  1.00  0.00     0.045 C 
BRANCH   7   9
ATOM      9  C   UNL A   1      34.839  22.747  26.220  1.00  0.00     0.035 C 
ATOM     10  C   UNL A   1      34.249  21.841  27.297  1.00  0.00     0.007 C 
ENDBRANCH   7   9
BRANCH   7  11
ATOM     11  N   UNL A   1      33.789  22.137  24.076  1.00  0.00    -0.337 N 
ATOM     12  C   UNL A   1      32.713  23.002  24.084  1.00  0.00     0.262 C 
ATOM     13  H   UNL A   1      33.676  21.372  23.467  1.00  0.00     0.164 HD
ATOM     14  O   UNL A   1      31.666  22.518  23.650  1.00  0.00    -0.268 OA
BRANCH  12  15
ATOM     15  C   UNL A   1      32.811  24.381  24.538  1.00  0.00     0.093 A 
ATOM     16  C   UNL A   1      33.443  25.490  24.011  1.00  0.00     0.030 A 
ATOM     17  S   UNL A   1      31.911  24.847  25.928  1.00  0.00    -0.123 S 
ATOM     18  C   UNL A   1      33.290  26.693  24.770  1.00  0.00    -0.025 A 
ATOM     19  C   UNL A   1      32.437  26.453  25.819  1.00  0.00     0.074 A 
ATOM     20  C   UNL A   1      33.972  27.972  24.407  1.00  0.00     0.046 C 
ATOM     21  Br  UNL A   1      31.865  27.752  27.035  1.00  0.00    -0.039 Br
ENDBRANCH  12  15
ENDBRANCH   7  11
ENDBRANCH   4   7
ENDBRANCH   2   3
ENDBRANCH   1   2
BRANCH   1  22
ATOM     22  C   UNL A   1      40.201  21.747  26.832  1.00  0.00     0.118 C 
BRANCH  22  23
ATOM     23  N   UNL A   1      41.391  21.882  26.009  1.00  0.00    -0.352 N 
ATOM     24  C   UNL A   1      42.114  23.027  25.731  1.00  0.00     0.251 C 
ATOM     25  H   UNL A   1      41.724  21.053  25.597  1.00  0.00     0.163 HD
ATOM     26  O   UNL A   1      42.962  23.002  24.843  1.00  0.00    -0.269 OA
BRANCH  24  27
ATOM     27  C   UNL A   1      41.849  24.297  26.456  1.00  0.00     0.039 A 
ATOM     28  C   UNL A   1      42.482  24.537  27.679  1.00  0.00     0.014 A 
ATOM     29  C   UNL A   1      40.968  25.252  25.953  1.00  0.00     0.014 A 
ATOM     30  C   UNL A   1      42.285  25.754  28.346  1.00  0.00     0.010 A 
ATOM     31  C   UNL A   1      40.846  26.492  26.570  1.00  0.00     0.010 A 
ATOM     32  C   UNL A   1      41.479  26.756  27.783  1.00  0.00    -0.014 A 
BRANCH  32  33
ATOM     33  C   UNL A   1      41.384  28.081  28.424  1.00  0.00     0.031 A 
ATOM     34  C   UNL A   1      42.478  29.059  28.130  1.00  0.00     0.074 A 
ATOM     35  C   UNL A   1      40.321  28.588  29.091  1.00  0.00     0.049 A 
ATOM     36  N   UNL A   1      43.269  29.650  28.969  1.00  0.00    -0.248 NA
ATOM     37  C   UNL A   1      42.699  29.441  26.729  1.00  0.00     0.031 C 
ATOM     38  C   UNL A   1      38.982  28.025  29.266  1.00  0.00     0.029 A 
ATOM     39  N   UNL A   1      40.215  29.814  29.698  1.00  0.00    -0.354 N 
ATOM     40  C   UNL A   1      44.007  30.574  28.232  1.00  0.00     0.074 A 
ATOM     41  C   UNL A   1      43.655  30.364  26.849  1.00  0.00     0.031 C 
ATOM     42  C   UNL A   1      38.148  28.980  29.740  1.00  0.00     0.029 A 
ATOM     43  C   UNL A   1      38.927  30.162  30.068  1.00  0.00     0.049 A 
ATOM     44  H   UNL A   1      40.991  30.399  29.857  1.00  0.00     0.167 HD
ATOM     45  C   UNL A   1      44.762  31.545  28.821  1.00  0.00     0.037 A 
ATOM     46  C   UNL A   1      38.514  31.333  30.609  1.00  0.00     0.037 A 
ATOM     47  C   UNL A   1      45.022  31.271  30.208  1.00  0.00     0.049 A 
ATOM     48  C   UNL A   1      39.689  32.001  31.211  1.00  0.00     0.074 A 
ATOM     49  C   UNL A   1      45.610  30.233  30.906  1.00  0.00     0.029 A 
ATOM     50  N   UNL A   1      44.411  32.038  31.166  1.00  0.00    -0.354 N 
ATOM     51  N   UNL A   1      40.283  31.609  32.301  1.00  0.00    -0.248 NA
ATOM     52  C   UNL A   1      40.406  32.995  30.428  1.00  0.00     0.031 C 
ATOM     53  C   UNL A   1      44.897  30.160  32.141  1.00  0.00     0.029 A 
ATOM     54  C   UNL A   1      43.929  31.162  32.104  1.00  0.00     0.049 A 
ATOM     55  H   UNL A   1      44.334  33.020  31.179  1.00  0.00     0.167 HD
ATOM     56  C   UNL A   1      41.602  31.987  32.134  1.00  0.00     0.074 A 
ATOM     57  C   UNL A   1      41.584  32.962  31.052  1.00  0.00     0.031 C 
ATOM     58  C   UNL A   1      42.616  31.262  32.690  1.00  0.00     0.037 A 
BRANCH  45  59
ATOM     59  C   UNL A   1      45.082  32.882  28.204  1.00  0.00     0.064 A 
ATOM     60  C   UNL A   1      44.047  33.800  27.935  1.00  0.00     0.173 A 
ATOM     61  C   UNL A   1      46.331  33.182  27.623  1.00  0.00     0.173 A 
ATOM     62  F   UNL A   1      42.807  33.588  28.402  1.00  0.00    -0.203 F 
ATOM     63  C   UNL A   1      44.240  34.914  27.113  1.00  0.00     0.198 A 
ATOM     64  C   UNL A   1      46.535  34.322  26.845  1.00  0.00     0.198 A 
ATOM     65  F   UNL A   1      47.363  32.331  27.705  1.00  0.00    -0.203 F 
ATOM     66  F   UNL A   1      43.200  35.699  26.800  1.00  0.00    -0.200 F 
ATOM     67  C   UNL A   1      45.484  35.176  26.569  1.00  0.00     0.200 A 
ATOM     68  F   UNL A   1      47.741  34.549  26.305  1.00  0.00    -0.200 F 
ATOM     69  F   UNL A   1      45.660  36.217  25.746  1.00  0.00    -0.200 F 
ENDBRANCH  45  59
BRANCH  46  70
ATOM     70  C   UNL A   1      37.191  31.995  30.562  1.00  0.00     0.064 A 
ATOM     71  C   UNL A   1      36.293  31.930  31.638  1.00  0.00     0.173 A 
ATOM     72  C   UNL A   1      36.892  32.931  29.559  1.00  0.00     0.173 A 
ATOM     73  F   UNL A   1      36.521  31.094  32.661  1.00  0.00    -0.203 F 
ATOM     74  C   UNL A   1      35.178  32.771  31.714  1.00  0.00     0.198 A 
ATOM     75  C   UNL A   1      35.778  33.767  29.627  1.00  0.00     0.198 A 
ATOM     76  F   UNL A   1      37.732  33.112  28.535  1.00  0.00    -0.203 F 
ATOM     77  F   UNL A   1      34.376  32.720  32.786  1.00  0.00    -0.200 F 
ATOM     78  C   UNL A   1      34.928  33.696  30.714  1.00  0.00     0.200 A 
ATOM     79  F   UNL A   1      35.569  34.678  28.668  1.00  0.00    -0.200 F 
ATOM     80  F   UNL A   1      33.892  34.540  30.814  1.00  0.00    -0.200 F 
ENDBRANCH  46  70
BRANCH  58  81
ATOM     81  C   UNL A   1      42.260  30.269  33.757  1.00  0.00     0.064 A 
ATOM     82  C   UNL A   1      41.781  28.975  33.488  1.00  0.00     0.173 A 
ATOM     83  C   UNL A   1      42.525  30.595  35.094  1.00  0.00     0.173 A 
ATOM     84  F   UNL A   1      41.610  28.552  32.229  1.00  0.00    -0.203 F 
ATOM     85  C   UNL A   1      41.522  28.073  34.517  1.00  0.00     0.198 A 
ATOM     86  C   UNL A   1      42.300  29.678  36.117  1.00  0.00     0.198 A 
ATOM     87  F   UNL A   1      43.042  31.795  35.404  1.00  0.00    -0.203 F 
ATOM     88  F   UNL A   1      41.044  26.852  34.235  1.00  0.00    -0.200 F 
ATOM     89  C   UNL A   1      41.786  28.424  35.831  1.00  0.00     0.200 A 
ATOM     90  F   UNL A   1      42.602  30.003  37.383  1.00  0.00    -0.200 F 
ATOM     91  F   UNL A   1      41.568  27.544  36.818  1.00  0.00    -0.200 F 
ENDBRANCH  58  81
ENDBRANCH  32  33
ENDBRANCH  24  27
ENDBRANCH  22  23
ENDBRANCH   1  22
TORSDOF 13
ENDMDL
MODEL 3
REMARK VINA RESULT:     -12.8      3.827      9.081
REMARK SMILES CC[C@@](C)(NC(=O)c1cc(C)c(Br)s1)C(=O)NCCCNC(=O)c1ccc(-c2c3nc(c(-c4c(F)c(F)c(F)c(F)c4F)c4ccc([nH]4)c(-c4c(F)c(F)c(F)c(F)c4F)c4nc(c(-c5c(F)c(F)c(F)c(F)c5F)c5ccc2[nH]5)C=C4)C=C3)cc1
REMARK SMILES IDX 19 1 18 2 17 3 15 4 16 5 3 7 4 8 2 9 1 10 5 11 6 12 7 14
REMARK SMILES IDX 8 15 9 16 14 17 10 18 12 19 11 20 13 21 20 22 21 23 22 24
REMARK SMILES IDX 23 26 24 27 25 28 86 29 26 30 85 31 27 32 28 33 29 34 79 35
REMARK SMILES IDX 30 36 84 37 78 38 80 39 31 40 83 41 77 42 76 43 32 45 64 46
REMARK SMILES IDX 44 47 63 48 45 49 48 50 62 51 81 52 46 53 47 54 61 56 82 57
REMARK SMILES IDX 49 58 33 59 34 60 42 61 35 62 36 63 40 64 43 65 37 66 38 67
REMARK SMILES IDX 41 68 39 69 65 70 66 71 74 72 67 73 68 74 72 75 75 76 69 77
REMARK SMILES IDX 70 78 73 79 71 80 50 81 51 82 59 83 52 84 53 85 57 86 60 87
REMARK SMILES IDX 54 88 55 89 58 90 56 91
REMARK H PARENT 17 6 5 13 21 25 80 44 48 55
REMARK Flexibility Score: inf
ROOT
ATOM      1  C   UNL A   1      33.383  29.830  27.129  1.00  0.00     0.042 C 
ENDROOT
BRANCH   1   2
ATOM      2  C   UNL A   1      32.813  29.851  25.708  1.00  0.00     0.117 C 
BRANCH   2   3
ATOM      3  N   UNL A   1      33.666  29.367  24.632  1.00  0.00    -0.354 N 
ATOM      4  C   UNL A   1      33.442  28.732  23.441  1.00  0.00     0.245 C 
ATOM      5  O   UNL A   1      34.404  28.732  22.664  1.00  0.00    -0.272 OA
ATOM      6  H   UNL A   1      34.622  29.534  24.799  1.00  0.00     0.163 HD
BRANCH   4   7
ATOM      7  C   UNL A   1      32.073  28.116  23.031  1.00  0.00     0.116 C 
ATOM      8  C   UNL A   1      31.578  27.290  24.240  1.00  0.00     0.045 C 
BRANCH   7   9
ATOM      9  C   UNL A   1      30.985  29.184  22.693  1.00  0.00     0.035 C 
ATOM     10  C   UNL A   1      29.534  28.855  23.033  1.00  0.00     0.007 C 
ENDBRANCH   7   9
BRANCH   7  11
ATOM     11  N   UNL A   1      32.189  27.198  21.871  1.00  0.00    -0.337 N 
ATOM     12  C   UNL A   1      32.851  26.000  21.689  1.00  0.00     0.262 C 
ATOM     13  H   UNL A   1      31.697  27.503  21.075  1.00  0.00     0.164 HD
ATOM     14  O   UNL A   1      33.042  25.698  20.509  1.00  0.00    -0.268 OA
BRANCH  12  15
ATOM     15  C   UNL A   1      33.263  25.149  22.794  1.00  0.00     0.093 A 
ATOM     16  C   UNL A   1      34.341  25.201  23.655  1.00  0.00     0.030 A 
ATOM     17  S   UNL A   1      32.217  23.868  23.269  1.00  0.00    -0.123 S 
ATOM     18  C   UNL A   1      34.384  24.160  24.636  1.00  0.00    -0.025 A 
ATOM     19  C   UNL A   1      33.246  23.400  24.531  1.00  0.00     0.074 A 
ATOM     20  C   UNL A   1      35.518  23.999  25.597  1.00  0.00     0.046 C 
ATOM     21  Br  UNL A   1      32.816  21.976  25.663  1.00  0.00    -0.039 Br
ENDBRANCH  12  15
ENDBRANCH   7  11
ENDBRANCH   4   7
ENDBRANCH   2   3
ENDBRANCH   1   2
BRANCH   1  22
ATOM     22  C   UNL A   1      34.502  30.822  27.421  1.00  0.00     0.118 C 
BRANCH  22  23
ATOM     23  N   UNL A   1      34.255  31.710  28.545  1.00  0.00    -0.352 N 
ATOM     24  C   UNL A   1      34.954  31.799  29.734  1.00  0.00     0.251 C 
ATOM     25  H   UNL A   1      33.494  32.325  28.447  1.00  0.00     0.163 HD
ATOM     26  O   UNL A   1      34.481  32.448  30.663  1.00  0.00    -0.269 OA
BRANCH  24  27
ATOM     27  C   UNL A   1      36.244  31.084  29.923  1.00  0.00     0.039 A 
ATOM     28  C   UNL A   1      36.235  29.742  30.318  1.00  0.00     0.014 A 
ATOM     29  C   UNL A   1      37.466  31.723  29.732  1.00  0.00     0.014 A 
ATOM     30  C   UNL A   1      37.440  29.039  30.445  1.00  0.00     0.010 A 
ATOM     31  C   UNL A   1      38.653  30.999  29.770  1.00  0.00     0.010 A 
ATOM     32  C   UNL A   1      38.665  29.658  30.149  1.00  0.00    -0.014 A 
BRANCH  32  33
ATOM     33  C   UNL A   1      39.915  28.876  30.155  1.00  0.00     0.031 A 
ATOM     34  C   UNL A   1      40.595  28.690  31.475  1.00  0.00     0.074 A 
ATOM     35  C   UNL A   1      40.416  28.135  29.138  1.00  0.00     0.049 A 
ATOM     36  N   UNL A   1      41.802  29.028  31.806  1.00  0.00    -0.248 NA
ATOM     37  C   UNL A   1      39.844  28.025  32.547  1.00  0.00     0.031 C 
ATOM     38  C   UNL A   1      39.827  27.833  27.833  1.00  0.00     0.029 A 
ATOM     39  N   UNL A   1      41.578  27.406  29.122  1.00  0.00    -0.354 N 
ATOM     40  C   UNL A   1      42.019  28.513  33.082  1.00  0.00     0.074 A 
ATOM     41  C   UNL A   1      40.762  27.953  33.513  1.00  0.00     0.031 C 
ATOM     42  C   UNL A   1      40.521  26.831  27.246  1.00  0.00     0.029 A 
ATOM     43  C   UNL A   1      41.699  26.543  28.046  1.00  0.00     0.049 A 
ATOM     44  H   UNL A   1      42.270  27.489  29.818  1.00  0.00     0.167 HD
ATOM     45  C   UNL A   1      43.258  28.461  33.650  1.00  0.00     0.037 A 
ATOM     46  C   UNL A   1      42.691  25.651  27.814  1.00  0.00     0.037 A 
ATOM     47  C   UNL A   1      44.201  29.320  32.988  1.00  0.00     0.049 A 
ATOM     48  C   UNL A   1      43.876  26.068  28.596  1.00  0.00     0.074 A 
ATOM     49  C   UNL A   1      44.261  30.673  32.709  1.00  0.00     0.029 A 
ATOM     50  N   UNL A   1      45.204  28.761  32.240  1.00  0.00    -0.354 N 
ATOM     51  N   UNL A   1      44.621  27.098  28.314  1.00  0.00    -0.248 NA
ATOM     52  C   UNL A   1      44.095  25.473  29.904  1.00  0.00     0.031 C 
ATOM     53  C   UNL A   1      44.936  30.767  31.454  1.00  0.00     0.029 A 
ATOM     54  C   UNL A   1      45.238  29.464  31.063  1.00  0.00     0.049 A 
ATOM     55  H   UNL A   1      45.784  28.007  32.496  1.00  0.00     0.167 HD
ATOM     56  C   UNL A   1      45.098  27.527  29.539  1.00  0.00     0.074 A 
ATOM     57  C   UNL A   1      44.875  26.409  30.447  1.00  0.00     0.031 C 
ATOM     58  C   UNL A   1      45.363  28.845  29.767  1.00  0.00     0.037 A 
BRANCH  45  59
ATOM     59  C   UNL A   1      43.696  27.447  34.676  1.00  0.00     0.064 A 
ATOM     60  C   UNL A   1      43.678  26.073  34.361  1.00  0.00     0.173 A 
ATOM     61  C   UNL A   1      43.873  27.760  36.039  1.00  0.00     0.173 A 
ATOM     62  F   UNL A   1      43.471  25.663  33.100  1.00  0.00    -0.203 F 
ATOM     63  C   UNL A   1      43.789  25.086  35.345  1.00  0.00     0.198 A 
ATOM     64  C   UNL A   1      44.037  26.773  37.013  1.00  0.00     0.198 A 
ATOM     65  F   UNL A   1      43.791  29.021  36.484  1.00  0.00    -0.203 F 
ATOM     66  F   UNL A   1      43.661  23.795  35.011  1.00  0.00    -0.200 F 
ATOM     67  C   UNL A   1      43.971  25.437  36.670  1.00  0.00     0.200 A 
ATOM     68  F   UNL A   1      44.187  27.128  38.296  1.00  0.00    -0.200 F 
ATOM     69  F   UNL A   1      44.034  24.494  37.619  1.00  0.00    -0.200 F 
ENDBRANCH  45  59
BRANCH  46  70
ATOM     70  C   UNL A   1      42.680  24.385  27.046  1.00  0.00     0.064 A 
ATOM     71  C   UNL A   1      43.207  24.303  25.748  1.00  0.00     0.173 A 
ATOM     72  C   UNL A   1      42.392  23.166  27.678  1.00  0.00     0.173 A 
ATOM     73  F   UNL A   1      43.550  25.417  25.084  1.00  0.00    -0.203 F 
ATOM     74  C   UNL A   1      43.453  23.071  25.134  1.00  0.00     0.198 A 
ATOM     75  C   UNL A   1      42.629  21.935  27.067  1.00  0.00     0.198 A 
ATOM     76  F   UNL A   1      41.957  23.148  28.942  1.00  0.00    -0.203 F 
ATOM     77  F   UNL A   1      44.011  23.032  23.916  1.00  0.00    -0.200 F 
ATOM     78  C   UNL A   1      43.173  21.888  25.797  1.00  0.00     0.200 A 
ATOM     79  F   UNL A   1      42.384  20.800  27.735  1.00  0.00    -0.200 F 
ATOM     80  F   UNL A   1      43.461  20.708  25.232  1.00  0.00    -0.200 F 
ENDBRANCH  46  70
BRANCH  58  81
ATOM     81  C   UNL A   1      45.458  29.754  28.577  1.00  0.00     0.064 A 
ATOM     82  C   UNL A   1      44.341  30.311  27.931  1.00  0.00     0.173 A 
ATOM     83  C   UNL A   1      46.726  30.170  28.149  1.00  0.00     0.173 A 
ATOM     84  F   UNL A   1      43.099  30.049  28.355  1.00  0.00    -0.203 F 
ATOM     85  C   UNL A   1      44.490  31.195  26.865  1.00  0.00     0.198 A 
ATOM     86  C   UNL A   1      46.872  31.083  27.108  1.00  0.00     0.198 A 
ATOM     87  F   UNL A   1      47.828  29.719  28.770  1.00  0.00    -0.203 F 
ATOM     88  F   UNL A   1      43.408  31.695  26.250  1.00  0.00    -0.200 F 
ATOM     89  C   UNL A   1      45.756  31.585  26.457  1.00  0.00     0.200 A 
ATOM     90  F   UNL A   1      48.096  31.495  26.748  1.00  0.00    -0.200 F 
ATOM     91  F   UNL A   1      45.899  32.462  25.455  1.00  0.00    -0.200 F 
ENDBRANCH  58  81
ENDBRANCH  32  33
ENDBRANCH  24  27
ENDBRANCH  22  23
ENDBRANCH   1  22
TORSDOF 13
ENDMDL
