MODEL 1
REMARK VINA RESULT:     -13.4      0.000      0.000
REMARK SMILES CO[C@H]1C[C@@H](C(=O)NCCCNC(=O)c2ccc(-c3c4nc(c(-c5c(F)c(F)c(F)c(F)c5F)c5ccc([nH]5)c(-c5c(F)c(F)c(F)c(F)c5F)c5nc(c(-c6c(F)c(F)c(F)c(F)c6F)c6ccc3[nH]6)C=C5)C=C4)cc2)N(C(=O)Nc2cc(C)cc(F)c2)C1
REMARK SMILES IDX 10 1 9 2 8 3 6 4 7 5 5 7 3 8 4 9 90 10 78 11 2 12 1 13 79 14
REMARK SMILES IDX 80 15 81 16 82 18 83 19 89 20 84 21 87 22 85 23 86 24 88 25
REMARK SMILES IDX 11 26 12 27 13 28 14 30 15 31 16 32 77 33 17 34 76 35 18 36
REMARK SMILES IDX 19 37 20 38 70 39 21 40 75 41 69 42 71 43 22 44 74 45 68 46
REMARK SMILES IDX 67 47 23 49 55 50 35 51 54 52 36 53 39 54 53 55 72 56 37 57
REMARK SMILES IDX 38 58 52 60 73 61 40 62 24 63 25 64 33 65 26 66 27 67 31 68
REMARK SMILES IDX 34 69 28 70 29 71 32 72 30 73 56 74 57 75 65 76 58 77 59 78
REMARK SMILES IDX 63 79 66 80 60 81 61 82 64 83 62 84 41 85 42 86 50 87 43 88
REMARK SMILES IDX 44 89 48 90 51 91 45 92 46 93 49 94 47 95
REMARK H PARENT 8 6 81 17 12 29 71 48 39 59
REMARK Flexibility Score: inf
ROOT
ATOM      1  C   UNL A   1      31.312  32.154  26.524  1.00  0.00     0.042 C 
ENDROOT
BRANCH   1   2
ATOM      2  C   UNL A   1      31.558  30.819  25.829  1.00  0.00     0.117 C 
BRANCH   2   3
ATOM      3  N   UNL A   1      31.855  29.708  26.721  1.00  0.00    -0.354 N 
ATOM      4  C   UNL A   1      32.096  28.384  26.496  1.00  0.00     0.242 C 
ATOM      5  O   UNL A   1      32.988  27.885  27.196  1.00  0.00    -0.273 OA
ATOM      6  H   UNL A   1      31.887  29.961  27.672  1.00  0.00     0.163 HD
BRANCH   4   7
ATOM      7  C   UNL A   1      31.329  27.477  25.501  1.00  0.00     0.179 C 
ATOM      8  C   UNL A   1      30.496  25.253  25.053  1.00  0.00     0.140 C 
ATOM      9  C   UNL A   1      31.088  26.120  26.138  1.00  0.00     0.069 C 
ATOM     10  C   UNL A   1      31.217  25.777  23.807  1.00  0.00     0.154 C 
ATOM     11  N   UNL A   1      31.763  27.109  24.131  1.00  0.00    -0.310 N 
BRANCH   8  12
ATOM     12  O   UNL A   1      30.800  23.872  25.253  1.00  0.00    -0.380 OA
ATOM     13  C   UNL A   1      30.635  23.423  26.593  1.00  0.00     0.195 C 
ENDBRANCH   8  12
BRANCH  11  14
ATOM     14  C   UNL A   1      31.995  27.900  23.027  1.00  0.00     0.322 C 
ATOM     15  O   UNL A   1      33.140  28.083  22.600  1.00  0.00    -0.248 OA
ATOM     16  N   UNL A   1      30.990  28.372  22.263  1.00  0.00    -0.308 N 
ATOM     17  H   UNL A   1      31.123  28.233  21.298  1.00  0.00     0.171 HD
BRANCH  16  18
ATOM     18  C   UNL A   1      29.793  29.022  22.580  1.00  0.00     0.046 A 
ATOM     19  C   UNL A   1      29.811  30.423  22.563  1.00  0.00     0.029 A 
ATOM     20  C   UNL A   1      28.628  28.348  22.928  1.00  0.00     0.065 A 
ATOM     21  C   UNL A   1      28.630  31.156  22.731  1.00  0.00    -0.046 A 
ATOM     22  C   UNL A   1      27.466  29.086  23.142  1.00  0.00     0.125 A 
ATOM     23  C   UNL A   1      28.639  32.648  22.599  1.00  0.00     0.044 C 
ATOM     24  C   UNL A   1      27.448  30.472  23.023  1.00  0.00     0.042 A 
ATOM     25  F   UNL A   1      26.318  28.447  23.407  1.00  0.00    -0.207 F 
ENDBRANCH  16  18
ENDBRANCH  11  14
ENDBRANCH   4   7
ENDBRANCH   2   3
ENDBRANCH   1   2
BRANCH   1  26
ATOM     26  C   UNL A   1      32.528  32.723  27.253  1.00  0.00     0.118 C 
BRANCH  26  27
ATOM     27  N   UNL A   1      32.385  34.138  27.584  1.00  0.00    -0.352 N 
ATOM     28  C   UNL A   1      32.976  34.893  28.559  1.00  0.00     0.251 C 
ATOM     29  H   UNL A   1      31.757  34.631  27.008  1.00  0.00     0.163 HD
ATOM     30  O   UNL A   1      32.521  36.006  28.833  1.00  0.00    -0.269 OA
BRANCH  28  31
ATOM     31  C   UNL A   1      34.152  34.388  29.290  1.00  0.00     0.039 A 
ATOM     32  C   UNL A   1      33.975  33.786  30.539  1.00  0.00     0.014 A 
ATOM     33  C   UNL A   1      35.437  34.546  28.764  1.00  0.00     0.014 A 
ATOM     34  C   UNL A   1      35.077  33.272  31.223  1.00  0.00     0.010 A 
ATOM     35  C   UNL A   1      36.526  33.972  29.413  1.00  0.00     0.010 A 
ATOM     36  C   UNL A   1      36.357  33.323  30.645  1.00  0.00    -0.014 A 
BRANCH  36  37
ATOM     37  C   UNL A   1      37.523  32.676  31.297  1.00  0.00     0.031 A 
ATOM     38  C   UNL A   1      38.236  31.535  30.628  1.00  0.00     0.074 A 
ATOM     39  C   UNL A   1      37.891  33.072  32.531  1.00  0.00     0.049 A 
ATOM     40  N   UNL A   1      39.220  30.798  31.077  1.00  0.00    -0.248 NA
ATOM     41  C   UNL A   1      37.765  31.158  29.287  1.00  0.00     0.031 C 
ATOM     42  C   UNL A   1      37.248  34.138  33.302  1.00  0.00     0.029 A 
ATOM     43  N   UNL A   1      38.884  32.616  33.361  1.00  0.00    -0.354 N 
ATOM     44  C   UNL A   1      39.478  29.864  30.080  1.00  0.00     0.074 A 
ATOM     45  C   UNL A   1      38.513  30.095  29.027  1.00  0.00     0.031 C 
ATOM     46  C   UNL A   1      37.874  34.267  34.482  1.00  0.00     0.029 A 
ATOM     47  C   UNL A   1      38.932  33.265  34.571  1.00  0.00     0.049 A 
ATOM     48  H   UNL A   1      39.504  31.893  33.113  1.00  0.00     0.167 HD
ATOM     49  C   UNL A   1      40.445  28.917  30.041  1.00  0.00     0.037 A 
ATOM     50  C   UNL A   1      39.728  33.063  35.639  1.00  0.00     0.037 A 
ATOM     51  C   UNL A   1      41.409  28.699  31.090  1.00  0.00     0.049 A 
ATOM     52  C   UNL A   1      40.774  31.985  35.579  1.00  0.00     0.074 A 
ATOM     53  C   UNL A   1      42.464  27.804  31.119  1.00  0.00     0.029 A 
ATOM     54  N   UNL A   1      41.428  29.378  32.300  1.00  0.00    -0.354 N 
ATOM     55  N   UNL A   1      41.058  31.158  34.602  1.00  0.00    -0.248 NA
ATOM     56  C   UNL A   1      41.614  31.812  36.773  1.00  0.00     0.031 C 
ATOM     57  C   UNL A   1      43.085  27.900  32.368  1.00  0.00     0.029 A 
ATOM     58  C   UNL A   1      42.458  28.899  33.095  1.00  0.00     0.049 A 
ATOM     59  H   UNL A   1      40.803  30.095  32.555  1.00  0.00     0.167 HD
ATOM     60  C   UNL A   1      42.122  30.388  35.050  1.00  0.00     0.074 A 
ATOM     61  C   UNL A   1      42.447  30.859  36.380  1.00  0.00     0.031 C 
ATOM     62  C   UNL A   1      42.770  29.378  34.417  1.00  0.00     0.037 A 
BRANCH  49  63
ATOM     63  C   UNL A   1      40.507  28.036  28.825  1.00  0.00     0.064 A 
ATOM     64  C   UNL A   1      39.799  26.826  28.755  1.00  0.00     0.173 A 
ATOM     65  C   UNL A   1      41.251  28.424  27.701  1.00  0.00     0.173 A 
ATOM     66  F   UNL A   1      39.078  26.404  29.805  1.00  0.00    -0.203 F 
ATOM     67  C   UNL A   1      39.859  26.024  27.618  1.00  0.00     0.198 A 
ATOM     68  C   UNL A   1      41.282  27.635  26.553  1.00  0.00     0.198 A 
ATOM     69  F   UNL A   1      41.942  29.574  27.710  1.00  0.00    -0.203 F 
ATOM     70  F   UNL A   1      39.214  24.849  27.594  1.00  0.00    -0.200 F 
ATOM     71  C   UNL A   1      40.593  26.433  26.516  1.00  0.00     0.200 A 
ATOM     72  F   UNL A   1      41.981  28.040  25.483  1.00  0.00    -0.200 F 
ATOM     73  F   UNL A   1      40.643  25.664  25.419  1.00  0.00    -0.200 F 
ENDBRANCH  49  63
BRANCH  50  74
ATOM     74  C   UNL A   1      39.574  33.911  36.851  1.00  0.00     0.064 A 
ATOM     75  C   UNL A   1      38.791  33.486  37.933  1.00  0.00     0.173 A 
ATOM     76  C   UNL A   1      40.198  35.163  36.951  1.00  0.00     0.173 A 
ATOM     77  F   UNL A   1      38.159  32.303  37.877  1.00  0.00    -0.203 F 
ATOM     78  C   UNL A   1      38.619  34.288  39.057  1.00  0.00     0.198 A 
ATOM     79  C   UNL A   1      40.051  35.952  38.090  1.00  0.00     0.198 A 
ATOM     80  F   UNL A   1      40.963  35.616  35.947  1.00  0.00    -0.203 F 
ATOM     81  F   UNL A   1      37.824  33.878  40.055  1.00  0.00    -0.200 F 
ATOM     82  C   UNL A   1      39.253  35.519  39.138  1.00  0.00     0.200 A 
ATOM     83  F   UNL A   1      40.679  37.133  38.171  1.00  0.00    -0.200 F 
ATOM     84  F   UNL A   1      39.090  36.290  40.222  1.00  0.00    -0.200 F 
ENDBRANCH  50  74
BRANCH  62  85
ATOM     85  C   UNL A   1      43.916  28.734  35.145  1.00  0.00     0.064 A 
ATOM     86  C   UNL A   1      45.226  29.225  35.042  1.00  0.00     0.173 A 
ATOM     87  C   UNL A   1      43.694  27.631  35.986  1.00  0.00     0.173 A 
ATOM     88  F   UNL A   1      45.495  30.267  34.239  1.00  0.00    -0.203 F 
ATOM     89  C   UNL A   1      46.275  28.621  35.729  1.00  0.00     0.198 A 
ATOM     90  C   UNL A   1      44.739  27.051  36.698  1.00  0.00     0.198 A 
ATOM     91  F   UNL A   1      42.460  27.126  36.126  1.00  0.00    -0.203 F 
ATOM     92  F   UNL A   1      47.527  29.074  35.572  1.00  0.00    -0.200 F 
ATOM     93  C   UNL A   1      46.029  27.540  36.562  1.00  0.00     0.200 A 
ATOM     94  F   UNL A   1      44.497  26.017  37.516  1.00  0.00    -0.200 F 
ATOM     95  F   UNL A   1      47.039  26.964  37.230  1.00  0.00    -0.200 F 
ENDBRANCH  62  85
ENDBRANCH  36  37
ENDBRANCH  28  31
ENDBRANCH  26  27
ENDBRANCH   1  26
TORSDOF 13
ENDMDL
MODEL 2
REMARK VINA RESULT:     -13.2      6.265     11.695
REMARK SMILES CO[C@H]1C[C@@H](C(=O)NCCCNC(=O)c2ccc(-c3c4nc(c(-c5c(F)c(F)c(F)c(F)c5F)c5ccc([nH]5)c(-c5c(F)c(F)c(F)c(F)c5F)c5nc(c(-c6c(F)c(F)c(F)c(F)c6F)c6ccc3[nH]6)C=C5)C=C4)cc2)N(C(=O)Nc2cc(C)cc(F)c2)C1
REMARK SMILES IDX 10 1 9 2 8 3 6 4 7 5 5 7 3 8 4 9 90 10 78 11 2 12 1 13 79 14
REMARK SMILES IDX 80 15 81 16 82 18 83 19 89 20 84 21 87 22 85 23 86 24 88 25
REMARK SMILES IDX 11 26 12 27 13 28 14 30 15 31 16 32 77 33 17 34 76 35 18 36
REMARK SMILES IDX 19 37 20 38 70 39 21 40 75 41 69 42 71 43 22 44 74 45 68 46
REMARK SMILES IDX 67 47 23 49 55 50 35 51 54 52 36 53 39 54 53 55 72 56 37 57
REMARK SMILES IDX 38 58 52 60 73 61 40 62 24 63 25 64 33 65 26 66 27 67 31 68
REMARK SMILES IDX 34 69 28 70 29 71 32 72 30 73 56 74 57 75 65 76 58 77 59 78
REMARK SMILES IDX 63 79 66 80 60 81 61 82 64 83 62 84 41 85 42 86 50 87 43 88
REMARK SMILES IDX 44 89 48 90 51 91 45 92 46 93 49 94 47 95
REMARK H PARENT 8 6 81 17 12 29 71 48 39 59
REMARK Flexibility Score: inf
ROOT
ATOM      1  C   UNL A   1      38.073  19.544  24.877  1.00  0.00     0.042 C 
ENDROOT
BRANCH   1   2
ATOM      2  C   UNL A   1      36.771  20.329  25.001  1.00  0.00     0.117 C 
BRANCH   2   3
ATOM      3  N   UNL A   1      36.836  21.705  24.533  1.00  0.00    -0.354 N 
ATOM      4  C   UNL A   1      35.905  22.699  24.460  1.00  0.00     0.242 C 
ATOM      5  O   UNL A   1      36.316  23.829  24.758  1.00  0.00    -0.273 OA
ATOM      6  H   UNL A   1      37.726  21.971  24.204  1.00  0.00     0.163 HD
BRANCH   4   7
ATOM      7  C   UNL A   1      34.434  22.534  23.999  1.00  0.00     0.179 C 
ATOM      8  C   UNL A   1      32.605  23.509  22.756  1.00  0.00     0.140 C 
ATOM      9  C   UNL A   1      34.086  23.640  23.019  1.00  0.00     0.069 C 
ATOM     10  C   UNL A   1      32.088  23.035  24.118  1.00  0.00     0.154 C 
ATOM     11  N   UNL A   1      33.236  22.500  24.873  1.00  0.00    -0.310 N 
BRANCH   8  12
ATOM     12  O   UNL A   1      32.013  24.763  22.414  1.00  0.00    -0.380 OA
ATOM     13  C   UNL A   1      32.809  25.573  21.557  1.00  0.00     0.195 C 
ENDBRANCH   8  12
BRANCH  11  14
ATOM     14  C   UNL A   1      32.886  21.616  25.869  1.00  0.00     0.322 C 
ATOM     15  O   UNL A   1      32.905  21.949  27.059  1.00  0.00    -0.248 OA
ATOM     16  N   UNL A   1      32.347  20.409  25.596  1.00  0.00    -0.308 N 
ATOM     17  H   UNL A   1      31.540  20.205  26.121  1.00  0.00     0.171 HD
BRANCH  16  18
ATOM     18  C   UNL A   1      32.717  19.394  24.710  1.00  0.00     0.046 A 
ATOM     19  C   UNL A   1      33.602  18.422  25.196  1.00  0.00     0.029 A 
ATOM     20  C   UNL A   1      32.273  19.330  23.394  1.00  0.00     0.065 A 
ATOM     21  C   UNL A   1      33.920  17.295  24.428  1.00  0.00    -0.046 A 
ATOM     22  C   UNL A   1      32.631  18.230  22.618  1.00  0.00     0.125 A 
ATOM     23  C   UNL A   1      34.776  16.206  24.999  1.00  0.00     0.044 C 
ATOM     24  C   UNL A   1      33.424  17.205  23.126  1.00  0.00     0.042 A 
ATOM     25  F   UNL A   1      32.153  18.117  21.371  1.00  0.00    -0.207 F 
ENDBRANCH  16  18
ENDBRANCH  11  14
ENDBRANCH   4   7
ENDBRANCH   2   3
ENDBRANCH   1   2
BRANCH   1  26
ATOM     26  C   UNL A   1      39.212  20.064  25.754  1.00  0.00     0.118 C 
BRANCH  26  27
ATOM     27  N   UNL A   1      40.264  19.076  25.968  1.00  0.00    -0.352 N 
ATOM     28  C   UNL A   1      41.614  19.225  26.135  1.00  0.00     0.251 C 
ATOM     29  H   UNL A   1      39.949  18.143  25.997  1.00  0.00     0.163 HD
ATOM     30  O   UNL A   1      42.356  18.246  26.040  1.00  0.00    -0.269 OA
BRANCH  28  31
ATOM     31  C   UNL A   1      42.191  20.550  26.424  1.00  0.00     0.039 A 
ATOM     32  C   UNL A   1      42.691  21.323  25.373  1.00  0.00     0.014 A 
ATOM     33  C   UNL A   1      42.277  21.015  27.739  1.00  0.00     0.014 A 
ATOM     34  C   UNL A   1      43.207  22.594  25.632  1.00  0.00     0.010 A 
ATOM     35  C   UNL A   1      42.727  22.308  27.988  1.00  0.00     0.010 A 
ATOM     36  C   UNL A   1      43.189  23.114  26.937  1.00  0.00    -0.014 A 
BRANCH  36  37
ATOM     37  C   UNL A   1      43.619  24.507  27.217  1.00  0.00     0.031 A 
ATOM     38  C   UNL A   1      42.634  25.522  27.725  1.00  0.00     0.074 A 
ATOM     39  C   UNL A   1      44.886  24.873  26.940  1.00  0.00     0.049 A 
ATOM     40  N   UNL A   1      42.806  26.800  27.951  1.00  0.00    -0.248 NA
ATOM     41  C   UNL A   1      41.270  25.043  27.992  1.00  0.00     0.031 C 
ATOM     42  C   UNL A   1      45.921  23.990  26.402  1.00  0.00     0.029 A 
ATOM     43  N   UNL A   1      45.514  26.088  27.058  1.00  0.00    -0.354 N 
ATOM     44  C   UNL A   1      41.572  27.278  28.374  1.00  0.00     0.074 A 
ATOM     45  C   UNL A   1      40.649  26.166  28.324  1.00  0.00     0.031 C 
ATOM     46  C   UNL A   1      47.059  24.685  26.254  1.00  0.00     0.029 A 
ATOM     47  C   UNL A   1      46.824  26.072  26.644  1.00  0.00     0.049 A 
ATOM     48  H   UNL A   1      45.069  26.893  27.408  1.00  0.00     0.167 HD
ATOM     49  C   UNL A   1      41.248  28.527  28.787  1.00  0.00     0.037 A 
ATOM     50  C   UNL A   1      47.728  27.067  26.571  1.00  0.00     0.037 A 
ATOM     51  C   UNL A   1      42.175  29.628  28.844  1.00  0.00     0.049 A 
ATOM     52  C   UNL A   1      47.332  28.451  27.008  1.00  0.00     0.074 A 
ATOM     53  C   UNL A   1      41.957  30.915  29.304  1.00  0.00     0.029 A 
ATOM     54  N   UNL A   1      43.495  29.574  28.420  1.00  0.00    -0.354 N 
ATOM     55  N   UNL A   1      46.184  28.874  27.478  1.00  0.00    -0.248 NA
ATOM     56  C   UNL A   1      48.360  29.496  26.907  1.00  0.00     0.031 C 
ATOM     57  C   UNL A   1      43.127  31.655  29.102  1.00  0.00     0.029 A 
ATOM     58  C   UNL A   1      44.094  30.814  28.577  1.00  0.00     0.049 A 
ATOM     59  H   UNL A   1      43.940  28.772  28.061  1.00  0.00     0.167 HD
ATOM     60  C   UNL A   1      46.358  30.223  27.753  1.00  0.00     0.074 A 
ATOM     61  C   UNL A   1      47.730  30.544  27.416  1.00  0.00     0.031 C 
ATOM     62  C   UNL A   1      45.461  31.118  28.238  1.00  0.00     0.037 A 
BRANCH  49  63
ATOM     63  C   UNL A   1      39.826  28.773  29.206  1.00  0.00     0.064 A 
ATOM     64  C   UNL A   1      39.411  28.609  30.537  1.00  0.00     0.173 A 
ATOM     65  C   UNL A   1      38.875  29.218  28.276  1.00  0.00     0.173 A 
ATOM     66  F   UNL A   1      40.278  28.178  31.466  1.00  0.00    -0.203 F 
ATOM     67  C   UNL A   1      38.092  28.850  30.913  1.00  0.00     0.198 A 
ATOM     68  C   UNL A   1      37.564  29.490  28.662  1.00  0.00     0.198 A 
ATOM     69  F   UNL A   1      39.217  29.400  26.991  1.00  0.00    -0.203 F 
ATOM     70  F   UNL A   1      37.709  28.637  32.180  1.00  0.00    -0.200 F 
ATOM     71  C   UNL A   1      37.173  29.298  29.978  1.00  0.00     0.200 A 
ATOM     72  F   UNL A   1      36.680  29.938  27.759  1.00  0.00    -0.200 F 
ATOM     73  F   UNL A   1      35.905  29.538  30.343  1.00  0.00    -0.200 F 
ENDBRANCH  49  63
BRANCH  50  74
ATOM     74  C   UNL A   1      49.102  26.789  26.074  1.00  0.00     0.064 A 
ATOM     75  C   UNL A   1      49.436  26.990  24.728  1.00  0.00     0.173 A 
ATOM     76  C   UNL A   1      50.105  26.310  26.929  1.00  0.00     0.173 A 
ATOM     77  F   UNL A   1      48.506  27.429  23.866  1.00  0.00    -0.203 F 
ATOM     78  C   UNL A   1      50.712  26.701  24.251  1.00  0.00     0.198 A 
ATOM     79  C   UNL A   1      51.391  26.051  26.458  1.00  0.00     0.198 A 
ATOM     80  F   UNL A   1      49.841  26.105  28.229  1.00  0.00    -0.203 F 
ATOM     81  F   UNL A   1      50.988  26.855  22.949  1.00  0.00    -0.200 F 
ATOM     82  C   UNL A   1      51.690  26.237  25.118  1.00  0.00     0.200 A 
ATOM     83  F   UNL A   1      52.338  25.620  27.302  1.00  0.00    -0.200 F 
ATOM     84  F   UNL A   1      52.920  25.963  24.659  1.00  0.00    -0.200 F 
ENDBRANCH  50  74
BRANCH  62  85
ATOM     85  C   UNL A   1      45.944  32.524  28.461  1.00  0.00     0.064 A 
ATOM     86  C   UNL A   1      45.823  33.511  27.473  1.00  0.00     0.173 A 
ATOM     87  C   UNL A   1      46.502  32.895  29.695  1.00  0.00     0.173 A 
ATOM     88  F   UNL A   1      45.312  33.204  26.270  1.00  0.00    -0.203 F 
ATOM     89  C   UNL A   1      46.270  34.811  27.699  1.00  0.00     0.198 A 
ATOM     90  C   UNL A   1      46.915  34.203  29.930  1.00  0.00     0.198 A 
ATOM     91  F   UNL A   1      46.635  31.991  30.677  1.00  0.00    -0.203 F 
ATOM     92  F   UNL A   1      46.193  35.724  26.721  1.00  0.00    -0.200 F 
ATOM     93  C   UNL A   1      46.807  35.157  28.930  1.00  0.00     0.200 A 
ATOM     94  F   UNL A   1      47.420  34.540  31.125  1.00  0.00    -0.200 F 
ATOM     95  F   UNL A   1      47.229  36.410  29.150  1.00  0.00    -0.200 F 
ENDBRANCH  62  85
ENDBRANCH  36  37
ENDBRANCH  28  31
ENDBRANCH  26  27
ENDBRANCH   1  26
TORSDOF 13
ENDMDL
MODEL 3
REMARK VINA RESULT:     -13.1      6.242     11.653
REMARK SMILES CO[C@H]1C[C@@H](C(=O)NCCCNC(=O)c2ccc(-c3c4nc(c(-c5c(F)c(F)c(F)c(F)c5F)c5ccc([nH]5)c(-c5c(F)c(F)c(F)c(F)c5F)c5nc(c(-c6c(F)c(F)c(F)c(F)c6F)c6ccc3[nH]6)C=C5)C=C4)cc2)N(C(=O)Nc2cc(C)cc(F)c2)C1
REMARK SMILES IDX 10 1 9 2 8 3 6 4 7 5 5 7 3 8 4 9 90 10 78 11 2 12 1 13 79 14
REMARK SMILES IDX 80 15 81 16 82 18 83 19 89 20 84 21 87 22 85 23 86 24 88 25
REMARK SMILES IDX 11 26 12 27 13 28 14 30 15 31 16 32 77 33 17 34 76 35 18 36
REMARK SMILES IDX 19 37 20 38 70 39 21 40 75 41 69 42 71 43 22 44 74 45 68 46
REMARK SMILES IDX 67 47 23 49 55 50 35 51 54 52 36 53 39 54 53 55 72 56 37 57
REMARK SMILES IDX 38 58 52 60 73 61 40 62 24 63 25 64 33 65 26 66 27 67 31 68
REMARK SMILES IDX 34 69 28 70 29 71 32 72 30 73 56 74 57 75 65 76 58 77 59 78
REMARK SMILES IDX 63 79 66 80 60 81 61 82 64 83 62 84 41 85 42 86 50 87 43 88
REMARK SMILES IDX 44 89 48 90 51 91 45 92 46 93 49 94 47 95
REMARK H PARENT 8 6 81 17 12 29 71 48 39 59
REMARK Flexibility Score: inf
ROOT
ATOM      1  C   UNL A   1      38.051  19.562  24.876  1.00  0.00     0.042 C 
ENDROOT
BRANCH   1   2
ATOM      2  C   UNL A   1      36.752  20.350  25.004  1.00  0.00     0.117 C 
BRANCH   2   3
ATOM      3  N   UNL A   1      36.852  21.760  24.656  1.00  0.00    -0.354 N 
ATOM      4  C   UNL A   1      35.925  22.757  24.572  1.00  0.00     0.242 C 
ATOM      5  O   UNL A   1      36.296  23.860  24.998  1.00  0.00    -0.273 OA
ATOM      6  H   UNL A   1      37.767  22.051  24.439  1.00  0.00     0.163 HD
BRANCH   4   7
ATOM      7  C   UNL A   1      34.508  22.630  23.956  1.00  0.00     0.179 C 
ATOM      8  C   UNL A   1      32.866  23.626  22.489  1.00  0.00     0.140 C 
ATOM      9  C   UNL A   1      34.313  23.713  22.910  1.00  0.00     0.069 C 
ATOM     10  C   UNL A   1      32.184  23.219  23.799  1.00  0.00     0.154 C 
ATOM     11  N   UNL A   1      33.221  22.670  24.693  1.00  0.00    -0.310 N 
BRANCH   8  12
ATOM     12  O   UNL A   1      32.366  24.889  22.045  1.00  0.00    -0.380 OA
ATOM     13  C   UNL A   1      33.060  26.012  22.575  1.00  0.00     0.195 C 
ENDBRANCH   8  12
BRANCH  11  14
ATOM     14  C   UNL A   1      32.729  21.835  25.671  1.00  0.00     0.322 C 
ATOM     15  O   UNL A   1      32.652  22.201  26.849  1.00  0.00    -0.248 OA
ATOM     16  N   UNL A   1      32.153  20.651  25.376  1.00  0.00    -0.308 N 
ATOM     17  H   UNL A   1      31.289  20.505  25.824  1.00  0.00     0.171 HD
BRANCH  16  18
ATOM     18  C   UNL A   1      32.549  19.592  24.555  1.00  0.00     0.046 A 
ATOM     19  C   UNL A   1      33.387  18.626  25.129  1.00  0.00     0.029 A 
ATOM     20  C   UNL A   1      32.177  19.481  23.220  1.00  0.00     0.065 A 
ATOM     21  C   UNL A   1      33.722  17.461  24.427  1.00  0.00    -0.046 A 
ATOM     22  C   UNL A   1      32.554  18.342  22.512  1.00  0.00     0.125 A 
ATOM     23  C   UNL A   1      34.524  16.382  25.089  1.00  0.00     0.044 C 
ATOM     24  C   UNL A   1      33.297  17.325  23.105  1.00  0.00     0.042 A 
ATOM     25  F   UNL A   1      32.142  18.185  21.246  1.00  0.00    -0.207 F 
ENDBRANCH  16  18
ENDBRANCH  11  14
ENDBRANCH   4   7
ENDBRANCH   2   3
ENDBRANCH   1   2
BRANCH   1  26
ATOM     26  C   UNL A   1      39.194  20.077  25.751  1.00  0.00     0.118 C 
BRANCH  26  27
ATOM     27  N   UNL A   1      40.244  19.084  25.961  1.00  0.00    -0.352 N 
ATOM     28  C   UNL A   1      41.594  19.229  26.126  1.00  0.00     0.251 C 
ATOM     29  H   UNL A   1      39.926  18.153  25.987  1.00  0.00     0.163 HD
ATOM     30  O   UNL A   1      42.333  18.248  26.027  1.00  0.00    -0.269 OA
BRANCH  28  31
ATOM     31  C   UNL A   1      42.175  20.552  26.418  1.00  0.00     0.039 A 
ATOM     32  C   UNL A   1      42.658  21.334  25.366  1.00  0.00     0.014 A 
ATOM     33  C   UNL A   1      42.284  21.004  27.736  1.00  0.00     0.014 A 
ATOM     34  C   UNL A   1      43.177  22.603  25.628  1.00  0.00     0.010 A 
ATOM     35  C   UNL A   1      42.737  22.295  27.989  1.00  0.00     0.010 A 
ATOM     36  C   UNL A   1      43.182  23.111  26.938  1.00  0.00    -0.014 A 
BRANCH  36  37
ATOM     37  C   UNL A   1      43.616  24.502  27.224  1.00  0.00     0.031 A 
ATOM     38  C   UNL A   1      42.632  25.520  27.727  1.00  0.00     0.074 A 
ATOM     39  C   UNL A   1      44.886  24.862  26.957  1.00  0.00     0.049 A 
ATOM     40  N   UNL A   1      42.808  26.797  27.957  1.00  0.00    -0.248 NA
ATOM     41  C   UNL A   1      41.263  25.046  27.983  1.00  0.00     0.031 C 
ATOM     42  C   UNL A   1      45.921  23.976  26.424  1.00  0.00     0.029 A 
ATOM     43  N   UNL A   1      45.519  26.074  27.082  1.00  0.00    -0.354 N 
ATOM     44  C   UNL A   1      41.574  27.279  28.373  1.00  0.00     0.074 A 
ATOM     45  C   UNL A   1      40.645  26.171  28.313  1.00  0.00     0.031 C 
ATOM     46  C   UNL A   1      47.064  24.666  26.286  1.00  0.00     0.029 A 
ATOM     47  C   UNL A   1      46.832  26.053  26.677  1.00  0.00     0.049 A 
ATOM     48  H   UNL A   1      45.075  26.881  27.430  1.00  0.00     0.167 HD
ATOM     49  C   UNL A   1      41.252  28.529  28.785  1.00  0.00     0.037 A 
ATOM     50  C   UNL A   1      47.741  27.044  26.612  1.00  0.00     0.037 A 
ATOM     51  C   UNL A   1      42.183  29.626  28.852  1.00  0.00     0.049 A 
ATOM     52  C   UNL A   1      47.348  28.429  27.049  1.00  0.00     0.074 A 
ATOM     53  C   UNL A   1      41.969  30.913  29.312  1.00  0.00     0.029 A 
ATOM     54  N   UNL A   1      43.506  29.566  28.436  1.00  0.00    -0.354 N 
ATOM     55  N   UNL A   1      46.198  28.857  27.512  1.00  0.00    -0.248 NA
ATOM     56  C   UNL A   1      48.381  29.469  26.958  1.00  0.00     0.031 C 
ATOM     57  C   UNL A   1      43.143  31.648  29.120  1.00  0.00     0.029 A 
ATOM     58  C   UNL A   1      44.110  30.804  28.600  1.00  0.00     0.049 A 
ATOM     59  H   UNL A   1      43.950  28.763  28.079  1.00  0.00     0.167 HD
ATOM     60  C   UNL A   1      46.377  30.204  27.791  1.00  0.00     0.074 A 
ATOM     61  C   UNL A   1      47.752  30.519  27.464  1.00  0.00     0.031 C 
ATOM     62  C   UNL A   1      45.481  31.102  28.271  1.00  0.00     0.037 A 
BRANCH  49  63
ATOM     63  C   UNL A   1      39.828  28.781  29.195  1.00  0.00     0.064 A 
ATOM     64  C   UNL A   1      39.404  28.619  30.523  1.00  0.00     0.173 A 
ATOM     65  C   UNL A   1      38.885  29.229  28.258  1.00  0.00     0.173 A 
ATOM     66  F   UNL A   1      40.263  28.185  31.458  1.00  0.00    -0.203 F 
ATOM     67  C   UNL A   1      38.083  28.865  30.890  1.00  0.00     0.198 A 
ATOM     68  C   UNL A   1      37.573  29.506  28.636  1.00  0.00     0.198 A 
ATOM     69  F   UNL A   1      39.236  29.408  26.976  1.00  0.00    -0.203 F 
ATOM     70  F   UNL A   1      37.691  28.654  32.155  1.00  0.00    -0.200 F 
ATOM     71  C   UNL A   1      37.172  29.316  29.949  1.00  0.00     0.200 A 
ATOM     72  F   UNL A   1      36.697  29.957  27.727  1.00  0.00    -0.200 F 
ATOM     73  F   UNL A   1      35.903  29.561  30.306  1.00  0.00    -0.200 F 
ENDBRANCH  49  63
BRANCH  50  74
ATOM     74  C   UNL A   1      49.117  26.761  26.125  1.00  0.00     0.064 A 
ATOM     75  C   UNL A   1      50.106  26.285  26.997  1.00  0.00     0.173 A 
ATOM     76  C   UNL A   1      49.475  26.965  24.784  1.00  0.00     0.173 A 
ATOM     77  F   UNL A   1      49.818  26.091  28.293  1.00  0.00    -0.203 F 
ATOM     78  C   UNL A   1      51.404  26.047  26.553  1.00  0.00     0.198 A 
ATOM     79  C   UNL A   1      50.766  26.697  24.334  1.00  0.00     0.198 A 
ATOM     80  F   UNL A   1      48.566  27.414  23.906  1.00  0.00    -0.203 F 
ATOM     81  F   UNL A   1      52.342  25.641  27.420  1.00  0.00    -0.200 F 
ATOM     82  C   UNL A   1      51.732  26.248  25.220  1.00  0.00     0.200 A 
ATOM     83  F   UNL A   1      51.074  26.875  23.042  1.00  0.00    -0.200 F 
ATOM     84  F   UNL A   1      52.981  26.015  24.793  1.00  0.00    -0.200 F 
ENDBRANCH  50  74
BRANCH  62  85
ATOM     85  C   UNL A   1      45.968  32.505  28.501  1.00  0.00     0.064 A 
ATOM     86  C   UNL A   1      46.544  32.895  29.719  1.00  0.00     0.173 A 
ATOM     87  C   UNL A   1      45.890  33.461  27.476  1.00  0.00     0.173 A 
ATOM     88  F   UNL A   1      46.627  32.025  30.737  1.00  0.00    -0.203 F 
ATOM     89  C   UNL A   1      46.997  34.198  29.912  1.00  0.00     0.198 A 
ATOM     90  C   UNL A   1      46.375  34.752  27.661  1.00  0.00     0.198 A 
ATOM     91  F   UNL A   1      45.354  33.138  26.289  1.00  0.00    -0.203 F 
ATOM     92  F   UNL A   1      47.494  34.563  31.102  1.00  0.00    -0.200 F 
ATOM     93  C   UNL A   1      46.920  35.122  28.881  1.00  0.00     0.200 A 
ATOM     94  F   UNL A   1      46.315  35.639  26.658  1.00  0.00    -0.200 F 
ATOM     95  F   UNL A   1      47.364  36.373  29.066  1.00  0.00    -0.200 F 
ENDBRANCH  62  85
ENDBRANCH  36  37
ENDBRANCH  28  31
ENDBRANCH  26  27
ENDBRANCH   1  26
TORSDOF 13
ENDMDL
