MODEL 1
REMARK VINA RESULT:     -10.5      0.000      0.000
REMARK SMILES CO[C@H](C)[C@H](Br)C(=O)NCCCNC(=O)c1ccc(-c2c3nc(c(-c4c(F)c(F)c(F)c(F)c4F)c4ccc([nH]4)c(-c4c(F)c(F)c(F)c(F)c4F)c4nc(c(-c5c(F)c(F)c(F)c(F)c5F)c5ccc2[nH]5)C=C4)C=C3)cc1
REMARK SMILES IDX 11 1 10 2 9 3 7 4 8 5 5 7 6 8 3 9 4 10 2 11 1 12 12 13 13 14
REMARK SMILES IDX 14 15 15 17 16 18 17 19 78 20 18 21 77 22 19 23 20 24 21 25
REMARK SMILES IDX 71 26 22 27 76 28 70 29 72 30 23 31 75 32 69 33 68 34 24 36
REMARK SMILES IDX 56 37 36 38 55 39 37 40 40 41 54 42 73 43 38 44 39 45 53 47
REMARK SMILES IDX 74 48 41 49 25 50 26 51 34 52 27 53 28 54 32 55 35 56 29 57
REMARK SMILES IDX 30 58 33 59 31 60 57 61 58 62 66 63 59 64 60 65 64 66 67 67
REMARK SMILES IDX 61 68 62 69 65 70 63 71 42 72 43 73 51 74 44 75 45 76 49 77
REMARK SMILES IDX 52 78 46 79 47 80 50 81 48 82
REMARK H PARENT 9 6 13 16 72 35 40 46
REMARK Flexibility Score: inf
ROOT
ATOM      1  C   UNL A   1      31.420  32.365  26.546  1.00  0.00     0.042 C 
ENDROOT
BRANCH   1   2
ATOM      2  C   UNL A   1      31.420  30.848  26.476  1.00  0.00     0.117 C 
BRANCH   2   3
ATOM      3  N   UNL A   1      31.430  30.360  25.110  1.00  0.00    -0.355 N 
ATOM      4  C   UNL A   1      31.518  29.080  24.652  1.00  0.00     0.236 C 
ATOM      5  O   UNL A   1      31.441  28.916  23.430  1.00  0.00    -0.274 OA
ATOM      6  H   UNL A   1      31.363  31.054  24.414  1.00  0.00     0.163 HD
BRANCH   4   7
ATOM      7  C   UNL A   1      31.697  27.886  25.581  1.00  0.00     0.174 C 
ATOM      8  Br  UNL A   1      30.760  26.388  24.727  1.00  0.00    -0.076 Br
BRANCH   7   9
ATOM      9  C   UNL A   1      33.103  27.591  26.153  1.00  0.00     0.137 C 
ATOM     10  C   UNL A   1      33.800  26.326  25.643  1.00  0.00     0.040 C 
BRANCH   9  11
ATOM     11  O   UNL A   1      34.053  28.655  25.964  1.00  0.00    -0.380 OA
ATOM     12  C   UNL A   1      34.692  29.085  27.161  1.00  0.00     0.195 C 
ENDBRANCH   9  11
ENDBRANCH   7   9
ENDBRANCH   4   7
ENDBRANCH   2   3
ENDBRANCH   1   2
BRANCH   1  13
ATOM     13  C   UNL A   1      32.618  32.939  27.283  1.00  0.00     0.118 C 
BRANCH  13  14
ATOM     14  N   UNL A   1      32.421  34.321  27.701  1.00  0.00    -0.352 N 
ATOM     15  C   UNL A   1      33.048  35.034  28.694  1.00  0.00     0.251 C 
ATOM     16  H   UNL A   1      31.736  34.818  27.197  1.00  0.00     0.163 HD
ATOM     17  O   UNL A   1      32.640  36.148  29.010  1.00  0.00    -0.269 OA
BRANCH  15  18
ATOM     18  C   UNL A   1      34.198  34.441  29.407  1.00  0.00     0.039 A 
ATOM     19  C   UNL A   1      33.968  33.705  30.572  1.00  0.00     0.014 A 
ATOM     20  C   UNL A   1      35.496  34.589  28.916  1.00  0.00     0.014 A 
ATOM     21  C   UNL A   1      35.031  33.054  31.199  1.00  0.00     0.010 A 
ATOM     22  C   UNL A   1      36.535  33.861  29.481  1.00  0.00     0.010 A 
ATOM     23  C   UNL A   1      36.316  33.090  30.631  1.00  0.00    -0.014 A 
BRANCH  23  24
ATOM     24  C   UNL A   1      37.449  32.339  31.229  1.00  0.00     0.031 A 
ATOM     25  C   UNL A   1      37.948  32.702  32.600  1.00  0.00     0.074 A 
ATOM     26  C   UNL A   1      38.075  31.388  30.510  1.00  0.00     0.049 A 
ATOM     27  N   UNL A   1      38.977  32.233  33.259  1.00  0.00    -0.248 NA
ATOM     28  C   UNL A   1      37.214  33.761  33.311  1.00  0.00     0.031 C 
ATOM     29  C   UNL A   1      37.721  30.985  29.148  1.00  0.00     0.029 A 
ATOM     30  N   UNL A   1      39.152  30.595  30.821  1.00  0.00    -0.354 N 
ATOM     31  C   UNL A   1      39.023  32.951  34.446  1.00  0.00     0.074 A 
ATOM     32  C   UNL A   1      37.958  33.928  34.394  1.00  0.00     0.031 C 
ATOM     33  C   UNL A   1      38.547  30.004  28.751  1.00  0.00     0.029 A 
ATOM     34  C   UNL A   1      39.513  29.737  29.812  1.00  0.00     0.049 A 
ATOM     35  H   UNL A   1      39.620  30.638  31.685  1.00  0.00     0.167 HD
ATOM     36  C   UNL A   1      39.861  32.791  35.498  1.00  0.00     0.037 A 
ATOM     37  C   UNL A   1      40.515  28.839  29.749  1.00  0.00     0.037 A 
ATOM     38  C   UNL A   1      40.896  31.795  35.560  1.00  0.00     0.049 A 
ATOM     39  C   UNL A   1      41.427  28.675  30.935  1.00  0.00     0.074 A 
ATOM     40  C   UNL A   1      41.753  31.505  36.607  1.00  0.00     0.029 A 
ATOM     41  N   UNL A   1      41.213  30.922  34.530  1.00  0.00    -0.354 N 
ATOM     42  N   UNL A   1      41.416  29.310  32.081  1.00  0.00    -0.248 NA
ATOM     43  C   UNL A   1      42.487  27.665  30.819  1.00  0.00     0.031 C 
ATOM     44  C   UNL A   1      42.618  30.487  36.194  1.00  0.00     0.029 A 
ATOM     45  C   UNL A   1      42.267  30.107  34.908  1.00  0.00     0.049 A 
ATOM     46  H   UNL A   1      40.756  30.888  33.658  1.00  0.00     0.167 HD
ATOM     47  C   UNL A   1      42.444  28.759  32.833  1.00  0.00     0.074 A 
ATOM     48  C   UNL A   1      43.050  27.727  32.017  1.00  0.00     0.031 C 
ATOM     49  C   UNL A   1      42.851  29.079  34.086  1.00  0.00     0.037 A 
BRANCH  36  50
ATOM     50  C   UNL A   1      39.684  33.713  36.670  1.00  0.00     0.064 A 
ATOM     51  C   UNL A   1      40.311  34.969  36.721  1.00  0.00     0.173 A 
ATOM     52  C   UNL A   1      38.857  33.351  37.743  1.00  0.00     0.173 A 
ATOM     53  F   UNL A   1      41.123  35.358  35.727  1.00  0.00    -0.203 F 
ATOM     54  C   UNL A   1      40.143  35.810  37.817  1.00  0.00     0.198 A 
ATOM     55  C   UNL A   1      38.665  34.209  38.823  1.00  0.00     0.198 A 
ATOM     56  F   UNL A   1      38.229  32.165  37.745  1.00  0.00    -0.203 F 
ATOM     57  F   UNL A   1      40.796  36.980  37.868  1.00  0.00    -0.200 F 
ATOM     58  C   UNL A   1      39.315  35.433  38.864  1.00  0.00     0.200 A 
ATOM     59  F   UNL A   1      37.854  33.849  39.829  1.00  0.00    -0.200 F 
ATOM     60  F   UNL A   1      39.149  36.248  39.914  1.00  0.00    -0.200 F 
ENDBRANCH  36  50
BRANCH  37  61
ATOM     61  C   UNL A   1      40.690  28.004  28.531  1.00  0.00     0.064 A 
ATOM     62  C   UNL A   1      41.487  28.448  27.467  1.00  0.00     0.173 A 
ATOM     63  C   UNL A   1      40.068  26.755  28.404  1.00  0.00     0.173 A 
ATOM     64  F   UNL A   1      42.087  29.646  27.533  1.00  0.00    -0.203 F 
ATOM     65  C   UNL A   1      41.637  27.682  26.312  1.00  0.00     0.198 A 
ATOM     66  C   UNL A   1      40.241  25.977  27.260  1.00  0.00     0.198 A 
ATOM     67  F   UNL A   1      39.299  26.282  29.396  1.00  0.00    -0.203 F 
ATOM     68  F   UNL A   1      42.368  28.151  25.291  1.00  0.00    -0.200 F 
ATOM     69  C   UNL A   1      41.019  26.445  26.212  1.00  0.00     0.200 A 
ATOM     70  F   UNL A   1      39.655  24.775  27.173  1.00  0.00    -0.200 F 
ATOM     71  F   UNL A   1      41.168  25.708  25.103  1.00  0.00    -0.200 F 
ENDBRANCH  37  61
BRANCH  49  72
ATOM     72  C   UNL A   1      43.981  28.280  34.667  1.00  0.00     0.064 A 
ATOM     73  C   UNL A   1      43.758  27.079  35.354  1.00  0.00     0.173 A 
ATOM     74  C   UNL A   1      45.309  28.702  34.494  1.00  0.00     0.173 A 
ATOM     75  F   UNL A   1      42.506  26.641  35.558  1.00  0.00    -0.203 F 
ATOM     76  C   UNL A   1      44.820  26.342  35.868  1.00  0.00     0.198 A 
ATOM     77  C   UNL A   1      46.370  27.947  34.984  1.00  0.00     0.198 A 
ATOM     78  F   UNL A   1      45.577  29.841  33.837  1.00  0.00    -0.203 F 
ATOM     79  F   UNL A   1      44.581  25.220  36.563  1.00  0.00    -0.200 F 
ATOM     80  C   UNL A   1      46.125  26.771  35.676  1.00  0.00     0.200 A 
ATOM     81  F   UNL A   1      47.630  28.356  34.784  1.00  0.00    -0.200 F 
ATOM     82  F   UNL A   1      47.146  26.055  36.166  1.00  0.00    -0.200 F 
ENDBRANCH  49  72
ENDBRANCH  23  24
ENDBRANCH  15  18
ENDBRANCH  13  14
ENDBRANCH   1  13
TORSDOF 12
ENDMDL
MODEL 2
REMARK VINA RESULT:     -10.5      0.727      7.754
REMARK SMILES CO[C@H](C)[C@H](Br)C(=O)NCCCNC(=O)c1ccc(-c2c3nc(c(-c4c(F)c(F)c(F)c(F)c4F)c4ccc([nH]4)c(-c4c(F)c(F)c(F)c(F)c4F)c4nc(c(-c5c(F)c(F)c(F)c(F)c5F)c5ccc2[nH]5)C=C4)C=C3)cc1
REMARK SMILES IDX 11 1 10 2 9 3 7 4 8 5 5 7 6 8 3 9 4 10 2 11 1 12 12 13 13 14
REMARK SMILES IDX 14 15 15 17 16 18 17 19 78 20 18 21 77 22 19 23 20 24 21 25
REMARK SMILES IDX 71 26 22 27 76 28 70 29 72 30 23 31 75 32 69 33 68 34 24 36
REMARK SMILES IDX 56 37 36 38 55 39 37 40 40 41 54 42 73 43 38 44 39 45 53 47
REMARK SMILES IDX 74 48 41 49 25 50 26 51 34 52 27 53 28 54 32 55 35 56 29 57
REMARK SMILES IDX 30 58 33 59 31 60 57 61 58 62 66 63 59 64 60 65 64 66 67 67
REMARK SMILES IDX 61 68 62 69 65 70 63 71 42 72 43 73 51 74 44 75 45 76 49 77
REMARK SMILES IDX 52 78 46 79 47 80 50 81 48 82
REMARK H PARENT 9 6 13 16 72 35 40 46
REMARK Flexibility Score: inf
ROOT
ATOM      1  C   UNL A   1      31.451  32.129  26.589  1.00  0.00     0.042 C 
ENDROOT
BRANCH   1   2
ATOM      2  C   UNL A   1      31.771  30.723  26.114  1.00  0.00     0.117 C 
BRANCH   2   3
ATOM      3  N   UNL A   1      31.100  30.397  24.869  1.00  0.00    -0.355 N 
ATOM      4  C   UNL A   1      30.992  29.195  24.238  1.00  0.00     0.236 C 
ATOM      5  O   UNL A   1      30.306  29.162  23.210  1.00  0.00    -0.274 OA
ATOM      6  H   UNL A   1      30.659  31.153  24.418  1.00  0.00     0.163 HD
BRANCH   4   7
ATOM      7  C   UNL A   1      31.667  27.932  24.755  1.00  0.00     0.174 C 
ATOM      8  Br  UNL A   1      30.300  26.524  24.700  1.00  0.00    -0.076 Br
BRANCH   7   9
ATOM      9  C   UNL A   1      33.067  27.561  24.216  1.00  0.00     0.137 C 
ATOM     10  C   UNL A   1      33.780  28.620  23.369  1.00  0.00     0.040 C 
BRANCH   9  11
ATOM     11  O   UNL A   1      34.012  27.187  25.235  1.00  0.00    -0.380 OA
ATOM     12  C   UNL A   1      33.722  27.719  26.523  1.00  0.00     0.195 C 
ENDBRANCH   9  11
ENDBRANCH   7   9
ENDBRANCH   4   7
ENDBRANCH   2   3
ENDBRANCH   1   2
BRANCH   1  13
ATOM     13  C   UNL A   1      32.580  32.779  27.370  1.00  0.00     0.118 C 
BRANCH  13  14
ATOM     14  N   UNL A   1      32.347  34.192  27.641  1.00  0.00    -0.352 N 
ATOM     15  C   UNL A   1      32.954  35.020  28.555  1.00  0.00     0.251 C 
ATOM     16  H   UNL A   1      31.653  34.616  27.087  1.00  0.00     0.163 HD
ATOM     17  O   UNL A   1      32.516  36.149  28.752  1.00  0.00    -0.269 OA
BRANCH  15  18
ATOM     18  C   UNL A   1      34.115  34.534  29.326  1.00  0.00     0.039 A 
ATOM     19  C   UNL A   1      33.903  33.950  30.578  1.00  0.00     0.014 A 
ATOM     20  C   UNL A   1      35.408  34.631  28.808  1.00  0.00     0.014 A 
ATOM     21  C   UNL A   1      34.979  33.394  31.272  1.00  0.00     0.010 A 
ATOM     22  C   UNL A   1      36.460  33.991  29.451  1.00  0.00     0.010 A 
ATOM     23  C   UNL A   1      36.258  33.370  30.692  1.00  0.00    -0.014 A 
BRANCH  23  24
ATOM     24  C   UNL A   1      37.404  32.713  31.370  1.00  0.00     0.031 A 
ATOM     25  C   UNL A   1      38.100  31.555  30.710  1.00  0.00     0.074 A 
ATOM     26  C   UNL A   1      37.766  33.106  32.607  1.00  0.00     0.049 A 
ATOM     27  N   UNL A   1      39.057  30.790  31.173  1.00  0.00    -0.248 NA
ATOM     28  C   UNL A   1      37.634  31.183  29.365  1.00  0.00     0.031 C 
ATOM     29  C   UNL A   1      37.131  34.179  33.374  1.00  0.00     0.029 A 
ATOM     30  N   UNL A   1      38.749  32.638  33.442  1.00  0.00    -0.354 N 
ATOM     31  C   UNL A   1      39.288  29.840  30.187  1.00  0.00     0.074 A 
ATOM     32  C   UNL A   1      38.335  30.085  29.128  1.00  0.00     0.031 C 
ATOM     33  C   UNL A   1      37.757  34.304  34.555  1.00  0.00     0.029 A 
ATOM     34  C   UNL A   1      38.809  33.296  34.646  1.00  0.00     0.049 A 
ATOM     35  H   UNL A   1      39.355  31.900  33.201  1.00  0.00     0.167 HD
ATOM     36  C   UNL A   1      40.231  28.868  30.156  1.00  0.00     0.037 A 
ATOM     37  C   UNL A   1      39.618  33.103  35.705  1.00  0.00     0.037 A 
ATOM     38  C   UNL A   1      41.200  28.651  31.196  1.00  0.00     0.049 A 
ATOM     39  C   UNL A   1      40.662  32.022  35.642  1.00  0.00     0.074 A 
ATOM     40  C   UNL A   1      42.240  27.739  31.230  1.00  0.00     0.029 A 
ATOM     41  N   UNL A   1      41.248  29.358  32.389  1.00  0.00    -0.354 N 
ATOM     42  N   UNL A   1      40.921  31.177  34.674  1.00  0.00    -0.248 NA
ATOM     43  C   UNL A   1      41.532  31.873  36.816  1.00  0.00     0.031 C 
ATOM     44  C   UNL A   1      42.890  27.864  32.462  1.00  0.00     0.029 A 
ATOM     45  C   UNL A   1      42.288  28.888  33.175  1.00  0.00     0.049 A 
ATOM     46  H   UNL A   1      40.634  30.086  32.639  1.00  0.00     0.167 HD
ATOM     47  C   UNL A   1      41.997  30.416  35.108  1.00  0.00     0.074 A 
ATOM     48  C   UNL A   1      42.353  30.910  36.422  1.00  0.00     0.031 C 
ATOM     49  C   UNL A   1      42.633  29.399  34.476  1.00  0.00     0.037 A 
BRANCH  36  50
ATOM     50  C   UNL A   1      40.262  27.972  28.952  1.00  0.00     0.064 A 
ATOM     51  C   UNL A   1      40.992  28.308  27.801  1.00  0.00     0.173 A 
ATOM     52  C   UNL A   1      39.576  26.748  28.958  1.00  0.00     0.173 A 
ATOM     53  F   UNL A   1      41.654  29.473  27.738  1.00  0.00    -0.203 F 
ATOM     54  C   UNL A   1      41.007  27.470  26.690  1.00  0.00     0.198 A 
ATOM     55  C   UNL A   1      39.620  25.896  27.856  1.00  0.00     0.198 A 
ATOM     56  F   UNL A   1      38.867  26.373  30.033  1.00  0.00    -0.203 F 
ATOM     57  F   UNL A   1      41.666  27.839  25.583  1.00  0.00    -0.200 F 
ATOM     58  C   UNL A   1      40.327  26.261  26.721  1.00  0.00     0.200 A 
ATOM     59  F   UNL A   1      38.973  24.722  27.892  1.00  0.00    -0.200 F 
ATOM     60  F   UNL A   1      40.349  25.452  25.653  1.00  0.00    -0.200 F 
ENDBRANCH  36  50
BRANCH  37  61
ATOM     61  C   UNL A   1      39.492  33.973  36.904  1.00  0.00     0.064 A 
ATOM     62  C   UNL A   1      40.136  35.217  36.959  1.00  0.00     0.173 A 
ATOM     63  C   UNL A   1      38.732  33.582  38.015  1.00  0.00     0.173 A 
ATOM     64  F   UNL A   1      40.892  35.626  35.928  1.00  0.00    -0.203 F 
ATOM     65  C   UNL A   1      40.042  36.027  38.088  1.00  0.00     0.198 A 
ATOM     66  C   UNL A   1      38.616  34.406  39.134  1.00  0.00     0.198 A 
ATOM     67  F   UNL A   1      38.091  32.404  38.011  1.00  0.00    -0.203 F 
ATOM     68  F   UNL A   1      40.705  37.191  38.132  1.00  0.00    -0.200 F 
ATOM     69  C   UNL A   1      39.277  35.624  39.172  1.00  0.00     0.200 A 
ATOM     70  F   UNL A   1      37.863  34.020  40.173  1.00  0.00    -0.200 F 
ATOM     71  F   UNL A   1      39.184  36.406  40.256  1.00  0.00    -0.200 F 
ENDBRANCH  37  61
BRANCH  49  72
ATOM     72  C   UNL A   1      43.803  28.777  35.181  1.00  0.00     0.064 A 
ATOM     73  C   UNL A   1      43.651  27.664  36.021  1.00  0.00     0.173 A 
ATOM     74  C   UNL A   1      45.099  29.275  34.978  1.00  0.00     0.173 A 
ATOM     75  F   UNL A   1      42.430  27.160  36.258  1.00  0.00    -0.203 F 
ATOM     76  C   UNL A   1      44.751  27.089  36.651  1.00  0.00     0.198 A 
ATOM     77  C   UNL A   1      46.200  28.679  35.586  1.00  0.00     0.198 A 
ATOM     78  F   UNL A   1      45.300  30.334  34.178  1.00  0.00    -0.203 F 
ATOM     79  F   UNL A   1      44.577  26.055  37.486  1.00  0.00    -0.200 F 
ATOM     80  C   UNL A   1      46.024  27.591  36.427  1.00  0.00     0.200 A 
ATOM     81  F   UNL A   1      47.431  29.156  35.357  1.00  0.00    -0.200 F 
ATOM     82  F   UNL A   1      47.082  27.030  37.028  1.00  0.00    -0.200 F 
ENDBRANCH  49  72
ENDBRANCH  23  24
ENDBRANCH  15  18
ENDBRANCH  13  14
ENDBRANCH   1  13
TORSDOF 12
ENDMDL
MODEL 3
REMARK VINA RESULT:     -10.4      0.787      7.957
REMARK SMILES CO[C@H](C)[C@H](Br)C(=O)NCCCNC(=O)c1ccc(-c2c3nc(c(-c4c(F)c(F)c(F)c(F)c4F)c4ccc([nH]4)c(-c4c(F)c(F)c(F)c(F)c4F)c4nc(c(-c5c(F)c(F)c(F)c(F)c5F)c5ccc2[nH]5)C=C4)C=C3)cc1
REMARK SMILES IDX 11 1 10 2 9 3 7 4 8 5 5 7 6 8 3 9 4 10 2 11 1 12 12 13 13 14
REMARK SMILES IDX 14 15 15 17 16 18 17 19 78 20 18 21 77 22 19 23 20 24 21 25
REMARK SMILES IDX 71 26 22 27 76 28 70 29 72 30 23 31 75 32 69 33 68 34 24 36
REMARK SMILES IDX 56 37 36 38 55 39 37 40 40 41 54 42 73 43 38 44 39 45 53 47
REMARK SMILES IDX 74 48 41 49 25 50 26 51 34 52 27 53 28 54 32 55 35 56 29 57
REMARK SMILES IDX 30 58 33 59 31 60 57 61 58 62 66 63 59 64 60 65 64 66 67 67
REMARK SMILES IDX 61 68 62 69 65 70 63 71 42 72 43 73 51 74 44 75 45 76 49 77
REMARK SMILES IDX 52 78 46 79 47 80 50 81 48 82
REMARK H PARENT 9 6 13 16 72 35 40 46
REMARK Flexibility Score: inf
ROOT
ATOM      1  C   UNL A   1      31.521  31.988  26.813  1.00  0.00     0.042 C 
ENDROOT
BRANCH   1   2
ATOM      2  C   UNL A   1      31.852  30.611  26.267  1.00  0.00     0.117 C 
BRANCH   2   3
ATOM      3  N   UNL A   1      31.241  30.371  24.973  1.00  0.00    -0.355 N 
ATOM      4  C   UNL A   1      31.045  29.193  24.318  1.00  0.00     0.236 C 
ATOM      5  O   UNL A   1      30.437  29.244  23.243  1.00  0.00    -0.274 OA
ATOM      6  H   UNL A   1      30.922  31.175  24.502  1.00  0.00     0.163 HD
BRANCH   4   7
ATOM      7  C   UNL A   1      31.534  27.858  24.864  1.00  0.00     0.174 C 
ATOM      8  Br  UNL A   1      30.141  26.547  24.426  1.00  0.00    -0.076 Br
BRANCH   7   9
ATOM      9  C   UNL A   1      32.996  27.433  24.595  1.00  0.00     0.137 C 
ATOM     10  C   UNL A   1      33.699  26.646  25.705  1.00  0.00     0.040 C 
BRANCH   9  11
ATOM     11  O   UNL A   1      33.173  26.651  23.400  1.00  0.00    -0.380 OA
ATOM     12  C   UNL A   1      33.503  27.416  22.245  1.00  0.00     0.195 C 
ENDBRANCH   9  11
ENDBRANCH   7   9
ENDBRANCH   4   7
ENDBRANCH   2   3
ENDBRANCH   1   2
BRANCH   1  13
ATOM     13  C   UNL A   1      32.739  32.763  27.287  1.00  0.00     0.118 C 
BRANCH  13  14
ATOM     14  N   UNL A   1      32.437  34.149  27.624  1.00  0.00    -0.352 N 
ATOM     15  C   UNL A   1      32.987  34.954  28.592  1.00  0.00     0.251 C 
ATOM     16  H   UNL A   1      31.736  34.570  27.077  1.00  0.00     0.163 HD
ATOM     17  O   UNL A   1      32.496  36.052  28.837  1.00  0.00    -0.269 OA
BRANCH  15  18
ATOM     18  C   UNL A   1      34.154  34.480  29.364  1.00  0.00     0.039 A 
ATOM     19  C   UNL A   1      33.943  33.851  30.595  1.00  0.00     0.014 A 
ATOM     20  C   UNL A   1      35.450  34.632  28.866  1.00  0.00     0.014 A 
ATOM     21  C   UNL A   1      35.027  33.307  31.286  1.00  0.00     0.010 A 
ATOM     22  C   UNL A   1      36.512  34.004  29.504  1.00  0.00     0.010 A 
ATOM     23  C   UNL A   1      36.314  33.339  30.723  1.00  0.00    -0.014 A 
BRANCH  23  24
ATOM     24  C   UNL A   1      37.471  32.696  31.396  1.00  0.00     0.031 A 
ATOM     25  C   UNL A   1      38.189  31.558  30.726  1.00  0.00     0.074 A 
ATOM     26  C   UNL A   1      37.824  33.083  32.637  1.00  0.00     0.049 A 
ATOM     27  N   UNL A   1      39.158  30.806  31.182  1.00  0.00    -0.248 NA
ATOM     28  C   UNL A   1      37.731  31.191  29.376  1.00  0.00     0.031 C 
ATOM     29  C   UNL A   1      37.168  34.137  33.414  1.00  0.00     0.029 A 
ATOM     30  N   UNL A   1      38.815  32.625  33.469  1.00  0.00    -0.354 N 
ATOM     31  C   UNL A   1      39.409  29.871  30.187  1.00  0.00     0.074 A 
ATOM     32  C   UNL A   1      38.452  30.108  29.129  1.00  0.00     0.031 C 
ATOM     33  C   UNL A   1      37.790  34.261  34.597  1.00  0.00     0.029 A 
ATOM     34  C   UNL A   1      38.860  33.272  34.679  1.00  0.00     0.049 A 
ATOM     35  H   UNL A   1      39.434  31.901  33.221  1.00  0.00     0.167 HD
ATOM     36  C   UNL A   1      40.369  28.916  30.147  1.00  0.00     0.037 A 
ATOM     37  C   UNL A   1      39.672  33.084  35.737  1.00  0.00     0.037 A 
ATOM     38  C   UNL A   1      41.340  28.706  31.187  1.00  0.00     0.049 A 
ATOM     39  C   UNL A   1      40.736  32.022  35.665  1.00  0.00     0.074 A 
ATOM     40  C   UNL A   1      42.397  27.813  31.213  1.00  0.00     0.029 A 
ATOM     41  N   UNL A   1      41.374  29.402  32.386  1.00  0.00    -0.354 N 
ATOM     42  N   UNL A   1      41.011  31.192  34.689  1.00  0.00    -0.248 NA
ATOM     43  C   UNL A   1      41.606  31.877  36.839  1.00  0.00     0.031 C 
ATOM     44  C   UNL A   1      43.042  27.937  32.447  1.00  0.00     0.029 A 
ATOM     45  C   UNL A   1      42.421  28.943  33.169  1.00  0.00     0.049 A 
ATOM     46  H   UNL A   1      40.746  30.116  32.643  1.00  0.00     0.167 HD
ATOM     47  C   UNL A   1      42.100  30.446  35.117  1.00  0.00     0.074 A 
ATOM     48  C   UNL A   1      42.446  30.933  36.436  1.00  0.00     0.031 C 
ATOM     49  C   UNL A   1      42.755  29.447  34.476  1.00  0.00     0.037 A 
BRANCH  36  50
ATOM     50  C   UNL A   1      40.417  28.032  28.934  1.00  0.00     0.064 A 
ATOM     51  C   UNL A   1      39.712  26.820  28.877  1.00  0.00     0.173 A 
ATOM     52  C   UNL A   1      41.154  28.415  27.804  1.00  0.00     0.173 A 
ATOM     53  F   UNL A   1      39.003  26.401  29.936  1.00  0.00    -0.203 F 
ATOM     54  C   UNL A   1      39.771  26.007  27.748  1.00  0.00     0.198 A 
ATOM     55  C   UNL A   1      41.185  27.615  26.663  1.00  0.00     0.198 A 
ATOM     56  F   UNL A   1      41.843  29.566  27.801  1.00  0.00    -0.203 F 
ATOM     57  F   UNL A   1      39.135  24.828  27.739  1.00  0.00    -0.200 F 
ATOM     58  C   UNL A   1      40.501  26.409  26.640  1.00  0.00     0.200 A 
ATOM     59  F   UNL A   1      41.880  28.011  25.587  1.00  0.00    -0.200 F 
ATOM     60  F   UNL A   1      40.551  25.630  25.551  1.00  0.00    -0.200 F 
ENDBRANCH  36  50
BRANCH  37  61
ATOM     61  C   UNL A   1      39.529  33.939  36.945  1.00  0.00     0.064 A 
ATOM     62  C   UNL A   1      38.778  33.505  38.046  1.00  0.00     0.173 A 
ATOM     63  C   UNL A   1      40.134  35.201  37.025  1.00  0.00     0.173 A 
ATOM     64  F   UNL A   1      38.162  32.313  38.009  1.00  0.00    -0.203 F 
ATOM     65  C   UNL A   1      38.619  34.310  39.172  1.00  0.00     0.198 A 
ATOM     66  C   UNL A   1      39.998  35.994  38.163  1.00  0.00     0.198 A 
ATOM     67  F   UNL A   1      40.868  35.660  36.001  1.00  0.00    -0.203 F 
ATOM     68  F   UNL A   1      37.858  33.889  40.192  1.00  0.00    -0.200 F 
ATOM     69  C   UNL A   1      39.234  35.551  39.232  1.00  0.00     0.200 A 
ATOM     70  F   UNL A   1      40.606  37.186  38.224  1.00  0.00    -0.200 F 
ATOM     71  F   UNL A   1      39.085  36.323  40.317  1.00  0.00    -0.200 F 
ENDBRANCH  37  61
BRANCH  49  72
ATOM     72  C   UNL A   1      43.936  28.839  35.176  1.00  0.00     0.064 A 
ATOM     73  C   UNL A   1      43.802  27.723  36.014  1.00  0.00     0.173 A 
ATOM     74  C   UNL A   1      45.224  29.356  34.971  1.00  0.00     0.173 A 
ATOM     75  F   UNL A   1      42.588  27.201  36.254  1.00  0.00    -0.203 F 
ATOM     76  C   UNL A   1      44.910  27.161  36.639  1.00  0.00     0.198 A 
ATOM     77  C   UNL A   1      46.334  28.773  35.574  1.00  0.00     0.198 A 
ATOM     78  F   UNL A   1      45.408  30.419  34.173  1.00  0.00    -0.203 F 
ATOM     79  F   UNL A   1      44.753  26.123  37.473  1.00  0.00    -0.200 F 
ATOM     80  C   UNL A   1      46.176  27.681  36.413  1.00  0.00     0.200 A 
ATOM     81  F   UNL A   1      47.558  29.267  35.343  1.00  0.00    -0.200 F 
ATOM     82  F   UNL A   1      47.243  27.133  37.010  1.00  0.00    -0.200 F 
ENDBRANCH  49  72
ENDBRANCH  23  24
ENDBRANCH  15  18
ENDBRANCH  13  14
ENDBRANCH   1  13
TORSDOF 12
ENDMDL
