MODEL 1
REMARK VINA RESULT:     -12.2      0.000      0.000
REMARK SMILES [NH3+][C@@H](CC1=C[C@H](S)c2ccccc2C1)C(=O)NCCCNC(=O)c1ccc(-c2c3nc(c(-c4c(F)c(F)c(F)c(F)c4F)c4ccc([nH]4)c(-c4c(F)c(F)c(F)c(F)c4F)c4nc(c(-c5c(F)c(F)c(F)c(F)c5F)c5ccc2[nH]5)C=C4)C=C3)cc1
REMARK SMILES IDX 18 1 17 2 15 3 16 4 2 6 1 7 3 11 4 12 5 13 14 14 6 15 13 16
REMARK SMILES IDX 8 17 12 18 9 19 11 20 10 21 7 22 19 24 20 25 21 26 22 27
REMARK SMILES IDX 23 29 24 30 25 31 86 32 26 33 85 34 27 35 28 36 29 37 79 38
REMARK SMILES IDX 30 39 84 40 78 41 80 42 31 43 83 44 77 45 76 46 32 48 64 49
REMARK SMILES IDX 44 50 63 51 45 52 48 53 62 54 81 55 46 56 47 57 61 59 82 60
REMARK SMILES IDX 49 61 33 62 34 63 42 64 35 65 36 66 40 67 43 68 37 69 38 70
REMARK SMILES IDX 41 71 39 72 65 73 66 74 74 75 67 76 68 77 72 78 75 79 69 80
REMARK SMILES IDX 70 81 73 82 71 83 50 84 51 85 59 86 52 87 53 88 57 89 60 90
REMARK SMILES IDX 54 91 55 92 58 93 56 94
REMARK H PARENT 17 5 1 8 1 9 1 10 7 23 21 28 80 47 48 58
REMARK Flexibility Score: inf
ROOT
ATOM      1  C   UNL A   1      31.480  30.832  26.107  1.00  0.00     0.118 C 
ENDROOT
BRANCH   1   2
ATOM      2  N   UNL A   1      32.623  30.154  26.652  1.00  0.00    -0.351 N 
ATOM      3  C   UNL A   1      33.486  29.308  26.010  1.00  0.00     0.278 C 
ATOM      4  O   UNL A   1      34.554  29.066  26.585  1.00  0.00    -0.268 OA
ATOM      5  H   UNL A   1      32.809  30.320  27.605  1.00  0.00     0.163 HD
BRANCH   3   6
ATOM      6  C   UNL A   1      33.155  28.640  24.636  1.00  0.00     0.275 C 
BRANCH   6   7
ATOM      7  N   UNL A   1      34.263  28.833  23.680  1.00  0.00    -0.347 N 
ATOM      8  H   UNL A   1      34.867  29.586  24.007  1.00  0.00     0.345 HD
ATOM      9  H   UNL A   1      33.883  29.074  22.764  1.00  0.00     0.345 HD
ATOM     10  H   UNL A   1      34.803  27.971  23.607  1.00  0.00     0.345 HD
ENDBRANCH   6   7
BRANCH   6  11
ATOM     11  C   UNL A   1      32.471  27.237  24.669  1.00  0.00     0.106 C 
BRANCH  11  12
ATOM     12  C   UNL A   1      33.198  25.922  24.369  1.00  0.00    -0.062 C 
ATOM     13  C   UNL A   1      32.939  25.113  23.321  1.00  0.00    -0.009 C 
ATOM     14  C   UNL A   1      34.315  25.593  25.340  1.00  0.00     0.066 C 
ATOM     15  C   UNL A   1      33.841  23.993  22.857  1.00  0.00     0.096 C 
ATOM     16  C   UNL A   1      35.193  24.420  24.969  1.00  0.00    -0.039 A 
ATOM     17  C   UNL A   1      35.005  23.695  23.777  1.00  0.00    -0.028 A 
ATOM     18  C   UNL A   1      36.258  24.085  25.823  1.00  0.00     0.004 A 
ATOM     19  C   UNL A   1      35.956  22.719  23.423  1.00  0.00     0.005 A 
ATOM     20  C   UNL A   1      37.161  23.083  25.478  1.00  0.00     0.000 A 
ATOM     21  C   UNL A   1      37.023  22.414  24.267  1.00  0.00     0.000 A 
BRANCH  15  22
ATOM     22  S   UNL A   1      32.803  22.539  22.515  1.00  0.00    -0.167 SA
ATOM     23  H   UNL A   1      31.834  22.873  21.622  1.00  0.00     0.103 HD
ENDBRANCH  15  22
ENDBRANCH  11  12
ENDBRANCH   6  11
ENDBRANCH   3   6
ENDBRANCH   1   2
BRANCH   1  24
ATOM     24  C   UNL A   1      31.324  32.287  26.495  1.00  0.00     0.042 C 
BRANCH  24  25
ATOM     25  C   UNL A   1      32.527  32.871  27.217  1.00  0.00     0.118 C 
BRANCH  25  26
ATOM     26  N   UNL A   1      32.320  34.223  27.734  1.00  0.00    -0.352 N 
ATOM     27  C   UNL A   1      32.982  35.009  28.650  1.00  0.00     0.251 C 
ATOM     28  H   UNL A   1      31.534  34.669  27.341  1.00  0.00     0.163 HD
ATOM     29  O   UNL A   1      32.519  36.114  28.914  1.00  0.00    -0.269 OA
BRANCH  27  30
ATOM     30  C   UNL A   1      34.199  34.551  29.362  1.00  0.00     0.039 A 
ATOM     31  C   UNL A   1      35.475  34.732  28.845  1.00  0.00     0.014 A 
ATOM     32  C   UNL A   1      34.058  33.923  30.608  1.00  0.00     0.014 A 
ATOM     33  C   UNL A   1      36.556  34.074  29.416  1.00  0.00     0.010 A 
ATOM     34  C   UNL A   1      35.174  33.391  31.266  1.00  0.00     0.010 A 
ATOM     35  C   UNL A   1      36.427  33.398  30.638  1.00  0.00    -0.014 A 
BRANCH  35  36
ATOM     36  C   UNL A   1      37.616  32.709  31.214  1.00  0.00     0.031 A 
ATOM     37  C   UNL A   1      38.084  33.017  32.613  1.00  0.00     0.074 A 
ATOM     38  C   UNL A   1      38.219  31.734  30.505  1.00  0.00     0.049 A 
ATOM     39  N   UNL A   1      39.075  32.484  33.286  1.00  0.00    -0.248 NA
ATOM     40  C   UNL A   1      37.356  34.059  33.355  1.00  0.00     0.031 C 
ATOM     41  C   UNL A   1      37.855  31.337  29.143  1.00  0.00     0.029 A 
ATOM     42  N   UNL A   1      39.228  30.866  30.842  1.00  0.00    -0.354 N 
ATOM     43  C   UNL A   1      39.106  33.145  34.508  1.00  0.00     0.074 A 
ATOM     44  C   UNL A   1      38.054  34.136  34.480  1.00  0.00     0.031 C 
ATOM     45  C   UNL A   1      38.560  30.251  28.796  1.00  0.00     0.029 A 
ATOM     46  C   UNL A   1      39.487  29.926  29.873  1.00  0.00     0.049 A 
ATOM     47  H   UNL A   1      39.719  30.913  31.693  1.00  0.00     0.167 HD
ATOM     48  C   UNL A   1      39.927  32.932  35.565  1.00  0.00     0.037 A 
ATOM     49  C   UNL A   1      40.380  28.919  29.846  1.00  0.00     0.037 A 
ATOM     50  C   UNL A   1      40.944  31.915  35.609  1.00  0.00     0.049 A 
ATOM     51  C   UNL A   1      41.295  28.724  31.020  1.00  0.00     0.074 A 
ATOM     52  C   UNL A   1      41.812  31.609  36.643  1.00  0.00     0.029 A 
ATOM     53  N   UNL A   1      41.222  31.029  34.579  1.00  0.00    -0.354 N 
ATOM     54  N   UNL A   1      41.320  29.367  32.161  1.00  0.00    -0.248 NA
ATOM     55  C   UNL A   1      42.318  27.677  30.894  1.00  0.00     0.031 C 
ATOM     56  C   UNL A   1      42.640  30.564  36.226  1.00  0.00     0.029 A 
ATOM     57  C   UNL A   1      42.261  30.189  34.948  1.00  0.00     0.049 A 
ATOM     58  H   UNL A   1      40.751  31.002  33.715  1.00  0.00     0.167 HD
ATOM     59  C   UNL A   1      42.357  28.806  32.890  1.00  0.00     0.074 A 
ATOM     60  C   UNL A   1      42.921  27.749  32.074  1.00  0.00     0.031 C 
ATOM     61  C   UNL A   1      42.810  29.144  34.121  1.00  0.00     0.037 A 
BRANCH  48  62
ATOM     62  C   UNL A   1      39.769  33.817  36.767  1.00  0.00     0.064 A 
ATOM     63  C   UNL A   1      40.383  35.075  36.841  1.00  0.00     0.173 A 
ATOM     64  C   UNL A   1      38.935  33.430  37.828  1.00  0.00     0.173 A 
ATOM     65  F   UNL A   1      41.198  35.486  35.858  1.00  0.00    -0.203 F 
ATOM     66  C   UNL A   1      40.180  35.908  37.939  1.00  0.00     0.198 A 
ATOM     67  C   UNL A   1      38.714  34.275  38.912  1.00  0.00     0.198 A 
ATOM     68  F   UNL A   1      38.319  32.239  37.803  1.00  0.00    -0.203 F 
ATOM     69  F   UNL A   1      40.801  37.094  38.002  1.00  0.00    -0.200 F 
ATOM     70  C   UNL A   1      39.339  35.511  38.969  1.00  0.00     0.200 A 
ATOM     71  F   UNL A   1      37.889  33.897  39.899  1.00  0.00    -0.200 F 
ATOM     72  F   UNL A   1      39.131  36.321  40.016  1.00  0.00    -0.200 F 
ENDBRANCH  48  62
BRANCH  49  73
ATOM     73  C   UNL A   1      40.447  28.028  28.659  1.00  0.00     0.064 A 
ATOM     74  C   UNL A   1      41.213  28.377  27.539  1.00  0.00     0.173 A 
ATOM     75  C   UNL A   1      39.778  26.794  28.634  1.00  0.00     0.173 A 
ATOM     76  F   UNL A   1      41.855  29.554  27.507  1.00  0.00    -0.203 F 
ATOM     77  C   UNL A   1      41.308  27.525  26.440  1.00  0.00     0.198 A 
ATOM     78  C   UNL A   1      39.897  25.932  27.548  1.00  0.00     0.198 A 
ATOM     79  F   UNL A   1      39.033  26.414  29.684  1.00  0.00    -0.203 F 
ATOM     80  F   UNL A   1      42.026  27.894  25.370  1.00  0.00    -0.200 F 
ATOM     81  C   UNL A   1      40.659  26.300  26.450  1.00  0.00     0.200 A 
ATOM     82  F   UNL A   1      39.283  24.741  27.571  1.00  0.00    -0.200 F 
ATOM     83  F   UNL A   1      40.767  25.473  25.400  1.00  0.00    -0.200 F 
ENDBRANCH  49  73
BRANCH  61  84
ATOM     84  C   UNL A   1      43.968  28.366  34.668  1.00  0.00     0.064 A 
ATOM     85  C   UNL A   1      45.286  28.816  34.508  1.00  0.00     0.173 A 
ATOM     86  C   UNL A   1      43.754  27.197  35.412  1.00  0.00     0.173 A 
ATOM     87  F   UNL A   1      45.540  29.921  33.791  1.00  0.00    -0.203 F 
ATOM     88  C   UNL A   1      46.351  28.117  35.067  1.00  0.00     0.198 A 
ATOM     89  C   UNL A   1      44.820  26.514  35.991  1.00  0.00     0.198 A 
ATOM     90  F   UNL A   1      42.510  26.731  35.596  1.00  0.00    -0.203 F 
ATOM     91  F   UNL A   1      47.607  28.547  34.877  1.00  0.00    -0.200 F 
ATOM     92  C   UNL A   1      46.117  26.972  35.815  1.00  0.00     0.200 A 
ATOM     93  F   UNL A   1      44.591  25.415  36.723  1.00  0.00    -0.200 F 
ATOM     94  F   UNL A   1      47.143  26.307  36.364  1.00  0.00    -0.200 F 
ENDBRANCH  61  84
ENDBRANCH  35  36
ENDBRANCH  27  30
ENDBRANCH  25  26
ENDBRANCH  24  25
ENDBRANCH   1  24
TORSDOF 14
ENDMDL
MODEL 2
REMARK VINA RESULT:     -12.2      5.859     10.912
REMARK SMILES [NH3+][C@@H](CC1=C[C@H](S)c2ccccc2C1)C(=O)NCCCNC(=O)c1ccc(-c2c3nc(c(-c4c(F)c(F)c(F)c(F)c4F)c4ccc([nH]4)c(-c4c(F)c(F)c(F)c(F)c4F)c4nc(c(-c5c(F)c(F)c(F)c(F)c5F)c5ccc2[nH]5)C=C4)C=C3)cc1
REMARK SMILES IDX 18 1 17 2 15 3 16 4 2 6 1 7 3 11 4 12 5 13 14 14 6 15 13 16
REMARK SMILES IDX 8 17 12 18 9 19 11 20 10 21 7 22 19 24 20 25 21 26 22 27
REMARK SMILES IDX 23 29 24 30 25 31 86 32 26 33 85 34 27 35 28 36 29 37 79 38
REMARK SMILES IDX 30 39 84 40 78 41 80 42 31 43 83 44 77 45 76 46 32 48 64 49
REMARK SMILES IDX 44 50 63 51 45 52 48 53 62 54 81 55 46 56 47 57 61 59 82 60
REMARK SMILES IDX 49 61 33 62 34 63 42 64 35 65 36 66 40 67 43 68 37 69 38 70
REMARK SMILES IDX 41 71 39 72 65 73 66 74 74 75 67 76 68 77 72 78 75 79 69 80
REMARK SMILES IDX 70 81 73 82 71 83 50 84 51 85 59 86 52 87 53 88 57 89 60 90
REMARK SMILES IDX 54 91 55 92 58 93 56 94
REMARK H PARENT 17 5 1 8 1 9 1 10 7 23 21 28 80 47 48 58
REMARK Flexibility Score: inf
ROOT
ATOM      1  C   UNL A   1      36.712  20.665  25.002  1.00  0.00     0.118 C 
ENDROOT
BRANCH   1   2
ATOM      2  N   UNL A   1      35.443  19.992  25.003  1.00  0.00    -0.351 N 
ATOM      3  C   UNL A   1      34.214  20.512  25.307  1.00  0.00     0.278 C 
ATOM      4  O   UNL A   1      33.231  19.842  24.969  1.00  0.00    -0.268 OA
ATOM      5  H   UNL A   1      35.460  19.039  24.754  1.00  0.00     0.163 HD
BRANCH   3   6
ATOM      6  C   UNL A   1      34.029  21.865  26.067  1.00  0.00     0.275 C 
BRANCH   6   7
ATOM      7  N   UNL A   1      34.710  21.828  27.376  1.00  0.00    -0.347 N 
ATOM      8  H   UNL A   1      34.395  21.012  27.900  1.00  0.00     0.345 HD
ATOM      9  H   UNL A   1      34.488  22.675  27.898  1.00  0.00     0.345 HD
ATOM     10  H   UNL A   1      35.719  21.772  27.232  1.00  0.00     0.345 HD
ENDBRANCH   6   7
BRANCH   6  11
ATOM     11  C   UNL A   1      34.151  23.177  25.230  1.00  0.00     0.106 C 
BRANCH  11  12
ATOM     12  C   UNL A   1      33.324  24.441  25.492  1.00  0.00    -0.062 C 
ATOM     13  C   UNL A   1      31.980  24.482  25.591  1.00  0.00    -0.009 C 
ATOM     14  C   UNL A   1      34.152  25.695  25.694  1.00  0.00     0.066 C 
ATOM     15  C   UNL A   1      31.195  25.650  26.143  1.00  0.00     0.096 C 
ATOM     16  C   UNL A   1      33.398  26.920  26.158  1.00  0.00    -0.039 A 
ATOM     17  C   UNL A   1      32.016  26.891  26.419  1.00  0.00    -0.028 A 
ATOM     18  C   UNL A   1      34.121  28.105  26.382  1.00  0.00     0.004 A 
ATOM     19  C   UNL A   1      31.413  28.024  26.999  1.00  0.00     0.005 A 
ATOM     20  C   UNL A   1      33.497  29.232  26.911  1.00  0.00     0.000 A 
ATOM     21  C   UNL A   1      32.147  29.185  27.240  1.00  0.00     0.000 A 
BRANCH  15  22
ATOM     22  S   UNL A   1      29.782  25.952  25.038  1.00  0.00    -0.167 SA
ATOM     23  H   UNL A   1      28.629  25.924  25.758  1.00  0.00     0.103 HD
ENDBRANCH  15  22
ENDBRANCH  11  12
ENDBRANCH   6  11
ENDBRANCH   3   6
ENDBRANCH   1   2
BRANCH   1  24
ATOM     24  C   UNL A   1      37.932  19.780  24.855  1.00  0.00     0.042 C 
BRANCH  24  25
ATOM     25  C   UNL A   1      39.086  20.156  25.768  1.00  0.00     0.118 C 
BRANCH  25  26
ATOM     26  N   UNL A   1      40.199  19.207  25.752  1.00  0.00    -0.352 N 
ATOM     27  C   UNL A   1      41.544  19.306  26.028  1.00  0.00     0.251 C 
ATOM     28  H   UNL A   1      39.926  18.299  25.487  1.00  0.00     0.163 HD
ATOM     29  O   UNL A   1      42.247  18.313  25.869  1.00  0.00    -0.269 OA
BRANCH  27  30
ATOM     30  C   UNL A   1      42.179  20.575  26.458  1.00  0.00     0.039 A 
ATOM     31  C   UNL A   1      42.343  20.909  27.795  1.00  0.00     0.014 A 
ATOM     32  C   UNL A   1      42.644  21.465  25.478  1.00  0.00     0.014 A 
ATOM     33  C   UNL A   1      42.709  22.200  28.150  1.00  0.00     0.010 A 
ATOM     34  C   UNL A   1      43.161  22.714  25.842  1.00  0.00     0.010 A 
ATOM     35  C   UNL A   1      43.131  23.123  27.182  1.00  0.00    -0.014 A 
BRANCH  35  36
ATOM     36  C   UNL A   1      43.518  24.496  27.610  1.00  0.00     0.031 A 
ATOM     37  C   UNL A   1      44.953  24.950  27.544  1.00  0.00     0.074 A 
ATOM     38  C   UNL A   1      42.556  25.368  27.973  1.00  0.00     0.049 A 
ATOM     39  N   UNL A   1      45.462  26.122  27.840  1.00  0.00    -0.248 NA
ATOM     40  C   UNL A   1      45.953  23.966  27.096  1.00  0.00     0.031 C 
ATOM     41  C   UNL A   1      41.129  25.053  28.071  1.00  0.00     0.029 A 
ATOM     42  N   UNL A   1      42.618  26.705  28.279  1.00  0.00    -0.354 N 
ATOM     43  C   UNL A   1      46.832  26.004  27.643  1.00  0.00     0.074 A 
ATOM     44  C   UNL A   1      47.085  24.643  27.229  1.00  0.00     0.031 C 
ATOM     45  C   UNL A   1      40.444  26.178  28.318  1.00  0.00     0.029 A 
ATOM     46  C   UNL A   1      41.386  27.278  28.485  1.00  0.00     0.049 A 
ATOM     47  H   UNL A   1      43.463  27.205  28.344  1.00  0.00     0.167 HD
ATOM     48  C   UNL A   1      47.791  26.952  27.780  1.00  0.00     0.037 A 
ATOM     49  C   UNL A   1      41.048  28.545  28.787  1.00  0.00     0.037 A 
ATOM     50  C   UNL A   1      47.533  28.319  28.149  1.00  0.00     0.049 A 
ATOM     51  C   UNL A   1      42.134  29.568  28.959  1.00  0.00     0.074 A 
ATOM     52  C   UNL A   1      48.437  29.357  28.293  1.00  0.00     0.029 A 
ATOM     53  N   UNL A   1      46.277  28.842  28.419  1.00  0.00    -0.354 N 
ATOM     54  N   UNL A   1      43.425  29.436  28.784  1.00  0.00    -0.248 NA
ATOM     55  C   UNL A   1      41.717  30.909  29.390  1.00  0.00     0.031 C 
ATOM     56  C   UNL A   1      47.733  30.499  28.688  1.00  0.00     0.029 A 
ATOM     57  C   UNL A   1      46.386  30.184  28.747  1.00  0.00     0.049 A 
ATOM     58  H   UNL A   1      45.435  28.335  28.383  1.00  0.00     0.167 HD
ATOM     59  C   UNL A   1      43.977  30.673  29.082  1.00  0.00     0.074 A 
ATOM     60  C   UNL A   1      42.876  31.552  29.421  1.00  0.00     0.031 C 
ATOM     61  C   UNL A   1      45.280  31.043  29.085  1.00  0.00     0.037 A 
BRANCH  48  62
ATOM     62  C   UNL A   1      49.216  26.550  27.535  1.00  0.00     0.064 A 
ATOM     63  C   UNL A   1      49.757  26.508  26.243  1.00  0.00     0.173 A 
ATOM     64  C   UNL A   1      50.070  26.271  28.614  1.00  0.00     0.173 A 
ATOM     65  F   UNL A   1      48.981  26.756  25.178  1.00  0.00    -0.203 F 
ATOM     66  C   UNL A   1      51.098  26.190  26.037  1.00  0.00     0.198 A 
ATOM     67  C   UNL A   1      51.415  25.977  28.408  1.00  0.00     0.198 A 
ATOM     68  F   UNL A   1      49.603  26.303  29.871  1.00  0.00    -0.203 F 
ATOM     69  F   UNL A   1      51.587  26.127  24.791  1.00  0.00    -0.200 F 
ATOM     70  C   UNL A   1      51.927  25.933  27.120  1.00  0.00     0.200 A 
ATOM     71  F   UNL A   1      52.218  25.744  29.455  1.00  0.00    -0.200 F 
ATOM     72  F   UNL A   1      53.221  25.643  26.921  1.00  0.00    -0.200 F 
ENDBRANCH  48  62
BRANCH  49  73
ATOM     73  C   UNL A   1      39.616  28.906  28.949  1.00  0.00     0.064 A 
ATOM     74  C   UNL A   1      38.850  29.321  27.851  1.00  0.00     0.173 A 
ATOM     75  C   UNL A   1      38.974  28.807  30.193  1.00  0.00     0.173 A 
ATOM     76  F   UNL A   1      39.422  29.450  26.645  1.00  0.00    -0.203 F 
ATOM     77  C   UNL A   1      37.497  29.623  27.993  1.00  0.00     0.198 A 
ATOM     78  C   UNL A   1      37.616  29.080  30.327  1.00  0.00     0.198 A 
ATOM     79  F   UNL A   1      39.664  28.411  31.274  1.00  0.00    -0.203 F 
ATOM     80  F   UNL A   1      36.792  30.043  26.933  1.00  0.00    -0.200 F 
ATOM     81  C   UNL A   1      36.879  29.492  29.227  1.00  0.00     0.200 A 
ATOM     82  F   UNL A   1      37.020  28.934  31.518  1.00  0.00    -0.200 F 
ATOM     83  F   UNL A   1      35.573  29.765  29.358  1.00  0.00    -0.200 F 
ENDBRANCH  49  73
BRANCH  61  84
ATOM     84  C   UNL A   1      45.593  32.459  29.463  1.00  0.00     0.064 A 
ATOM     85  C   UNL A   1      45.917  32.804  30.782  1.00  0.00     0.173 A 
ATOM     86  C   UNL A   1      45.635  33.465  28.487  1.00  0.00     0.173 A 
ATOM     87  F   UNL A   1      45.876  31.878  31.752  1.00  0.00    -0.203 F 
ATOM     88  C   UNL A   1      46.260  34.111  31.114  1.00  0.00     0.198 A 
ATOM     89  C   UNL A   1      46.005  34.766  28.817  1.00  0.00     0.198 A 
ATOM     90  F   UNL A   1      45.339  33.181  27.209  1.00  0.00    -0.203 F 
ATOM     91  F   UNL A   1      46.537  34.428  32.387  1.00  0.00    -0.200 F 
ATOM     92  C   UNL A   1      46.313  35.088  30.130  1.00  0.00     0.200 A 
ATOM     93  F   UNL A   1      46.066  35.705  27.864  1.00  0.00    -0.200 F 
ATOM     94  F   UNL A   1      46.658  36.343  30.449  1.00  0.00    -0.200 F 
ENDBRANCH  61  84
ENDBRANCH  35  36
ENDBRANCH  27  30
ENDBRANCH  25  26
ENDBRANCH  24  25
ENDBRANCH   1  24
TORSDOF 14
ENDMDL
MODEL 3
REMARK VINA RESULT:     -12.2      2.514      3.718
REMARK SMILES [NH3+][C@@H](CC1=C[C@H](S)c2ccccc2C1)C(=O)NCCCNC(=O)c1ccc(-c2c3nc(c(-c4c(F)c(F)c(F)c(F)c4F)c4ccc([nH]4)c(-c4c(F)c(F)c(F)c(F)c4F)c4nc(c(-c5c(F)c(F)c(F)c(F)c5F)c5ccc2[nH]5)C=C4)C=C3)cc1
REMARK SMILES IDX 18 1 17 2 15 3 16 4 2 6 1 7 3 11 4 12 5 13 14 14 6 15 13 16
REMARK SMILES IDX 8 17 12 18 9 19 11 20 10 21 7 22 19 24 20 25 21 26 22 27
REMARK SMILES IDX 23 29 24 30 25 31 86 32 26 33 85 34 27 35 28 36 29 37 79 38
REMARK SMILES IDX 30 39 84 40 78 41 80 42 31 43 83 44 77 45 76 46 32 48 64 49
REMARK SMILES IDX 44 50 63 51 45 52 48 53 62 54 81 55 46 56 47 57 61 59 82 60
REMARK SMILES IDX 49 61 33 62 34 63 42 64 35 65 36 66 40 67 43 68 37 69 38 70
REMARK SMILES IDX 41 71 39 72 65 73 66 74 74 75 67 76 68 77 72 78 75 79 69 80
REMARK SMILES IDX 70 81 73 82 71 83 50 84 51 85 59 86 52 87 53 88 57 89 60 90
REMARK SMILES IDX 54 91 55 92 58 93 56 94
REMARK H PARENT 17 5 1 8 1 9 1 10 7 23 21 28 80 47 48 58
REMARK Flexibility Score: inf
ROOT
ATOM      1  C   UNL A   1      32.017  26.905  26.074  1.00  0.00     0.118 C 
ENDROOT
BRANCH   1   2
ATOM      2  N   UNL A   1      31.393  25.857  26.830  1.00  0.00    -0.351 N 
ATOM      3  C   UNL A   1      31.022  24.612  26.397  1.00  0.00     0.278 C 
ATOM      4  O   UNL A   1      30.769  23.775  27.272  1.00  0.00    -0.268 OA
ATOM      5  H   UNL A   1      31.210  26.057  27.777  1.00  0.00     0.163 HD
BRANCH   3   6
ATOM      6  C   UNL A   1      30.885  24.245  24.884  1.00  0.00     0.275 C 
BRANCH   6   7
ATOM      7  N   UNL A   1      29.904  25.124  24.218  1.00  0.00    -0.347 N 
ATOM      8  H   UNL A   1      29.826  24.862  23.235  1.00  0.00     0.345 HD
ATOM      9  H   UNL A   1      30.213  26.093  24.289  1.00  0.00     0.345 HD
ATOM     10  H   UNL A   1      28.996  25.023  24.670  1.00  0.00     0.345 HD
ENDBRANCH   6   7
BRANCH   6  11
ATOM     11  C   UNL A   1      32.199  23.918  24.107  1.00  0.00     0.106 C 
BRANCH  11  12
ATOM     12  C   UNL A   1      32.913  22.563  24.163  1.00  0.00    -0.062 C 
ATOM     13  C   UNL A   1      33.976  22.277  24.943  1.00  0.00    -0.009 C 
ATOM     14  C   UNL A   1      32.291  21.495  23.285  1.00  0.00     0.066 C 
ATOM     15  C   UNL A   1      34.483  20.881  25.225  1.00  0.00     0.096 C 
ATOM     16  C   UNL A   1      32.828  20.093  23.462  1.00  0.00    -0.039 A 
ATOM     17  C   UNL A   1      33.824  19.790  24.409  1.00  0.00    -0.028 A 
ATOM     18  C   UNL A   1      32.270  19.061  22.688  1.00  0.00     0.004 A 
ATOM     19  C   UNL A   1      34.161  18.440  24.627  1.00  0.00     0.005 A 
ATOM     20  C   UNL A   1      32.652  17.736  22.885  1.00  0.00     0.000 A 
ATOM     21  C   UNL A   1      33.582  17.422  23.870  1.00  0.00     0.000 A 
BRANCH  15  22
ATOM     22  S   UNL A   1      36.296  20.899  25.073  1.00  0.00    -0.167 SA
ATOM     23  H   UNL A   1      36.705  22.128  24.661  1.00  0.00     0.103 HD
ENDBRANCH  15  22
ENDBRANCH  11  12
ENDBRANCH   6  11
ENDBRANCH   3   6
ENDBRANCH   1   2
BRANCH   1  24
ATOM     24  C   UNL A   1      31.795  28.314  26.584  1.00  0.00     0.042 C 
BRANCH  24  25
ATOM     25  C   UNL A   1      32.642  29.367  25.890  1.00  0.00     0.118 C 
BRANCH  25  26
ATOM     26  N   UNL A   1      32.464  30.721  26.413  1.00  0.00    -0.352 N 
ATOM     27  C   UNL A   1      33.234  31.555  27.191  1.00  0.00     0.251 C 
ATOM     28  H   UNL A   1      31.605  31.125  26.150  1.00  0.00     0.163 HD
ATOM     29  O   UNL A   1      32.774  32.646  27.511  1.00  0.00    -0.269 OA
BRANCH  27  30
ATOM     30  C   UNL A   1      34.574  31.165  27.695  1.00  0.00     0.039 A 
ATOM     31  C   UNL A   1      34.902  29.848  27.989  1.00  0.00     0.014 A 
ATOM     32  C   UNL A   1      35.547  32.159  27.870  1.00  0.00     0.014 A 
ATOM     33  C   UNL A   1      36.068  29.562  28.687  1.00  0.00     0.010 A 
ATOM     34  C   UNL A   1      36.789  31.845  28.435  1.00  0.00     0.010 A 
ATOM     35  C   UNL A   1      37.034  30.552  28.917  1.00  0.00    -0.014 A 
BRANCH  35  36
ATOM     36  C   UNL A   1      38.270  30.197  29.668  1.00  0.00     0.031 A 
ATOM     37  C   UNL A   1      38.472  30.661  31.087  1.00  0.00     0.074 A 
ATOM     38  C   UNL A   1      39.173  29.374  29.097  1.00  0.00     0.049 A 
ATOM     39  N   UNL A   1      39.469  30.412  31.901  1.00  0.00    -0.248 NA
ATOM     40  C   UNL A   1      37.430  31.521  31.672  1.00  0.00     0.031 C 
ATOM     41  C   UNL A   1      39.088  28.850  27.732  1.00  0.00     0.029 A 
ATOM     42  N   UNL A   1      40.309  28.792  29.602  1.00  0.00    -0.354 N 
ATOM     43  C   UNL A   1      39.188  31.105  33.073  1.00  0.00     0.074 A 
ATOM     44  C   UNL A   1      37.942  31.807  32.860  1.00  0.00     0.031 C 
ATOM     45  C   UNL A   1      40.069  27.957  27.540  1.00  0.00     0.029 A 
ATOM     46  C   UNL A   1      40.904  27.908  28.734  1.00  0.00     0.049 A 
ATOM     47  H   UNL A   1      40.663  28.988  30.499  1.00  0.00     0.167 HD
ATOM     48  C   UNL A   1      39.897  31.138  34.227  1.00  0.00     0.037 A 
ATOM     49  C   UNL A   1      42.007  27.150  28.874  1.00  0.00     0.037 A 
ATOM     50  C   UNL A   1      41.113  30.403  34.453  1.00  0.00     0.049 A 
ATOM     51  C   UNL A   1      42.787  27.227  30.155  1.00  0.00     0.074 A 
ATOM     52  C   UNL A   1      41.892  30.357  35.596  1.00  0.00     0.029 A 
ATOM     53  N   UNL A   1      41.721  29.574  33.522  1.00  0.00    -0.354 N 
ATOM     54  N   UNL A   1      42.515  27.899  31.245  1.00  0.00    -0.248 NA
ATOM     55  C   UNL A   1      44.038  26.459  30.215  1.00  0.00     0.031 C 
ATOM     56  C   UNL A   1      42.991  29.532  35.345  1.00  0.00     0.029 A 
ATOM     57  C   UNL A   1      42.875  29.028  34.060  1.00  0.00     0.049 A 
ATOM     58  H   UNL A   1      41.383  29.401  32.614  1.00  0.00     0.167 HD
ATOM     59  C   UNL A   1      43.556  27.636  32.123  1.00  0.00     0.074 A 
ATOM     60  C   UNL A   1      44.453  26.719  31.447  1.00  0.00     0.031 C 
ATOM     61  C   UNL A   1      43.757  28.120  33.372  1.00  0.00     0.037 A 
BRANCH  48  62
ATOM     62  C   UNL A   1      39.383  32.001  35.343  1.00  0.00     0.064 A 
ATOM     63  C   UNL A   1      38.535  31.492  36.336  1.00  0.00     0.173 A 
ATOM     64  C   UNL A   1      39.800  33.337  35.456  1.00  0.00     0.173 A 
ATOM     65  F   UNL A   1      38.099  30.225  36.267  1.00  0.00    -0.203 F 
ATOM     66  C   UNL A   1      38.114  32.291  37.397  1.00  0.00     0.198 A 
ATOM     67  C   UNL A   1      39.397  34.126  36.531  1.00  0.00     0.198 A 
ATOM     68  F   UNL A   1      40.616  33.870  34.535  1.00  0.00    -0.203 F 
ATOM     69  F   UNL A   1      37.280  31.792  38.320  1.00  0.00    -0.200 F 
ATOM     70  C   UNL A   1      38.552  33.604  37.498  1.00  0.00     0.200 A 
ATOM     71  F   UNL A   1      39.833  35.388  36.635  1.00  0.00    -0.200 F 
ATOM     72  F   UNL A   1      38.159  34.366  38.528  1.00  0.00    -0.200 F 
ENDBRANCH  48  62
BRANCH  49  73
ATOM     73  C   UNL A   1      42.433  26.258  27.764  1.00  0.00     0.064 A 
ATOM     74  C   UNL A   1      41.852  24.995  27.593  1.00  0.00     0.173 A 
ATOM     75  C   UNL A   1      43.398  26.665  26.831  1.00  0.00     0.173 A 
ATOM     76  F   UNL A   1      40.939  24.553  28.470  1.00  0.00    -0.203 F 
ATOM     77  C   UNL A   1      42.222  24.171  26.531  1.00  0.00     0.198 A 
ATOM     78  C   UNL A   1      43.745  25.854  25.753  1.00  0.00     0.198 A 
ATOM     79  F   UNL A   1      43.981  27.868  26.949  1.00  0.00    -0.203 F 
ATOM     80  F   UNL A   1      41.671  22.956  26.405  1.00  0.00    -0.200 F 
ATOM     81  C   UNL A   1      43.159  24.606  25.606  1.00  0.00     0.200 A 
ATOM     82  F   UNL A   1      44.638  26.287  24.852  1.00  0.00    -0.200 F 
ATOM     83  F   UNL A   1      43.500  23.822  24.574  1.00  0.00    -0.200 F 
ENDBRANCH  49  73
BRANCH  61  84
ATOM     84  C   UNL A   1      44.989  27.669  34.096  1.00  0.00     0.064 A 
ATOM     85  C   UNL A   1      46.179  28.407  34.034  1.00  0.00     0.173 A 
ATOM     86  C   UNL A   1      44.961  26.527  34.910  1.00  0.00     0.173 A 
ATOM     87  F   UNL A   1      46.258  29.497  33.256  1.00  0.00    -0.203 F 
ATOM     88  C   UNL A   1      47.302  28.011  34.754  1.00  0.00     0.198 A 
ATOM     89  C   UNL A   1      46.078  26.149  35.649  1.00  0.00     0.198 A 
ATOM     90  F   UNL A   1      43.842  25.793  35.006  1.00  0.00    -0.203 F 
ATOM     91  F   UNL A   1      48.440  28.713  34.657  1.00  0.00    -0.200 F 
ATOM     92  C   UNL A   1      47.248  26.889  35.567  1.00  0.00     0.200 A 
ATOM     93  F   UNL A   1      46.020  25.071  36.444  1.00  0.00    -0.200 F 
ATOM     94  F   UNL A   1      48.327  26.517  36.271  1.00  0.00    -0.200 F 
ENDBRANCH  61  84
ENDBRANCH  35  36
ENDBRANCH  27  30
ENDBRANCH  25  26
ENDBRANCH  24  25
ENDBRANCH   1  24
TORSDOF 14
ENDMDL
