MODEL 1
REMARK VINA RESULT:     -11.5      0.000      0.000
REMARK SMILES O=C(NCCCNC(=O)c1ccc(C[NH2+]CCOc2ccccc2)nc1)c1ccc(-c2c3nc(c(-c4c(F)c(F)c(F)c(F)c4F)c4ccc([nH]4)c(-c4c(F)c(F)c(F)c(F)c4F)c4nc(c(-c5c(F)c(F)c(F)c(F)c5F)c5ccc2[nH]5)C=C4)C=C3)cc1
REMARK SMILES IDX 7 1 8 2 9 3 6 5 5 6 4 7 3 8 1 9 2 10 27 12 28 13 89 14 29 15
REMARK SMILES IDX 88 16 30 17 31 18 32 19 82 20 33 21 87 22 81 23 83 24 34 25
REMARK SMILES IDX 86 26 80 27 79 28 35 30 67 31 47 32 66 33 48 34 51 35 65 36
REMARK SMILES IDX 84 37 49 38 50 39 64 41 85 42 52 43 36 44 37 45 45 46 38 47
REMARK SMILES IDX 39 48 43 49 46 50 40 51 41 52 44 53 42 54 68 55 69 56 77 57
REMARK SMILES IDX 70 58 71 59 75 60 78 61 72 62 73 63 76 64 74 65 53 66 54 67
REMARK SMILES IDX 62 68 55 69 56 70 60 71 63 72 57 73 58 74 61 75 59 76 10 77
REMARK SMILES IDX 11 78 26 79 12 80 25 81 13 82 14 83 15 84 16 87 17 88 18 89
REMARK SMILES IDX 19 90 20 91 24 92 21 93 23 94 22 95
REMARK H PARENT 7 4 3 11 83 29 51 40 15 85 15 86
REMARK Flexibility Score: inf
ROOT
ATOM      1  N   UNL A   1      33.238  30.384  26.876  1.00  0.00    -0.352 N 
ATOM      2  C   UNL A   1      33.773  29.128  27.039  1.00  0.00     0.252 C 
ATOM      3  O   UNL A   1      34.890  28.985  27.510  1.00  0.00    -0.269 OA
ATOM      4  H   UNL A   1      33.871  31.131  26.991  1.00  0.00     0.163 HD
ENDROOT
BRANCH   1   5
ATOM      5  C   UNL A   1      31.870  30.769  26.558  1.00  0.00     0.118 C 
BRANCH   5   6
ATOM      6  C   UNL A   1      31.595  32.233  26.876  1.00  0.00     0.042 C 
BRANCH   6   7
ATOM      7  C   UNL A   1      32.859  33.053  27.084  1.00  0.00     0.118 C 
BRANCH   7   8
ATOM      8  N   UNL A   1      32.576  34.376  27.625  1.00  0.00    -0.352 N 
ATOM      9  O   UNL A   1      32.498  36.016  29.159  1.00  0.00    -0.269 OA
ATOM     10  C   UNL A   1      33.044  34.992  28.757  1.00  0.00     0.251 C 
ATOM     11  H   UNL A   1      31.945  34.913  27.093  1.00  0.00     0.163 HD
BRANCH  10  12
ATOM     12  C   UNL A   1      34.198  34.438  29.496  1.00  0.00     0.039 A 
ATOM     13  C   UNL A   1      34.015  33.719  30.680  1.00  0.00     0.014 A 
ATOM     14  C   UNL A   1      35.480  34.570  28.952  1.00  0.00     0.014 A 
ATOM     15  C   UNL A   1      35.114  33.235  31.379  1.00  0.00     0.010 A 
ATOM     16  C   UNL A   1      36.578  34.005  29.609  1.00  0.00     0.010 A 
ATOM     17  C   UNL A   1      36.401  33.342  30.832  1.00  0.00    -0.014 A 
BRANCH  17  18
ATOM     18  C   UNL A   1      37.529  32.641  31.491  1.00  0.00     0.031 A 
ATOM     19  C   UNL A   1      38.224  31.489  30.830  1.00  0.00     0.074 A 
ATOM     20  C   UNL A   1      37.909  33.061  32.714  1.00  0.00     0.049 A 
ATOM     21  N   UNL A   1      39.205  30.752  31.287  1.00  0.00    -0.248 NA
ATOM     22  C   UNL A   1      37.758  31.104  29.490  1.00  0.00     0.031 C 
ATOM     23  C   UNL A   1      37.282  34.158  33.458  1.00  0.00     0.029 A 
ATOM     24  N   UNL A   1      38.905  32.623  33.548  1.00  0.00    -0.354 N 
ATOM     25  C   UNL A   1      39.459  29.806  30.304  1.00  0.00     0.074 A 
ATOM     26  C   UNL A   1      38.522  30.051  29.229  1.00  0.00     0.031 C 
ATOM     27  C   UNL A   1      37.919  34.320  34.625  1.00  0.00     0.029 A 
ATOM     28  C   UNL A   1      38.956  33.302  34.741  1.00  0.00     0.049 A 
ATOM     29  H   UNL A   1      39.522  31.893  33.315  1.00  0.00     0.167 HD
ATOM     30  C   UNL A   1      40.394  28.827  30.308  1.00  0.00     0.037 A 
ATOM     31  C   UNL A   1      39.728  33.105  35.825  1.00  0.00     0.037 A 
ATOM     32  C   UNL A   1      41.344  28.617  31.371  1.00  0.00     0.049 A 
ATOM     33  C   UNL A   1      40.737  31.995  35.803  1.00  0.00     0.074 A 
ATOM     34  C   UNL A   1      42.396  27.719  31.419  1.00  0.00     0.029 A 
ATOM     35  N   UNL A   1      41.347  29.304  32.574  1.00  0.00    -0.354 N 
ATOM     36  N   UNL A   1      41.017  31.154  34.838  1.00  0.00    -0.248 NA
ATOM     37  C   UNL A   1      41.530  31.797  37.023  1.00  0.00     0.031 C 
ATOM     38  C   UNL A   1      43.004  27.826  32.675  1.00  0.00     0.029 A 
ATOM     39  C   UNL A   1      42.355  28.819  33.393  1.00  0.00     0.049 A 
ATOM     40  H   UNL A   1      40.725  30.030  32.813  1.00  0.00     0.167 HD
ATOM     41  C   UNL A   1      42.016  30.329  35.330  1.00  0.00     0.074 A 
ATOM     42  C   UNL A   1      42.315  30.788  36.671  1.00  0.00     0.031 C 
ATOM     43  C   UNL A   1      42.625  29.279  34.729  1.00  0.00     0.037 A 
BRANCH  30  44
ATOM     44  C   UNL A   1      40.444  27.889  29.140  1.00  0.00     0.064 A 
ATOM     45  C   UNL A   1      39.657  26.730  29.089  1.00  0.00     0.173 A 
ATOM     46  C   UNL A   1      41.221  28.207  28.014  1.00  0.00     0.173 A 
ATOM     47  F   UNL A   1      38.905  26.378  30.142  1.00  0.00    -0.203 F 
ATOM     48  C   UNL A   1      39.650  25.920  27.956  1.00  0.00     0.198 A 
ATOM     49  C   UNL A   1      41.195  27.406  26.875  1.00  0.00     0.198 A 
ATOM     50  F   UNL A   1      41.986  29.309  28.011  1.00  0.00    -0.203 F 
ATOM     51  F   UNL A   1      38.903  24.806  27.934  1.00  0.00    -0.200 F 
ATOM     52  C   UNL A   1      40.410  26.263  26.847  1.00  0.00     0.200 A 
ATOM     53  F   UNL A   1      41.921  27.746  25.801  1.00  0.00    -0.200 F 
ATOM     54  F   UNL A   1      40.387  25.494  25.751  1.00  0.00    -0.200 F 
ENDBRANCH  30  44
BRANCH  31  55
ATOM     55  C   UNL A   1      39.539  33.953  37.030  1.00  0.00     0.064 A 
ATOM     56  C   UNL A   1      38.766  33.513  38.111  1.00  0.00     0.173 A 
ATOM     57  C   UNL A   1      40.135  35.220  37.123  1.00  0.00     0.173 A 
ATOM     58  F   UNL A   1      38.161  32.317  38.060  1.00  0.00    -0.203 F 
ATOM     59  C   UNL A   1      38.584  34.315  39.235  1.00  0.00     0.198 A 
ATOM     60  C   UNL A   1      39.976  36.008  38.259  1.00  0.00     0.198 A 
ATOM     61  F   UNL A   1      40.888  35.685  36.114  1.00  0.00    -0.203 F 
ATOM     62  F   UNL A   1      37.805  33.890  40.240  1.00  0.00    -0.200 F 
ATOM     63  C   UNL A   1      39.193  35.559  39.311  1.00  0.00     0.200 A 
ATOM     64  F   UNL A   1      40.582  37.201  38.334  1.00  0.00    -0.200 F 
ATOM     65  F   UNL A   1      39.022  36.328  40.396  1.00  0.00    -0.200 F 
ENDBRANCH  31  55
BRANCH  43  66
ATOM     66  C   UNL A   1      43.667  28.554  35.523  1.00  0.00     0.064 A 
ATOM     67  C   UNL A   1      43.320  27.515  36.398  1.00  0.00     0.173 A 
ATOM     68  C   UNL A   1      45.026  28.874  35.383  1.00  0.00     0.173 A 
ATOM     69  F   UNL A   1      42.030  27.188  36.579  1.00  0.00    -0.203 F 
ATOM     70  C   UNL A   1      44.295  26.831  37.118  1.00  0.00     0.198 A 
ATOM     71  C   UNL A   1      45.999  28.171  36.085  1.00  0.00     0.198 A 
ATOM     72  F   UNL A   1      45.406  29.858  34.556  1.00  0.00    -0.203 F 
ATOM     73  F   UNL A   1      43.938  25.868  37.979  1.00  0.00    -0.200 F 
ATOM     74  C   UNL A   1      45.634  27.155  36.955  1.00  0.00     0.200 A 
ATOM     75  F   UNL A   1      47.294  28.478  35.920  1.00  0.00    -0.200 F 
ATOM     76  F   UNL A   1      46.572  26.491  37.643  1.00  0.00    -0.200 F 
ENDBRANCH  43  66
ENDBRANCH  17  18
ENDBRANCH  10  12
ENDBRANCH   7   8
ENDBRANCH   6   7
ENDBRANCH   5   6
ENDBRANCH   1   5
BRANCH   2  77
ATOM     77  C   UNL A   1      32.975  27.953  26.664  1.00  0.00     0.058 A 
ATOM     78  C   UNL A   1      31.603  27.893  26.893  1.00  0.00     0.017 A 
ATOM     79  C   UNL A   1      33.598  26.867  26.077  1.00  0.00     0.125 A 
ATOM     80  C   UNL A   1      30.926  26.709  26.624  1.00  0.00     0.030 A 
ATOM     81  N   UNL A   1      32.959  25.704  25.802  1.00  0.00    -0.255 NA
ATOM     82  C   UNL A   1      31.635  25.628  26.100  1.00  0.00     0.094 A 
BRANCH  82  83
ATOM     83  C   UNL A   1      30.914  24.320  25.814  1.00  0.00     0.318 C 
BRANCH  83  84
ATOM     84  N   UNL A   1      30.361  24.273  24.460  1.00  0.00    -0.338 N 
ATOM     85  H   UNL A   1      30.255  25.229  24.124  1.00  0.00     0.346 HD
ATOM     86  H   UNL A   1      29.473  23.774  24.524  1.00  0.00     0.346 HD
BRANCH  84  87
ATOM     87  C   UNL A   1      31.185  23.538  23.498  1.00  0.00     0.302 C 
BRANCH  87  88
ATOM     88  C   UNL A   1      32.092  24.379  22.573  1.00  0.00     0.290 C 
BRANCH  88  89
ATOM     89  O   UNL A   1      31.406  25.533  22.065  1.00  0.00    -0.488 OA
BRANCH  89  90
ATOM     90  C   UNL A   1      31.994  26.706  22.444  1.00  0.00     0.119 A 
ATOM     91  C   UNL A   1      31.251  27.760  22.974  1.00  0.00     0.046 A 
ATOM     92  C   UNL A   1      33.359  26.855  22.205  1.00  0.00     0.046 A 
ATOM     93  C   UNL A   1      31.897  28.950  23.320  1.00  0.00     0.004 A 
ATOM     94  C   UNL A   1      34.006  28.030  22.578  1.00  0.00     0.004 A 
ATOM     95  C   UNL A   1      33.275  29.078  23.135  1.00  0.00     0.000 A 
ENDBRANCH  89  90
ENDBRANCH  88  89
ENDBRANCH  87  88
ENDBRANCH  84  87
ENDBRANCH  83  84
ENDBRANCH  82  83
ENDBRANCH   2  77
TORSDOF 16
ENDMDL
MODEL 2
REMARK VINA RESULT:     -11.4      6.160     11.524
REMARK SMILES O=C(NCCCNC(=O)c1ccc(C[NH2+]CCOc2ccccc2)nc1)c1ccc(-c2c3nc(c(-c4c(F)c(F)c(F)c(F)c4F)c4ccc([nH]4)c(-c4c(F)c(F)c(F)c(F)c4F)c4nc(c(-c5c(F)c(F)c(F)c(F)c5F)c5ccc2[nH]5)C=C4)C=C3)cc1
REMARK SMILES IDX 7 1 8 2 9 3 6 5 5 6 4 7 3 8 1 9 2 10 27 12 28 13 89 14 29 15
REMARK SMILES IDX 88 16 30 17 31 18 32 19 82 20 33 21 87 22 81 23 83 24 34 25
REMARK SMILES IDX 86 26 80 27 79 28 35 30 67 31 47 32 66 33 48 34 51 35 65 36
REMARK SMILES IDX 84 37 49 38 50 39 64 41 85 42 52 43 36 44 37 45 45 46 38 47
REMARK SMILES IDX 39 48 43 49 46 50 40 51 41 52 44 53 42 54 68 55 69 56 77 57
REMARK SMILES IDX 70 58 71 59 75 60 78 61 72 62 73 63 76 64 74 65 53 66 54 67
REMARK SMILES IDX 62 68 55 69 56 70 60 71 63 72 57 73 58 74 61 75 59 76 10 77
REMARK SMILES IDX 11 78 26 79 12 80 25 81 13 82 14 83 15 84 16 87 17 88 18 89
REMARK SMILES IDX 19 90 20 91 24 92 21 93 23 94 22 95
REMARK H PARENT 7 4 3 11 83 29 51 40 15 85 15 86
REMARK Flexibility Score: inf
ROOT
ATOM      1  N   UNL A   1      38.154  22.214  25.295  1.00  0.00    -0.352 N 
ATOM      2  C   UNL A   1      37.548  23.341  25.799  1.00  0.00     0.252 C 
ATOM      3  O   UNL A   1      38.215  24.311  26.125  1.00  0.00    -0.269 OA
ATOM      4  H   UNL A   1      39.134  22.183  25.390  1.00  0.00     0.163 HD
ENDROOT
BRANCH   1   5
ATOM      5  C   UNL A   1      37.554  21.059  24.643  1.00  0.00     0.118 C 
BRANCH   5   6
ATOM      6  C   UNL A   1      38.281  19.764  24.981  1.00  0.00     0.042 C 
BRANCH   6   7
ATOM      7  C   UNL A   1      39.210  19.889  26.180  1.00  0.00     0.118 C 
BRANCH   7   8
ATOM      8  N   UNL A   1      40.329  18.960  26.109  1.00  0.00    -0.352 N 
ATOM      9  O   UNL A   1      42.441  18.278  25.750  1.00  0.00    -0.269 OA
ATOM     10  C   UNL A   1      41.679  19.196  26.043  1.00  0.00     0.251 C 
ATOM     11  H   UNL A   1      40.076  18.008  26.108  1.00  0.00     0.163 HD
BRANCH  10  12
ATOM     12  C   UNL A   1      42.224  20.541  26.322  1.00  0.00     0.039 A 
ATOM     13  C   UNL A   1      42.505  21.431  25.282  1.00  0.00     0.014 A 
ATOM     14  C   UNL A   1      42.382  20.949  27.650  1.00  0.00     0.014 A 
ATOM     15  C   UNL A   1      43.049  22.679  25.561  1.00  0.00     0.010 A 
ATOM     16  C   UNL A   1      42.844  22.237  27.934  1.00  0.00     0.010 A 
ATOM     17  C   UNL A   1      43.190  23.107  26.889  1.00  0.00    -0.014 A 
BRANCH  17  18
ATOM     18  C   UNL A   1      43.577  24.512  27.161  1.00  0.00     0.031 A 
ATOM     19  C   UNL A   1      42.583  25.509  27.676  1.00  0.00     0.074 A 
ATOM     20  C   UNL A   1      44.852  24.876  26.921  1.00  0.00     0.049 A 
ATOM     21  N   UNL A   1      42.756  26.781  27.934  1.00  0.00    -0.248 NA
ATOM     22  C   UNL A   1      41.217  25.026  27.926  1.00  0.00     0.031 C 
ATOM     23  C   UNL A   1      45.894  23.990  26.394  1.00  0.00     0.029 A 
ATOM     24  N   UNL A   1      45.492  26.078  27.081  1.00  0.00    -0.354 N 
ATOM     25  C   UNL A   1      41.521  27.255  28.355  1.00  0.00     0.074 A 
ATOM     26  C   UNL A   1      40.601  26.138  28.307  1.00  0.00     0.031 C 
ATOM     27  C   UNL A   1      47.044  24.669  26.296  1.00  0.00     0.029 A 
ATOM     28  C   UNL A   1      46.809  26.052  26.691  1.00  0.00     0.049 A 
ATOM     29  H   UNL A   1      45.050  26.880  27.442  1.00  0.00     0.167 HD
ATOM     30  C   UNL A   1      41.196  28.509  28.746  1.00  0.00     0.037 A 
ATOM     31  C   UNL A   1      47.718  27.042  26.624  1.00  0.00     0.037 A 
ATOM     32  C   UNL A   1      42.132  29.602  28.822  1.00  0.00     0.049 A 
ATOM     33  C   UNL A   1      47.316  28.425  27.042  1.00  0.00     0.074 A 
ATOM     34  C   UNL A   1      41.922  30.883  29.306  1.00  0.00     0.029 A 
ATOM     35  N   UNL A   1      43.448  29.547  28.392  1.00  0.00    -0.354 N 
ATOM     36  N   UNL A   1      46.165  28.844  27.509  1.00  0.00    -0.248 NA
ATOM     37  C   UNL A   1      48.333  29.477  26.916  1.00  0.00     0.031 C 
ATOM     38  C   UNL A   1      43.097  31.618  29.118  1.00  0.00     0.029 A 
ATOM     39  C   UNL A   1      44.051  30.785  28.555  1.00  0.00     0.049 A 
ATOM     40  H   UNL A   1      43.890  28.748  28.024  1.00  0.00     0.167 HD
ATOM     41  C   UNL A   1      46.317  30.203  27.732  1.00  0.00     0.074 A 
ATOM     42  C   UNL A   1      47.681  30.536  27.377  1.00  0.00     0.031 C 
ATOM     43  C   UNL A   1      45.404  31.097  28.181  1.00  0.00     0.037 A 
BRANCH  30  44
ATOM     44  C   UNL A   1      39.771  28.791  29.115  1.00  0.00     0.064 A 
ATOM     45  C   UNL A   1      39.310  28.660  30.433  1.00  0.00     0.173 A 
ATOM     46  C   UNL A   1      38.881  29.293  28.153  1.00  0.00     0.173 A 
ATOM     47  F   UNL A   1      40.120  28.177  31.387  1.00  0.00    -0.203 F 
ATOM     48  C   UNL A   1      38.006  29.014  30.772  1.00  0.00     0.198 A 
ATOM     49  C   UNL A   1      37.585  29.666  28.500  1.00  0.00     0.198 A 
ATOM     50  F   UNL A   1      39.277  29.443  26.880  1.00  0.00    -0.203 F 
ATOM     51  F   UNL A   1      37.579  28.865  32.034  1.00  0.00    -0.200 F 
ATOM     52  C   UNL A   1      37.149  29.526  29.809  1.00  0.00     0.200 A 
ATOM     53  F   UNL A   1      36.762  30.170  27.570  1.00  0.00    -0.200 F 
ATOM     54  F   UNL A   1      35.902  29.885  30.141  1.00  0.00    -0.200 F 
ENDBRANCH  30  44
BRANCH  31  55
ATOM     55  C   UNL A   1      49.078  26.759  26.098  1.00  0.00     0.064 A 
ATOM     56  C   UNL A   1      49.395  26.980  24.752  1.00  0.00     0.173 A 
ATOM     57  C   UNL A   1      50.089  26.266  26.937  1.00  0.00     0.173 A 
ATOM     58  F   UNL A   1      48.456  27.431  23.908  1.00  0.00    -0.203 F 
ATOM     59  C   UNL A   1      50.669  26.704  24.261  1.00  0.00     0.198 A 
ATOM     60  C   UNL A   1      51.370  26.020  26.452  1.00  0.00     0.198 A 
ATOM     61  F   UNL A   1      49.836  26.042  28.235  1.00  0.00    -0.203 F 
ATOM     62  F   UNL A   1      50.936  26.884  22.960  1.00  0.00    -0.200 F 
ATOM     63  C   UNL A   1      51.657  26.230  25.112  1.00  0.00     0.200 A 
ATOM     64  F   UNL A   1      52.325  25.579  27.282  1.00  0.00    -0.200 F 
ATOM     65  F   UNL A   1      52.885  25.972  24.640  1.00  0.00    -0.200 F 
ENDBRANCH  31  55
BRANCH  43  66
ATOM     66  C   UNL A   1      45.855  32.521  28.305  1.00  0.00     0.064 A 
ATOM     67  C   UNL A   1      46.471  32.988  29.475  1.00  0.00     0.173 A 
ATOM     68  C   UNL A   1      45.705  33.415  27.234  1.00  0.00     0.173 A 
ATOM     69  F   UNL A   1      46.618  32.173  30.531  1.00  0.00    -0.203 F 
ATOM     70  C   UNL A   1      46.906  34.306  29.575  1.00  0.00     0.198 A 
ATOM     71  C   UNL A   1      46.164  34.724  27.330  1.00  0.00     0.198 A 
ATOM     72  F   UNL A   1      45.124  33.013  26.095  1.00  0.00    -0.203 F 
ATOM     73  F   UNL A   1      47.456  34.743  30.716  1.00  0.00    -0.200 F 
ATOM     74  C   UNL A   1      46.759  35.171  28.500  1.00  0.00     0.200 A 
ATOM     75  F   UNL A   1      46.030  35.557  26.288  1.00  0.00    -0.200 F 
ATOM     76  F   UNL A   1      47.185  36.437  28.596  1.00  0.00    -0.200 F 
ENDBRANCH  43  66
ENDBRANCH  17  18
ENDBRANCH  10  12
ENDBRANCH   7   8
ENDBRANCH   6   7
ENDBRANCH   5   6
ENDBRANCH   1   5
BRANCH   2  77
ATOM     77  C   UNL A   1      36.085  23.378  25.916  1.00  0.00     0.058 A 
ATOM     78  C   UNL A   1      35.406  22.632  26.876  1.00  0.00     0.017 A 
ATOM     79  C   UNL A   1      35.352  24.163  25.045  1.00  0.00     0.125 A 
ATOM     80  C   UNL A   1      34.015  22.618  26.860  1.00  0.00     0.030 A 
ATOM     81  N   UNL A   1      33.997  24.170  25.012  1.00  0.00    -0.255 NA
ATOM     82  C   UNL A   1      33.342  23.379  25.904  1.00  0.00     0.094 A 
BRANCH  82  83
ATOM     83  C   UNL A   1      31.823  23.363  25.861  1.00  0.00     0.318 C 
BRANCH  83  84
ATOM     84  N   UNL A   1      31.294  22.131  25.272  1.00  0.00    -0.338 N 
ATOM     85  H   UNL A   1      30.294  22.254  25.118  1.00  0.00     0.346 HD
ATOM     86  H   UNL A   1      31.505  21.380  25.929  1.00  0.00     0.346 HD
BRANCH  84  87
ATOM     87  C   UNL A   1      31.913  21.759  23.998  1.00  0.00     0.302 C 
BRANCH  87  88
ATOM     88  C   UNL A   1      32.199  20.258  23.776  1.00  0.00     0.290 C 
BRANCH  88  89
ATOM     89  O   UNL A   1      32.152  19.522  25.007  1.00  0.00    -0.488 OA
BRANCH  89  90
ATOM     90  C   UNL A   1      33.003  18.453  25.015  1.00  0.00     0.119 A 
ATOM     91  C   UNL A   1      34.336  18.575  24.626  1.00  0.00     0.046 A 
ATOM     92  C   UNL A   1      32.476  17.207  25.347  1.00  0.00     0.046 A 
ATOM     93  C   UNL A   1      35.158  17.445  24.626  1.00  0.00     0.004 A 
ATOM     94  C   UNL A   1      33.303  16.087  25.376  1.00  0.00     0.004 A 
ATOM     95  C   UNL A   1      34.644  16.206  25.015  1.00  0.00     0.000 A 
ENDBRANCH  89  90
ENDBRANCH  88  89
ENDBRANCH  87  88
ENDBRANCH  84  87
ENDBRANCH  83  84
ENDBRANCH  82  83
ENDBRANCH   2  77
TORSDOF 16
ENDMDL
MODEL 3
REMARK VINA RESULT:     -11.4      1.926      2.983
REMARK SMILES O=C(NCCCNC(=O)c1ccc(C[NH2+]CCOc2ccccc2)nc1)c1ccc(-c2c3nc(c(-c4c(F)c(F)c(F)c(F)c4F)c4ccc([nH]4)c(-c4c(F)c(F)c(F)c(F)c4F)c4nc(c(-c5c(F)c(F)c(F)c(F)c5F)c5ccc2[nH]5)C=C4)C=C3)cc1
REMARK SMILES IDX 7 1 8 2 9 3 6 5 5 6 4 7 3 8 1 9 2 10 27 12 28 13 89 14 29 15
REMARK SMILES IDX 88 16 30 17 31 18 32 19 82 20 33 21 87 22 81 23 83 24 34 25
REMARK SMILES IDX 86 26 80 27 79 28 35 30 67 31 47 32 66 33 48 34 51 35 65 36
REMARK SMILES IDX 84 37 49 38 50 39 64 41 85 42 52 43 36 44 37 45 45 46 38 47
REMARK SMILES IDX 39 48 43 49 46 50 40 51 41 52 44 53 42 54 68 55 69 56 77 57
REMARK SMILES IDX 70 58 71 59 75 60 78 61 72 62 73 63 76 64 74 65 53 66 54 67
REMARK SMILES IDX 62 68 55 69 56 70 60 71 63 72 57 73 58 74 61 75 59 76 10 77
REMARK SMILES IDX 11 78 26 79 12 80 25 81 13 82 14 83 15 84 16 87 17 88 18 89
REMARK SMILES IDX 19 90 20 91 24 92 21 93 23 94 22 95
REMARK H PARENT 7 4 3 11 83 29 51 40 15 85 15 86
REMARK Flexibility Score: inf
ROOT
ATOM      1  N   UNL A   1      31.066  30.259  24.827  1.00  0.00    -0.352 N 
ATOM      2  C   UNL A   1      31.138  29.101  24.088  1.00  0.00     0.252 C 
ATOM      3  O   UNL A   1      30.834  29.099  22.906  1.00  0.00    -0.269 OA
ATOM      4  H   UNL A   1      30.594  31.008  24.394  1.00  0.00     0.163 HD
ENDROOT
BRANCH   1   5
ATOM      5  C   UNL A   1      31.587  30.537  26.158  1.00  0.00     0.118 C 
BRANCH   5   6
ATOM      6  C   UNL A   1      31.445  32.005  26.538  1.00  0.00     0.042 C 
BRANCH   6   7
ATOM      7  C   UNL A   1      32.672  32.569  27.240  1.00  0.00     0.118 C 
BRANCH   7   8
ATOM      8  N   UNL A   1      32.508  33.972  27.595  1.00  0.00    -0.352 N 
ATOM      9  O   UNL A   1      32.624  35.816  28.874  1.00  0.00    -0.269 OA
ATOM     10  C   UNL A   1      33.078  34.707  28.603  1.00  0.00     0.251 C 
ATOM     11  H   UNL A   1      31.886  34.473  27.018  1.00  0.00     0.163 HD
BRANCH  10  12
ATOM     12  C   UNL A   1      34.230  34.180  29.363  1.00  0.00     0.039 A 
ATOM     13  C   UNL A   1      34.040  33.366  30.482  1.00  0.00     0.014 A 
ATOM     14  C   UNL A   1      35.524  34.437  28.900  1.00  0.00     0.014 A 
ATOM     15  C   UNL A   1      35.136  32.907  31.204  1.00  0.00     0.010 A 
ATOM     16  C   UNL A   1      36.626  33.901  29.574  1.00  0.00     0.010 A 
ATOM     17  C   UNL A   1      36.437  33.140  30.737  1.00  0.00    -0.014 A 
BRANCH  17  18
ATOM     18  C   UNL A   1      37.578  32.470  31.406  1.00  0.00     0.031 A 
ATOM     19  C   UNL A   1      38.299  31.327  30.759  1.00  0.00     0.074 A 
ATOM     20  C   UNL A   1      37.946  32.912  32.625  1.00  0.00     0.049 A 
ATOM     21  N   UNL A   1      39.295  30.616  31.225  1.00  0.00    -0.248 NA
ATOM     22  C   UNL A   1      37.845  30.918  29.421  1.00  0.00     0.031 C 
ATOM     23  C   UNL A   1      37.294  34.003  33.356  1.00  0.00     0.029 A 
ATOM     24  N   UNL A   1      38.949  32.504  33.466  1.00  0.00    -0.354 N 
ATOM     25  C   UNL A   1      39.571  29.665  30.253  1.00  0.00     0.074 A 
ATOM     26  C   UNL A   1      38.632  29.878  29.173  1.00  0.00     0.031 C 
ATOM     27  C   UNL A   1      37.924  34.191  34.523  1.00  0.00     0.029 A 
ATOM     28  C   UNL A   1      38.983  33.197  34.652  1.00  0.00     0.049 A 
ATOM     29  H   UNL A   1      39.582  31.785  33.242  1.00  0.00     0.167 HD
ATOM     30  C   UNL A   1      40.527  28.707  30.269  1.00  0.00     0.037 A 
ATOM     31  C   UNL A   1      39.757  33.028  35.739  1.00  0.00     0.037 A 
ATOM     32  C   UNL A   1      41.479  28.529  31.337  1.00  0.00     0.049 A 
ATOM     33  C   UNL A   1      40.789  31.940  35.732  1.00  0.00     0.074 A 
ATOM     34  C   UNL A   1      42.550  27.654  31.397  1.00  0.00     0.029 A 
ATOM     35  N   UNL A   1      41.465  29.229  32.533  1.00  0.00    -0.354 N 
ATOM     36  N   UNL A   1      41.090  31.095  34.776  1.00  0.00    -0.248 NA
ATOM     37  C   UNL A   1      41.584  31.772  36.955  1.00  0.00     0.031 C 
ATOM     38  C   UNL A   1      43.152  27.788  32.653  1.00  0.00     0.029 A 
ATOM     39  C   UNL A   1      42.481  28.773  33.359  1.00  0.00     0.049 A 
ATOM     40  H   UNL A   1      40.827  29.943  32.763  1.00  0.00     0.167 HD
ATOM     41  C   UNL A   1      42.105  30.297  35.279  1.00  0.00     0.074 A 
ATOM     42  C   UNL A   1      42.391  30.777  36.616  1.00  0.00     0.031 C 
ATOM     43  C   UNL A   1      42.737  29.254  34.690  1.00  0.00     0.037 A 
BRANCH  30  44
ATOM     44  C   UNL A   1      40.601  27.757  29.112  1.00  0.00     0.064 A 
ATOM     45  C   UNL A   1      39.745  26.652  29.008  1.00  0.00     0.173 A 
ATOM     46  C   UNL A   1      41.476  28.015  28.045  1.00  0.00     0.173 A 
ATOM     47  F   UNL A   1      38.896  26.359  30.004  1.00  0.00    -0.203 F 
ATOM     48  C   UNL A   1      39.767  25.834  27.880  1.00  0.00     0.198 A 
ATOM     49  C   UNL A   1      41.480  27.208  26.910  1.00  0.00     0.198 A 
ATOM     50  F   UNL A   1      42.310  29.064  28.094  1.00  0.00    -0.203 F 
ATOM     51  F   UNL A   1      38.952  24.772  27.808  1.00  0.00    -0.200 F 
ATOM     52  C   UNL A   1      40.626  26.118  26.829  1.00  0.00     0.200 A 
ATOM     53  F   UNL A   1      42.303  27.490  25.891  1.00  0.00    -0.200 F 
ATOM     54  F   UNL A   1      40.632  25.342  25.737  1.00  0.00    -0.200 F 
ENDBRANCH  30  44
BRANCH  31  55
ATOM     55  C   UNL A   1      39.547  33.885  36.935  1.00  0.00     0.064 A 
ATOM     56  C   UNL A   1      38.738  33.461  37.996  1.00  0.00     0.173 A 
ATOM     57  C   UNL A   1      40.158  35.143  37.038  1.00  0.00     0.173 A 
ATOM     58  F   UNL A   1      38.117  32.274  37.934  1.00  0.00    -0.203 F 
ATOM     59  C   UNL A   1      38.536  34.271  39.111  1.00  0.00     0.198 A 
ATOM     60  C   UNL A   1      39.979  35.939  38.166  1.00  0.00     0.198 A 
ATOM     61  F   UNL A   1      40.945  35.592  36.049  1.00  0.00    -0.203 F 
ATOM     62  F   UNL A   1      37.724  33.862  40.096  1.00  0.00    -0.200 F 
ATOM     63  C   UNL A   1      39.161  35.507  39.198  1.00  0.00     0.200 A 
ATOM     64  F   UNL A   1      40.600  37.124  38.252  1.00  0.00    -0.200 F 
ATOM     65  F   UNL A   1      38.971  36.283  40.274  1.00  0.00    -0.200 F 
ENDBRANCH  31  55
BRANCH  43  66
ATOM     66  C   UNL A   1      43.793  28.560  35.495  1.00  0.00     0.064 A 
ATOM     67  C   UNL A   1      43.481  27.459  36.305  1.00  0.00     0.173 A 
ATOM     68  C   UNL A   1      45.132  28.973  35.428  1.00  0.00     0.173 A 
ATOM     69  F   UNL A   1      42.210  27.041  36.415  1.00  0.00    -0.203 F 
ATOM     70  C   UNL A   1      44.470  26.805  37.034  1.00  0.00     0.198 A 
ATOM     71  C   UNL A   1      46.122  28.302  36.138  1.00  0.00     0.198 A 
ATOM     72  F   UNL A   1      45.479  30.020  34.664  1.00  0.00    -0.203 F 
ATOM     73  F   UNL A   1      44.144  25.781  37.833  1.00  0.00    -0.200 F 
ATOM     74  C   UNL A   1      45.790  27.223  36.944  1.00  0.00     0.200 A 
ATOM     75  F   UNL A   1      47.398  28.700  36.044  1.00  0.00    -0.200 F 
ATOM     76  F   UNL A   1      46.742  26.588  37.641  1.00  0.00    -0.200 F 
ENDBRANCH  43  66
ENDBRANCH  17  18
ENDBRANCH  10  12
ENDBRANCH   7   8
ENDBRANCH   6   7
ENDBRANCH   5   6
ENDBRANCH   1   5
BRANCH   2  77
ATOM     77  C   UNL A   1      31.611  27.868  24.731  1.00  0.00     0.058 A 
ATOM     78  C   UNL A   1      32.956  27.509  24.731  1.00  0.00     0.017 A 
ATOM     79  C   UNL A   1      30.699  27.027  25.343  1.00  0.00     0.125 A 
ATOM     80  C   UNL A   1      33.325  26.273  25.251  1.00  0.00     0.030 A 
ATOM     81  N   UNL A   1      31.034  25.820  25.861  1.00  0.00    -0.255 NA
ATOM     82  C   UNL A   1      32.339  25.444  25.789  1.00  0.00     0.094 A 
BRANCH  82  83
ATOM     83  C   UNL A   1      32.720  24.083  26.348  1.00  0.00     0.318 C 
BRANCH  83  84
ATOM     84  N   UNL A   1      31.575  23.176  26.437  1.00  0.00    -0.338 N 
ATOM     85  H   UNL A   1      30.728  23.738  26.523  1.00  0.00     0.346 HD
ATOM     86  H   UNL A   1      31.738  22.580  27.248  1.00  0.00     0.346 HD
BRANCH  84  87
ATOM     87  C   UNL A   1      31.420  22.286  25.285  1.00  0.00     0.302 C 
BRANCH  87  88
ATOM     88  C   UNL A   1      32.454  21.148  25.143  1.00  0.00     0.290 C 
BRANCH  88  89
ATOM     89  O   UNL A   1      32.147  20.289  24.034  1.00  0.00    -0.488 OA
BRANCH  89  90
ATOM     90  C   UNL A   1      32.947  19.182  23.987  1.00  0.00     0.119 A 
ATOM     91  C   UNL A   1      34.185  19.146  24.626  1.00  0.00     0.046 A 
ATOM     92  C   UNL A   1      32.524  18.109  23.204  1.00  0.00     0.046 A 
ATOM     93  C   UNL A   1      34.977  17.999  24.525  1.00  0.00     0.004 A 
ATOM     94  C   UNL A   1      33.301  16.956  23.129  1.00  0.00     0.004 A 
ATOM     95  C   UNL A   1      34.528  16.901  23.789  1.00  0.00     0.000 A 
ENDBRANCH  89  90
ENDBRANCH  88  89
ENDBRANCH  87  88
ENDBRANCH  84  87
ENDBRANCH  83  84
ENDBRANCH  82  83
ENDBRANCH   2  77
TORSDOF 16
ENDMDL
