MODEL 1
REMARK VINA RESULT:     -11.8      0.000      0.000
REMARK SMILES CC[C@@H]([NH3+])C(=O)N1CC[C@H](C(=O)NCCCNC(=O)c2ccc(-c3c4nc(c(-c5c(F)c(F)c(F)c(F)c5F)c5ccc([nH]5)c(-c5c(F)c(F)c(F)c(F)c5F)c5nc(c(-c6c(F)c(F)c(F)c(F)c6F)c6ccc3[nH]6)C=C5)C=C4)cc2)[C@@H]1C
REMARK SMILES IDX 14 1 13 2 11 3 12 4 10 6 7 7 8 8 83 9 9 10 84 11 5 12 6 13
REMARK SMILES IDX 3 14 2 15 1 16 4 17 15 21 16 22 17 23 18 24 19 26 20 27
REMARK SMILES IDX 21 28 82 29 22 30 81 31 23 32 24 33 25 34 75 35 26 36 80 37
REMARK SMILES IDX 74 38 76 39 27 40 79 41 73 42 72 43 28 45 60 46 40 47 59 48
REMARK SMILES IDX 41 49 44 50 58 51 77 52 42 53 43 54 57 56 78 57 45 58 29 59
REMARK SMILES IDX 30 60 38 61 31 62 32 63 36 64 39 65 33 66 34 67 37 68 35 69
REMARK SMILES IDX 61 70 62 71 70 72 63 73 64 74 68 75 71 76 65 77 66 78 69 79
REMARK SMILES IDX 67 80 46 81 47 82 55 83 48 84 49 85 53 86 56 87 50 88 51 89
REMARK SMILES IDX 54 90 52 91
REMARK H PARENT 13 5 4 18 4 19 4 20 17 25 76 44 44 55
REMARK Flexibility Score: inf
ROOT
ATOM      1  C   UNL A   1      31.984  30.608  26.128  1.00  0.00     0.117 C 
ENDROOT
BRANCH   1   2
ATOM      2  N   UNL A   1      31.068  30.500  25.007  1.00  0.00    -0.356 N 
ATOM      3  C   UNL A   1      30.748  29.437  24.217  1.00  0.00     0.225 C 
ATOM      4  O   UNL A   1      29.947  29.671  23.315  1.00  0.00    -0.275 OA
ATOM      5  H   UNL A   1      30.599  31.335  24.780  1.00  0.00     0.163 HD
BRANCH   3   6
ATOM      6  C   UNL A   1      31.421  28.086  24.462  1.00  0.00     0.102 C 
ATOM      7  N   UNL A   1      32.401  26.611  22.832  1.00  0.00    -0.334 N 
ATOM      8  C   UNL A   1      30.968  26.502  22.707  1.00  0.00     0.121 C 
ATOM      9  C   UNL A   1      32.745  27.740  23.708  1.00  0.00     0.094 C 
ATOM     10  C   UNL A   1      30.483  26.928  24.077  1.00  0.00     0.037 C 
ATOM     11  C   UNL A   1      33.366  28.867  22.883  1.00  0.00     0.032 C 
BRANCH   7  12
ATOM     12  C   UNL A   1      33.204  25.669  22.228  1.00  0.00     0.280 C 
ATOM     13  O   UNL A   1      33.600  25.843  21.067  1.00  0.00    -0.268 OA
BRANCH  12  14
ATOM     14  C   UNL A   1      33.442  24.277  22.881  1.00  0.00     0.270 C 
BRANCH  14  15
ATOM     15  C   UNL A   1      33.361  24.173  24.403  1.00  0.00     0.072 C 
ATOM     16  C   UNL A   1      34.582  24.749  25.113  1.00  0.00     0.011 C 
ENDBRANCH  14  15
BRANCH  14  17
ATOM     17  N   UNL A   1      32.564  23.292  22.205  1.00  0.00    -0.347 N 
ATOM     18  H   UNL A   1      31.673  23.733  21.977  1.00  0.00     0.345 HD
ATOM     19  H   UNL A   1      32.402  22.499  22.827  1.00  0.00     0.345 HD
ATOM     20  H   UNL A   1      33.013  22.968  21.349  1.00  0.00     0.345 HD
ENDBRANCH  14  17
ENDBRANCH  12  14
ENDBRANCH   7  12
ENDBRANCH   3   6
ENDBRANCH   1   2
BRANCH   1  21
ATOM     21  C   UNL A   1      31.660  31.788  27.031  1.00  0.00     0.042 C 
BRANCH  21  22
ATOM     22  C   UNL A   1      32.851  32.674  27.378  1.00  0.00     0.118 C 
BRANCH  22  23
ATOM     23  N   UNL A   1      32.484  34.053  27.673  1.00  0.00    -0.352 N 
ATOM     24  C   UNL A   1      33.010  34.935  28.587  1.00  0.00     0.251 C 
ATOM     25  H   UNL A   1      31.744  34.410  27.133  1.00  0.00     0.163 HD
ATOM     26  O   UNL A   1      32.467  36.018  28.780  1.00  0.00    -0.269 OA
BRANCH  24  27
ATOM     27  C   UNL A   1      34.203  34.562  29.376  1.00  0.00     0.039 A 
ATOM     28  C   UNL A   1      34.026  34.059  30.668  1.00  0.00     0.014 A 
ATOM     29  C   UNL A   1      35.486  34.670  28.836  1.00  0.00     0.014 A 
ATOM     30  C   UNL A   1      35.124  33.562  31.372  1.00  0.00     0.010 A 
ATOM     31  C   UNL A   1      36.563  34.092  29.498  1.00  0.00     0.010 A 
ATOM     32  C   UNL A   1      36.390  33.516  30.766  1.00  0.00    -0.014 A 
BRANCH  32  33
ATOM     33  C   UNL A   1      37.535  32.828  31.417  1.00  0.00     0.031 A 
ATOM     34  C   UNL A   1      38.172  31.633  30.769  1.00  0.00     0.074 A 
ATOM     35  C   UNL A   1      37.938  33.230  32.639  1.00  0.00     0.049 A 
ATOM     36  N   UNL A   1      39.111  30.845  31.229  1.00  0.00    -0.248 NA
ATOM     37  C   UNL A   1      37.667  31.253  29.440  1.00  0.00     0.031 C 
ATOM     38  C   UNL A   1      37.362  34.342  33.399  1.00  0.00     0.029 A 
ATOM     39  N   UNL A   1      38.917  32.739  33.467  1.00  0.00    -0.354 N 
ATOM     40  C   UNL A   1      39.298  29.873  30.257  1.00  0.00     0.074 A 
ATOM     41  C   UNL A   1      38.340  30.137  29.204  1.00  0.00     0.031 C 
ATOM     42  C   UNL A   1      38.010  34.461  34.568  1.00  0.00     0.029 A 
ATOM     43  C   UNL A   1      39.016  33.410  34.663  1.00  0.00     0.049 A 
ATOM     44  H   UNL A   1      39.494  31.978  33.227  1.00  0.00     0.167 HD
ATOM     45  C   UNL A   1      40.203  28.865  30.234  1.00  0.00     0.037 A 
ATOM     46  C   UNL A   1      39.818  33.193  35.722  1.00  0.00     0.037 A 
ATOM     47  C   UNL A   1      41.171  28.622  31.270  1.00  0.00     0.049 A 
ATOM     48  C   UNL A   1      40.805  32.058  35.675  1.00  0.00     0.074 A 
ATOM     49  C   UNL A   1      42.181  27.676  31.302  1.00  0.00     0.029 A 
ATOM     50  N   UNL A   1      41.249  29.329  32.461  1.00  0.00    -0.354 N 
ATOM     51  N   UNL A   1      41.025  31.193  34.715  1.00  0.00    -0.248 NA
ATOM     52  C   UNL A   1      41.654  31.870  36.860  1.00  0.00     0.031 C 
ATOM     53  C   UNL A   1      42.837  27.777  32.534  1.00  0.00     0.029 A 
ATOM     54  C   UNL A   1      42.268  28.819  33.249  1.00  0.00     0.049 A 
ATOM     55  H   UNL A   1      40.665  30.082  32.709  1.00  0.00     0.167 HD
ATOM     56  C   UNL A   1      42.047  30.371  35.170  1.00  0.00     0.074 A 
ATOM     57  C   UNL A   1      42.419  30.854  36.484  1.00  0.00     0.031 C 
ATOM     58  C   UNL A   1      42.623  29.309  34.556  1.00  0.00     0.037 A 
BRANCH  45  59
ATOM     59  C   UNL A   1      40.193  27.949  29.044  1.00  0.00     0.064 A 
ATOM     60  C   UNL A   1      40.919  28.249  27.880  1.00  0.00     0.173 A 
ATOM     61  C   UNL A   1      39.487  26.738  29.084  1.00  0.00     0.173 A 
ATOM     62  F   UNL A   1      41.602  29.399  27.789  1.00  0.00    -0.203 F 
ATOM     63  C   UNL A   1      40.916  27.380  26.792  1.00  0.00     0.198 A 
ATOM     64  C   UNL A   1      39.510  25.860  28.003  1.00  0.00     0.198 A 
ATOM     65  F   UNL A   1      38.781  26.401  30.174  1.00  0.00    -0.203 F 
ATOM     66  F   UNL A   1      41.579  27.710  25.674  1.00  0.00    -0.200 F 
ATOM     67  C   UNL A   1      40.218  26.184  26.857  1.00  0.00     0.200 A 
ATOM     68  F   UNL A   1      38.846  24.697  28.073  1.00  0.00    -0.200 F 
ATOM     69  F   UNL A   1      40.223  25.347  25.810  1.00  0.00    -0.200 F 
ENDBRANCH  45  59
BRANCH  46  70
ATOM     70  C   UNL A   1      39.730  34.076  36.915  1.00  0.00     0.064 A 
ATOM     71  C   UNL A   1      40.458  35.271  36.979  1.00  0.00     0.173 A 
ATOM     72  C   UNL A   1      38.923  33.744  38.013  1.00  0.00     0.173 A 
ATOM     73  F   UNL A   1      41.260  35.622  35.963  1.00  0.00    -0.203 F 
ATOM     74  C   UNL A   1      40.397  36.093  38.103  1.00  0.00     0.198 A 
ATOM     75  C   UNL A   1      38.840  34.579  39.124  1.00  0.00     0.198 A 
ATOM     76  F   UNL A   1      38.202  32.613  37.999  1.00  0.00    -0.203 F 
ATOM     77  F   UNL A   1      41.138  37.208  38.156  1.00  0.00    -0.200 F 
ATOM     78  C   UNL A   1      39.584  35.749  39.172  1.00  0.00     0.200 A 
ATOM     79  F   UNL A   1      38.041  34.251  40.149  1.00  0.00    -0.200 F 
ATOM     80  F   UNL A   1      39.522  36.541  40.251  1.00  0.00    -0.200 F 
ENDBRANCH  46  70
BRANCH  58  81
ATOM     81  C   UNL A   1      43.726  28.607  35.291  1.00  0.00     0.064 A 
ATOM     82  C   UNL A   1      43.466  27.511  36.128  1.00  0.00     0.173 A 
ATOM     83  C   UNL A   1      45.060  29.008  35.128  1.00  0.00     0.173 A 
ATOM     84  F   UNL A   1      42.205  27.100  36.330  1.00  0.00    -0.203 F 
ATOM     85  C   UNL A   1      44.501  26.857  36.790  1.00  0.00     0.198 A 
ATOM     86  C   UNL A   1      46.094  28.333  35.769  1.00  0.00     0.198 A 
ATOM     87  F   UNL A   1      45.361  30.047  34.335  1.00  0.00    -0.203 F 
ATOM     88  F   UNL A   1      44.225  25.840  37.619  1.00  0.00    -0.200 F 
ATOM     89  C   UNL A   1      45.813  27.261  36.603  1.00  0.00     0.200 A 
ATOM     90  F   UNL A   1      47.363  28.717  35.578  1.00  0.00    -0.200 F 
ATOM     91  F   UNL A   1      46.809  26.624  37.235  1.00  0.00    -0.200 F 
ENDBRANCH  58  81
ENDBRANCH  32  33
ENDBRANCH  24  27
ENDBRANCH  22  23
ENDBRANCH  21  22
ENDBRANCH   1  21
TORSDOF 14
ENDMDL
MODEL 2
REMARK VINA RESULT:     -11.8      0.519      7.627
REMARK SMILES CC[C@@H]([NH3+])C(=O)N1CC[C@H](C(=O)NCCCNC(=O)c2ccc(-c3c4nc(c(-c5c(F)c(F)c(F)c(F)c5F)c5ccc([nH]5)c(-c5c(F)c(F)c(F)c(F)c5F)c5nc(c(-c6c(F)c(F)c(F)c(F)c6F)c6ccc3[nH]6)C=C5)C=C4)cc2)[C@@H]1C
REMARK SMILES IDX 14 1 13 2 11 3 12 4 10 6 7 7 8 8 83 9 9 10 84 11 5 12 6 13
REMARK SMILES IDX 3 14 2 15 1 16 4 17 15 21 16 22 17 23 18 24 19 26 20 27
REMARK SMILES IDX 21 28 82 29 22 30 81 31 23 32 24 33 25 34 75 35 26 36 80 37
REMARK SMILES IDX 74 38 76 39 27 40 79 41 73 42 72 43 28 45 60 46 40 47 59 48
REMARK SMILES IDX 41 49 44 50 58 51 77 52 42 53 43 54 57 56 78 57 45 58 29 59
REMARK SMILES IDX 30 60 38 61 31 62 32 63 36 64 39 65 33 66 34 67 37 68 35 69
REMARK SMILES IDX 61 70 62 71 70 72 63 73 64 74 68 75 71 76 65 77 66 78 69 79
REMARK SMILES IDX 67 80 46 81 47 82 55 83 48 84 49 85 53 86 56 87 50 88 51 89
REMARK SMILES IDX 54 90 52 91
REMARK H PARENT 13 5 4 18 4 19 4 20 17 25 76 44 44 55
REMARK Flexibility Score: inf
ROOT
ATOM      1  C   UNL A   1      31.803  30.772  26.107  1.00  0.00     0.117 C 
ENDROOT
BRANCH   1   2
ATOM      2  N   UNL A   1      30.971  30.562  24.937  1.00  0.00    -0.356 N 
ATOM      3  C   UNL A   1      30.745  29.444  24.192  1.00  0.00     0.225 C 
ATOM      4  O   UNL A   1      30.000  29.594  23.227  1.00  0.00    -0.275 OA
ATOM      5  H   UNL A   1      30.489  31.364  24.629  1.00  0.00     0.163 HD
BRANCH   3   6
ATOM      6  C   UNL A   1      31.449  28.138  24.562  1.00  0.00     0.102 C 
ATOM      7  N   UNL A   1      32.580  26.606  23.090  1.00  0.00    -0.334 N 
ATOM      8  C   UNL A   1      31.162  26.433  22.887  1.00  0.00     0.121 C 
ATOM      9  C   UNL A   1      32.828  27.799  23.912  1.00  0.00     0.094 C 
ATOM     10  C   UNL A   1      30.578  26.922  24.196  1.00  0.00     0.037 C 
ATOM     11  C   UNL A   1      33.459  28.897  23.055  1.00  0.00     0.032 C 
BRANCH   7  12
ATOM     12  C   UNL A   1      33.451  25.660  22.596  1.00  0.00     0.280 C 
ATOM     13  O   UNL A   1      33.654  25.581  21.377  1.00  0.00    -0.268 OA
BRANCH  12  14
ATOM     14  C   UNL A   1      34.016  24.533  23.507  1.00  0.00     0.270 C 
BRANCH  14  15
ATOM     15  C   UNL A   1      34.566  24.924  24.878  1.00  0.00     0.072 C 
ATOM     16  C   UNL A   1      33.547  24.766  26.003  1.00  0.00     0.011 C 
ENDBRANCH  14  15
BRANCH  14  17
ATOM     17  N   UNL A   1      33.000  23.457  23.597  1.00  0.00    -0.347 N 
ATOM     18  H   UNL A   1      32.953  23.114  24.557  1.00  0.00     0.345 HD
ATOM     19  H   UNL A   1      33.260  22.692  22.975  1.00  0.00     0.345 HD
ATOM     20  H   UNL A   1      32.089  23.825  23.322  1.00  0.00     0.345 HD
ENDBRANCH  14  17
ENDBRANCH  12  14
ENDBRANCH   7  12
ENDBRANCH   3   6
ENDBRANCH   1   2
BRANCH   1  21
ATOM     21  C   UNL A   1      31.494  32.084  26.812  1.00  0.00     0.042 C 
BRANCH  21  22
ATOM     22  C   UNL A   1      32.717  32.854  27.297  1.00  0.00     0.118 C 
BRANCH  22  23
ATOM     23  N   UNL A   1      32.430  34.236  27.657  1.00  0.00    -0.352 N 
ATOM     24  C   UNL A   1      32.996  35.039  28.618  1.00  0.00     0.251 C 
ATOM     25  H   UNL A   1      31.718  34.662  27.129  1.00  0.00     0.163 HD
ATOM     26  O   UNL A   1      32.516  36.142  28.860  1.00  0.00    -0.269 OA
BRANCH  24  27
ATOM     27  C   UNL A   1      34.156  34.557  29.397  1.00  0.00     0.039 A 
ATOM     28  C   UNL A   1      33.932  33.981  30.652  1.00  0.00     0.014 A 
ATOM     29  C   UNL A   1      35.452  34.636  28.884  1.00  0.00     0.014 A 
ATOM     30  C   UNL A   1      34.992  33.385  31.336  1.00  0.00     0.010 A 
ATOM     31  C   UNL A   1      36.488  33.963  29.522  1.00  0.00     0.010 A 
ATOM     32  C   UNL A   1      36.266  33.316  30.747  1.00  0.00    -0.014 A 
BRANCH  32  33
ATOM     33  C   UNL A   1      37.364  32.531  31.367  1.00  0.00     0.031 A 
ATOM     34  C   UNL A   1      37.886  32.899  32.726  1.00  0.00     0.074 A 
ATOM     35  C   UNL A   1      37.950  31.543  30.662  1.00  0.00     0.049 A 
ATOM     36  N   UNL A   1      38.901  32.398  33.385  1.00  0.00    -0.248 NA
ATOM     37  C   UNL A   1      37.199  33.995  33.426  1.00  0.00     0.031 C 
ATOM     38  C   UNL A   1      37.571  31.129  29.309  1.00  0.00     0.029 A 
ATOM     39  N   UNL A   1      39.001  30.718  30.977  1.00  0.00    -0.354 N 
ATOM     40  C   UNL A   1      38.981  33.124  34.565  1.00  0.00     0.074 A 
ATOM     41  C   UNL A   1      37.947  34.135  34.510  1.00  0.00     0.031 C 
ATOM     42  C   UNL A   1      38.361  30.116  28.920  1.00  0.00     0.029 A 
ATOM     43  C   UNL A   1      39.331  29.838  29.974  1.00  0.00     0.049 A 
ATOM     44  H   UNL A   1      39.474  30.753  31.839  1.00  0.00     0.167 HD
ATOM     45  C   UNL A   1      39.825  32.949  35.610  1.00  0.00     0.037 A 
ATOM     46  C   UNL A   1      40.314  28.921  29.905  1.00  0.00     0.037 A 
ATOM     47  C   UNL A   1      40.835  31.925  35.671  1.00  0.00     0.049 A 
ATOM     48  C   UNL A   1      41.246  28.756  31.074  1.00  0.00     0.074 A 
ATOM     49  C   UNL A   1      41.687  31.616  36.717  1.00  0.00     0.029 A 
ATOM     50  N   UNL A   1      41.132  31.045  34.641  1.00  0.00    -0.354 N 
ATOM     51  N   UNL A   1      41.261  29.397  32.217  1.00  0.00    -0.248 NA
ATOM     52  C   UNL A   1      42.299  27.738  30.942  1.00  0.00     0.031 C 
ATOM     53  C   UNL A   1      42.533  30.582  36.302  1.00  0.00     0.029 A 
ATOM     54  C   UNL A   1      42.176  30.214  35.014  1.00  0.00     0.049 A 
ATOM     55  H   UNL A   1      40.669  31.016  33.772  1.00  0.00     0.167 HD
ATOM     56  C   UNL A   1      42.308  28.851  32.947  1.00  0.00     0.074 A 
ATOM     57  C   UNL A   1      42.892  27.811  32.126  1.00  0.00     0.031 C 
ATOM     58  C   UNL A   1      42.748  29.186  34.184  1.00  0.00     0.037 A 
BRANCH  45  59
ATOM     59  C   UNL A   1      39.690  33.882  36.778  1.00  0.00     0.064 A 
ATOM     60  C   UNL A   1      38.890  33.561  37.885  1.00  0.00     0.173 A 
ATOM     61  C   UNL A   1      40.403  35.089  36.810  1.00  0.00     0.173 A 
ATOM     62  F   UNL A   1      38.182  32.423  37.899  1.00  0.00    -0.203 F 
ATOM     63  C   UNL A   1      38.789  34.428  38.970  1.00  0.00     0.198 A 
ATOM     64  C   UNL A   1      40.320  35.940  37.909  1.00  0.00     0.198 A 
ATOM     65  F   UNL A   1      41.185  35.442  35.779  1.00  0.00    -0.203 F 
ATOM     66  F   UNL A   1      37.983  34.121  39.997  1.00  0.00    -0.200 F 
ATOM     67  C   UNL A   1      39.510  35.612  38.985  1.00  0.00     0.200 A 
ATOM     68  F   UNL A   1      41.028  37.079  37.928  1.00  0.00    -0.200 F 
ATOM     69  F   UNL A   1      39.417  36.442  40.034  1.00  0.00    -0.200 F 
ENDBRANCH  45  59
BRANCH  46  70
ATOM     70  C   UNL A   1      40.461  28.078  28.689  1.00  0.00     0.064 A 
ATOM     71  C   UNL A   1      39.819  26.837  28.593  1.00  0.00     0.173 A 
ATOM     72  C   UNL A   1      41.247  28.492  27.603  1.00  0.00     0.173 A 
ATOM     73  F   UNL A   1      39.073  26.388  29.614  1.00  0.00    -0.203 F 
ATOM     74  C   UNL A   1      39.970  26.032  27.465  1.00  0.00     0.198 A 
ATOM     75  C   UNL A   1      41.375  27.700  26.465  1.00  0.00     0.198 A 
ATOM     76  F   UNL A   1      41.879  29.675  27.643  1.00  0.00    -0.203 F 
ATOM     77  F   UNL A   1      39.381  24.830  27.419  1.00  0.00    -0.200 F 
ATOM     78  C   UNL A   1      40.743  26.467  26.400  1.00  0.00     0.200 A 
ATOM     79  F   UNL A   1      42.110  28.131  25.430  1.00  0.00    -0.200 F 
ATOM     80  F   UNL A   1      40.886  25.695  25.314  1.00  0.00    -0.200 F 
ENDBRANCH  46  70
BRANCH  58  81
ATOM     81  C   UNL A   1      43.909  28.408  34.732  1.00  0.00     0.064 A 
ATOM     82  C   UNL A   1      43.721  27.203  35.425  1.00  0.00     0.173 A 
ATOM     83  C   UNL A   1      45.224  28.853  34.529  1.00  0.00     0.173 A 
ATOM     84  F   UNL A   1      42.483  26.745  35.660  1.00  0.00    -0.203 F 
ATOM     85  C   UNL A   1      44.809  26.483  35.912  1.00  0.00     0.198 A 
ATOM     86  C   UNL A   1      46.309  28.115  34.992  1.00  0.00     0.198 A 
ATOM     87  F   UNL A   1      45.456  29.997  33.868  1.00  0.00    -0.203 F 
ATOM     88  F   UNL A   1      44.604  25.357  36.609  1.00  0.00    -0.200 F 
ATOM     89  C   UNL A   1      46.100  26.934  35.688  1.00  0.00     0.200 A 
ATOM     90  F   UNL A   1      47.557  28.546  34.764  1.00  0.00    -0.200 F 
ATOM     91  F   UNL A   1      47.145  26.234  36.151  1.00  0.00    -0.200 F 
ENDBRANCH  58  81
ENDBRANCH  32  33
ENDBRANCH  24  27
ENDBRANCH  22  23
ENDBRANCH  21  22
ENDBRANCH   1  21
TORSDOF 14
ENDMDL
MODEL 3
REMARK VINA RESULT:     -11.7      6.085     11.580
REMARK SMILES CC[C@@H]([NH3+])C(=O)N1CC[C@H](C(=O)NCCCNC(=O)c2ccc(-c3c4nc(c(-c5c(F)c(F)c(F)c(F)c5F)c5ccc([nH]5)c(-c5c(F)c(F)c(F)c(F)c5F)c5nc(c(-c6c(F)c(F)c(F)c(F)c6F)c6ccc3[nH]6)C=C5)C=C4)cc2)[C@@H]1C
REMARK SMILES IDX 14 1 13 2 11 3 12 4 10 6 7 7 8 8 83 9 9 10 84 11 5 12 6 13
REMARK SMILES IDX 3 14 2 15 1 16 4 17 15 21 16 22 17 23 18 24 19 26 20 27
REMARK SMILES IDX 21 28 82 29 22 30 81 31 23 32 24 33 25 34 75 35 26 36 80 37
REMARK SMILES IDX 74 38 76 39 27 40 79 41 73 42 72 43 28 45 60 46 40 47 59 48
REMARK SMILES IDX 41 49 44 50 58 51 77 52 42 53 43 54 57 56 78 57 45 58 29 59
REMARK SMILES IDX 30 60 38 61 31 62 32 63 36 64 39 65 33 66 34 67 37 68 35 69
REMARK SMILES IDX 61 70 62 71 70 72 63 73 64 74 68 75 71 76 65 77 66 78 69 79
REMARK SMILES IDX 67 80 46 81 47 82 55 83 48 84 49 85 53 86 56 87 50 88 51 89
REMARK SMILES IDX 54 90 52 91
REMARK H PARENT 13 5 4 18 4 19 4 20 17 25 76 44 44 55
REMARK Flexibility Score: inf
ROOT
ATOM      1  C   UNL A   1      36.840  20.889  25.333  1.00  0.00     0.117 C 
ENDROOT
BRANCH   1   2
ATOM      2  N   UNL A   1      35.626  20.103  25.212  1.00  0.00    -0.356 N 
ATOM      3  C   UNL A   1      34.340  20.482  24.968  1.00  0.00     0.225 C 
ATOM      4  O   UNL A   1      33.515  19.571  24.954  1.00  0.00    -0.275 OA
ATOM      5  H   UNL A   1      35.753  19.133  25.325  1.00  0.00     0.163 HD
BRANCH   3   6
ATOM      6  C   UNL A   1      34.012  21.964  24.788  1.00  0.00     0.102 C 
ATOM      7  N   UNL A   1      32.347  23.257  25.950  1.00  0.00    -0.334 N 
ATOM      8  C   UNL A   1      31.657  22.417  25.000  1.00  0.00     0.121 C 
ATOM      9  C   UNL A   1      33.757  22.852  26.048  1.00  0.00     0.094 C 
ATOM     10  C   UNL A   1      32.726  22.145  23.962  1.00  0.00     0.037 C 
ATOM     11  C   UNL A   1      34.014  22.192  27.403  1.00  0.00     0.032 C 
BRANCH   7  12
ATOM     12  C   UNL A   1      31.671  24.302  26.539  1.00  0.00     0.280 C 
ATOM     13  O   UNL A   1      30.680  24.079  27.249  1.00  0.00    -0.268 OA
BRANCH  12  14
ATOM     14  C   UNL A   1      31.978  25.778  26.154  1.00  0.00     0.270 C 
BRANCH  14  15
ATOM     15  C   UNL A   1      32.078  26.128  24.670  1.00  0.00     0.072 C 
ATOM     16  C   UNL A   1      33.513  26.154  24.153  1.00  0.00     0.011 C 
ENDBRANCH  14  15
BRANCH  14  17
ATOM     17  N   UNL A   1      31.021  26.652  26.873  1.00  0.00    -0.347 N 
ATOM     18  H   UNL A   1      31.178  27.623  26.600  1.00  0.00     0.345 HD
ATOM     19  H   UNL A   1      31.162  26.555  27.879  1.00  0.00     0.345 HD
ATOM     20  H   UNL A   1      30.067  26.381  26.635  1.00  0.00     0.345 HD
ENDBRANCH  14  17
ENDBRANCH  12  14
ENDBRANCH   7  12
ENDBRANCH   3   6
ENDBRANCH   1   2
BRANCH   1  21
ATOM     21  C   UNL A   1      38.085  20.094  24.968  1.00  0.00     0.042 C 
BRANCH  21  22
ATOM     22  C   UNL A   1      39.279  20.318  25.889  1.00  0.00     0.118 C 
BRANCH  22  23
ATOM     23  N   UNL A   1      40.217  19.202  25.907  1.00  0.00    -0.352 N 
ATOM     24  C   UNL A   1      41.579  19.192  26.088  1.00  0.00     0.251 C 
ATOM     25  H   UNL A   1      39.811  18.317  25.769  1.00  0.00     0.163 HD
ATOM     26  O   UNL A   1      42.213  18.152  25.931  1.00  0.00    -0.269 OA
BRANCH  24  27
ATOM     27  C   UNL A   1      42.292  20.441  26.424  1.00  0.00     0.039 A 
ATOM     28  C   UNL A   1      42.902  21.167  25.397  1.00  0.00     0.014 A 
ATOM     29  C   UNL A   1      42.332  20.917  27.736  1.00  0.00     0.014 A 
ATOM     30  C   UNL A   1      43.449  22.421  25.669  1.00  0.00     0.010 A 
ATOM     31  C   UNL A   1      42.794  22.203  27.989  1.00  0.00     0.010 A 
ATOM     32  C   UNL A   1      43.342  22.977  26.954  1.00  0.00    -0.014 A 
BRANCH  32  33
ATOM     33  C   UNL A   1      43.750  24.379  27.229  1.00  0.00     0.031 A 
ATOM     34  C   UNL A   1      42.745  25.380  27.721  1.00  0.00     0.074 A 
ATOM     35  C   UNL A   1      45.009  24.768  26.945  1.00  0.00     0.049 A 
ATOM     36  N   UNL A   1      42.889  26.666  27.920  1.00  0.00    -0.248 NA
ATOM     37  C   UNL A   1      41.390  24.878  27.996  1.00  0.00     0.031 C 
ATOM     38  C   UNL A   1      46.062  23.903  26.408  1.00  0.00     0.029 A 
ATOM     39  N   UNL A   1      45.614  25.995  27.051  1.00  0.00    -0.354 N 
ATOM     40  C   UNL A   1      41.645  27.126  28.329  1.00  0.00     0.074 A 
ATOM     41  C   UNL A   1      40.745  25.994  28.300  1.00  0.00     0.031 C 
ATOM     42  C   UNL A   1      47.186  24.619  26.254  1.00  0.00     0.029 A 
ATOM     43  C   UNL A   1      46.924  26.002  26.636  1.00  0.00     0.049 A 
ATOM     44  H   UNL A   1      45.154  26.795  27.394  1.00  0.00     0.167 HD
ATOM     45  C   UNL A   1      41.293  28.375  28.717  1.00  0.00     0.037 A 
ATOM     46  C   UNL A   1      47.811  27.012  26.558  1.00  0.00     0.037 A 
ATOM     47  C   UNL A   1      42.198  29.493  28.770  1.00  0.00     0.049 A 
ATOM     48  C   UNL A   1      47.389  28.393  26.982  1.00  0.00     0.074 A 
ATOM     49  C   UNL A   1      41.956  30.778  29.223  1.00  0.00     0.029 A 
ATOM     50  N   UNL A   1      43.520  29.459  28.352  1.00  0.00    -0.354 N 
ATOM     51  N   UNL A   1      46.230  28.798  27.442  1.00  0.00    -0.248 NA
ATOM     52  C   UNL A   1      48.398  29.455  26.876  1.00  0.00     0.031 C 
ATOM     53  C   UNL A   1      43.117  31.535  29.033  1.00  0.00     0.029 A 
ATOM     54  C   UNL A   1      44.098  30.709  28.506  1.00  0.00     0.049 A 
ATOM     55  H   UNL A   1      43.980  28.664  27.998  1.00  0.00     0.167 HD
ATOM     56  C   UNL A   1      46.375  30.155  27.697  1.00  0.00     0.074 A 
ATOM     57  C   UNL A   1      47.741  30.500  27.361  1.00  0.00     0.031 C 
ATOM     58  C   UNL A   1      45.457  31.037  28.164  1.00  0.00     0.037 A 
BRANCH  45  59
ATOM     59  C   UNL A   1      39.865  28.600  29.122  1.00  0.00     0.064 A 
ATOM     60  C   UNL A   1      39.429  28.374  30.436  1.00  0.00     0.173 A 
ATOM     61  C   UNL A   1      38.931  29.090  28.196  1.00  0.00     0.173 A 
ATOM     62  F   UNL A   1      40.280  27.897  31.356  1.00  0.00    -0.203 F 
ATOM     63  C   UNL A   1      38.105  28.606  30.802  1.00  0.00     0.198 A 
ATOM     64  C   UNL A   1      37.615  29.347  28.573  1.00  0.00     0.198 A 
ATOM     65  F   UNL A   1      39.297  29.328  26.927  1.00  0.00    -0.203 F 
ATOM     66  F   UNL A   1      37.702  28.339  32.053  1.00  0.00    -0.200 F 
ATOM     67  C   UNL A   1      37.203  29.099  29.873  1.00  0.00     0.200 A 
ATOM     68  F   UNL A   1      36.747  29.836  27.677  1.00  0.00    -0.200 F 
ATOM     69  F   UNL A   1      35.931  29.328  30.229  1.00  0.00    -0.200 F 
ENDBRANCH  45  59
BRANCH  46  70
ATOM     70  C   UNL A   1      49.191  26.755  26.068  1.00  0.00     0.064 A 
ATOM     71  C   UNL A   1      49.525  26.963  24.723  1.00  0.00     0.173 A 
ATOM     72  C   UNL A   1      50.198  26.294  26.927  1.00  0.00     0.173 A 
ATOM     73  F   UNL A   1      48.591  27.384  23.858  1.00  0.00    -0.203 F 
ATOM     74  C   UNL A   1      50.811  26.703  24.252  1.00  0.00     0.198 A 
ATOM     75  C   UNL A   1      51.490  26.060  26.462  1.00  0.00     0.198 A 
ATOM     76  F   UNL A   1      49.930  26.083  28.225  1.00  0.00    -0.203 F 
ATOM     77  F   UNL A   1      51.092  26.868  22.952  1.00  0.00    -0.200 F 
ATOM     78  C   UNL A   1      51.793  26.257  25.123  1.00  0.00     0.200 A 
ATOM     79  F   UNL A   1      52.441  25.644  27.310  1.00  0.00    -0.200 F 
ATOM     80  F   UNL A   1      53.030  26.011  24.671  1.00  0.00    -0.200 F 
ENDBRANCH  46  70
BRANCH  58  81
ATOM     81  C   UNL A   1      45.904  32.456  28.353  1.00  0.00     0.064 A 
ATOM     82  C   UNL A   1      45.777  33.407  27.328  1.00  0.00     0.173 A 
ATOM     83  C   UNL A   1      46.429  32.881  29.582  1.00  0.00     0.173 A 
ATOM     84  F   UNL A   1      45.298  33.046  26.129  1.00  0.00    -0.203 F 
ATOM     85  C   UNL A   1      46.179  34.725  27.524  1.00  0.00     0.198 A 
ATOM     86  C   UNL A   1      46.803  34.206  29.783  1.00  0.00     0.198 A 
ATOM     87  F   UNL A   1      46.567  32.011  30.595  1.00  0.00    -0.203 F 
ATOM     88  F   UNL A   1      46.090  35.606  26.517  1.00  0.00    -0.200 F 
ATOM     89  C   UNL A   1      46.682  35.125  28.752  1.00  0.00     0.200 A 
ATOM     90  F   UNL A   1      47.277  34.595  30.974  1.00  0.00    -0.200 F 
ATOM     91  F   UNL A   1      47.061  36.398  28.939  1.00  0.00    -0.200 F 
ENDBRANCH  58  81
ENDBRANCH  32  33
ENDBRANCH  24  27
ENDBRANCH  22  23
ENDBRANCH  21  22
ENDBRANCH   1  21
TORSDOF 14
ENDMDL
