MODEL 1
REMARK VINA RESULT:     -13.0      0.000      0.000
REMARK SMILES CSc1nc2nnc(C(=O)NCCCNC(=O)c3ccc(-c4c5nc(c(-c6c(F)c(F)c(F)c(F)c6F)c6ccc([nH]6)c(-c6c(F)c(F)c(F)c(F)c6F)c6nc(c(-c7c(F)c(F)c(F)c(F)c7F)c7ccc4[nH]7)C=C6)C=C5)cc3)c(O)n2n1
REMARK SMILES IDX 13 1 12 2 11 3 9 4 10 5 8 7 3 8 4 9 84 10 5 11 83 12 6 13
REMARK SMILES IDX 81 14 7 15 2 16 1 17 82 18 14 20 15 21 16 22 17 24 18 25
REMARK SMILES IDX 19 26 80 27 20 28 79 29 21 30 22 31 23 32 73 33 24 34 78 35
REMARK SMILES IDX 72 36 74 37 25 38 77 39 71 40 70 41 26 43 58 44 38 45 57 46
REMARK SMILES IDX 39 47 42 48 56 49 75 50 40 51 41 52 55 54 76 55 43 56 27 57
REMARK SMILES IDX 28 58 36 59 29 60 30 61 34 62 37 63 31 64 32 65 35 66 33 67
REMARK SMILES IDX 59 68 60 69 68 70 61 71 62 72 66 73 69 74 63 75 64 76 67 77
REMARK SMILES IDX 65 78 44 79 45 80 53 81 46 82 47 83 51 84 54 85 48 86 49 87
REMARK SMILES IDX 52 88 50 89
REMARK H PARENT 11 6 82 19 15 23 74 42 42 53
REMARK Flexibility Score: inf
ROOT
ATOM      1  C   UNL A   1      42.093  40.151  26.931  1.00  0.00     0.042 C 
ENDROOT
BRANCH   1   2
ATOM      2  C   UNL A   1      42.374  40.904  25.628  1.00  0.00     0.118 C 
BRANCH   2   3
ATOM      3  N   UNL A   1      43.257  42.046  25.829  1.00  0.00    -0.350 N 
ATOM      4  C   UNL A   1      43.832  42.944  24.985  1.00  0.00     0.277 C 
ATOM      5  O   UNL A   1      44.528  43.826  25.504  1.00  0.00    -0.267 OA
ATOM      6  H   UNL A   1      43.484  42.201  26.775  1.00  0.00     0.163 HD
BRANCH   4   7
ATOM      7  C   UNL A   1      43.650  42.921  23.491  1.00  0.00     0.212 A 
ATOM      8  C   UNL A   1      41.811  43.516  19.585  1.00  0.00     0.210 A 
ATOM      9  N   UNL A   1      43.000  42.849  19.546  1.00  0.00    -0.182 NA
ATOM     10  N   UNL A   1      41.390  43.867  20.798  1.00  0.00    -0.134 NA
ATOM     11  C   UNL A   1      43.355  42.798  20.816  1.00  0.00     0.275 A 
ATOM     12  N   UNL A   1      42.379  43.406  21.595  1.00  0.00    -0.159 N 
ATOM     13  N   UNL A   1      44.465  42.281  21.418  1.00  0.00    -0.108 NA
ATOM     14  C   UNL A   1      42.520  43.469  22.983  1.00  0.00     0.249 A 
ATOM     15  N   UNL A   1      44.609  42.355  22.670  1.00  0.00    -0.136 NA
BRANCH   8  16
ATOM     16  S   UNL A   1      40.877  43.953  18.182  1.00  0.00    -0.088 SA
ATOM     17  C   UNL A   1      41.528  45.590  17.814  1.00  0.00     0.094 C 
ENDBRANCH   8  16
BRANCH  14  18
ATOM     18  O   UNL A   1      41.510  44.072  23.720  1.00  0.00    -0.491 OA
ATOM     19  H   UNL A   1      41.719  44.543  24.502  1.00  0.00     0.295 HD
ENDBRANCH  14  18
ENDBRANCH   4   7
ENDBRANCH   2   3
ENDBRANCH   1   2
BRANCH   1  20
ATOM     20  C   UNL A   1      42.221  38.644  26.764  1.00  0.00     0.118 C 
BRANCH  20  21
ATOM     21  N   UNL A   1      43.595  38.200  26.501  1.00  0.00    -0.352 N 
ATOM     22  C   UNL A   1      44.384  37.370  27.273  1.00  0.00     0.251 C 
ATOM     23  H   UNL A   1      44.006  38.536  25.672  1.00  0.00     0.163 HD
ATOM     24  O   UNL A   1      45.603  37.315  27.103  1.00  0.00    -0.269 OA
BRANCH  22  25
ATOM     25  C   UNL A   1      43.744  36.545  28.308  1.00  0.00     0.039 A 
ATOM     26  C   UNL A   1      43.858  36.845  29.668  1.00  0.00     0.014 A 
ATOM     27  C   UNL A   1      42.976  35.467  27.879  1.00  0.00     0.014 A 
ATOM     28  C   UNL A   1      43.122  36.094  30.580  1.00  0.00     0.010 A 
ATOM     29  C   UNL A   1      42.112  34.861  28.748  1.00  0.00     0.010 A 
ATOM     30  C   UNL A   1      42.232  35.117  30.105  1.00  0.00    -0.014 A 
BRANCH  30  31
ATOM     31  C   UNL A   1      41.330  34.413  31.008  1.00  0.00     0.031 A 
ATOM     32  C   UNL A   1      41.899  34.185  32.359  1.00  0.00     0.074 A 
ATOM     33  C   UNL A   1      40.030  34.189  30.714  1.00  0.00     0.049 A 
ATOM     34  N   UNL A   1      42.240  33.056  32.879  1.00  0.00    -0.248 NA
ATOM     35  C   UNL A   1      42.274  35.351  33.179  1.00  0.00     0.031 C 
ATOM     36  C   UNL A   1      39.276  34.670  29.546  1.00  0.00     0.029 A 
ATOM     37  N   UNL A   1      39.065  33.562  31.448  1.00  0.00    -0.354 N 
ATOM     38  C   UNL A   1      42.645  33.343  34.180  1.00  0.00     0.074 A 
ATOM     39  C   UNL A   1      42.837  34.767  34.240  1.00  0.00     0.031 C 
ATOM     40  C   UNL A   1      37.951  34.536  29.768  1.00  0.00     0.029 A 
ATOM     41  C   UNL A   1      37.768  33.783  30.993  1.00  0.00     0.049 A 
ATOM     42  H   UNL A   1      39.270  33.003  32.232  1.00  0.00     0.167 HD
ATOM     43  C   UNL A   1      42.477  32.415  35.163  1.00  0.00     0.037 A 
ATOM     44  C   UNL A   1      36.624  33.367  31.585  1.00  0.00     0.037 A 
ATOM     45  C   UNL A   1      42.159  31.130  34.594  1.00  0.00     0.049 A 
ATOM     46  C   UNL A   1      36.974  32.212  32.441  1.00  0.00     0.074 A 
ATOM     47  C   UNL A   1      42.846  30.096  33.998  1.00  0.00     0.029 A 
ATOM     48  N   UNL A   1      40.843  31.004  34.239  1.00  0.00    -0.354 N 
ATOM     49  N   UNL A   1      37.401  31.074  31.969  1.00  0.00    -0.248 NA
ATOM     50  C   UNL A   1      37.186  32.421  33.869  1.00  0.00     0.031 C 
ATOM     51  C   UNL A   1      41.905  29.416  33.163  1.00  0.00     0.029 A 
ATOM     52  C   UNL A   1      40.659  30.019  33.306  1.00  0.00     0.049 A 
ATOM     53  H   UNL A   1      40.117  31.556  34.608  1.00  0.00     0.167 HD
ATOM     54  C   UNL A   1      38.298  30.633  32.919  1.00  0.00     0.074 A 
ATOM     55  C   UNL A   1      37.987  31.385  34.128  1.00  0.00     0.031 C 
ATOM     56  C   UNL A   1      39.428  29.963  32.553  1.00  0.00     0.037 A 
BRANCH  43  57
ATOM     57  C   UNL A   1      42.111  32.728  36.598  1.00  0.00     0.064 A 
ATOM     58  C   UNL A   1      42.949  32.273  37.638  1.00  0.00     0.173 A 
ATOM     59  C   UNL A   1      40.839  33.182  37.005  1.00  0.00     0.173 A 
ATOM     60  F   UNL A   1      44.167  31.780  37.366  1.00  0.00    -0.203 F 
ATOM     61  C   UNL A   1      42.526  32.239  38.972  1.00  0.00     0.198 A 
ATOM     62  C   UNL A   1      40.440  33.196  38.342  1.00  0.00     0.198 A 
ATOM     63  F   UNL A   1      39.888  33.519  36.125  1.00  0.00    -0.203 F 
ATOM     64  F   UNL A   1      43.317  31.700  39.909  1.00  0.00    -0.200 F 
ATOM     65  C   UNL A   1      41.273  32.702  39.322  1.00  0.00     0.200 A 
ATOM     66  F   UNL A   1      39.207  33.622  38.656  1.00  0.00    -0.200 F 
ATOM     67  F   UNL A   1      40.847  32.631  40.591  1.00  0.00    -0.200 F 
ENDBRANCH  43  57
BRANCH  44  68
ATOM     68  C   UNL A   1      35.320  34.063  31.707  1.00  0.00     0.064 A 
ATOM     69  C   UNL A   1      35.132  35.046  32.694  1.00  0.00     0.173 A 
ATOM     70  C   UNL A   1      34.376  34.031  30.664  1.00  0.00     0.173 A 
ATOM     71  F   UNL A   1      35.997  35.151  33.714  1.00  0.00    -0.203 F 
ATOM     72  C   UNL A   1      34.113  35.997  32.598  1.00  0.00     0.198 A 
ATOM     73  C   UNL A   1      33.355  34.979  30.572  1.00  0.00     0.198 A 
ATOM     74  F   UNL A   1      34.491  33.153  29.659  1.00  0.00    -0.203 F 
ATOM     75  F   UNL A   1      34.027  36.978  33.507  1.00  0.00    -0.200 F 
ATOM     76  C   UNL A   1      33.240  35.977  31.524  1.00  0.00     0.200 A 
ATOM     77  F   UNL A   1      32.532  34.968  29.513  1.00  0.00    -0.200 F 
ATOM     78  F   UNL A   1      32.321  36.942  31.380  1.00  0.00    -0.200 F 
ENDBRANCH  44  68
BRANCH  56  79
ATOM     79  C   UNL A   1      39.417  29.264  31.229  1.00  0.00     0.064 A 
ATOM     80  C   UNL A   1      39.887  29.816  30.027  1.00  0.00     0.173 A 
ATOM     81  C   UNL A   1      38.948  27.944  31.193  1.00  0.00     0.173 A 
ATOM     82  F   UNL A   1      40.416  31.045  29.991  1.00  0.00    -0.203 F 
ATOM     83  C   UNL A   1      39.849  29.090  28.836  1.00  0.00     0.198 A 
ATOM     84  C   UNL A   1      38.945  27.210  30.013  1.00  0.00     0.198 A 
ATOM     85  F   UNL A   1      38.518  27.355  32.320  1.00  0.00    -0.203 F 
ATOM     86  F   UNL A   1      40.282  29.646  27.695  1.00  0.00    -0.200 F 
ATOM     87  C   UNL A   1      39.383  27.786  28.832  1.00  0.00     0.200 A 
ATOM     88  F   UNL A   1      38.528  25.937  30.025  1.00  0.00    -0.200 F 
ATOM     89  F   UNL A   1      39.372  27.076  27.695  1.00  0.00    -0.200 F 
ENDBRANCH  56  79
ENDBRANCH  30  31
ENDBRANCH  22  25
ENDBRANCH  20  21
ENDBRANCH   1  20
TORSDOF 12
ENDMDL
MODEL 2
REMARK VINA RESULT:     -12.9      7.500     12.515
REMARK SMILES CSc1nc2nnc(C(=O)NCCCNC(=O)c3ccc(-c4c5nc(c(-c6c(F)c(F)c(F)c(F)c6F)c6ccc([nH]6)c(-c6c(F)c(F)c(F)c(F)c6F)c6nc(c(-c7c(F)c(F)c(F)c(F)c7F)c7ccc4[nH]7)C=C6)C=C5)cc3)c(O)n2n1
REMARK SMILES IDX 13 1 12 2 11 3 9 4 10 5 8 7 3 8 4 9 84 10 5 11 83 12 6 13
REMARK SMILES IDX 81 14 7 15 2 16 1 17 82 18 14 20 15 21 16 22 17 24 18 25
REMARK SMILES IDX 19 26 80 27 20 28 79 29 21 30 22 31 23 32 73 33 24 34 78 35
REMARK SMILES IDX 72 36 74 37 25 38 77 39 71 40 70 41 26 43 58 44 38 45 57 46
REMARK SMILES IDX 39 47 42 48 56 49 75 50 40 51 41 52 55 54 76 55 43 56 27 57
REMARK SMILES IDX 28 58 36 59 29 60 30 61 34 62 37 63 31 64 32 65 35 66 33 67
REMARK SMILES IDX 59 68 60 69 68 70 61 71 62 72 66 73 69 74 63 75 64 76 67 77
REMARK SMILES IDX 65 78 44 79 45 80 53 81 46 82 47 83 51 84 54 85 48 86 49 87
REMARK SMILES IDX 52 88 50 89
REMARK H PARENT 11 6 82 19 15 23 74 42 42 53
REMARK Flexibility Score: inf
ROOT
ATOM      1  C   UNL A   1      41.199  19.506  27.619  1.00  0.00     0.042 C 
ENDROOT
BRANCH   1   2
ATOM      2  C   UNL A   1      42.662  19.080  27.782  1.00  0.00     0.118 C 
BRANCH   2   3
ATOM      3  N   UNL A   1      43.224  18.550  26.547  1.00  0.00    -0.350 N 
ATOM      4  C   UNL A   1      43.807  19.127  25.462  1.00  0.00     0.277 C 
ATOM      5  O   UNL A   1      44.204  18.363  24.574  1.00  0.00    -0.267 OA
ATOM      6  H   UNL A   1      43.172  17.568  26.483  1.00  0.00     0.163 HD
BRANCH   4   7
ATOM      7  C   UNL A   1      44.000  20.611  25.308  1.00  0.00     0.212 A 
ATOM      8  C   UNL A   1      45.996  24.483  25.153  1.00  0.00     0.210 A 
ATOM      9  N   UNL A   1      44.641  24.547  25.008  1.00  0.00    -0.182 NA
ATOM     10  N   UNL A   1      46.497  23.263  25.332  1.00  0.00    -0.134 NA
ATOM     11  C   UNL A   1      44.274  23.283  25.081  1.00  0.00     0.275 A 
ATOM     12  N   UNL A   1      45.391  22.485  25.289  1.00  0.00    -0.159 N 
ATOM     13  N   UNL A   1      43.045  22.698  24.979  1.00  0.00    -0.108 NA
ATOM     14  C   UNL A   1      45.259  21.101  25.414  1.00  0.00     0.249 A 
ATOM     15  N   UNL A   1      42.922  21.444  25.069  1.00  0.00    -0.136 NA
BRANCH   8  16
ATOM     16  S   UNL A   1      47.065  25.855  25.072  1.00  0.00    -0.088 SA
ATOM     17  C   UNL A   1      45.898  27.223  25.137  1.00  0.00     0.094 C 
ENDBRANCH   8  16
BRANCH  14  18
ATOM     18  O   UNL A   1      46.404  20.348  25.637  1.00  0.00    -0.491 OA
ATOM     19  H   UNL A   1      47.217  20.775  25.822  1.00  0.00     0.295 HD
ENDBRANCH  14  18
ENDBRANCH   4   7
ENDBRANCH   2   3
ENDBRANCH   1   2
BRANCH   1  20
ATOM     20  C   UNL A   1      41.045  21.018  27.559  1.00  0.00     0.118 C 
BRANCH  20  21
ATOM     21  N   UNL A   1      40.138  21.471  26.498  1.00  0.00    -0.352 N 
ATOM     22  C   UNL A   1      39.443  22.662  26.423  1.00  0.00     0.251 C 
ATOM     23  H   UNL A   1      40.009  20.849  25.746  1.00  0.00     0.163 HD
ATOM     24  O   UNL A   1      38.497  22.796  25.645  1.00  0.00    -0.269 OA
BRANCH  22  25
ATOM     25  C   UNL A   1      39.851  23.777  27.289  1.00  0.00     0.039 A 
ATOM     26  C   UNL A   1      41.173  23.942  27.708  1.00  0.00     0.014 A 
ATOM     27  C   UNL A   1      38.872  24.699  27.646  1.00  0.00     0.014 A 
ATOM     28  C   UNL A   1      41.508  25.090  28.421  1.00  0.00     0.010 A 
ATOM     29  C   UNL A   1      39.235  25.907  28.172  1.00  0.00     0.010 A 
ATOM     30  C   UNL A   1      40.533  26.079  28.628  1.00  0.00    -0.014 A 
BRANCH  30  31
ATOM     31  C   UNL A   1      40.872  27.361  29.232  1.00  0.00     0.031 A 
ATOM     32  C   UNL A   1      41.949  28.090  28.516  1.00  0.00     0.074 A 
ATOM     33  C   UNL A   1      40.131  27.926  30.211  1.00  0.00     0.049 A 
ATOM     34  N   UNL A   1      43.145  28.321  28.937  1.00  0.00    -0.248 NA
ATOM     35  C   UNL A   1      41.729  28.483  27.113  1.00  0.00     0.031 C 
ATOM     36  C   UNL A   1      38.853  27.450  30.761  1.00  0.00     0.029 A 
ATOM     37  N   UNL A   1      40.308  29.111  30.865  1.00  0.00    -0.354 N 
ATOM     38  C   UNL A   1      43.751  29.098  27.954  1.00  0.00     0.074 A 
ATOM     39  C   UNL A   1      42.919  28.994  26.785  1.00  0.00     0.031 C 
ATOM     40  C   UNL A   1      38.260  28.438  31.466  1.00  0.00     0.029 A 
ATOM     41  C   UNL A   1      39.196  29.537  31.586  1.00  0.00     0.049 A 
ATOM     42  H   UNL A   1      41.150  29.621  30.828  1.00  0.00     0.167 HD
ATOM     43  C   UNL A   1      44.710  30.001  28.298  1.00  0.00     0.037 A 
ATOM     44  C   UNL A   1      39.062  30.714  32.242  1.00  0.00     0.037 A 
ATOM     45  C   UNL A   1      45.153  29.775  29.651  1.00  0.00     0.049 A 
ATOM     46  C   UNL A   1      40.427  31.205  32.532  1.00  0.00     0.074 A 
ATOM     47  C   UNL A   1      46.005  28.908  30.299  1.00  0.00     0.029 A 
ATOM     48  N   UNL A   1      44.309  30.299  30.593  1.00  0.00    -0.354 N 
ATOM     49  N   UNL A   1      41.251  30.598  33.341  1.00  0.00    -0.248 NA
ATOM     50  C   UNL A   1      41.028  32.202  31.654  1.00  0.00     0.031 C 
ATOM     51  C   UNL A   1      45.552  28.837  31.653  1.00  0.00     0.029 A 
ATOM     52  C   UNL A   1      44.469  29.696  31.811  1.00  0.00     0.049 A 
ATOM     53  H   UNL A   1      43.665  31.021  30.415  1.00  0.00     0.167 HD
ATOM     54  C   UNL A   1      42.491  30.815  32.780  1.00  0.00     0.074 A 
ATOM     55  C   UNL A   1      42.319  31.944  31.875  1.00  0.00     0.031 C 
ATOM     56  C   UNL A   1      43.455  29.852  32.829  1.00  0.00     0.037 A 
BRANCH  43  57
ATOM     57  C   UNL A   1      44.903  31.353  27.646  1.00  0.00     0.064 A 
ATOM     58  C   UNL A   1      46.116  31.631  26.980  1.00  0.00     0.173 A 
ATOM     59  C   UNL A   1      44.088  32.475  27.904  1.00  0.00     0.173 A 
ATOM     60  F   UNL A   1      46.990  30.647  26.717  1.00  0.00    -0.203 F 
ATOM     61  C   UNL A   1      46.494  32.934  26.639  1.00  0.00     0.198 A 
ATOM     62  C   UNL A   1      44.444  33.767  27.516  1.00  0.00     0.198 A 
ATOM     63  F   UNL A   1      42.975  32.391  28.643  1.00  0.00    -0.203 F 
ATOM     64  F   UNL A   1      47.701  33.160  26.103  1.00  0.00    -0.200 F 
ATOM     65  C   UNL A   1      45.657  34.000  26.906  1.00  0.00     0.200 A 
ATOM     66  F   UNL A   1      43.630  34.791  27.813  1.00  0.00    -0.200 F 
ATOM     67  F   UNL A   1      46.034  35.254  26.622  1.00  0.00    -0.200 F 
ENDBRANCH  43  57
BRANCH  44  68
ATOM     68  C   UNL A   1      37.872  31.589  32.372  1.00  0.00     0.064 A 
ATOM     69  C   UNL A   1      37.402  31.959  33.643  1.00  0.00     0.173 A 
ATOM     70  C   UNL A   1      37.400  32.343  31.283  1.00  0.00     0.173 A 
ATOM     71  F   UNL A   1      37.816  31.299  34.735  1.00  0.00    -0.203 F 
ATOM     72  C   UNL A   1      36.577  33.073  33.825  1.00  0.00     0.198 A 
ATOM     73  C   UNL A   1      36.571  33.453  31.465  1.00  0.00     0.198 A 
ATOM     74  F   UNL A   1      37.819  32.088  30.036  1.00  0.00    -0.203 F 
ATOM     75  F   UNL A   1      36.230  33.453  35.062  1.00  0.00    -0.200 F 
ATOM     76  C   UNL A   1      36.182  33.832  32.737  1.00  0.00     0.200 A 
ATOM     77  F   UNL A   1      36.218  34.198  30.408  1.00  0.00    -0.200 F 
ATOM     78  F   UNL A   1      35.470  34.953  32.917  1.00  0.00    -0.200 F 
ENDBRANCH  44  68
BRANCH  56  79
ATOM     79  C   UNL A   1      43.352  28.826  33.914  1.00  0.00     0.064 A 
ATOM     80  C   UNL A   1      42.777  27.554  33.764  1.00  0.00     0.173 A 
ATOM     81  C   UNL A   1      43.912  29.138  35.160  1.00  0.00     0.173 A 
ATOM     82  F   UNL A   1      42.285  27.153  32.586  1.00  0.00    -0.203 F 
ATOM     83  C   UNL A   1      42.731  26.653  34.828  1.00  0.00     0.198 A 
ATOM     84  C   UNL A   1      43.898  28.225  36.209  1.00  0.00     0.198 A 
ATOM     85  F   UNL A   1      44.505  30.328  35.349  1.00  0.00    -0.203 F 
ATOM     86  F   UNL A   1      42.156  25.452  34.669  1.00  0.00    -0.200 F 
ATOM     87  C   UNL A   1      43.297  26.989  36.048  1.00  0.00     0.200 A 
ATOM     88  F   UNL A   1      44.480  28.543  37.373  1.00  0.00    -0.200 F 
ATOM     89  F   UNL A   1      43.279  26.114  37.063  1.00  0.00    -0.200 F 
ENDBRANCH  56  79
ENDBRANCH  30  31
ENDBRANCH  22  25
ENDBRANCH  20  21
ENDBRANCH   1  20
TORSDOF 12
ENDMDL
MODEL 3
REMARK VINA RESULT:     -12.9      6.973     11.841
REMARK SMILES CSc1nc2nnc(C(=O)NCCCNC(=O)c3ccc(-c4c5nc(c(-c6c(F)c(F)c(F)c(F)c6F)c6ccc([nH]6)c(-c6c(F)c(F)c(F)c(F)c6F)c6nc(c(-c7c(F)c(F)c(F)c(F)c7F)c7ccc4[nH]7)C=C6)C=C5)cc3)c(O)n2n1
REMARK SMILES IDX 13 1 12 2 11 3 9 4 10 5 8 7 3 8 4 9 84 10 5 11 83 12 6 13
REMARK SMILES IDX 81 14 7 15 2 16 1 17 82 18 14 20 15 21 16 22 17 24 18 25
REMARK SMILES IDX 19 26 80 27 20 28 79 29 21 30 22 31 23 32 73 33 24 34 78 35
REMARK SMILES IDX 72 36 74 37 25 38 77 39 71 40 70 41 26 43 58 44 38 45 57 46
REMARK SMILES IDX 39 47 42 48 56 49 75 50 40 51 41 52 55 54 76 55 43 56 27 57
REMARK SMILES IDX 28 58 36 59 29 60 30 61 34 62 37 63 31 64 32 65 35 66 33 67
REMARK SMILES IDX 59 68 60 69 68 70 61 71 62 72 66 73 69 74 63 75 64 76 67 77
REMARK SMILES IDX 65 78 44 79 45 80 53 81 46 82 47 83 51 84 54 85 48 86 49 87
REMARK SMILES IDX 52 88 50 89
REMARK H PARENT 11 6 82 19 15 23 74 42 42 53
REMARK Flexibility Score: inf
ROOT
ATOM      1  C   UNL A   1      42.130  22.266  27.294  1.00  0.00     0.042 C 
ENDROOT
BRANCH   1   2
ATOM      2  C   UNL A   1      42.245  22.213  25.768  1.00  0.00     0.118 C 
BRANCH   2   3
ATOM      3  N   UNL A   1      43.198  21.206  25.320  1.00  0.00    -0.350 N 
ATOM      4  C   UNL A   1      44.551  21.193  25.184  1.00  0.00     0.277 C 
ATOM      5  O   UNL A   1      45.059  20.138  24.787  1.00  0.00    -0.267 OA
ATOM      6  H   UNL A   1      42.774  20.355  25.061  1.00  0.00     0.163 HD
BRANCH   4   7
ATOM      7  C   UNL A   1      45.433  22.370  25.503  1.00  0.00     0.212 A 
ATOM      8  C   UNL A   1      48.009  25.834  24.900  1.00  0.00     0.210 A 
ATOM      9  N   UNL A   1      47.861  25.469  26.207  1.00  0.00    -0.182 NA
ATOM     10  N   UNL A   1      47.364  25.076  24.017  1.00  0.00    -0.134 NA
ATOM     11  C   UNL A   1      47.054  24.428  26.135  1.00  0.00     0.275 A 
ATOM     12  N   UNL A   1      46.748  24.167  24.806  1.00  0.00    -0.159 N 
ATOM     13  N   UNL A   1      46.514  23.643  27.112  1.00  0.00    -0.108 NA
ATOM     14  C   UNL A   1      45.915  23.099  24.468  1.00  0.00     0.249 A 
ATOM     15  N   UNL A   1      45.741  22.689  26.814  1.00  0.00    -0.136 NA
BRANCH   8  16
ATOM     16  S   UNL A   1      48.925  27.211  24.358  1.00  0.00    -0.088 SA
ATOM     17  C   UNL A   1      48.899  26.979  22.574  1.00  0.00     0.094 C 
ENDBRANCH   8  16
BRANCH  14  18
ATOM     18  O   UNL A   1      45.652  22.870  23.125  1.00  0.00    -0.491 OA
ATOM     19  H   UNL A   1      44.865  22.432  22.870  1.00  0.00     0.295 HD
ENDBRANCH  14  18
ENDBRANCH   4   7
ENDBRANCH   2   3
ENDBRANCH   1   2
BRANCH   1  20
ATOM     20  C   UNL A   1      40.731  21.915  27.778  1.00  0.00     0.118 C 
BRANCH  20  21
ATOM     21  N   UNL A   1      39.685  22.181  26.784  1.00  0.00    -0.352 N 
ATOM     22  C   UNL A   1      39.026  23.370  26.539  1.00  0.00     0.251 C 
ATOM     23  H   UNL A   1      39.419  21.418  26.222  1.00  0.00     0.163 HD
ATOM     24  O   UNL A   1      37.975  23.392  25.896  1.00  0.00    -0.269 OA
BRANCH  22  25
ATOM     25  C   UNL A   1      39.601  24.619  27.057  1.00  0.00     0.039 A 
ATOM     26  C   UNL A   1      40.373  25.466  26.257  1.00  0.00     0.014 A 
ATOM     27  C   UNL A   1      39.311  24.956  28.376  1.00  0.00     0.014 A 
ATOM     28  C   UNL A   1      40.777  26.691  26.779  1.00  0.00     0.010 A 
ATOM     29  C   UNL A   1      39.541  26.229  28.818  1.00  0.00     0.010 A 
ATOM     30  C   UNL A   1      40.334  27.073  28.057  1.00  0.00    -0.014 A 
BRANCH  30  31
ATOM     31  C   UNL A   1      40.602  28.405  28.583  1.00  0.00     0.031 A 
ATOM     32  C   UNL A   1      41.810  29.043  28.001  1.00  0.00     0.074 A 
ATOM     33  C   UNL A   1      39.719  29.077  29.355  1.00  0.00     0.049 A 
ATOM     34  N   UNL A   1      42.920  29.299  28.603  1.00  0.00    -0.248 NA
ATOM     35  C   UNL A   1      41.852  29.294  26.550  1.00  0.00     0.031 C 
ATOM     36  C   UNL A   1      38.351  28.676  29.714  1.00  0.00     0.029 A 
ATOM     37  N   UNL A   1      39.816  30.319  29.911  1.00  0.00    -0.354 N 
ATOM     38  C   UNL A   1      43.713  29.963  27.671  1.00  0.00     0.074 A 
ATOM     39  C   UNL A   1      43.096  29.752  26.390  1.00  0.00     0.031 C 
ATOM     40  C   UNL A   1      37.675  29.738  30.202  1.00  0.00     0.029 A 
ATOM     41  C   UNL A   1      38.609  30.832  30.378  1.00  0.00     0.049 A 
ATOM     42  H   UNL A   1      40.667  30.811  29.974  1.00  0.00     0.167 HD
ATOM     43  C   UNL A   1      44.625  30.884  28.091  1.00  0.00     0.037 A 
ATOM     44  C   UNL A   1      38.399  32.071  30.882  1.00  0.00     0.037 A 
ATOM     45  C   UNL A   1      44.817  30.791  29.516  1.00  0.00     0.049 A 
ATOM     46  C   UNL A   1      39.707  32.571  31.360  1.00  0.00     0.074 A 
ATOM     47  C   UNL A   1      45.514  29.983  30.386  1.00  0.00     0.029 A 
ATOM     48  N   UNL A   1      43.838  31.419  30.237  1.00  0.00    -0.354 N 
ATOM     49  N   UNL A   1      40.356  32.038  32.357  1.00  0.00    -0.248 NA
ATOM     50  C   UNL A   1      40.483  33.465  30.508  1.00  0.00     0.031 C 
ATOM     51  C   UNL A   1      44.830  30.056  31.639  1.00  0.00     0.029 A 
ATOM     52  C   UNL A   1      43.763  30.941  31.518  1.00  0.00     0.049 A 
ATOM     53  H   UNL A   1      43.258  32.128  29.879  1.00  0.00     0.167 HD
ATOM     54  C   UNL A   1      41.682  32.180  32.007  1.00  0.00     0.074 A 
ATOM     55  C   UNL A   1      41.707  33.213  30.980  1.00  0.00     0.031 C 
ATOM     56  C   UNL A   1      42.592  31.214  32.319  1.00  0.00     0.037 A 
BRANCH  43  57
ATOM     57  C   UNL A   1      44.972  32.160  27.353  1.00  0.00     0.064 A 
ATOM     58  C   UNL A   1      46.250  32.295  26.773  1.00  0.00     0.173 A 
ATOM     59  C   UNL A   1      44.226  33.354  27.454  1.00  0.00     0.173 A 
ATOM     60  F   UNL A   1      47.065  31.235  26.662  1.00  0.00    -0.203 F 
ATOM     61  C   UNL A   1      46.753  33.536  26.365  1.00  0.00     0.198 A 
ATOM     62  C   UNL A   1      44.710  34.581  26.998  1.00  0.00     0.198 A 
ATOM     63  F   UNL A   1      43.056  33.410  28.100  1.00  0.00    -0.203 F 
ATOM     64  F   UNL A   1      48.012  33.632  25.917  1.00  0.00    -0.200 F 
ATOM     65  C   UNL A   1      45.981  34.677  26.477  1.00  0.00     0.200 A 
ATOM     66  F   UNL A   1      43.956  35.680  27.144  1.00  0.00    -0.200 F 
ATOM     67  F   UNL A   1      46.475  35.873  26.129  1.00  0.00    -0.200 F 
ENDBRANCH  43  57
BRANCH  44  68
ATOM     68  C   UNL A   1      37.233  32.970  30.712  1.00  0.00     0.064 A 
ATOM     69  C   UNL A   1      36.890  33.451  29.436  1.00  0.00     0.173 A 
ATOM     70  C   UNL A   1      36.251  33.088  31.712  1.00  0.00     0.173 A 
ATOM     71  F   UNL A   1      37.766  33.363  28.424  1.00  0.00    -0.203 F 
ATOM     72  C   UNL A   1      35.611  33.941  29.156  1.00  0.00     0.198 A 
ATOM     73  C   UNL A   1      34.975  33.583  31.432  1.00  0.00     0.198 A 
ATOM     74  F   UNL A   1      36.472  32.626  32.951  1.00  0.00    -0.203 F 
ATOM     75  F   UNL A   1      35.292  34.298  27.904  1.00  0.00    -0.200 F 
ATOM     76  C   UNL A   1      34.648  33.983  30.149  1.00  0.00     0.200 A 
ATOM     77  F   UNL A   1      34.041  33.593  32.394  1.00  0.00    -0.200 F 
ATOM     78  F   UNL A   1      33.395  34.363  29.861  1.00  0.00    -0.200 F 
ENDBRANCH  44  68
BRANCH  56  79
ATOM     79  C   UNL A   1      42.269  30.306  33.464  1.00  0.00     0.064 A 
ATOM     80  C   UNL A   1      41.749  29.008  33.337  1.00  0.00     0.173 A 
ATOM     81  C   UNL A   1      42.549  30.764  34.758  1.00  0.00     0.173 A 
ATOM     82  F   UNL A   1      41.521  28.470  32.133  1.00  0.00    -0.203 F 
ATOM     83  C   UNL A   1      41.485  28.223  34.459  1.00  0.00     0.198 A 
ATOM     84  C   UNL A   1      42.319  29.967  35.874  1.00  0.00     0.198 A 
ATOM     85  F   UNL A   1      43.079  31.985  34.937  1.00  0.00    -0.203 F 
ATOM     86  F   UNL A   1      40.966  26.995  34.315  1.00  0.00    -0.200 F 
ATOM     87  C   UNL A   1      41.775  28.702  35.726  1.00  0.00     0.200 A 
ATOM     88  F   UNL A   1      42.638  30.423  37.093  1.00  0.00    -0.200 F 
ATOM     89  F   UNL A   1      41.549  27.939  36.805  1.00  0.00    -0.200 F 
ENDBRANCH  56  79
ENDBRANCH  30  31
ENDBRANCH  22  25
ENDBRANCH  20  21
ENDBRANCH   1  20
TORSDOF 12
ENDMDL
