MODEL 1
REMARK VINA RESULT:     -10.9      0.000      0.000
REMARK SMILES C[C@@H]1[C@@H](C)CC[C@H]1[NH2+][C@@H](C)[C@@H](C)C(=O)NCCCNC(=O)c1ccc(-c2c3nc(c(-c4c(F)c(F)c(F)c(F)c4F)c4ccc([nH]4)c(-c4c(F)c(F)c(F)c(F)c4F)c4nc(c(-c5c(F)c(F)c(F)c(F)c5F)c5ccc2[nH]5)C=C4)C=C3)cc1
REMARK SMILES IDX 16 1 15 2 13 3 14 4 11 6 12 7 9 8 10 9 8 10 7 13 1 14 2 15
REMARK SMILES IDX 3 16 5 17 4 18 6 19 17 20 18 21 19 22 20 23 21 25 22 26
REMARK SMILES IDX 23 27 84 28 24 29 83 30 25 31 26 32 27 33 77 34 28 35 82 36
REMARK SMILES IDX 76 37 78 38 29 39 81 40 75 41 74 42 30 44 62 45 42 46 61 47
REMARK SMILES IDX 43 48 46 49 60 50 79 51 44 52 45 53 59 55 80 56 47 57 31 58
REMARK SMILES IDX 32 59 40 60 33 61 34 62 38 63 41 64 35 65 36 66 39 67 37 68
REMARK SMILES IDX 63 69 64 70 72 71 65 72 66 73 70 74 73 75 67 76 68 77 71 78
REMARK SMILES IDX 69 79 48 80 49 81 57 82 50 83 51 84 55 85 58 86 52 87 53 88
REMARK SMILES IDX 56 89 54 90
REMARK H PARENT 15 5 8 11 8 12 19 24 78 43 46 54
REMARK Flexibility Score: inf
ROOT
ATOM      1  C   UNL A   1      42.345  21.322  25.746  1.00  0.00     0.117 C 
ENDROOT
BRANCH   1   2
ATOM      2  N   UNL A   1      42.727  19.922  25.694  1.00  0.00    -0.356 N 
ATOM      3  C   UNL A   1      43.749  19.286  25.063  1.00  0.00     0.228 C 
ATOM      4  O   UNL A   1      43.845  18.069  25.246  1.00  0.00    -0.275 OA
ATOM      5  H   UNL A   1      42.138  19.324  26.209  1.00  0.00     0.163 HD
BRANCH   3   6
ATOM      6  C   UNL A   1      44.739  20.007  24.146  1.00  0.00     0.133 C 
ATOM      7  C   UNL A   1      44.954  19.203  22.862  1.00  0.00     0.024 C 
BRANCH   6   8
ATOM      8  C   UNL A   1      46.014  20.460  24.914  1.00  0.00     0.191 C 
ATOM      9  C   UNL A   1      46.781  19.205  25.372  1.00  0.00     0.076 C 
BRANCH   8  10
ATOM     10  N   UNL A   1      45.662  21.332  26.049  1.00  0.00    -0.341 N 
ATOM     11  H   UNL A   1      44.769  21.009  26.421  1.00  0.00     0.346 HD
ATOM     12  H   UNL A   1      46.445  21.258  26.698  1.00  0.00     0.346 HD
BRANCH  10  13
ATOM     13  C   UNL A   1      45.533  22.763  25.757  1.00  0.00     0.185 C 
ATOM     14  C   UNL A   1      45.042  23.677  28.101  1.00  0.00     0.014 C 
ATOM     15  C   UNL A   1      46.042  23.601  26.950  1.00  0.00     0.047 C 
ATOM     16  C   UNL A   1      46.344  24.996  26.362  1.00  0.00    -0.005 C 
ATOM     17  C   UNL A   1      46.496  24.793  24.852  1.00  0.00     0.010 C 
ATOM     18  C   UNL A   1      47.593  25.621  26.980  1.00  0.00     0.008 C 
ATOM     19  C   UNL A   1      46.402  23.291  24.617  1.00  0.00     0.065 C 
ENDBRANCH  10  13
ENDBRANCH   8  10
ENDBRANCH   6   8
ENDBRANCH   3   6
ENDBRANCH   1   2
BRANCH   1  20
ATOM     20  C   UNL A   1      42.096  21.818  27.166  1.00  0.00     0.042 C 
BRANCH  20  21
ATOM     21  C   UNL A   1      40.728  21.459  27.729  1.00  0.00     0.118 C 
BRANCH  21  22
ATOM     22  N   UNL A   1      39.656  21.637  26.761  1.00  0.00    -0.352 N 
ATOM     23  C   UNL A   1      38.926  22.748  26.430  1.00  0.00     0.251 C 
ATOM     24  H   UNL A   1      39.415  20.824  26.260  1.00  0.00     0.163 HD
ATOM     25  O   UNL A   1      37.923  22.624  25.723  1.00  0.00    -0.269 OA
BRANCH  23  26
ATOM     26  C   UNL A   1      39.308  24.090  26.920  1.00  0.00     0.039 A 
ATOM     27  C   UNL A   1      38.903  24.479  28.200  1.00  0.00     0.014 A 
ATOM     28  C   UNL A   1      40.023  24.982  26.118  1.00  0.00     0.014 A 
ATOM     29  C   UNL A   1      39.270  25.732  28.696  1.00  0.00     0.010 A 
ATOM     30  C   UNL A   1      40.466  26.192  26.646  1.00  0.00     0.010 A 
ATOM     31  C   UNL A   1      40.088  26.585  27.938  1.00  0.00    -0.014 A 
BRANCH  31  32
ATOM     32  C   UNL A   1      40.550  27.890  28.478  1.00  0.00     0.031 A 
ATOM     33  C   UNL A   1      42.002  28.105  28.804  1.00  0.00     0.074 A 
ATOM     34  C   UNL A   1      39.652  28.862  28.726  1.00  0.00     0.049 A 
ATOM     35  N   UNL A   1      42.587  29.151  29.334  1.00  0.00    -0.248 NA
ATOM     36  C   UNL A   1      42.918  26.986  28.527  1.00  0.00     0.031 C 
ATOM     37  C   UNL A   1      38.209  28.757  28.500  1.00  0.00     0.029 A 
ATOM     38  N   UNL A   1      39.817  30.127  29.234  1.00  0.00    -0.354 N 
ATOM     39  C   UNL A   1      43.927  28.811  29.464  1.00  0.00     0.074 A 
ATOM     40  C   UNL A   1      44.062  27.444  29.014  1.00  0.00     0.031 C 
ATOM     41  C   UNL A   1      37.625  29.917  28.839  1.00  0.00     0.029 A 
ATOM     42  C   UNL A   1      38.643  30.831  29.346  1.00  0.00     0.049 A 
ATOM     43  H   UNL A   1      40.692  30.494  29.492  1.00  0.00     0.167 HD
ATOM     44  C   UNL A   1      44.957  29.579  29.894  1.00  0.00     0.037 A 
ATOM     45  C   UNL A   1      38.413  32.074  29.814  1.00  0.00     0.037 A 
ATOM     46  C   UNL A   1      44.822  30.949  30.318  1.00  0.00     0.049 A 
ATOM     47  C   UNL A   1      39.573  32.902  30.294  1.00  0.00     0.074 A 
ATOM     48  C   UNL A   1      45.813  31.831  30.712  1.00  0.00     0.029 A 
ATOM     49  N   UNL A   1      43.618  31.632  30.407  1.00  0.00    -0.354 N 
ATOM     50  N   UNL A   1      40.846  32.596  30.342  1.00  0.00    -0.248 NA
ATOM     51  C   UNL A   1      39.264  34.254  30.781  1.00  0.00     0.031 C 
ATOM     52  C   UNL A   1      45.203  33.032  31.090  1.00  0.00     0.029 A 
ATOM     53  C   UNL A   1      43.839  32.918  30.875  1.00  0.00     0.049 A 
ATOM     54  H   UNL A   1      42.738  31.260  30.172  1.00  0.00     0.167 HD
ATOM     55  C   UNL A   1      41.492  33.721  30.834  1.00  0.00     0.074 A 
ATOM     56  C   UNL A   1      40.471  34.725  31.053  1.00  0.00     0.031 C 
ATOM     57  C   UNL A   1      42.812  33.908  31.084  1.00  0.00     0.037 A 
BRANCH  44  58
ATOM     58  C   UNL A   1      46.324  28.957  29.926  1.00  0.00     0.064 A 
ATOM     59  C   UNL A   1      47.207  29.065  28.840  1.00  0.00     0.173 A 
ATOM     60  C   UNL A   1      46.772  28.276  31.067  1.00  0.00     0.173 A 
ATOM     61  F   UNL A   1      46.827  29.697  27.719  1.00  0.00    -0.203 F 
ATOM     62  C   UNL A   1      48.474  28.488  28.886  1.00  0.00     0.198 A 
ATOM     63  C   UNL A   1      48.051  27.730  31.122  1.00  0.00     0.198 A 
ATOM     64  F   UNL A   1      45.971  28.149  32.136  1.00  0.00    -0.203 F 
ATOM     65  F   UNL A   1      49.280  28.560  27.816  1.00  0.00    -0.200 F 
ATOM     66  C   UNL A   1      48.898  27.828  30.028  1.00  0.00     0.200 A 
ATOM     67  F   UNL A   1      48.464  27.105  32.234  1.00  0.00    -0.200 F 
ATOM     68  F   UNL A   1      50.121  27.281  30.074  1.00  0.00    -0.200 F 
ENDBRANCH  44  58
BRANCH  45  69
ATOM     69  C   UNL A   1      37.029  32.618  29.828  1.00  0.00     0.064 A 
ATOM     70  C   UNL A   1      36.515  33.305  28.719  1.00  0.00     0.173 A 
ATOM     71  C   UNL A   1      36.197  32.471  30.947  1.00  0.00     0.173 A 
ATOM     72  F   UNL A   1      37.279  33.489  27.632  1.00  0.00    -0.203 F 
ATOM     73  C   UNL A   1      35.230  33.845  28.739  1.00  0.00     0.198 A 
ATOM     74  C   UNL A   1      34.902  32.984  30.953  1.00  0.00     0.198 A 
ATOM     75  F   UNL A   1      36.637  31.816  32.032  1.00  0.00    -0.203 F 
ATOM     76  F   UNL A   1      34.782  34.540  27.685  1.00  0.00    -0.200 F 
ATOM     77  C   UNL A   1      34.423  33.679  29.853  1.00  0.00     0.200 A 
ATOM     78  F   UNL A   1      34.118  32.807  32.027  1.00  0.00    -0.200 F 
ATOM     79  F   UNL A   1      33.186  34.194  29.870  1.00  0.00    -0.200 F 
ENDBRANCH  45  69
BRANCH  57  80
ATOM     80  C   UNL A   1      43.233  35.258  31.591  1.00  0.00     0.064 A 
ATOM     81  C   UNL A   1      43.645  36.278  30.721  1.00  0.00     0.173 A 
ATOM     82  C   UNL A   1      43.187  35.544  32.964  1.00  0.00     0.173 A 
ATOM     83  F   UNL A   1      43.721  36.049  29.401  1.00  0.00    -0.203 F 
ATOM     84  C   UNL A   1      44.025  37.524  31.209  1.00  0.00     0.198 A 
ATOM     85  C   UNL A   1      43.535  36.803  33.446  1.00  0.00     0.198 A 
ATOM     86  F   UNL A   1      42.794  34.606  33.839  1.00  0.00    -0.203 F 
ATOM     87  F   UNL A   1      44.465  38.466  30.364  1.00  0.00    -0.200 F 
ATOM     88  C   UNL A   1      43.962  37.789  32.569  1.00  0.00     0.200 A 
ATOM     89  F   UNL A   1      43.459  37.061  34.759  1.00  0.00    -0.200 F 
ATOM     90  F   UNL A   1      44.320  38.993  33.037  1.00  0.00    -0.200 F 
ENDBRANCH  57  80
ENDBRANCH  31  32
ENDBRANCH  23  26
ENDBRANCH  21  22
ENDBRANCH  20  21
ENDBRANCH   1  20
TORSDOF 13
ENDMDL
MODEL 2
REMARK VINA RESULT:     -10.9      3.734     10.276
REMARK SMILES C[C@@H]1[C@@H](C)CC[C@H]1[NH2+][C@@H](C)[C@@H](C)C(=O)NCCCNC(=O)c1ccc(-c2c3nc(c(-c4c(F)c(F)c(F)c(F)c4F)c4ccc([nH]4)c(-c4c(F)c(F)c(F)c(F)c4F)c4nc(c(-c5c(F)c(F)c(F)c(F)c5F)c5ccc2[nH]5)C=C4)C=C3)cc1
REMARK SMILES IDX 16 1 15 2 13 3 14 4 11 6 12 7 9 8 10 9 8 10 7 13 1 14 2 15
REMARK SMILES IDX 3 16 5 17 4 18 6 19 17 20 18 21 19 22 20 23 21 25 22 26
REMARK SMILES IDX 23 27 84 28 24 29 83 30 25 31 26 32 27 33 77 34 28 35 82 36
REMARK SMILES IDX 76 37 78 38 29 39 81 40 75 41 74 42 30 44 62 45 42 46 61 47
REMARK SMILES IDX 43 48 46 49 60 50 79 51 44 52 45 53 59 55 80 56 47 57 31 58
REMARK SMILES IDX 32 59 40 60 33 61 34 62 38 63 41 64 35 65 36 66 39 67 37 68
REMARK SMILES IDX 63 69 64 70 72 71 65 72 66 73 70 74 73 75 67 76 68 77 71 78
REMARK SMILES IDX 69 79 48 80 49 81 57 82 50 83 51 84 55 85 58 86 52 87 53 88
REMARK SMILES IDX 56 89 54 90
REMARK H PARENT 15 5 8 11 8 12 19 24 78 43 46 54
REMARK Flexibility Score: inf
ROOT
ATOM      1  C   UNL A   1      36.790  20.651  24.958  1.00  0.00     0.117 C 
ENDROOT
BRANCH   1   2
ATOM      2  N   UNL A   1      35.514  19.958  25.002  1.00  0.00    -0.356 N 
ATOM      3  C   UNL A   1      34.262  20.387  25.311  1.00  0.00     0.228 C 
ATOM      4  O   UNL A   1      33.350  19.560  25.214  1.00  0.00    -0.275 OA
ATOM      5  H   UNL A   1      35.566  19.004  24.765  1.00  0.00     0.163 HD
BRANCH   3   6
ATOM      6  C   UNL A   1      33.962  21.812  25.782  1.00  0.00     0.133 C 
ATOM      7  C   UNL A   1      33.974  21.878  27.311  1.00  0.00     0.024 C 
BRANCH   6   8
ATOM      8  C   UNL A   1      32.719  22.409  25.062  1.00  0.00     0.191 C 
ATOM      9  C   UNL A   1      33.162  22.951  23.690  1.00  0.00     0.076 C 
BRANCH   8  10
ATOM     10  N   UNL A   1      32.087  23.453  25.886  1.00  0.00    -0.341 N 
ATOM     11  H   UNL A   1      31.080  23.289  25.875  1.00  0.00     0.346 HD
ATOM     12  H   UNL A   1      32.521  23.371  26.805  1.00  0.00     0.346 HD
BRANCH  10  13
ATOM     13  C   UNL A   1      32.316  24.841  25.471  1.00  0.00     0.185 C 
ATOM     14  C   UNL A   1      29.913  25.732  25.462  1.00  0.00     0.014 C 
ATOM     15  C   UNL A   1      31.282  25.777  26.135  1.00  0.00     0.047 C 
ATOM     16  C   UNL A   1      31.910  27.186  26.061  1.00  0.00    -0.005 C 
ATOM     17  C   UNL A   1      33.410  26.968  25.851  1.00  0.00     0.010 C 
ATOM     18  C   UNL A   1      31.624  28.008  27.316  1.00  0.00     0.008 C 
ATOM     19  C   UNL A   1      33.634  25.464  25.930  1.00  0.00     0.065 C 
ENDBRANCH  10  13
ENDBRANCH   8  10
ENDBRANCH   6   8
ENDBRANCH   3   6
ENDBRANCH   1   2
BRANCH   1  20
ATOM     20  C   UNL A   1      37.983  19.704  25.003  1.00  0.00     0.042 C 
BRANCH  20  21
ATOM     21  C   UNL A   1      39.048  20.077  26.025  1.00  0.00     0.118 C 
BRANCH  21  22
ATOM     22  N   UNL A   1      40.155  19.132  26.056  1.00  0.00    -0.352 N 
ATOM     23  C   UNL A   1      41.507  19.342  26.127  1.00  0.00     0.251 C 
ATOM     24  H   UNL A   1      39.888  18.185  26.020  1.00  0.00     0.163 HD
ATOM     25  O   UNL A   1      42.276  18.397  25.934  1.00  0.00    -0.269 OA
BRANCH  23  26
ATOM     26  C   UNL A   1      42.061  20.682  26.414  1.00  0.00     0.039 A 
ATOM     27  C   UNL A   1      42.293  21.556  25.347  1.00  0.00     0.014 A 
ATOM     28  C   UNL A   1      42.392  21.072  27.713  1.00  0.00     0.014 A 
ATOM     29  C   UNL A   1      42.794  22.836  25.592  1.00  0.00     0.010 A 
ATOM     30  C   UNL A   1      42.804  22.378  27.966  1.00  0.00     0.010 A 
ATOM     31  C   UNL A   1      43.018  23.272  26.908  1.00  0.00    -0.014 A 
BRANCH  31  32
ATOM     32  C   UNL A   1      43.480  24.656  27.193  1.00  0.00     0.031 A 
ATOM     33  C   UNL A   1      42.522  25.678  27.740  1.00  0.00     0.074 A 
ATOM     34  C   UNL A   1      44.748  25.005  26.905  1.00  0.00     0.049 A 
ATOM     35  N   UNL A   1      42.724  26.947  28.000  1.00  0.00    -0.248 NA
ATOM     36  C   UNL A   1      41.147  25.225  28.005  1.00  0.00     0.031 C 
ATOM     37  C   UNL A   1      45.758  24.118  26.325  1.00  0.00     0.029 A 
ATOM     38  N   UNL A   1      45.404  26.202  27.053  1.00  0.00    -0.354 N 
ATOM     39  C   UNL A   1      41.503  27.441  28.441  1.00  0.00     0.074 A 
ATOM     40  C   UNL A   1      40.553  26.355  28.361  1.00  0.00     0.031 C 
ATOM     41  C   UNL A   1      46.911  24.792  26.192  1.00  0.00     0.029 A 
ATOM     42  C   UNL A   1      46.713  26.167  26.637  1.00  0.00     0.049 A 
ATOM     43  H   UNL A   1      44.977  27.009  27.421  1.00  0.00     0.167 HD
ATOM     44  C   UNL A   1      41.208  28.681  28.899  1.00  0.00     0.037 A 
ATOM     45  C   UNL A   1      47.646  27.139  26.610  1.00  0.00     0.037 A 
ATOM     46  C   UNL A   1      42.164  29.754  29.002  1.00  0.00     0.049 A 
ATOM     47  C   UNL A   1      47.289  28.511  27.116  1.00  0.00     0.074 A 
ATOM     48  C   UNL A   1      41.981  31.028  29.510  1.00  0.00     0.029 A 
ATOM     49  N   UNL A   1      43.484  29.677  28.581  1.00  0.00    -0.354 N 
ATOM     50  N   UNL A   1      46.153  28.945  27.602  1.00  0.00    -0.248 NA
ATOM     51  C   UNL A   1      48.351  29.526  27.075  1.00  0.00     0.031 C 
ATOM     52  C   UNL A   1      43.174  31.739  29.348  1.00  0.00     0.029 A 
ATOM     53  C   UNL A   1      44.119  30.891  28.795  1.00  0.00     0.049 A 
ATOM     54  H   UNL A   1      43.907  28.880  28.190  1.00  0.00     0.167 HD
ATOM     55  C   UNL A   1      46.368  30.271  27.950  1.00  0.00     0.074 A 
ATOM     56  C   UNL A   1      47.751  30.565  27.637  1.00  0.00     0.031 C 
ATOM     57  C   UNL A   1      45.499  31.167  28.482  1.00  0.00     0.037 A 
BRANCH  44  58
ATOM     58  C   UNL A   1      39.794  28.948  29.329  1.00  0.00     0.064 A 
ATOM     59  C   UNL A   1      39.372  28.732  30.650  1.00  0.00     0.173 A 
ATOM     60  C   UNL A   1      38.856  29.460  28.419  1.00  0.00     0.173 A 
ATOM     61  F   UNL A   1      40.225  28.234  31.559  1.00  0.00    -0.203 F 
ATOM     62  C   UNL A   1      38.059  28.989  31.036  1.00  0.00     0.198 A 
ATOM     63  C   UNL A   1      37.554  29.748  28.817  1.00  0.00     0.198 A 
ATOM     64  F   UNL A   1      39.207  29.691  27.145  1.00  0.00    -0.203 F 
ATOM     65  F   UNL A   1      37.667  28.725  32.291  1.00  0.00    -0.200 F 
ATOM     66  C   UNL A   1      37.153  29.503  30.122  1.00  0.00     0.200 A 
ATOM     67  F   UNL A   1      36.683  30.259  27.935  1.00  0.00    -0.200 F 
ATOM     68  F   UNL A   1      35.891  29.759  30.496  1.00  0.00    -0.200 F 
ENDBRANCH  44  58
BRANCH  45  69
ATOM     69  C   UNL A   1      49.013  26.842  26.108  1.00  0.00     0.064 A 
ATOM     70  C   UNL A   1      50.015  26.385  26.976  1.00  0.00     0.173 A 
ATOM     71  C   UNL A   1      49.350  27.015  24.758  1.00  0.00     0.173 A 
ATOM     72  F   UNL A   1      49.748  26.223  28.280  1.00  0.00    -0.203 F 
ATOM     73  C   UNL A   1      51.308  26.136  26.517  1.00  0.00     0.198 A 
ATOM     74  C   UNL A   1      50.634  26.735  24.294  1.00  0.00     0.198 A 
ATOM     75  F   UNL A   1      48.427  27.444  23.884  1.00  0.00    -0.203 F 
ATOM     76  F   UNL A   1      52.258  25.749  27.378  1.00  0.00    -0.200 F 
ATOM     77  C   UNL A   1      51.614  26.306  25.176  1.00  0.00     0.200 A 
ATOM     78  F   UNL A   1      50.921  26.885  22.994  1.00  0.00    -0.200 F 
ATOM     79  F   UNL A   1      52.855  26.062  24.734  1.00  0.00    -0.200 F 
ENDBRANCH  45  69
BRANCH  57  80
ATOM     80  C   UNL A   1      46.026  32.539  28.788  1.00  0.00     0.064 A 
ATOM     81  C   UNL A   1      46.634  32.840  30.015  1.00  0.00     0.173 A 
ATOM     82  C   UNL A   1      45.952  33.557  27.824  1.00  0.00     0.173 A 
ATOM     83  F   UNL A   1      46.715  31.905  30.974  1.00  0.00    -0.203 F 
ATOM     84  C   UNL A   1      47.123  34.116  30.278  1.00  0.00     0.198 A 
ATOM     85  C   UNL A   1      46.473  34.824  28.079  1.00  0.00     0.198 A 
ATOM     86  F   UNL A   1      45.386  33.322  26.631  1.00  0.00    -0.203 F 
ATOM     87  F   UNL A   1      47.653  34.394  31.477  1.00  0.00    -0.200 F 
ATOM     88  C   UNL A   1      47.050  35.104  29.308  1.00  0.00     0.200 A 
ATOM     89  F   UNL A   1      46.414  35.772  27.133  1.00  0.00    -0.200 F 
ATOM     90  F   UNL A   1      47.528  36.330  29.560  1.00  0.00    -0.200 F 
ENDBRANCH  57  80
ENDBRANCH  31  32
ENDBRANCH  23  26
ENDBRANCH  21  22
ENDBRANCH  20  21
ENDBRANCH   1  20
TORSDOF 13
ENDMDL
MODEL 3
REMARK VINA RESULT:     -10.8      3.456      6.770
REMARK SMILES C[C@@H]1[C@@H](C)CC[C@H]1[NH2+][C@@H](C)[C@@H](C)C(=O)NCCCNC(=O)c1ccc(-c2c3nc(c(-c4c(F)c(F)c(F)c(F)c4F)c4ccc([nH]4)c(-c4c(F)c(F)c(F)c(F)c4F)c4nc(c(-c5c(F)c(F)c(F)c(F)c5F)c5ccc2[nH]5)C=C4)C=C3)cc1
REMARK SMILES IDX 16 1 15 2 13 3 14 4 11 6 12 7 9 8 10 9 8 10 7 13 1 14 2 15
REMARK SMILES IDX 3 16 5 17 4 18 6 19 17 20 18 21 19 22 20 23 21 25 22 26
REMARK SMILES IDX 23 27 84 28 24 29 83 30 25 31 26 32 27 33 77 34 28 35 82 36
REMARK SMILES IDX 76 37 78 38 29 39 81 40 75 41 74 42 30 44 62 45 42 46 61 47
REMARK SMILES IDX 43 48 46 49 60 50 79 51 44 52 45 53 59 55 80 56 47 57 31 58
REMARK SMILES IDX 32 59 40 60 33 61 34 62 38 63 41 64 35 65 36 66 39 67 37 68
REMARK SMILES IDX 63 69 64 70 72 71 65 72 66 73 70 74 73 75 67 76 68 77 71 78
REMARK SMILES IDX 69 79 48 80 49 81 57 82 50 83 51 84 55 85 58 86 52 87 53 88
REMARK SMILES IDX 56 89 54 90
REMARK H PARENT 15 5 8 11 8 12 19 24 78 43 46 54
REMARK Flexibility Score: inf
ROOT
ATOM      1  C   UNL A   1      36.542  19.879  25.016  1.00  0.00     0.117 C 
ENDROOT
BRANCH   1   2
ATOM      2  N   UNL A   1      36.368  21.086  25.805  1.00  0.00    -0.356 N 
ATOM      3  C   UNL A   1      35.860  22.306  25.489  1.00  0.00     0.228 C 
ATOM      4  O   UNL A   1      35.798  23.136  26.402  1.00  0.00    -0.275 OA
ATOM      5  H   UNL A   1      36.674  21.005  26.737  1.00  0.00     0.163 HD
BRANCH   3   6
ATOM      6  C   UNL A   1      35.397  22.677  24.079  1.00  0.00     0.133 C 
ATOM      7  C   UNL A   1      36.602  23.006  23.195  1.00  0.00     0.024 C 
BRANCH   6   8
ATOM      8  C   UNL A   1      34.240  23.717  24.105  1.00  0.00     0.191 C 
ATOM      9  C   UNL A   1      33.574  23.743  22.717  1.00  0.00     0.076 C 
BRANCH   8  10
ATOM     10  N   UNL A   1      34.738  25.047  24.499  1.00  0.00    -0.341 N 
ATOM     11  H   UNL A   1      35.602  24.910  25.023  1.00  0.00     0.346 HD
ATOM     12  H   UNL A   1      34.846  25.563  23.627  1.00  0.00     0.346 HD
BRANCH  10  13
ATOM     13  C   UNL A   1      33.840  25.862  25.325  1.00  0.00     0.185 C 
ATOM     14  C   UNL A   1      33.860  28.061  24.008  1.00  0.00     0.014 C 
ATOM     15  C   UNL A   1      33.043  26.845  24.439  1.00  0.00     0.047 C 
ATOM     16  C   UNL A   1      31.819  27.250  25.288  1.00  0.00    -0.005 C 
ATOM     17  C   UNL A   1      31.669  26.163  26.355  1.00  0.00     0.010 C 
ATOM     18  C   UNL A   1      30.557  27.395  24.442  1.00  0.00     0.008 C 
ATOM     19  C   UNL A   1      32.716  25.106  26.032  1.00  0.00     0.065 C 
ENDBRANCH  10  13
ENDBRANCH   8  10
ENDBRANCH   6   8
ENDBRANCH   3   6
ENDBRANCH   1   2
BRANCH   1  20
ATOM     20  C   UNL A   1      38.004  19.579  24.704  1.00  0.00     0.042 C 
BRANCH  20  21
ATOM     21  C   UNL A   1      38.986  20.046  25.768  1.00  0.00     0.118 C 
BRANCH  21  22
ATOM     22  N   UNL A   1      40.109  19.135  25.937  1.00  0.00    -0.352 N 
ATOM     23  C   UNL A   1      41.440  19.387  26.144  1.00  0.00     0.251 C 
ATOM     24  H   UNL A   1      39.874  18.180  25.895  1.00  0.00     0.163 HD
ATOM     25  O   UNL A   1      42.250  18.462  26.055  1.00  0.00    -0.269 OA
BRANCH  23  26
ATOM     26  C   UNL A   1      41.923  20.749  26.456  1.00  0.00     0.039 A 
ATOM     27  C   UNL A   1      42.128  21.647  25.404  1.00  0.00     0.014 A 
ATOM     28  C   UNL A   1      42.217  21.137  27.765  1.00  0.00     0.014 A 
ATOM     29  C   UNL A   1      42.562  22.947  25.673  1.00  0.00     0.010 A 
ATOM     30  C   UNL A   1      42.560  22.458  28.040  1.00  0.00     0.010 A 
ATOM     31  C   UNL A   1      42.745  23.376  26.997  1.00  0.00    -0.014 A 
BRANCH  31  32
ATOM     32  C   UNL A   1      43.134  24.776  27.306  1.00  0.00     0.031 A 
ATOM     33  C   UNL A   1      44.544  25.243  27.068  1.00  0.00     0.074 A 
ATOM     34  C   UNL A   1      42.231  25.611  27.855  1.00  0.00     0.049 A 
ATOM     35  N   UNL A   1      45.087  26.407  27.326  1.00  0.00    -0.248 NA
ATOM     36  C   UNL A   1      45.478  24.264  26.488  1.00  0.00     0.031 C 
ATOM     37  C   UNL A   1      40.848  25.263  28.181  1.00  0.00     0.029 A 
ATOM     38  N   UNL A   1      42.344  26.923  28.245  1.00  0.00    -0.354 N 
ATOM     39  C   UNL A   1      46.420  26.294  26.956  1.00  0.00     0.074 A 
ATOM     40  C   UNL A   1      46.621  24.933  26.510  1.00  0.00     0.031 C 
ATOM     41  C   UNL A   1      40.232  26.339  28.695  1.00  0.00     0.029 A 
ATOM     42  C   UNL A   1      41.186  27.440  28.774  1.00  0.00     0.049 A 
ATOM     43  H   UNL A   1      43.174  27.442  28.155  1.00  0.00     0.167 HD
ATOM     44  C   UNL A   1      47.384  27.246  26.961  1.00  0.00     0.037 A 
ATOM     45  C   UNL A   1      40.927  28.664  29.274  1.00  0.00     0.037 A 
ATOM     46  C   UNL A   1      47.174  28.607  27.383  1.00  0.00     0.049 A 
ATOM     47  C   UNL A   1      42.018  29.701  29.277  1.00  0.00     0.074 A 
ATOM     48  C   UNL A   1      48.068  29.663  27.368  1.00  0.00     0.029 A 
ATOM     49  N   UNL A   1      45.984  29.097  27.902  1.00  0.00    -0.354 N 
ATOM     50  N   UNL A   1      43.254  29.604  28.854  1.00  0.00    -0.248 NA
ATOM     51  C   UNL A   1      41.673  31.021  29.822  1.00  0.00     0.031 C 
ATOM     52  C   UNL A   1      47.436  30.779  27.927  1.00  0.00     0.029 A 
ATOM     53  C   UNL A   1      46.130  30.435  28.235  1.00  0.00     0.049 A 
ATOM     54  H   UNL A   1      45.159  28.573  28.015  1.00  0.00     0.167 HD
ATOM     55  C   UNL A   1      43.826  30.852  29.054  1.00  0.00     0.074 A 
ATOM     56  C   UNL A   1      42.794  31.696  29.620  1.00  0.00     0.031 C 
ATOM     57  C   UNL A   1      45.092  31.264  28.793  1.00  0.00     0.037 A 
BRANCH  44  58
ATOM     58  C   UNL A   1      48.756  26.851  26.494  1.00  0.00     0.064 A 
ATOM     59  C   UNL A   1      49.146  26.994  25.153  1.00  0.00     0.173 A 
ATOM     60  C   UNL A   1      49.705  26.359  27.401  1.00  0.00     0.173 A 
ATOM     61  F   UNL A   1      48.275  27.451  24.240  1.00  0.00    -0.203 F 
ATOM     62  C   UNL A   1      50.424  26.630  24.734  1.00  0.00     0.198 A 
ATOM     63  C   UNL A   1      50.992  26.028  26.986  1.00  0.00     0.198 A 
ATOM     64  F   UNL A   1      49.388  26.209  28.696  1.00  0.00    -0.203 F 
ATOM     65  F   UNL A   1      50.755  26.727  23.439  1.00  0.00    -0.200 F 
ATOM     66  C   UNL A   1      51.348  26.155  25.651  1.00  0.00     0.200 A 
ATOM     67  F   UNL A   1      51.889  25.582  27.877  1.00  0.00    -0.200 F 
ATOM     68  F   UNL A   1      52.580  25.813  25.249  1.00  0.00    -0.200 F 
ENDBRANCH  44  58
BRANCH  45  69
ATOM     69  C   UNL A   1      39.570  28.983  29.791  1.00  0.00     0.064 A 
ATOM     70  C   UNL A   1      38.595  29.546  28.956  1.00  0.00     0.173 A 
ATOM     71  C   UNL A   1      39.222  28.740  31.128  1.00  0.00     0.173 A 
ATOM     72  F   UNL A   1      38.886  29.815  27.675  1.00  0.00    -0.203 F 
ATOM     73  C   UNL A   1      37.332  29.876  29.444  1.00  0.00     0.198 A 
ATOM     74  C   UNL A   1      37.948  29.042  31.606  1.00  0.00     0.198 A 
ATOM     75  F   UNL A   1      40.115  28.197  31.968  1.00  0.00    -0.203 F 
ATOM     76  F   UNL A   1      36.436  30.459  28.636  1.00  0.00    -0.200 F 
ATOM     77  C   UNL A   1      37.008  29.619  30.766  1.00  0.00     0.200 A 
ATOM     78  F   UNL A   1      37.634  28.776  32.882  1.00  0.00    -0.200 F 
ATOM     79  F   UNL A   1      35.792  29.932  31.234  1.00  0.00    -0.200 F 
ENDBRANCH  45  69
BRANCH  57  80
ATOM     80  C   UNL A   1      45.423  32.699  29.087  1.00  0.00     0.064 A 
ATOM     81  C   UNL A   1      45.991  33.090  30.308  1.00  0.00     0.173 A 
ATOM     82  C   UNL A   1      45.202  33.689  28.117  1.00  0.00     0.173 A 
ATOM     83  F   UNL A   1      46.207  32.184  31.273  1.00  0.00    -0.203 F 
ATOM     84  C   UNL A   1      46.298  34.425  30.559  1.00  0.00     0.198 A 
ATOM     85  C   UNL A   1      45.543  35.018  28.359  1.00  0.00     0.198 A 
ATOM     86  F   UNL A   1      44.669  33.368  26.930  1.00  0.00    -0.203 F 
ATOM     87  F   UNL A   1      46.791  34.783  31.753  1.00  0.00    -0.200 F 
ATOM     88  C   UNL A   1      46.082  35.385  29.583  1.00  0.00     0.200 A 
ATOM     89  F   UNL A   1      45.347  35.942  27.408  1.00  0.00    -0.200 F 
ATOM     90  F   UNL A   1      46.385  36.668  29.824  1.00  0.00    -0.200 F 
ENDBRANCH  57  80
ENDBRANCH  31  32
ENDBRANCH  23  26
ENDBRANCH  21  22
ENDBRANCH  20  21
ENDBRANCH   1  20
TORSDOF 13
ENDMDL
