MODEL 1
REMARK VINA RESULT:     -12.6      0.000      0.000
REMARK SMILES C[C@H](NC(=O)N1CC[C@H](C(=O)NCCCNC(=O)c2ccc(-c3c4nc(c(-c5c(F)c(F)c(F)c(F)c5F)c5ccc([nH]5)c(-c5c(F)c(F)c(F)c(F)c5F)c5nc(c(-c6c(F)c(F)c(F)c(F)c6F)c6ccc3[nH]6)C=C5)C=C4)cc2)[C@@H]1C)[C@@H]1CCCO1
REMARK SMILES IDX 13 1 12 2 10 3 11 4 9 6 6 7 7 8 82 9 8 10 83 11 4 12 3 13
REMARK SMILES IDX 5 15 2 16 1 17 84 18 85 19 88 20 86 21 87 22 14 23 15 24
REMARK SMILES IDX 16 25 17 26 18 28 19 29 20 30 81 31 21 32 80 33 22 34 23 35
REMARK SMILES IDX 24 36 74 37 25 38 79 39 73 40 75 41 26 42 78 43 72 44 71 45
REMARK SMILES IDX 27 47 59 48 39 49 58 50 40 51 43 52 57 53 76 54 41 55 42 56
REMARK SMILES IDX 56 58 77 59 44 60 28 61 29 62 37 63 30 64 31 65 35 66 38 67
REMARK SMILES IDX 32 68 33 69 36 70 34 71 60 72 61 73 69 74 62 75 63 76 67 77
REMARK SMILES IDX 70 78 64 79 65 80 68 81 66 82 45 83 46 84 54 85 47 86 48 87
REMARK SMILES IDX 52 88 55 89 49 90 50 91 53 92 51 93
REMARK H PARENT 12 5 3 14 16 27 75 46 43 57
REMARK Flexibility Score: inf
ROOT
ATOM      1  C   UNL A   1      32.926  28.867  22.995  1.00  0.00     0.117 C 
ENDROOT
BRANCH   1   2
ATOM      2  N   UNL A   1      33.449  27.678  22.347  1.00  0.00    -0.356 N 
ATOM      3  C   UNL A   1      33.100  26.368  22.491  1.00  0.00     0.225 C 
ATOM      4  O   UNL A   1      33.648  25.552  21.750  1.00  0.00    -0.275 OA
ATOM      5  H   UNL A   1      34.173  27.844  21.701  1.00  0.00     0.163 HD
BRANCH   3   6
ATOM      6  C   UNL A   1      32.006  25.989  23.472  1.00  0.00     0.102 C 
ATOM      7  N   UNL A   1      31.777  24.260  25.082  1.00  0.00    -0.321 N 
ATOM      8  C   UNL A   1      31.565  23.632  23.801  1.00  0.00     0.122 C 
ATOM      9  C   UNL A   1      32.441  25.547  24.889  1.00  0.00     0.096 C 
ATOM     10  C   UNL A   1      31.201  24.803  22.905  1.00  0.00     0.037 C 
ATOM     11  C   UNL A   1      33.941  25.450  25.167  1.00  0.00     0.032 C 
BRANCH   7  12
ATOM     12  C   UNL A   1      31.587  23.560  26.231  1.00  0.00     0.317 C 
ATOM     13  N   UNL A   1      31.866  22.231  26.259  1.00  0.00    -0.333 N 
ATOM     14  H   UNL A   1      31.101  21.613  26.309  1.00  0.00     0.165 HD
ATOM     15  O   UNL A   1      31.119  24.071  27.249  1.00  0.00    -0.249 OA
BRANCH  13  16
ATOM     16  C   UNL A   1      33.214  21.630  26.223  1.00  0.00     0.109 C 
ATOM     17  C   UNL A   1      34.025  21.801  27.503  1.00  0.00     0.034 C 
BRANCH  16  18
ATOM     18  C   UNL A   1      33.279  20.156  25.754  1.00  0.00     0.140 C 
ATOM     19  C   UNL A   1      34.479  19.779  24.900  1.00  0.00     0.036 C 
ATOM     20  O   UNL A   1      32.109  19.745  25.022  1.00  0.00    -0.376 OA
ATOM     21  C   UNL A   1      33.981  18.509  24.252  1.00  0.00     0.031 C 
ATOM     22  C   UNL A   1      32.529  18.847  23.981  1.00  0.00     0.160 C 
ENDBRANCH  16  18
ENDBRANCH  13  16
ENDBRANCH   7  12
ENDBRANCH   3   6
ENDBRANCH   1   2
BRANCH   1  23
ATOM     23  C   UNL A   1      33.636  29.181  24.308  1.00  0.00     0.042 C 
BRANCH  23  24
ATOM     24  C   UNL A   1      32.726  29.204  25.538  1.00  0.00     0.118 C 
BRANCH  24  25
ATOM     25  N   UNL A   1      32.415  30.548  26.001  1.00  0.00    -0.352 N 
ATOM     26  C   UNL A   1      33.027  31.349  26.932  1.00  0.00     0.251 C 
ATOM     27  H   UNL A   1      31.629  30.954  25.570  1.00  0.00     0.163 HD
ATOM     28  O   UNL A   1      32.495  32.408  27.252  1.00  0.00    -0.269 OA
BRANCH  26  29
ATOM     29  C   UNL A   1      34.297  30.950  27.578  1.00  0.00     0.039 A 
ATOM     30  C   UNL A   1      35.290  31.921  27.745  1.00  0.00     0.014 A 
ATOM     31  C   UNL A   1      34.542  29.635  27.980  1.00  0.00     0.014 A 
ATOM     32  C   UNL A   1      36.492  31.593  28.375  1.00  0.00     0.010 A 
ATOM     33  C   UNL A   1      35.714  29.323  28.672  1.00  0.00     0.010 A 
ATOM     34  C   UNL A   1      36.698  30.300  28.881  1.00  0.00    -0.014 A 
BRANCH  34  35
ATOM     35  C   UNL A   1      37.925  29.972  29.655  1.00  0.00     0.031 A 
ATOM     36  C   UNL A   1      38.947  29.016  29.107  1.00  0.00     0.074 A 
ATOM     37  C   UNL A   1      38.087  30.495  30.886  1.00  0.00     0.049 A 
ATOM     38  N   UNL A   1      40.050  28.576  29.661  1.00  0.00    -0.248 NA
ATOM     39  C   UNL A   1      38.686  28.460  27.770  1.00  0.00     0.031 C 
ATOM     40  C   UNL A   1      37.144  31.395  31.552  1.00  0.00     0.029 A 
ATOM     41  N   UNL A   1      39.098  30.339  31.802  1.00  0.00    -0.354 N 
ATOM     42  C   UNL A   1      40.605  27.687  28.749  1.00  0.00     0.074 A 
ATOM     43  C   UNL A   1      39.693  27.611  27.627  1.00  0.00     0.031 C 
ATOM     44  C   UNL A   1      37.629  31.728  32.758  1.00  0.00     0.029 A 
ATOM     45  C   UNL A   1      38.897  31.035  32.969  1.00  0.00     0.049 A 
ATOM     46  H   UNL A   1      39.892  29.780  31.638  1.00  0.00     0.167 HD
ATOM     47  C   UNL A   1      41.777  27.012  28.833  1.00  0.00     0.037 A 
ATOM     48  C   UNL A   1      39.643  31.103  34.087  1.00  0.00     0.037 A 
ATOM     49  C   UNL A   1      42.692  27.107  29.941  1.00  0.00     0.049 A 
ATOM     50  C   UNL A   1      40.937  30.339  34.155  1.00  0.00     0.074 A 
ATOM     51  C   UNL A   1      43.936  26.516  30.086  1.00  0.00     0.029 A 
ATOM     52  N   UNL A   1      42.460  27.833  31.100  1.00  0.00    -0.354 N 
ATOM     53  N   UNL A   1      41.489  29.564  33.253  1.00  0.00    -0.248 NA
ATOM     54  C   UNL A   1      41.717  30.466  35.393  1.00  0.00     0.031 C 
ATOM     55  C   UNL A   1      44.432  26.841  31.352  1.00  0.00     0.029 A 
ATOM     56  C   UNL A   1      43.524  27.682  31.975  1.00  0.00     0.049 A 
ATOM     57  H   UNL A   1      41.658  28.377  31.274  1.00  0.00     0.167 HD
ATOM     58  C   UNL A   1      42.689  29.133  33.803  1.00  0.00     0.074 A 
ATOM     59  C   UNL A   1      42.794  29.748  35.110  1.00  0.00     0.031 C 
ATOM     60  C   UNL A   1      43.618  28.300  33.273  1.00  0.00     0.037 A 
BRANCH  47  61
ATOM     61  C   UNL A   1      42.142  26.106  27.691  1.00  0.00     0.064 A 
ATOM     62  C   UNL A   1      43.050  26.502  26.697  1.00  0.00     0.173 A 
ATOM     63  C   UNL A   1      41.616  24.807  27.618  1.00  0.00     0.173 A 
ATOM     64  F   UNL A   1      43.576  27.736  26.716  1.00  0.00    -0.203 F 
ATOM     65  C   UNL A   1      43.396  25.643  25.657  1.00  0.00     0.198 A 
ATOM     66  C   UNL A   1      41.987  23.939  26.593  1.00  0.00     0.198 A 
ATOM     67  F   UNL A   1      40.750  24.374  28.546  1.00  0.00    -0.203 F 
ATOM     68  F   UNL A   1      44.228  26.060  24.694  1.00  0.00    -0.200 F 
ATOM     69  C   UNL A   1      42.870  24.359  25.611  1.00  0.00     0.200 A 
ATOM     70  F   UNL A   1      41.491  22.694  26.559  1.00  0.00    -0.200 F 
ATOM     71  F   UNL A   1      43.212  23.530  24.615  1.00  0.00    -0.200 F 
ENDBRANCH  47  61
BRANCH  48  72
ATOM     72  C   UNL A   1      39.192  31.938  35.231  1.00  0.00     0.064 A 
ATOM     73  C   UNL A   1      39.487  33.308  35.284  1.00  0.00     0.173 A 
ATOM     74  C   UNL A   1      38.466  31.387  36.296  1.00  0.00     0.173 A 
ATOM     75  F   UNL A   1      40.197  33.877  34.299  1.00  0.00    -0.203 F 
ATOM     76  C   UNL A   1      39.092  34.088  36.369  1.00  0.00     0.198 A 
ATOM     77  C   UNL A   1      38.045  32.174  37.365  1.00  0.00     0.198 A 
ATOM     78  F   UNL A   1      38.153  30.082  36.292  1.00  0.00    -0.203 F 
ATOM     79  F   UNL A   1      39.430  35.384  36.417  1.00  0.00    -0.200 F 
ATOM     80  C   UNL A   1      38.366  33.522  37.405  1.00  0.00     0.200 A 
ATOM     81  F   UNL A   1      37.330  31.626  38.358  1.00  0.00    -0.200 F 
ATOM     82  F   UNL A   1      37.983  34.274  38.446  1.00  0.00    -0.200 F 
ENDBRANCH  48  72
BRANCH  60  83
ATOM     83  C   UNL A   1      44.846  28.029  34.096  1.00  0.00     0.064 A 
ATOM     84  C   UNL A   1      44.920  26.937  34.973  1.00  0.00     0.173 A 
ATOM     85  C   UNL A   1      45.974  28.856  33.980  1.00  0.00     0.173 A 
ATOM     86  F   UNL A   1      43.862  26.126  35.131  1.00  0.00    -0.203 F 
ATOM     87  C   UNL A   1      46.066  26.701  35.727  1.00  0.00     0.198 A 
ATOM     88  C   UNL A   1      47.131  28.597  34.712  1.00  0.00     0.198 A 
ATOM     89  F   UNL A   1      45.960  29.909  33.151  1.00  0.00    -0.203 F 
ATOM     90  F   UNL A   1      46.094  25.683  36.598  1.00  0.00    -0.200 F 
ATOM     91  C   UNL A   1      47.173  27.526  35.590  1.00  0.00     0.200 A 
ATOM     92  F   UNL A   1      48.203  29.388  34.567  1.00  0.00    -0.200 F 
ATOM     93  F   UNL A   1      48.277  27.293  36.313  1.00  0.00    -0.200 F 
ENDBRANCH  60  83
ENDBRANCH  34  35
ENDBRANCH  26  29
ENDBRANCH  24  25
ENDBRANCH  23  24
ENDBRANCH   1  23
TORSDOF 13
ENDMDL
MODEL 2
REMARK VINA RESULT:     -12.5      0.353      7.523
REMARK SMILES C[C@H](NC(=O)N1CC[C@H](C(=O)NCCCNC(=O)c2ccc(-c3c4nc(c(-c5c(F)c(F)c(F)c(F)c5F)c5ccc([nH]5)c(-c5c(F)c(F)c(F)c(F)c5F)c5nc(c(-c6c(F)c(F)c(F)c(F)c6F)c6ccc3[nH]6)C=C5)C=C4)cc2)[C@@H]1C)[C@@H]1CCCO1
REMARK SMILES IDX 13 1 12 2 10 3 11 4 9 6 6 7 7 8 82 9 8 10 83 11 4 12 3 13
REMARK SMILES IDX 5 15 2 16 1 17 84 18 85 19 88 20 86 21 87 22 14 23 15 24
REMARK SMILES IDX 16 25 17 26 18 28 19 29 20 30 81 31 21 32 80 33 22 34 23 35
REMARK SMILES IDX 24 36 74 37 25 38 79 39 73 40 75 41 26 42 78 43 72 44 71 45
REMARK SMILES IDX 27 47 59 48 39 49 58 50 40 51 43 52 57 53 76 54 41 55 42 56
REMARK SMILES IDX 56 58 77 59 44 60 28 61 29 62 37 63 30 64 31 65 35 66 38 67
REMARK SMILES IDX 32 68 33 69 36 70 34 71 60 72 61 73 69 74 62 75 63 76 67 77
REMARK SMILES IDX 70 78 64 79 65 80 68 81 66 82 45 83 46 84 54 85 47 86 48 87
REMARK SMILES IDX 52 88 55 89 49 90 50 91 53 92 51 93
REMARK H PARENT 12 5 3 14 16 27 75 46 43 57
REMARK Flexibility Score: inf
ROOT
ATOM      1  C   UNL A   1      32.887  28.891  22.937  1.00  0.00     0.117 C 
ENDROOT
BRANCH   1   2
ATOM      2  N   UNL A   1      33.422  27.700  22.302  1.00  0.00    -0.356 N 
ATOM      3  C   UNL A   1      33.093  26.387  22.467  1.00  0.00     0.225 C 
ATOM      4  O   UNL A   1      33.647  25.569  21.733  1.00  0.00    -0.275 OA
ATOM      5  H   UNL A   1      34.137  27.868  21.647  1.00  0.00     0.163 HD
BRANCH   3   6
ATOM      6  C   UNL A   1      32.013  26.007  23.463  1.00  0.00     0.102 C 
ATOM      7  N   UNL A   1      31.805  24.275  25.072  1.00  0.00    -0.321 N 
ATOM      8  C   UNL A   1      31.575  23.650  23.792  1.00  0.00     0.122 C 
ATOM      9  C   UNL A   1      32.467  25.561  24.872  1.00  0.00     0.096 C 
ATOM     10  C   UNL A   1      31.199  24.823  22.905  1.00  0.00     0.037 C 
ATOM     11  C   UNL A   1      33.971  25.463  25.129  1.00  0.00     0.032 C 
BRANCH   7  12
ATOM     12  C   UNL A   1      31.631  23.572  26.221  1.00  0.00     0.317 C 
ATOM     13  N   UNL A   1      31.899  22.240  26.240  1.00  0.00    -0.333 N 
ATOM     14  H   UNL A   1      31.130  21.629  26.302  1.00  0.00     0.165 HD
ATOM     15  O   UNL A   1      31.187  24.083  27.251  1.00  0.00    -0.249 OA
BRANCH  13  16
ATOM     16  C   UNL A   1      33.240  21.628  26.176  1.00  0.00     0.109 C 
ATOM     17  C   UNL A   1      34.093  21.824  27.424  1.00  0.00     0.034 C 
BRANCH  16  18
ATOM     18  C   UNL A   1      33.279  20.141  25.743  1.00  0.00     0.140 C 
ATOM     19  C   UNL A   1      34.484  19.717  24.919  1.00  0.00     0.036 C 
ATOM     20  O   UNL A   1      32.112  19.740  25.000  1.00  0.00    -0.376 OA
ATOM     21  C   UNL A   1      33.967  18.444  24.292  1.00  0.00     0.031 C 
ATOM     22  C   UNL A   1      32.529  18.808  23.989  1.00  0.00     0.160 C 
ENDBRANCH  16  18
ENDBRANCH  13  16
ENDBRANCH   7  12
ENDBRANCH   3   6
ENDBRANCH   1   2
BRANCH   1  23
ATOM     23  C   UNL A   1      33.650  29.276  24.200  1.00  0.00     0.042 C 
BRANCH  23  24
ATOM     24  C   UNL A   1      32.804  29.305  25.475  1.00  0.00     0.118 C 
BRANCH  24  25
ATOM     25  N   UNL A   1      32.542  30.651  25.963  1.00  0.00    -0.352 N 
ATOM     26  C   UNL A   1      33.169  31.403  26.924  1.00  0.00     0.251 C 
ATOM     27  H   UNL A   1      31.782  31.100  25.526  1.00  0.00     0.163 HD
ATOM     28  O   UNL A   1      32.677  32.477  27.258  1.00  0.00    -0.269 OA
BRANCH  26  29
ATOM     29  C   UNL A   1      34.407  30.935  27.585  1.00  0.00     0.039 A 
ATOM     30  C   UNL A   1      35.455  31.847  27.751  1.00  0.00     0.014 A 
ATOM     31  C   UNL A   1      34.569  29.612  28.001  1.00  0.00     0.014 A 
ATOM     32  C   UNL A   1      36.631  31.453  28.394  1.00  0.00     0.010 A 
ATOM     33  C   UNL A   1      35.715  29.237  28.706  1.00  0.00     0.010 A 
ATOM     34  C   UNL A   1      36.755  30.155  28.914  1.00  0.00    -0.014 A 
BRANCH  34  35
ATOM     35  C   UNL A   1      37.953  29.762  29.701  1.00  0.00     0.031 A 
ATOM     36  C   UNL A   1      38.178  30.306  31.084  1.00  0.00     0.074 A 
ATOM     37  C   UNL A   1      38.873  28.952  29.140  1.00  0.00     0.049 A 
ATOM     38  N   UNL A   1      39.188  30.112  31.896  1.00  0.00    -0.248 NA
ATOM     39  C   UNL A   1      37.147  31.208  31.618  1.00  0.00     0.031 C 
ATOM     40  C   UNL A   1      38.797  28.398  27.788  1.00  0.00     0.029 A 
ATOM     41  N   UNL A   1      40.058  28.464  29.632  1.00  0.00    -0.354 N 
ATOM     42  C   UNL A   1      38.919  30.873  33.026  1.00  0.00     0.074 A 
ATOM     43  C   UNL A   1      37.677  31.572  32.777  1.00  0.00     0.031 C 
ATOM     44  C   UNL A   1      39.874  27.629  27.565  1.00  0.00     0.029 A 
ATOM     45  C   UNL A   1      40.737  27.668  28.742  1.00  0.00     0.049 A 
ATOM     46  H   UNL A   1      40.390  28.665  30.537  1.00  0.00     0.167 HD
ATOM     47  C   UNL A   1      39.634  30.964  34.173  1.00  0.00     0.037 A 
ATOM     48  C   UNL A   1      41.925  27.045  28.855  1.00  0.00     0.037 A 
ATOM     49  C   UNL A   1      40.859  30.250  34.427  1.00  0.00     0.049 A 
ATOM     50  C   UNL A   1      42.701  27.167  30.139  1.00  0.00     0.074 A 
ATOM     51  C   UNL A   1      41.618  30.223  35.585  1.00  0.00     0.029 A 
ATOM     52  N   UNL A   1      41.509  29.441  33.507  1.00  0.00    -0.354 N 
ATOM     53  N   UNL A   1      42.396  27.827  31.230  1.00  0.00    -0.248 NA
ATOM     54  C   UNL A   1      43.981  26.451  30.210  1.00  0.00     0.031 C 
ATOM     55  C   UNL A   1      42.754  29.443  35.347  1.00  0.00     0.029 A 
ATOM     56  C   UNL A   1      42.675  28.936  34.060  1.00  0.00     0.049 A 
ATOM     57  H   UNL A   1      41.189  29.255  32.594  1.00  0.00     0.167 HD
ATOM     58  C   UNL A   1      43.431  27.586  32.124  1.00  0.00     0.074 A 
ATOM     59  C   UNL A   1      44.363  26.703  31.454  1.00  0.00     0.031 C 
ATOM     60  C   UNL A   1      43.595  28.056  33.384  1.00  0.00     0.037 A 
BRANCH  47  61
ATOM     61  C   UNL A   1      39.110  31.871  35.250  1.00  0.00     0.064 A 
ATOM     62  C   UNL A   1      38.356  31.379  36.327  1.00  0.00     0.173 A 
ATOM     63  C   UNL A   1      39.409  33.243  35.233  1.00  0.00     0.173 A 
ATOM     64  F   UNL A   1      38.036  30.078  36.389  1.00  0.00    -0.203 F 
ATOM     65  C   UNL A   1      37.896  32.230  37.329  1.00  0.00     0.198 A 
ATOM     66  C   UNL A   1      38.974  34.086  36.253  1.00  0.00     0.198 A 
ATOM     67  F   UNL A   1      40.134  33.765  34.232  1.00  0.00    -0.203 F 
ATOM     68  F   UNL A   1      37.138  31.745  38.322  1.00  0.00    -0.200 F 
ATOM     69  C   UNL A   1      38.213  33.580  37.296  1.00  0.00     0.200 A 
ATOM     70  F   UNL A   1      39.293  35.387  36.227  1.00  0.00    -0.200 F 
ATOM     71  F   UNL A   1      37.778  34.396  38.266  1.00  0.00    -0.200 F 
ENDBRANCH  47  61
BRANCH  48  72
ATOM     72  C   UNL A   1      42.450  26.234  27.725  1.00  0.00     0.064 A 
ATOM     73  C   UNL A   1      42.026  24.912  27.528  1.00  0.00     0.173 A 
ATOM     74  C   UNL A   1      43.388  26.759  26.824  1.00  0.00     0.173 A 
ATOM     75  F   UNL A   1      41.146  24.359  28.375  1.00  0.00    -0.203 F 
ATOM     76  C   UNL A   1      42.538  24.140  26.487  1.00  0.00     0.198 A 
ATOM     77  C   UNL A   1      43.875  25.996  25.765  1.00  0.00     0.198 A 
ATOM     78  F   UNL A   1      43.822  28.021  26.965  1.00  0.00    -0.203 F 
ATOM     79  F   UNL A   1      42.151  22.863  26.352  1.00  0.00    -0.200 F 
ATOM     80  C   UNL A   1      43.456  24.684  25.603  1.00  0.00     0.200 A 
ATOM     81  F   UNL A   1      44.752  26.531  24.905  1.00  0.00    -0.200 F 
ATOM     82  F   UNL A   1      43.945  23.942  24.600  1.00  0.00    -0.200 F 
ENDBRANCH  48  72
BRANCH  60  83
ATOM     83  C   UNL A   1      44.814  27.600  34.134  1.00  0.00     0.064 A 
ATOM     84  C   UNL A   1      46.010  28.331  34.111  1.00  0.00     0.173 A 
ATOM     85  C   UNL A   1      44.773  26.431  34.911  1.00  0.00     0.173 A 
ATOM     86  F   UNL A   1      46.106  29.447  33.371  1.00  0.00    -0.203 F 
ATOM     87  C   UNL A   1      47.131  27.894  34.813  1.00  0.00     0.198 A 
ATOM     88  C   UNL A   1      45.886  26.015  35.638  1.00  0.00     0.198 A 
ATOM     89  F   UNL A   1      43.653  25.699  34.974  1.00  0.00    -0.203 F 
ATOM     90  F   UNL A   1      48.279  28.580  34.733  1.00  0.00    -0.200 F 
ATOM     91  C   UNL A   1      47.066  26.741  35.581  1.00  0.00     0.200 A 
ATOM     92  F   UNL A   1      45.816  24.908  36.391  1.00  0.00    -0.200 F 
ATOM     93  F   UNL A   1      48.143  26.324  36.261  1.00  0.00    -0.200 F 
ENDBRANCH  60  83
ENDBRANCH  34  35
ENDBRANCH  26  29
ENDBRANCH  24  25
ENDBRANCH  23  24
ENDBRANCH   1  23
TORSDOF 13
ENDMDL
MODEL 3
REMARK VINA RESULT:     -12.5      4.752     10.191
REMARK SMILES C[C@H](NC(=O)N1CC[C@H](C(=O)NCCCNC(=O)c2ccc(-c3c4nc(c(-c5c(F)c(F)c(F)c(F)c5F)c5ccc([nH]5)c(-c5c(F)c(F)c(F)c(F)c5F)c5nc(c(-c6c(F)c(F)c(F)c(F)c6F)c6ccc3[nH]6)C=C5)C=C4)cc2)[C@@H]1C)[C@@H]1CCCO1
REMARK SMILES IDX 13 1 12 2 10 3 11 4 9 6 6 7 7 8 82 9 8 10 83 11 4 12 3 13
REMARK SMILES IDX 5 15 2 16 1 17 84 18 85 19 88 20 86 21 87 22 14 23 15 24
REMARK SMILES IDX 16 25 17 26 18 28 19 29 20 30 81 31 21 32 80 33 22 34 23 35
REMARK SMILES IDX 24 36 74 37 25 38 79 39 73 40 75 41 26 42 78 43 72 44 71 45
REMARK SMILES IDX 27 47 59 48 39 49 58 50 40 51 43 52 57 53 76 54 41 55 42 56
REMARK SMILES IDX 56 58 77 59 44 60 28 61 29 62 37 63 30 64 31 65 35 66 38 67
REMARK SMILES IDX 32 68 33 69 36 70 34 71 60 72 61 73 69 74 62 75 63 76 67 77
REMARK SMILES IDX 70 78 64 79 65 80 68 81 66 82 45 83 46 84 54 85 47 86 48 87
REMARK SMILES IDX 52 88 55 89 49 90 50 91 53 92 51 93
REMARK H PARENT 12 5 3 14 16 27 75 46 43 57
REMARK Flexibility Score: inf
ROOT
ATOM      1  C   UNL A   1      36.830  20.397  24.972  1.00  0.00     0.117 C 
ENDROOT
BRANCH   1   2
ATOM      2  N   UNL A   1      35.600  19.625  25.001  1.00  0.00    -0.356 N 
ATOM      3  C   UNL A   1      34.304  20.022  24.859  1.00  0.00     0.225 C 
ATOM      4  O   UNL A   1      33.442  19.144  24.837  1.00  0.00    -0.275 OA
ATOM      5  H   UNL A   1      35.723  18.659  25.145  1.00  0.00     0.163 HD
BRANCH   3   6
ATOM      6  C   UNL A   1      33.992  21.493  24.648  1.00  0.00     0.102 C 
ATOM      7  N   UNL A   1      32.592  23.048  25.768  1.00  0.00    -0.321 N 
ATOM      8  C   UNL A   1      31.707  22.212  24.992  1.00  0.00     0.122 C 
ATOM      9  C   UNL A   1      33.888  22.388  25.905  1.00  0.00     0.096 C 
ATOM     10  C   UNL A   1      32.630  21.627  23.939  1.00  0.00     0.037 C 
ATOM     11  C   UNL A   1      34.029  21.709  27.266  1.00  0.00     0.032 C 
BRANCH   7  12
ATOM     12  C   UNL A   1      32.109  24.130  26.432  1.00  0.00     0.317 C 
ATOM     13  N   UNL A   1      32.682  25.346  26.239  1.00  0.00    -0.333 N 
ATOM     14  H   UNL A   1      33.213  25.714  26.982  1.00  0.00     0.165 HD
ATOM     15  O   UNL A   1      31.193  24.049  27.253  1.00  0.00    -0.249 OA
BRANCH  13  16
ATOM     16  C   UNL A   1      32.579  26.165  25.016  1.00  0.00     0.109 C 
ATOM     17  C   UNL A   1      31.201  26.168  24.362  1.00  0.00     0.034 C 
BRANCH  16  18
ATOM     18  C   UNL A   1      33.106  27.617  25.134  1.00  0.00     0.140 C 
ATOM     19  C   UNL A   1      33.624  28.030  26.503  1.00  0.00     0.036 C 
ATOM     20  O   UNL A   1      32.131  28.604  24.749  1.00  0.00    -0.376 OA
ATOM     21  C   UNL A   1      33.574  29.534  26.384  1.00  0.00     0.031 C 
ATOM     22  C   UNL A   1      32.289  29.743  25.610  1.00  0.00     0.160 C 
ENDBRANCH  16  18
ENDBRANCH  13  16
ENDBRANCH   7  12
ENDBRANCH   3   6
ENDBRANCH   1   2
BRANCH   1  23
ATOM     23  C   UNL A   1      38.075  19.516  24.938  1.00  0.00     0.042 C 
BRANCH  23  24
ATOM     24  C   UNL A   1      39.205  19.969  25.864  1.00  0.00     0.118 C 
BRANCH  24  25
ATOM     25  N   UNL A   1      40.307  19.021  25.936  1.00  0.00    -0.352 N 
ATOM     26  C   UNL A   1      41.653  19.211  26.126  1.00  0.00     0.251 C 
ATOM     27  H   UNL A   1      40.040  18.079  25.831  1.00  0.00     0.163 HD
ATOM     28  O   UNL A   1      42.413  18.254  26.015  1.00  0.00    -0.269 OA
BRANCH  26  29
ATOM     29  C   UNL A   1      42.208  20.548  26.432  1.00  0.00     0.039 A 
ATOM     30  C   UNL A   1      42.632  21.349  25.366  1.00  0.00     0.014 A 
ATOM     31  C   UNL A   1      42.357  21.005  27.743  1.00  0.00     0.014 A 
ATOM     32  C   UNL A   1      43.136  22.629  25.609  1.00  0.00     0.010 A 
ATOM     33  C   UNL A   1      42.795  22.310  27.982  1.00  0.00     0.010 A 
ATOM     34  C   UNL A   1      43.184  23.137  26.917  1.00  0.00    -0.014 A 
BRANCH  34  35
ATOM     35  C   UNL A   1      43.609  24.537  27.176  1.00  0.00     0.031 A 
ATOM     36  C   UNL A   1      42.627  25.561  27.672  1.00  0.00     0.074 A 
ATOM     37  C   UNL A   1      44.878  24.901  26.904  1.00  0.00     0.049 A 
ATOM     38  N   UNL A   1      42.808  26.837  27.905  1.00  0.00    -0.248 NA
ATOM     39  C   UNL A   1      41.252  25.097  27.915  1.00  0.00     0.031 C 
ATOM     40  C   UNL A   1      45.914  24.015  26.371  1.00  0.00     0.029 A 
ATOM     41  N   UNL A   1      45.511  26.113  27.029  1.00  0.00    -0.354 N 
ATOM     42  C   UNL A   1      41.574  27.329  28.310  1.00  0.00     0.074 A 
ATOM     43  C   UNL A   1      40.639  26.226  28.243  1.00  0.00     0.031 C 
ATOM     44  C   UNL A   1      47.057  24.706  26.235  1.00  0.00     0.029 A 
ATOM     45  C   UNL A   1      46.826  26.092  26.632  1.00  0.00     0.049 A 
ATOM     46  H   UNL A   1      45.064  26.922  27.370  1.00  0.00     0.167 HD
ATOM     47  C   UNL A   1      41.255  28.581  28.718  1.00  0.00     0.037 A 
ATOM     48  C   UNL A   1      47.742  27.077  26.584  1.00  0.00     0.037 A 
ATOM     49  C   UNL A   1      42.192  29.672  28.804  1.00  0.00     0.049 A 
ATOM     50  C   UNL A   1      47.359  28.460  27.038  1.00  0.00     0.074 A 
ATOM     51  C   UNL A   1      41.979  30.957  29.272  1.00  0.00     0.029 A 
ATOM     52  N   UNL A   1      43.519  29.608  28.406  1.00  0.00    -0.354 N 
ATOM     53  N   UNL A   1      46.208  28.892  27.494  1.00  0.00    -0.248 NA
ATOM     54  C   UNL A   1      48.405  29.489  26.980  1.00  0.00     0.031 C 
ATOM     55  C   UNL A   1      43.161  31.685  29.108  1.00  0.00     0.029 A 
ATOM     56  C   UNL A   1      44.129  30.839  28.591  1.00  0.00     0.049 A 
ATOM     57  H   UNL A   1      43.963  28.806  28.046  1.00  0.00     0.167 HD
ATOM     58  C   UNL A   1      46.398  30.233  27.800  1.00  0.00     0.074 A 
ATOM     59  C   UNL A   1      47.781  30.538  27.496  1.00  0.00     0.031 C 
ATOM     60  C   UNL A   1      45.506  31.131  28.286  1.00  0.00     0.037 A 
BRANCH  47  61
ATOM     61  C   UNL A   1      39.827  28.845  29.106  1.00  0.00     0.064 A 
ATOM     62  C   UNL A   1      39.382  28.689  30.427  1.00  0.00     0.173 A 
ATOM     63  C   UNL A   1      38.905  29.309  28.154  1.00  0.00     0.173 A 
ATOM     64  F   UNL A   1      40.219  28.241  31.374  1.00  0.00    -0.203 F 
ATOM     65  C   UNL A   1      38.060  28.959  30.775  1.00  0.00     0.198 A 
ATOM     66  C   UNL A   1      37.593  29.607  28.512  1.00  0.00     0.198 A 
ATOM     67  F   UNL A   1      39.280  29.483  26.878  1.00  0.00    -0.203 F 
ATOM     68  F   UNL A   1      37.647  28.757  32.034  1.00  0.00    -0.200 F 
ATOM     69  C   UNL A   1      37.170  29.426  29.819  1.00  0.00     0.200 A 
ATOM     70  F   UNL A   1      36.738  30.073  27.591  1.00  0.00    -0.200 F 
ATOM     71  F   UNL A   1      35.901  29.695  30.158  1.00  0.00    -0.200 F 
ENDBRANCH  47  61
BRANCH  48  72
ATOM     72  C   UNL A   1      49.117  26.790  26.101  1.00  0.00     0.064 A 
ATOM     73  C   UNL A   1      49.469  26.999  24.760  1.00  0.00     0.173 A 
ATOM     74  C   UNL A   1      50.106  26.295  26.964  1.00  0.00     0.173 A 
ATOM     75  F   UNL A   1      48.553  27.452  23.892  1.00  0.00    -0.203 F 
ATOM     76  C   UNL A   1      50.750  26.704  24.297  1.00  0.00     0.198 A 
ATOM     77  C   UNL A   1      51.394  26.029  26.507  1.00  0.00     0.198 A 
ATOM     78  F   UNL A   1      49.823  26.081  28.258  1.00  0.00    -0.203 F 
ATOM     79  F   UNL A   1      51.044  26.868  22.999  1.00  0.00    -0.200 F 
ATOM     80  C   UNL A   1      51.713  26.224  25.171  1.00  0.00     0.200 A 
ATOM     81  F   UNL A   1      52.327  25.580  27.358  1.00  0.00    -0.200 F 
ATOM     82  F   UNL A   1      52.945  25.944  24.726  1.00  0.00    -0.200 F 
ENDBRANCH  48  72
BRANCH  60  83
ATOM     83  C   UNL A   1      46.007  32.522  28.549  1.00  0.00     0.064 A 
ATOM     84  C   UNL A   1      45.928  33.530  27.576  1.00  0.00     0.173 A 
ATOM     85  C   UNL A   1      46.544  32.859  29.801  1.00  0.00     0.173 A 
ATOM     86  F   UNL A   1      45.437  33.256  26.358  1.00  0.00    -0.203 F 
ATOM     87  C   UNL A   1      46.396  34.815  27.837  1.00  0.00     0.198 A 
ATOM     88  C   UNL A   1      46.981  34.154  30.069  1.00  0.00     0.198 A 
ATOM     89  F   UNL A   1      46.636  31.935  30.768  1.00  0.00    -0.203 F 
ATOM     90  F   UNL A   1      46.360  35.748  26.876  1.00  0.00    -0.200 F 
ATOM     91  C   UNL A   1      46.915  35.128  29.085  1.00  0.00     0.200 A 
ATOM     92  F   UNL A   1      47.469  34.456  31.280  1.00  0.00    -0.200 F 
ATOM     93  F   UNL A   1      47.360  36.367  29.337  1.00  0.00    -0.200 F 
ENDBRANCH  60  83
ENDBRANCH  34  35
ENDBRANCH  26  29
ENDBRANCH  24  25
ENDBRANCH  23  24
ENDBRANCH   1  23
TORSDOF 13
ENDMDL
