MODEL 1
REMARK VINA RESULT:     -11.8      0.000      0.000
REMARK SMILES CCC[C@@](C)(NC(=O)N1CCN(C)C(=O)C1(C)C)C(=O)NCCCNC(=O)c1ccc(-c2c3nc(c(-c4c(F)c(F)c(F)c(F)c4F)c4ccc([nH]4)c(-c4c(F)c(F)c(F)c(F)c4F)c4nc(c(-c5c(F)c(F)c(F)c(F)c5F)c5ccc2[nH]5)C=C4)C=C3)cc1
REMARK SMILES IDX 23 1 22 2 21 3 19 4 20 5 4 7 5 8 3 9 2 10 1 11 6 12 7 13
REMARK SMILES IDX 8 15 9 16 10 17 16 18 11 19 14 20 17 21 18 22 12 23 15 24
REMARK SMILES IDX 13 25 24 26 25 27 26 28 27 30 28 31 29 32 90 33 30 34 89 35
REMARK SMILES IDX 31 36 32 37 33 38 83 39 34 40 88 41 82 42 84 43 35 44 87 45
REMARK SMILES IDX 81 46 80 47 36 49 68 50 48 51 67 52 49 53 52 54 66 55 85 56
REMARK SMILES IDX 50 57 51 58 65 60 86 61 53 62 37 63 38 64 46 65 39 66 40 67
REMARK SMILES IDX 44 68 47 69 41 70 42 71 45 72 43 73 69 74 70 75 78 76 71 77
REMARK SMILES IDX 72 78 76 79 79 80 73 81 74 82 77 83 75 84 54 85 55 86 63 87
REMARK SMILES IDX 56 88 57 89 61 90 64 91 58 92 59 93 62 94 60 95
REMARK H PARENT 21 6 6 14 25 29 84 48 52 59
REMARK Flexibility Score: inf
ROOT
ATOM      1  C   UNL A   1      31.106  31.623  26.495  1.00  0.00     0.042 C 
ENDROOT
BRANCH   1   2
ATOM      2  C   UNL A   1      30.895  30.822  25.163  1.00  0.00     0.117 C 
BRANCH   2   3
ATOM      3  N   UNL A   1      31.095  29.366  24.746  1.00  0.00    -0.354 N 
ATOM      4  C   UNL A   1      31.731  28.166  24.633  1.00  0.00     0.245 C 
ATOM      5  O   UNL A   1      30.854  27.281  24.786  1.00  0.00    -0.272 OA
ATOM      6  H   UNL A   1      30.252  29.183  24.271  1.00  0.00     0.163 HD
BRANCH   4   7
ATOM      7  C   UNL A   1      33.262  27.577  24.548  1.00  0.00     0.117 C 
ATOM      8  C   UNL A   1      33.979  28.645  23.687  1.00  0.00     0.045 C 
BRANCH   7   9
ATOM      9  C   UNL A   1      33.942  27.551  25.990  1.00  0.00     0.038 C 
BRANCH   9  10
ATOM     10  C   UNL A   1      33.655  28.596  27.081  1.00  0.00    -0.000 C 
ATOM     11  C   UNL A   1      34.793  29.599  27.268  1.00  0.00     0.004 C 
ENDBRANCH   9  10
ENDBRANCH   7   9
BRANCH   7  12
ATOM     12  N   UNL A   1      33.750  26.224  23.984  1.00  0.00    -0.324 N 
ATOM     13  C   UNL A   1      33.743  24.930  24.464  1.00  0.00     0.319 C 
ATOM     14  H   UNL A   1      34.155  26.302  23.089  1.00  0.00     0.166 HD
ATOM     15  O   UNL A   1      34.826  24.382  24.669  1.00  0.00    -0.249 OA
BRANCH  13  16
ATOM     16  N   UNL A   1      32.556  24.218  24.492  1.00  0.00    -0.309 N 
ATOM     17  C   UNL A   1      31.879  23.846  23.275  1.00  0.00     0.144 C 
ATOM     18  C   UNL A   1      32.136  23.486  25.661  1.00  0.00     0.118 C 
ATOM     19  C   UNL A   1      32.336  22.437  22.915  1.00  0.00     0.140 C 
ATOM     20  C   UNL A   1      32.848  22.083  25.400  1.00  0.00     0.247 C 
ATOM     21  C   UNL A   1      32.126  24.559  26.757  1.00  0.00     0.045 C 
ATOM     22  C   UNL A   1      30.708  22.884  25.804  1.00  0.00     0.045 C 
ATOM     23  N   UNL A   1      32.624  21.577  24.081  1.00  0.00    -0.342 N 
ATOM     24  O   UNL A   1      33.188  21.308  26.293  1.00  0.00    -0.272 OA
ATOM     25  C   UNL A   1      32.530  20.142  23.875  1.00  0.00     0.146 C 
ENDBRANCH  13  16
ENDBRANCH   7  12
ENDBRANCH   4   7
ENDBRANCH   2   3
ENDBRANCH   1   2
BRANCH   1  26
ATOM     26  C   UNL A   1      32.410  32.425  26.795  1.00  0.00     0.118 C 
BRANCH  26  27
ATOM     27  N   UNL A   1      32.253  33.760  27.353  1.00  0.00    -0.352 N 
ATOM     28  C   UNL A   1      33.043  34.373  28.306  1.00  0.00     0.251 C 
ATOM     29  H   UNL A   1      31.495  34.288  27.012  1.00  0.00     0.163 HD
ATOM     30  O   UNL A   1      32.746  35.483  28.749  1.00  0.00    -0.269 OA
BRANCH  28  31
ATOM     31  C   UNL A   1      34.247  33.692  28.836  1.00  0.00     0.039 A 
ATOM     32  C   UNL A   1      34.088  32.589  29.681  1.00  0.00     0.014 A 
ATOM     33  C   UNL A   1      35.527  34.181  28.562  1.00  0.00     0.014 A 
ATOM     34  C   UNL A   1      35.212  31.952  30.220  1.00  0.00     0.010 A 
ATOM     35  C   UNL A   1      36.652  33.520  29.076  1.00  0.00     0.010 A 
ATOM     36  C   UNL A   1      36.507  32.405  29.919  1.00  0.00    -0.014 A 
BRANCH  36  37
ATOM     37  C   UNL A   1      37.693  31.742  30.538  1.00  0.00     0.031 A 
ATOM     38  C   UNL A   1      38.079  32.060  31.961  1.00  0.00     0.074 A 
ATOM     39  C   UNL A   1      38.407  30.838  29.837  1.00  0.00     0.049 A 
ATOM     40  N   UNL A   1      39.045  31.563  32.692  1.00  0.00    -0.248 NA
ATOM     41  C   UNL A   1      37.277  33.084  32.650  1.00  0.00     0.031 C 
ATOM     42  C   UNL A   1      38.155  30.464  28.445  1.00  0.00     0.029 A 
ATOM     43  N   UNL A   1      39.482  30.060  30.197  1.00  0.00    -0.354 N 
ATOM     44  C   UNL A   1      38.965  32.208  33.920  1.00  0.00     0.074 A 
ATOM     45  C   UNL A   1      37.897  33.179  33.817  1.00  0.00     0.031 C 
ATOM     46  C   UNL A   1      39.026  29.509  28.078  1.00  0.00     0.029 A 
ATOM     47  C   UNL A   1      39.917  29.219  29.198  1.00  0.00     0.049 A 
ATOM     48  H   UNL A   1      39.901  30.100  31.086  1.00  0.00     0.167 HD
ATOM     49  C   UNL A   1      39.690  31.990  35.045  1.00  0.00     0.037 A 
ATOM     50  C   UNL A   1      40.919  28.317  29.192  1.00  0.00     0.037 A 
ATOM     51  C   UNL A   1      40.738  31.009  35.152  1.00  0.00     0.049 A 
ATOM     52  C   UNL A   1      41.725  28.111  30.451  1.00  0.00     0.074 A 
ATOM     53  C   UNL A   1      41.517  30.692  36.251  1.00  0.00     0.029 A 
ATOM     54  N   UNL A   1      41.150  30.182  34.117  1.00  0.00    -0.354 N 
ATOM     55  N   UNL A   1      41.596  28.688  31.621  1.00  0.00    -0.248 NA
ATOM     56  C   UNL A   1      42.810  27.120  30.391  1.00  0.00     0.031 C 
ATOM     57  C   UNL A   1      42.430  29.703  35.869  1.00  0.00     0.029 A 
ATOM     58  C   UNL A   1      42.183  29.365  34.548  1.00  0.00     0.049 A 
ATOM     59  H   UNL A   1      40.765  30.177  33.211  1.00  0.00     0.167 HD
ATOM     60  C   UNL A   1      42.553  28.107  32.442  1.00  0.00     0.074 A 
ATOM     61  C   UNL A   1      43.244  27.118  31.643  1.00  0.00     0.031 C 
ATOM     62  C   UNL A   1      42.841  28.371  33.740  1.00  0.00     0.037 A 
BRANCH  49  63
ATOM     63  C   UNL A   1      39.366  32.816  36.258  1.00  0.00     0.064 A 
ATOM     64  C   UNL A   1      38.440  32.378  37.217  1.00  0.00     0.173 A 
ATOM     65  C   UNL A   1      40.021  34.035  36.492  1.00  0.00     0.173 A 
ATOM     66  F   UNL A   1      37.777  31.224  37.038  1.00  0.00    -0.203 F 
ATOM     67  C   UNL A   1      38.163  33.140  38.350  1.00  0.00     0.198 A 
ATOM     68  C   UNL A   1      39.764  34.779  37.641  1.00  0.00     0.198 A 
ATOM     69  F   UNL A   1      40.921  34.499  35.613  1.00  0.00    -0.203 F 
ATOM     70  F   UNL A   1      37.239  32.721  39.228  1.00  0.00    -0.200 F 
ATOM     71  C   UNL A   1      38.830  34.335  38.565  1.00  0.00     0.200 A 
ATOM     72  F   UNL A   1      40.422  35.927  37.856  1.00  0.00    -0.200 F 
ATOM     73  F   UNL A   1      38.571  35.061  39.661  1.00  0.00    -0.200 F 
ENDBRANCH  49  63
BRANCH  50  74
ATOM     74  C   UNL A   1      41.218  27.522  27.967  1.00  0.00     0.064 A 
ATOM     75  C   UNL A   1      40.663  26.247  27.774  1.00  0.00     0.173 A 
ATOM     76  C   UNL A   1      42.101  27.996  26.986  1.00  0.00     0.173 A 
ATOM     77  F   UNL A   1      39.829  25.734  28.690  1.00  0.00    -0.203 F 
ATOM     78  C   UNL A   1      41.008  25.467  26.670  1.00  0.00     0.198 A 
ATOM     79  C   UNL A   1      42.418  27.230  25.865  1.00  0.00     0.198 A 
ATOM     80  F   UNL A   1      42.660  29.209  27.115  1.00  0.00    -0.203 F 
ATOM     81  F   UNL A   1      40.514  24.227  26.547  1.00  0.00    -0.200 F 
ATOM     82  C   UNL A   1      41.882  25.961  25.715  1.00  0.00     0.200 A 
ATOM     83  F   UNL A   1      43.253  27.718  24.938  1.00  0.00    -0.200 F 
ATOM     84  F   UNL A   1      42.219  25.209  24.658  1.00  0.00    -0.200 F 
ENDBRANCH  50  74
BRANCH  62  85
ATOM     85  C   UNL A   1      43.915  27.549  34.390  1.00  0.00     0.064 A 
ATOM     86  C   UNL A   1      45.249  27.981  34.436  1.00  0.00     0.173 A 
ATOM     87  C   UNL A   1      43.597  26.333  35.015  1.00  0.00     0.173 A 
ATOM     88  F   UNL A   1      45.608  29.129  33.842  1.00  0.00    -0.203 F 
ATOM     89  C   UNL A   1      46.229  27.212  35.057  1.00  0.00     0.198 A 
ATOM     90  C   UNL A   1      44.572  25.584  35.665  1.00  0.00     0.198 A 
ATOM     91  F   UNL A   1      42.334  25.880  35.008  1.00  0.00    -0.203 F 
ATOM     92  F   UNL A   1      47.506  27.619  35.044  1.00  0.00    -0.200 F 
ATOM     93  C   UNL A   1      45.888  26.019  35.679  1.00  0.00     0.200 A 
ATOM     94  F   UNL A   1      44.238  24.440  36.279  1.00  0.00    -0.200 F 
ATOM     95  F   UNL A   1      46.831  25.285  36.286  1.00  0.00    -0.200 F 
ENDBRANCH  62  85
ENDBRANCH  36  37
ENDBRANCH  28  31
ENDBRANCH  26  27
ENDBRANCH   1  26
TORSDOF 14
ENDMDL
MODEL 2
REMARK VINA RESULT:     -11.6      1.188      2.341
REMARK SMILES CCC[C@@](C)(NC(=O)N1CCN(C)C(=O)C1(C)C)C(=O)NCCCNC(=O)c1ccc(-c2c3nc(c(-c4c(F)c(F)c(F)c(F)c4F)c4ccc([nH]4)c(-c4c(F)c(F)c(F)c(F)c4F)c4nc(c(-c5c(F)c(F)c(F)c(F)c5F)c5ccc2[nH]5)C=C4)C=C3)cc1
REMARK SMILES IDX 23 1 22 2 21 3 19 4 20 5 4 7 5 8 3 9 2 10 1 11 6 12 7 13
REMARK SMILES IDX 8 15 9 16 10 17 16 18 11 19 14 20 17 21 18 22 12 23 15 24
REMARK SMILES IDX 13 25 24 26 25 27 26 28 27 30 28 31 29 32 90 33 30 34 89 35
REMARK SMILES IDX 31 36 32 37 33 38 83 39 34 40 88 41 82 42 84 43 35 44 87 45
REMARK SMILES IDX 81 46 80 47 36 49 68 50 48 51 67 52 49 53 52 54 66 55 85 56
REMARK SMILES IDX 50 57 51 58 65 60 86 61 53 62 37 63 38 64 46 65 39 66 40 67
REMARK SMILES IDX 44 68 47 69 41 70 42 71 45 72 43 73 69 74 70 75 78 76 71 77
REMARK SMILES IDX 72 78 76 79 79 80 73 81 74 82 77 83 75 84 54 85 55 86 63 87
REMARK SMILES IDX 56 88 57 89 61 90 64 91 58 92 59 93 62 94 60 95
REMARK H PARENT 21 6 6 14 25 29 84 48 52 59
REMARK Flexibility Score: inf
ROOT
ATOM      1  C   UNL A   1      31.422  32.046  26.583  1.00  0.00     0.042 C 
ENDROOT
BRANCH   1   2
ATOM      2  C   UNL A   1      31.567  30.540  26.169  1.00  0.00     0.117 C 
BRANCH   2   3
ATOM      3  N   UNL A   1      32.571  29.434  26.489  1.00  0.00    -0.354 N 
ATOM      4  C   UNL A   1      33.261  28.272  26.314  1.00  0.00     0.245 C 
ATOM      5  O   UNL A   1      34.441  28.500  26.675  1.00  0.00    -0.272 OA
ATOM      6  H   UNL A   1      32.950  29.758  27.338  1.00  0.00     0.163 HD
BRANCH   4   7
ATOM      7  C   UNL A   1      33.050  26.796  25.625  1.00  0.00     0.117 C 
ATOM      8  C   UNL A   1      31.510  26.710  25.494  1.00  0.00     0.045 C 
BRANCH   7   9
ATOM      9  C   UNL A   1      33.683  26.755  24.162  1.00  0.00     0.038 C 
BRANCH   9  10
ATOM     10  C   UNL A   1      32.863  26.960  22.877  1.00  0.00    -0.000 C 
ATOM     11  C   UNL A   1      33.052  25.839  21.856  1.00  0.00     0.004 C 
ENDBRANCH   9  10
ENDBRANCH   7   9
BRANCH   7  12
ATOM     12  N   UNL A   1      33.479  25.408  26.154  1.00  0.00    -0.324 N 
ATOM     13  C   UNL A   1      33.005  24.126  25.965  1.00  0.00     0.319 C 
ATOM     14  H   UNL A   1      34.258  25.449  26.755  1.00  0.00     0.166 HD
ATOM     15  O   UNL A   1      32.554  23.526  26.941  1.00  0.00    -0.249 OA
BRANCH  13  16
ATOM     16  N   UNL A   1      33.245  23.478  24.766  1.00  0.00    -0.309 N 
ATOM     17  C   UNL A   1      34.586  23.300  24.268  1.00  0.00     0.144 C 
ATOM     18  C   UNL A   1      32.258  22.625  24.152  1.00  0.00     0.118 C 
ATOM     19  C   UNL A   1      35.062  21.926  24.729  1.00  0.00     0.140 C 
ATOM     20  C   UNL A   1      32.598  21.233  24.851  1.00  0.00     0.247 C 
ATOM     21  C   UNL A   1      31.041  23.548  24.011  1.00  0.00     0.045 C 
ATOM     22  C   UNL A   1      32.405  22.083  22.701  1.00  0.00     0.045 C 
ATOM     23  N   UNL A   1      33.991  20.911  24.812  1.00  0.00    -0.342 N 
ATOM     24  O   UNL A   1      31.778  20.333  25.028  1.00  0.00    -0.272 OA
ATOM     25  C   UNL A   1      34.400  19.521  24.704  1.00  0.00     0.146 C 
ENDBRANCH  13  16
ENDBRANCH   7  12
ENDBRANCH   4   7
ENDBRANCH   2   3
ENDBRANCH   1   2
BRANCH   1  26
ATOM     26  C   UNL A   1      32.631  32.903  27.070  1.00  0.00     0.118 C 
BRANCH  26  27
ATOM     27  N   UNL A   1      32.334  34.217  27.619  1.00  0.00    -0.352 N 
ATOM     28  C   UNL A   1      32.980  34.864  28.655  1.00  0.00     0.251 C 
ATOM     29  H   UNL A   1      31.584  34.702  27.204  1.00  0.00     0.163 HD
ATOM     30  O   UNL A   1      32.569  35.947  29.073  1.00  0.00    -0.269 OA
BRANCH  28  31
ATOM     31  C   UNL A   1      34.162  34.251  29.303  1.00  0.00     0.039 A 
ATOM     32  C   UNL A   1      35.434  34.508  28.779  1.00  0.00     0.014 A 
ATOM     33  C   UNL A   1      34.016  33.367  30.375  1.00  0.00     0.014 A 
ATOM     34  C   UNL A   1      36.562  33.911  29.355  1.00  0.00     0.010 A 
ATOM     35  C   UNL A   1      35.150  32.798  30.971  1.00  0.00     0.010 A 
ATOM     36  C   UNL A   1      36.435  33.055  30.462  1.00  0.00    -0.014 A 
BRANCH  36  37
ATOM     37  C   UNL A   1      37.643  32.392  31.035  1.00  0.00     0.031 A 
ATOM     38  C   UNL A   1      38.134  32.773  32.409  1.00  0.00     0.074 A 
ATOM     39  C   UNL A   1      38.284  31.431  30.338  1.00  0.00     0.049 A 
ATOM     40  N   UNL A   1      39.135  32.287  33.100  1.00  0.00    -0.248 NA
ATOM     41  C   UNL A   1      37.408  33.855  33.094  1.00  0.00     0.031 C 
ATOM     42  C   UNL A   1      37.927  30.992  28.989  1.00  0.00     0.029 A 
ATOM     43  N   UNL A   1      39.361  30.643  30.667  1.00  0.00    -0.354 N 
ATOM     44  C   UNL A   1      39.156  32.998  34.294  1.00  0.00     0.074 A 
ATOM     45  C   UNL A   1      38.109  33.993  34.210  1.00  0.00     0.031 C 
ATOM     46  C   UNL A   1      38.747  29.994  28.617  1.00  0.00     0.029 A 
ATOM     47  C   UNL A   1      39.705  29.738  29.689  1.00  0.00     0.049 A 
ATOM     48  H   UNL A   1      39.841  30.718  31.523  1.00  0.00     0.167 HD
ATOM     49  C   UNL A   1      39.950  32.819  35.378  1.00  0.00     0.037 A 
ATOM     50  C   UNL A   1      40.681  28.808  29.664  1.00  0.00     0.037 A 
ATOM     51  C   UNL A   1      40.978  31.815  35.467  1.00  0.00     0.049 A 
ATOM     52  C   UNL A   1      41.566  28.645  30.876  1.00  0.00     0.074 A 
ATOM     53  C   UNL A   1      41.823  31.533  36.527  1.00  0.00     0.029 A 
ATOM     54  N   UNL A   1      41.296  30.922  34.454  1.00  0.00    -0.354 N 
ATOM     55  N   UNL A   1      41.532  29.287  32.019  1.00  0.00    -0.248 NA
ATOM     56  C   UNL A   1      42.618  27.621  30.797  1.00  0.00     0.031 C 
ATOM     57  C   UNL A   1      42.681  30.500  36.140  1.00  0.00     0.029 A 
ATOM     58  C   UNL A   1      42.335  30.100  34.859  1.00  0.00     0.049 A 
ATOM     59  H   UNL A   1      40.851  30.881  33.577  1.00  0.00     0.167 HD
ATOM     60  C   UNL A   1      42.528  28.722  32.804  1.00  0.00     0.074 A 
ATOM     61  C   UNL A   1      43.137  27.673  32.016  1.00  0.00     0.031 C 
ATOM     62  C   UNL A   1      42.911  29.046  34.064  1.00  0.00     0.037 A 
BRANCH  49  63
ATOM     63  C   UNL A   1      39.732  33.717  36.563  1.00  0.00     0.064 A 
ATOM     64  C   UNL A   1      40.336  34.981  36.646  1.00  0.00     0.173 A 
ATOM     65  C   UNL A   1      38.873  33.334  37.604  1.00  0.00     0.173 A 
ATOM     66  F   UNL A   1      41.175  35.393  35.682  1.00  0.00    -0.203 F 
ATOM     67  C   UNL A   1      40.110  35.816  37.738  1.00  0.00     0.198 A 
ATOM     68  C   UNL A   1      38.624  34.184  38.680  1.00  0.00     0.198 A 
ATOM     69  F   UNL A   1      38.263  32.140  37.574  1.00  0.00    -0.203 F 
ATOM     70  F   UNL A   1      40.736  36.999  37.815  1.00  0.00    -0.200 F 
ATOM     71  C   UNL A   1      39.248  35.421  38.749  1.00  0.00     0.200 A 
ATOM     72  F   UNL A   1      37.780  33.807  39.649  1.00  0.00    -0.200 F 
ATOM     73  F   UNL A   1      39.023  36.230  39.793  1.00  0.00    -0.200 F 
ENDBRANCH  49  63
BRANCH  50  74
ATOM     74  C   UNL A   1      40.874  27.941  28.467  1.00  0.00     0.064 A 
ATOM     75  C   UNL A   1      41.674  28.355  27.390  1.00  0.00     0.173 A 
ATOM     76  C   UNL A   1      40.226  26.702  28.352  1.00  0.00     0.173 A 
ATOM     77  F   UNL A   1      42.300  29.539  27.437  1.00  0.00    -0.203 F 
ATOM     78  C   UNL A   1      41.787  27.582  26.234  1.00  0.00     0.198 A 
ATOM     79  C   UNL A   1      40.368  25.915  27.209  1.00  0.00     0.198 A 
ATOM     80  F   UNL A   1      39.451  26.253  29.351  1.00  0.00    -0.203 F 
ATOM     81  F   UNL A   1      42.503  28.034  25.196  1.00  0.00    -0.200 F 
ATOM     82  C   UNL A   1      41.137  26.361  26.147  1.00  0.00     0.200 A 
ATOM     83  F   UNL A   1      39.749  24.728  27.136  1.00  0.00    -0.200 F 
ATOM     84  F   UNL A   1      41.240  25.622  25.034  1.00  0.00    -0.200 F 
ENDBRANCH  50  74
BRANCH  62  85
ATOM     85  C   UNL A   1      44.006  28.228  34.684  1.00  0.00     0.064 A 
ATOM     86  C   UNL A   1      45.350  28.622  34.615  1.00  0.00     0.173 A 
ATOM     87  C   UNL A   1      43.700  27.057  35.395  1.00  0.00     0.173 A 
ATOM     88  F   UNL A   1      45.698  29.726  33.937  1.00  0.00    -0.203 F 
ATOM     89  C   UNL A   1      46.351  27.858  35.211  1.00  0.00     0.198 A 
ATOM     90  C   UNL A   1      44.699  26.315  36.018  1.00  0.00     0.198 A 
ATOM     91  F   UNL A   1      42.428  26.642  35.498  1.00  0.00    -0.203 F 
ATOM     92  F   UNL A   1      47.634  28.226  35.089  1.00  0.00    -0.200 F 
ATOM     93  C   UNL A   1      46.023  26.711  35.919  1.00  0.00     0.200 A 
ATOM     94  F   UNL A   1      44.378  25.216  36.716  1.00  0.00    -0.200 F 
ATOM     95  F   UNL A   1      46.987  25.983  36.500  1.00  0.00    -0.200 F 
ENDBRANCH  62  85
ENDBRANCH  36  37
ENDBRANCH  28  31
ENDBRANCH  26  27
ENDBRANCH   1  26
TORSDOF 14
ENDMDL
MODEL 3
REMARK VINA RESULT:     -11.6      0.339      1.276
REMARK SMILES CCC[C@@](C)(NC(=O)N1CCN(C)C(=O)C1(C)C)C(=O)NCCCNC(=O)c1ccc(-c2c3nc(c(-c4c(F)c(F)c(F)c(F)c4F)c4ccc([nH]4)c(-c4c(F)c(F)c(F)c(F)c4F)c4nc(c(-c5c(F)c(F)c(F)c(F)c5F)c5ccc2[nH]5)C=C4)C=C3)cc1
REMARK SMILES IDX 23 1 22 2 21 3 19 4 20 5 4 7 5 8 3 9 2 10 1 11 6 12 7 13
REMARK SMILES IDX 8 15 9 16 10 17 16 18 11 19 14 20 17 21 18 22 12 23 15 24
REMARK SMILES IDX 13 25 24 26 25 27 26 28 27 30 28 31 29 32 90 33 30 34 89 35
REMARK SMILES IDX 31 36 32 37 33 38 83 39 34 40 88 41 82 42 84 43 35 44 87 45
REMARK SMILES IDX 81 46 80 47 36 49 68 50 48 51 67 52 49 53 52 54 66 55 85 56
REMARK SMILES IDX 50 57 51 58 65 60 86 61 53 62 37 63 38 64 46 65 39 66 40 67
REMARK SMILES IDX 44 68 47 69 41 70 42 71 45 72 43 73 69 74 70 75 78 76 71 77
REMARK SMILES IDX 72 78 76 79 79 80 73 81 74 82 77 83 75 84 54 85 55 86 63 87
REMARK SMILES IDX 56 88 57 89 61 90 64 91 58 92 59 93 62 94 60 95
REMARK H PARENT 21 6 6 14 25 29 84 48 52 59
REMARK Flexibility Score: inf
ROOT
ATOM      1  C   UNL A   1      31.410  31.484  26.717  1.00  0.00     0.042 C 
ENDROOT
BRANCH   1   2
ATOM      2  C   UNL A   1      31.075  30.769  25.361  1.00  0.00     0.117 C 
BRANCH   2   3
ATOM      3  N   UNL A   1      31.234  29.343  24.835  1.00  0.00    -0.354 N 
ATOM      4  C   UNL A   1      31.834  28.136  24.635  1.00  0.00     0.245 C 
ATOM      5  O   UNL A   1      30.928  27.271  24.710  1.00  0.00    -0.272 OA
ATOM      6  H   UNL A   1      30.392  29.225  24.339  1.00  0.00     0.163 HD
BRANCH   4   7
ATOM      7  C   UNL A   1      33.346  27.506  24.519  1.00  0.00     0.117 C 
ATOM      8  C   UNL A   1      34.083  28.571  23.670  1.00  0.00     0.045 C 
BRANCH   7   9
ATOM      9  C   UNL A   1      34.043  27.433  25.952  1.00  0.00     0.038 C 
BRANCH   9  10
ATOM     10  C   UNL A   1      33.712  28.396  27.105  1.00  0.00    -0.000 C 
ATOM     11  C   UNL A   1      34.821  29.412  27.378  1.00  0.00     0.004 C 
ENDBRANCH   9  10
ENDBRANCH   7   9
BRANCH   7  12
ATOM     12  N   UNL A   1      33.790  26.151  23.923  1.00  0.00    -0.324 N 
ATOM     13  C   UNL A   1      33.764  24.851  24.385  1.00  0.00     0.319 C 
ATOM     14  H   UNL A   1      34.174  26.234  23.020  1.00  0.00     0.166 HD
ATOM     15  O   UNL A   1      34.840  24.276  24.555  1.00  0.00    -0.249 OA
BRANCH  13  16
ATOM     16  N   UNL A   1      32.563  24.166  24.432  1.00  0.00    -0.309 N 
ATOM     17  C   UNL A   1      31.864  23.798  23.225  1.00  0.00     0.144 C 
ATOM     18  C   UNL A   1      32.139  23.453  25.612  1.00  0.00     0.118 C 
ATOM     19  C   UNL A   1      32.287  22.375  22.873  1.00  0.00     0.140 C 
ATOM     20  C   UNL A   1      32.818  22.033  25.356  1.00  0.00     0.247 C 
ATOM     21  C   UNL A   1      32.165  24.535  26.698  1.00  0.00     0.045 C 
ATOM     22  C   UNL A   1      30.701  22.884  25.776  1.00  0.00     0.045 C 
ATOM     23  N   UNL A   1      32.569  21.520  24.045  1.00  0.00    -0.342 N 
ATOM     24  O   UNL A   1      33.151  21.258  26.253  1.00  0.00    -0.272 OA
ATOM     25  C   UNL A   1      32.441  20.086  23.852  1.00  0.00     0.146 C 
ENDBRANCH  13  16
ENDBRANCH   7  12
ENDBRANCH   4   7
ENDBRANCH   2   3
ENDBRANCH   1   2
BRANCH   1  26
ATOM     26  C   UNL A   1      32.650  32.415  26.890  1.00  0.00     0.118 C 
BRANCH  26  27
ATOM     27  N   UNL A   1      32.403  33.762  27.383  1.00  0.00    -0.352 N 
ATOM     28  C   UNL A   1      33.086  34.433  28.378  1.00  0.00     0.251 C 
ATOM     29  H   UNL A   1      31.661  34.251  26.959  1.00  0.00     0.163 HD
ATOM     30  O   UNL A   1      32.717  35.547  28.753  1.00  0.00    -0.269 OA
BRANCH  28  31
ATOM     31  C   UNL A   1      34.260  33.813  29.035  1.00  0.00     0.039 A 
ATOM     32  C   UNL A   1      35.542  34.273  28.712  1.00  0.00     0.014 A 
ATOM     33  C   UNL A   1      34.106  32.733  29.908  1.00  0.00     0.014 A 
ATOM     34  C   UNL A   1      36.666  33.676  29.296  1.00  0.00     0.010 A 
ATOM     35  C   UNL A   1      35.233  32.160  30.516  1.00  0.00     0.010 A 
ATOM     36  C   UNL A   1      36.525  32.619  30.210  1.00  0.00    -0.014 A 
BRANCH  36  37
ATOM     37  C   UNL A   1      37.737  31.965  30.787  1.00  0.00     0.031 A 
ATOM     38  C   UNL A   1      38.189  32.312  32.183  1.00  0.00     0.074 A 
ATOM     39  C   UNL A   1      38.415  31.043  30.073  1.00  0.00     0.049 A 
ATOM     40  N   UNL A   1      39.188  31.827  32.879  1.00  0.00    -0.248 NA
ATOM     41  C   UNL A   1      37.424  33.354  32.887  1.00  0.00     0.031 C 
ATOM     42  C   UNL A   1      38.097  30.641  28.703  1.00  0.00     0.029 A 
ATOM     43  N   UNL A   1      39.503  30.270  30.400  1.00  0.00    -0.354 N 
ATOM     44  C   UNL A   1      39.166  32.499  34.096  1.00  0.00     0.074 A 
ATOM     45  C   UNL A   1      38.097  33.471  34.022  1.00  0.00     0.031 C 
ATOM     46  C   UNL A   1      38.948  29.675  28.317  1.00  0.00     0.029 A 
ATOM     47  C   UNL A   1      39.889  29.406  29.401  1.00  0.00     0.049 A 
ATOM     48  H   UNL A   1      39.963  30.327  31.268  1.00  0.00     0.167 HD
ATOM     49  C   UNL A   1      39.942  32.302  35.190  1.00  0.00     0.037 A 
ATOM     50  C   UNL A   1      40.887  28.499  29.367  1.00  0.00     0.037 A 
ATOM     51  C   UNL A   1      40.991  31.319  35.269  1.00  0.00     0.049 A 
ATOM     52  C   UNL A   1      41.750  28.318  30.591  1.00  0.00     0.074 A 
ATOM     53  C   UNL A   1      41.820  31.023  36.338  1.00  0.00     0.029 A 
ATOM     54  N   UNL A   1      41.352  30.469  34.235  1.00  0.00    -0.354 N 
ATOM     55  N   UNL A   1      41.677  28.920  31.753  1.00  0.00    -0.248 NA
ATOM     56  C   UNL A   1      42.828  27.321  30.503  1.00  0.00     0.031 C 
ATOM     57  C   UNL A   1      42.711  30.023  35.935  1.00  0.00     0.029 A 
ATOM     58  C   UNL A   1      42.402  29.658  34.635  1.00  0.00     0.049 A 
ATOM     59  H   UNL A   1      40.926  30.446  33.348  1.00  0.00     0.167 HD
ATOM     60  C   UNL A   1      42.670  28.353  32.542  1.00  0.00     0.074 A 
ATOM     61  C   UNL A   1      43.321  27.345  31.733  1.00  0.00     0.031 C 
ATOM     62  C   UNL A   1      43.019  28.644  33.819  1.00  0.00     0.037 A 
BRANCH  49  63
ATOM     63  C   UNL A   1      39.677  33.155  36.399  1.00  0.00     0.064 A 
ATOM     64  C   UNL A   1      38.795  32.741  37.409  1.00  0.00     0.173 A 
ATOM     65  C   UNL A   1      40.346  34.376  36.576  1.00  0.00     0.173 A 
ATOM     66  F   UNL A   1      38.122  31.587  37.285  1.00  0.00    -0.203 F 
ATOM     67  C   UNL A   1      38.573  33.528  38.537  1.00  0.00     0.198 A 
ATOM     68  C   UNL A   1      40.146  35.146  37.720  1.00  0.00     0.198 A 
ATOM     69  F   UNL A   1      41.206  34.817  35.646  1.00  0.00    -0.203 F 
ATOM     70  F   UNL A   1      37.690  33.132  39.465  1.00  0.00    -0.200 F 
ATOM     71  C   UNL A   1      39.254  34.725  38.695  1.00  0.00     0.200 A 
ATOM     72  F   UNL A   1      40.816  36.295  37.878  1.00  0.00    -0.200 F 
ATOM     73  F   UNL A   1      39.047  35.476  39.786  1.00  0.00    -0.200 F 
ENDBRANCH  49  63
BRANCH  50  74
ATOM     74  C   UNL A   1      41.126  27.677  28.147  1.00  0.00     0.064 A 
ATOM     75  C   UNL A   1      40.570  26.395  28.013  1.00  0.00     0.173 A 
ATOM     76  C   UNL A   1      41.954  28.132  27.110  1.00  0.00     0.173 A 
ATOM     77  F   UNL A   1      39.788  25.900  28.983  1.00  0.00    -0.203 F 
ATOM     78  C   UNL A   1      40.861  25.591  26.911  1.00  0.00     0.198 A 
ATOM     79  C   UNL A   1      42.217  27.341  25.992  1.00  0.00     0.198 A 
ATOM     80  F   UNL A   1      42.512  29.351  27.182  1.00  0.00    -0.203 F 
ATOM     81  F   UNL A   1      40.369  24.347  26.843  1.00  0.00    -0.200 F 
ATOM     82  C   UNL A   1      41.682  26.066  25.900  1.00  0.00     0.200 A 
ATOM     83  F   UNL A   1      42.999  27.812  25.012  1.00  0.00    -0.200 F 
ATOM     84  F   UNL A   1      41.967  25.292  24.845  1.00  0.00    -0.200 F 
ENDBRANCH  50  74
BRANCH  62  85
ATOM     85  C   UNL A   1      44.120  27.832  34.436  1.00  0.00     0.064 A 
ATOM     86  C   UNL A   1      43.866  26.613  35.080  1.00  0.00     0.173 A 
ATOM     87  C   UNL A   1      45.454  28.259  34.341  1.00  0.00     0.173 A 
ATOM     88  F   UNL A   1      42.607  26.166  35.210  1.00  0.00    -0.203 F 
ATOM     89  C   UNL A   1      44.903  25.865  35.632  1.00  0.00     0.198 A 
ATOM     90  C   UNL A   1      46.491  27.493  34.863  1.00  0.00     0.198 A 
ATOM     91  F   UNL A   1      45.751  29.414  33.726  1.00  0.00    -0.203 F 
ATOM     92  F   UNL A   1      44.631  24.728  36.288  1.00  0.00    -0.200 F 
ATOM     93  C   UNL A   1      46.214  26.301  35.515  1.00  0.00     0.200 A 
ATOM     94  F   UNL A   1      47.759  27.909  34.735  1.00  0.00    -0.200 F 
ATOM     95  F   UNL A   1      47.212  25.576  36.038  1.00  0.00    -0.200 F 
ENDBRANCH  62  85
ENDBRANCH  36  37
ENDBRANCH  28  31
ENDBRANCH  26  27
ENDBRANCH   1  26
TORSDOF 14
ENDMDL
