MODEL 1
REMARK VINA RESULT:     -12.8      0.000      0.000
REMARK SMILES Cc1cccc2c(C(=O)NCCCNC(=O)c3ccc(-c4c5nc(c(-c6c(F)c(F)c(F)c(F)c6F)c6ccc([nH]6)c(-c6c(F)c(F)c(F)c(F)c6F)c6nc(c(-c7c(F)c(F)c(F)c(F)c7F)c7ccc4[nH]7)C=C6)C=C5)cc3)cc(=O)[nH]c12
REMARK SMILES IDX 13 1 12 2 11 3 10 4 8 5 9 6 7 8 1 9 2 10 3 11 84 12 4 13
REMARK SMILES IDX 6 14 83 15 5 16 81 17 80 19 82 20 14 21 15 22 16 24 17 25
REMARK SMILES IDX 18 26 79 27 19 28 78 29 20 30 21 31 22 32 72 33 23 34 77 35
REMARK SMILES IDX 71 36 73 37 24 38 76 39 70 40 69 41 25 43 57 44 37 45 56 46
REMARK SMILES IDX 38 47 41 48 55 49 74 50 39 51 40 52 54 54 75 55 42 56 26 57
REMARK SMILES IDX 27 58 35 59 28 60 29 61 33 62 36 63 30 64 31 65 34 66 32 67
REMARK SMILES IDX 58 68 59 69 67 70 60 71 61 72 65 73 68 74 62 75 63 76 66 77
REMARK SMILES IDX 64 78 43 79 44 80 52 81 45 82 46 83 50 84 53 85 47 86 48 87
REMARK SMILES IDX 51 88 49 89
REMARK H PARENT 10 7 83 18 14 23 73 42 41 53
REMARK Flexibility Score: inf
ROOT
ATOM      1  C   UNL A   1      32.619  32.769  27.309  1.00  0.00     0.118 C 
ENDROOT
BRANCH   1   2
ATOM      2  C   UNL A   1      31.425  32.178  26.563  1.00  0.00     0.042 C 
BRANCH   2   3
ATOM      3  C   UNL A   1      31.643  30.721  26.151  1.00  0.00     0.118 C 
BRANCH   3   4
ATOM      4  N   UNL A   1      32.958  30.274  26.577  1.00  0.00    -0.352 N 
ATOM      5  C   UNL A   1      33.767  29.226  26.267  1.00  0.00     0.252 C 
ATOM      6  O   UNL A   1      34.747  29.109  27.007  1.00  0.00    -0.269 OA
ATOM      7  H   UNL A   1      33.358  30.871  27.249  1.00  0.00     0.163 HD
BRANCH   5   8
ATOM      8  C   UNL A   1      33.557  28.307  25.089  1.00  0.00     0.054 A 
ATOM      9  C   UNL A   1      32.261  23.888  22.975  1.00  0.00     0.046 C 
ATOM     10  C   UNL A   1      32.292  24.817  24.157  1.00  0.00    -0.027 A 
ATOM     11  C   UNL A   1      31.683  24.411  25.350  1.00  0.00     0.005 A 
ATOM     12  C   UNL A   1      32.873  26.100  24.095  1.00  0.00     0.052 A 
ATOM     13  C   UNL A   1      31.692  25.245  26.460  1.00  0.00     0.001 A 
ATOM     14  C   UNL A   1      32.921  26.955  25.220  1.00  0.00     0.011 A 
ATOM     15  N   UNL A   1      33.375  26.562  22.872  1.00  0.00    -0.322 N 
ATOM     16  C   UNL A   1      32.319  26.491  26.400  1.00  0.00     0.011 A 
ATOM     17  C   UNL A   1      33.835  27.824  22.673  1.00  0.00     0.249 A 
ATOM     18  H   UNL A   1      33.397  25.936  22.113  1.00  0.00     0.170 HD
ATOM     19  C   UNL A   1      33.867  28.713  23.847  1.00  0.00     0.086 A 
ATOM     20  O   UNL A   1      34.228  28.220  21.585  1.00  0.00    -0.270 OA
ENDBRANCH   5   8
ENDBRANCH   3   4
ENDBRANCH   2   3
ENDBRANCH   1   2
BRANCH   1  21
ATOM     21  N   UNL A   1      32.425  34.177  27.633  1.00  0.00    -0.352 N 
ATOM     22  C   UNL A   1      33.020  34.949  28.602  1.00  0.00     0.251 C 
ATOM     23  H   UNL A   1      31.767  34.648  27.072  1.00  0.00     0.163 HD
ATOM     24  O   UNL A   1      32.562  36.054  28.875  1.00  0.00    -0.269 OA
BRANCH  22  25
ATOM     25  C   UNL A   1      34.200  34.438  29.328  1.00  0.00     0.039 A 
ATOM     26  C   UNL A   1      35.478  34.591  28.789  1.00  0.00     0.014 A 
ATOM     27  C   UNL A   1      34.026  33.795  30.557  1.00  0.00     0.014 A 
ATOM     28  C   UNL A   1      36.554  33.941  29.379  1.00  0.00     0.010 A 
ATOM     29  C   UNL A   1      35.129  33.229  31.201  1.00  0.00     0.010 A 
ATOM     30  C   UNL A   1      36.393  33.252  30.592  1.00  0.00    -0.014 A 
BRANCH  30  31
ATOM     31  C   UNL A   1      37.559  32.553  31.191  1.00  0.00     0.031 A 
ATOM     32  C   UNL A   1      38.029  32.897  32.579  1.00  0.00     0.074 A 
ATOM     33  C   UNL A   1      38.155  31.561  30.501  1.00  0.00     0.049 A 
ATOM     34  N   UNL A   1      39.024  32.389  33.263  1.00  0.00    -0.248 NA
ATOM     35  C   UNL A   1      37.290  33.949  33.294  1.00  0.00     0.031 C 
ATOM     36  C   UNL A   1      37.772  31.124  29.157  1.00  0.00     0.029 A 
ATOM     37  N   UNL A   1      39.186  30.723  30.841  1.00  0.00    -0.354 N 
ATOM     38  C   UNL A   1      39.039  33.068  34.475  1.00  0.00     0.074 A 
ATOM     39  C   UNL A   1      37.979  34.051  34.422  1.00  0.00     0.031 C 
ATOM     40  C   UNL A   1      38.516  30.065  28.810  1.00  0.00     0.029 A 
ATOM     41  C   UNL A   1      39.480  29.795  29.871  1.00  0.00     0.049 A 
ATOM     42  H   UNL A   1      39.669  30.780  31.697  1.00  0.00     0.167 HD
ATOM     43  C   UNL A   1      39.853  32.874  35.540  1.00  0.00     0.037 A 
ATOM     44  C   UNL A   1      40.432  28.845  29.830  1.00  0.00     0.037 A 
ATOM     45  C   UNL A   1      40.892  31.878  35.593  1.00  0.00     0.049 A 
ATOM     46  C   UNL A   1      41.363  28.697  31.000  1.00  0.00     0.074 A 
ATOM     47  C   UNL A   1      41.760  31.593  36.632  1.00  0.00     0.029 A 
ATOM     48  N   UNL A   1      41.201  31.001  34.562  1.00  0.00    -0.354 N 
ATOM     49  N   UNL A   1      41.365  29.341  32.140  1.00  0.00    -0.248 NA
ATOM     50  C   UNL A   1      42.431  27.697  30.873  1.00  0.00     0.031 C 
ATOM     51  C   UNL A   1      42.630  30.583  36.212  1.00  0.00     0.029 A 
ATOM     52  C   UNL A   1      42.265  30.194  34.933  1.00  0.00     0.049 A 
ATOM     53  H   UNL A   1      40.734  30.958  33.697  1.00  0.00     0.167 HD
ATOM     54  C   UNL A   1      42.418  28.817  32.874  1.00  0.00     0.074 A 
ATOM     55  C   UNL A   1      43.020  27.783  32.058  1.00  0.00     0.031 C 
ATOM     56  C   UNL A   1      42.852  29.166  34.110  1.00  0.00     0.037 A 
BRANCH  43  57
ATOM     57  C   UNL A   1      39.666  33.756  36.742  1.00  0.00     0.064 A 
ATOM     58  C   UNL A   1      40.229  35.039  36.809  1.00  0.00     0.173 A 
ATOM     59  C   UNL A   1      38.849  33.343  37.807  1.00  0.00     0.173 A 
ATOM     60  F   UNL A   1      41.027  35.478  35.823  1.00  0.00    -0.203 F 
ATOM     61  C   UNL A   1      39.994  35.869  37.902  1.00  0.00     0.198 A 
ATOM     62  C   UNL A   1      38.592  34.188  38.884  1.00  0.00     0.198 A 
ATOM     63  F   UNL A   1      38.280  32.129  37.792  1.00  0.00    -0.203 F 
ATOM     64  F   UNL A   1      40.571  37.078  37.960  1.00  0.00    -0.200 F 
ATOM     65  C   UNL A   1      39.167  35.449  38.933  1.00  0.00     0.200 A 
ATOM     66  F   UNL A   1      37.779  33.785  39.871  1.00  0.00    -0.200 F 
ATOM     67  F   UNL A   1      38.926  36.257  39.974  1.00  0.00    -0.200 F 
ENDBRANCH  43  57
BRANCH  44  68
ATOM     68  C   UNL A   1      40.545  27.967  28.635  1.00  0.00     0.064 A 
ATOM     69  C   UNL A   1      39.874  26.739  28.578  1.00  0.00     0.173 A 
ATOM     70  C   UNL A   1      41.297  28.353  27.515  1.00  0.00     0.173 A 
ATOM     71  F   UNL A   1      39.159  26.317  29.631  1.00  0.00    -0.203 F 
ATOM     72  C   UNL A   1      39.955  25.928  27.448  1.00  0.00     0.198 A 
ATOM     73  C   UNL A   1      41.350  27.557  26.373  1.00  0.00     0.198 A 
ATOM     74  F   UNL A   1      41.955  29.522  27.516  1.00  0.00    -0.203 F 
ATOM     75  F   UNL A   1      39.332  24.741  27.432  1.00  0.00    -0.200 F 
ATOM     76  C   UNL A   1      40.683  26.342  26.343  1.00  0.00     0.200 A 
ATOM     77  F   UNL A   1      42.038  27.971  25.301  1.00  0.00    -0.200 F 
ATOM     78  F   UNL A   1      40.746  25.568  25.250  1.00  0.00    -0.200 F 
ENDBRANCH  44  68
BRANCH  56  79
ATOM     79  C   UNL A   1      44.025  28.415  34.671  1.00  0.00     0.064 A 
ATOM     80  C   UNL A   1      45.335  28.894  34.533  1.00  0.00     0.173 A 
ATOM     81  C   UNL A   1      43.829  27.241  35.416  1.00  0.00     0.173 A 
ATOM     82  F   UNL A   1      45.577  30.004  33.818  1.00  0.00    -0.203 F 
ATOM     83  C   UNL A   1      46.408  28.217  35.106  1.00  0.00     0.198 A 
ATOM     84  C   UNL A   1      44.900  26.586  36.014  1.00  0.00     0.198 A 
ATOM     85  F   UNL A   1      42.593  26.746  35.584  1.00  0.00    -0.203 F 
ATOM     86  F   UNL A   1      47.656  28.671  34.927  1.00  0.00    -0.200 F 
ATOM     87  C   UNL A   1      46.189  27.071  35.854  1.00  0.00     0.200 A 
ATOM     88  F   UNL A   1      44.684  25.489  36.753  1.00  0.00    -0.200 F 
ATOM     89  F   UNL A   1      47.222  26.431  36.421  1.00  0.00    -0.200 F 
ENDBRANCH  56  79
ENDBRANCH  30  31
ENDBRANCH  22  25
ENDBRANCH   1  21
TORSDOF 10
ENDMDL
MODEL 2
REMARK VINA RESULT:     -12.8      0.821      1.418
REMARK SMILES Cc1cccc2c(C(=O)NCCCNC(=O)c3ccc(-c4c5nc(c(-c6c(F)c(F)c(F)c(F)c6F)c6ccc([nH]6)c(-c6c(F)c(F)c(F)c(F)c6F)c6nc(c(-c7c(F)c(F)c(F)c(F)c7F)c7ccc4[nH]7)C=C6)C=C5)cc3)cc(=O)[nH]c12
REMARK SMILES IDX 13 1 12 2 11 3 10 4 8 5 9 6 7 8 1 9 2 10 3 11 84 12 4 13
REMARK SMILES IDX 6 14 83 15 5 16 81 17 80 19 82 20 14 21 15 22 16 24 17 25
REMARK SMILES IDX 18 26 79 27 19 28 78 29 20 30 21 31 22 32 72 33 23 34 77 35
REMARK SMILES IDX 71 36 73 37 24 38 76 39 70 40 69 41 25 43 57 44 37 45 56 46
REMARK SMILES IDX 38 47 41 48 55 49 74 50 39 51 40 52 54 54 75 55 42 56 26 57
REMARK SMILES IDX 27 58 35 59 28 60 29 61 33 62 36 63 30 64 31 65 34 66 32 67
REMARK SMILES IDX 58 68 59 69 67 70 60 71 61 72 65 73 68 74 62 75 63 76 66 77
REMARK SMILES IDX 64 78 43 79 44 80 52 81 45 82 46 83 50 84 53 85 47 86 48 87
REMARK SMILES IDX 51 88 49 89
REMARK H PARENT 10 7 83 18 14 23 73 42 41 53
REMARK Flexibility Score: inf
ROOT
ATOM      1  C   UNL A   1      32.672  32.884  27.284  1.00  0.00     0.118 C 
ENDROOT
BRANCH   1   2
ATOM      2  C   UNL A   1      31.443  32.262  26.623  1.00  0.00     0.042 C 
BRANCH   2   3
ATOM      3  C   UNL A   1      31.586  30.756  26.403  1.00  0.00     0.118 C 
BRANCH   3   4
ATOM      4  N   UNL A   1      32.874  30.299  26.894  1.00  0.00    -0.352 N 
ATOM      5  C   UNL A   1      33.513  29.100  26.956  1.00  0.00     0.252 C 
ATOM      6  O   UNL A   1      34.544  29.112  27.633  1.00  0.00    -0.269 OA
ATOM      7  H   UNL A   1      33.413  31.031  27.272  1.00  0.00     0.163 HD
BRANCH   5   8
ATOM      8  C   UNL A   1      33.069  27.860  26.222  1.00  0.00     0.054 A 
ATOM      9  C   UNL A   1      32.190  25.158  22.026  1.00  0.00     0.046 C 
ATOM     10  C   UNL A   1      32.800  26.347  22.716  1.00  0.00    -0.027 A 
ATOM     11  C   UNL A   1      33.552  27.252  21.961  1.00  0.00     0.005 A 
ATOM     12  C   UNL A   1      32.680  26.558  24.106  1.00  0.00     0.052 A 
ATOM     13  C   UNL A   1      34.131  28.359  22.567  1.00  0.00     0.001 A 
ATOM     14  C   UNL A   1      33.236  27.692  24.740  1.00  0.00     0.011 A 
ATOM     15  N   UNL A   1      32.034  25.592  24.888  1.00  0.00    -0.322 N 
ATOM     16  C   UNL A   1      33.958  28.585  23.935  1.00  0.00     0.011 A 
ATOM     17  C   UNL A   1      31.978  25.633  26.244  1.00  0.00     0.249 A 
ATOM     18  H   UNL A   1      31.595  24.840  24.429  1.00  0.00     0.170 HD
ATOM     19  C   UNL A   1      32.573  26.811  26.899  1.00  0.00     0.086 A 
ATOM     20  O   UNL A   1      31.447  24.756  26.910  1.00  0.00    -0.270 OA
ENDBRANCH   5   8
ENDBRANCH   3   4
ENDBRANCH   2   3
ENDBRANCH   1   2
BRANCH   1  21
ATOM     21  N   UNL A   1      32.456  34.279  27.646  1.00  0.00    -0.352 N 
ATOM     22  C   UNL A   1      33.029  35.030  28.645  1.00  0.00     0.251 C 
ATOM     23  H   UNL A   1      31.800  34.759  27.091  1.00  0.00     0.163 HD
ATOM     24  O   UNL A   1      32.554  36.121  28.944  1.00  0.00    -0.269 OA
BRANCH  22  25
ATOM     25  C   UNL A   1      34.206  34.513  29.371  1.00  0.00     0.039 A 
ATOM     26  C   UNL A   1      35.485  34.656  28.831  1.00  0.00     0.014 A 
ATOM     27  C   UNL A   1      34.030  33.873  30.601  1.00  0.00     0.014 A 
ATOM     28  C   UNL A   1      36.557  33.999  29.421  1.00  0.00     0.010 A 
ATOM     29  C   UNL A   1      35.129  33.300  31.246  1.00  0.00     0.010 A 
ATOM     30  C   UNL A   1      36.393  33.313  30.635  1.00  0.00    -0.014 A 
BRANCH  30  31
ATOM     31  C   UNL A   1      37.555  32.608  31.234  1.00  0.00     0.031 A 
ATOM     32  C   UNL A   1      38.023  32.946  32.624  1.00  0.00     0.074 A 
ATOM     33  C   UNL A   1      38.148  31.615  30.543  1.00  0.00     0.049 A 
ATOM     34  N   UNL A   1      39.014  32.431  33.308  1.00  0.00    -0.248 NA
ATOM     35  C   UNL A   1      37.287  33.999  33.341  1.00  0.00     0.031 C 
ATOM     36  C   UNL A   1      37.765  31.184  29.197  1.00  0.00     0.029 A 
ATOM     37  N   UNL A   1      39.174  30.771  30.882  1.00  0.00    -0.354 N 
ATOM     38  C   UNL A   1      39.030  33.107  34.523  1.00  0.00     0.074 A 
ATOM     39  C   UNL A   1      37.974  34.094  34.471  1.00  0.00     0.031 C 
ATOM     40  C   UNL A   1      38.505  30.123  28.848  1.00  0.00     0.029 A 
ATOM     41  C   UNL A   1      39.466  29.845  29.910  1.00  0.00     0.049 A 
ATOM     42  H   UNL A   1      39.655  30.824  31.739  1.00  0.00     0.167 HD
ATOM     43  C   UNL A   1      39.841  32.906  35.588  1.00  0.00     0.037 A 
ATOM     44  C   UNL A   1      40.414  28.892  29.868  1.00  0.00     0.037 A 
ATOM     45  C   UNL A   1      40.875  31.905  35.640  1.00  0.00     0.049 A 
ATOM     46  C   UNL A   1      41.342  28.736  31.039  1.00  0.00     0.074 A 
ATOM     47  C   UNL A   1      41.740  31.614  36.680  1.00  0.00     0.029 A 
ATOM     48  N   UNL A   1      41.183  31.030  34.608  1.00  0.00    -0.354 N 
ATOM     49  N   UNL A   1      41.344  29.377  32.182  1.00  0.00    -0.248 NA
ATOM     50  C   UNL A   1      42.406  27.731  30.912  1.00  0.00     0.031 C 
ATOM     51  C   UNL A   1      42.606  30.601  36.260  1.00  0.00     0.029 A 
ATOM     52  C   UNL A   1      42.243  30.217  34.978  1.00  0.00     0.049 A 
ATOM     53  H   UNL A   1      40.718  30.992  33.742  1.00  0.00     0.167 HD
ATOM     54  C   UNL A   1      42.394  28.845  32.916  1.00  0.00     0.074 A 
ATOM     55  C   UNL A   1      42.993  27.811  32.098  1.00  0.00     0.031 C 
ATOM     56  C   UNL A   1      42.827  29.189  34.154  1.00  0.00     0.037 A 
BRANCH  43  57
ATOM     57  C   UNL A   1      39.655  33.785  36.793  1.00  0.00     0.064 A 
ATOM     58  C   UNL A   1      40.221  35.067  36.863  1.00  0.00     0.173 A 
ATOM     59  C   UNL A   1      38.838  33.371  37.857  1.00  0.00     0.173 A 
ATOM     60  F   UNL A   1      41.018  35.508  35.878  1.00  0.00    -0.203 F 
ATOM     61  C   UNL A   1      39.987  35.895  37.958  1.00  0.00     0.198 A 
ATOM     62  C   UNL A   1      38.583  34.213  38.936  1.00  0.00     0.198 A 
ATOM     63  F   UNL A   1      38.267  32.158  37.839  1.00  0.00    -0.203 F 
ATOM     64  F   UNL A   1      40.565  37.103  38.019  1.00  0.00    -0.200 F 
ATOM     65  C   UNL A   1      39.160  35.474  38.988  1.00  0.00     0.200 A 
ATOM     66  F   UNL A   1      37.769  33.810  39.922  1.00  0.00    -0.200 F 
ATOM     67  F   UNL A   1      38.920  36.279  40.031  1.00  0.00    -0.200 F 
ENDBRANCH  43  57
BRANCH  44  68
ATOM     68  C   UNL A   1      40.525  28.017  28.671  1.00  0.00     0.064 A 
ATOM     69  C   UNL A   1      39.852  26.790  28.611  1.00  0.00     0.173 A 
ATOM     70  C   UNL A   1      41.278  28.404  27.552  1.00  0.00     0.173 A 
ATOM     71  F   UNL A   1      39.136  26.366  29.662  1.00  0.00    -0.203 F 
ATOM     72  C   UNL A   1      39.932  25.981  27.478  1.00  0.00     0.198 A 
ATOM     73  C   UNL A   1      41.330  27.610  26.408  1.00  0.00     0.198 A 
ATOM     74  F   UNL A   1      41.938  29.572  27.556  1.00  0.00    -0.203 F 
ATOM     75  F   UNL A   1      39.307  24.796  27.460  1.00  0.00    -0.200 F 
ATOM     76  C   UNL A   1      40.661  26.397  26.375  1.00  0.00     0.200 A 
ATOM     77  F   UNL A   1      42.018  28.027  25.337  1.00  0.00    -0.200 F 
ATOM     78  F   UNL A   1      40.722  25.626  25.280  1.00  0.00    -0.200 F 
ENDBRANCH  44  68
BRANCH  56  79
ATOM     79  C   UNL A   1      43.995  28.431  34.715  1.00  0.00     0.064 A 
ATOM     80  C   UNL A   1      45.308  28.906  34.583  1.00  0.00     0.173 A 
ATOM     81  C   UNL A   1      43.792  27.255  35.454  1.00  0.00     0.173 A 
ATOM     82  F   UNL A   1      45.555  30.019  33.874  1.00  0.00    -0.203 F 
ATOM     83  C   UNL A   1      46.376  28.223  35.156  1.00  0.00     0.198 A 
ATOM     84  C   UNL A   1      44.860  26.593  36.052  1.00  0.00     0.198 A 
ATOM     85  F   UNL A   1      42.554  26.763  35.615  1.00  0.00    -0.203 F 
ATOM     86  F   UNL A   1      47.627  28.674  34.984  1.00  0.00    -0.200 F 
ATOM     87  C   UNL A   1      46.151  27.074  35.899  1.00  0.00     0.200 A 
ATOM     88  F   UNL A   1      44.637  25.493  36.785  1.00  0.00    -0.200 F 
ATOM     89  F   UNL A   1      47.179  26.427  36.465  1.00  0.00    -0.200 F 
ENDBRANCH  56  79
ENDBRANCH  30  31
ENDBRANCH  22  25
ENDBRANCH   1  21
TORSDOF 10
ENDMDL
MODEL 3
REMARK VINA RESULT:     -12.8      0.148      1.168
REMARK SMILES Cc1cccc2c(C(=O)NCCCNC(=O)c3ccc(-c4c5nc(c(-c6c(F)c(F)c(F)c(F)c6F)c6ccc([nH]6)c(-c6c(F)c(F)c(F)c(F)c6F)c6nc(c(-c7c(F)c(F)c(F)c(F)c7F)c7ccc4[nH]7)C=C6)C=C5)cc3)cc(=O)[nH]c12
REMARK SMILES IDX 13 1 12 2 11 3 10 4 8 5 9 6 7 8 1 9 2 10 3 11 84 12 4 13
REMARK SMILES IDX 6 14 83 15 5 16 81 17 80 19 82 20 14 21 15 22 16 24 17 25
REMARK SMILES IDX 18 26 79 27 19 28 78 29 20 30 21 31 22 32 72 33 23 34 77 35
REMARK SMILES IDX 71 36 73 37 24 38 76 39 70 40 69 41 25 43 57 44 37 45 56 46
REMARK SMILES IDX 38 47 41 48 55 49 74 50 39 51 40 52 54 54 75 55 42 56 26 57
REMARK SMILES IDX 27 58 35 59 28 60 29 61 33 62 36 63 30 64 31 65 34 66 32 67
REMARK SMILES IDX 58 68 59 69 67 70 60 71 61 72 65 73 68 74 62 75 63 76 66 77
REMARK SMILES IDX 64 78 43 79 44 80 52 81 45 82 46 83 50 84 53 85 47 86 48 87
REMARK SMILES IDX 51 88 49 89
REMARK H PARENT 10 7 83 18 14 23 73 42 41 53
REMARK Flexibility Score: inf
ROOT
ATOM      1  C   UNL A   1      32.554  32.769  27.312  1.00  0.00     0.118 C 
ENDROOT
BRANCH   1   2
ATOM      2  C   UNL A   1      31.383  32.172  26.535  1.00  0.00     0.042 C 
BRANCH   2   3
ATOM      3  C   UNL A   1      31.616  30.714  26.137  1.00  0.00     0.118 C 
BRANCH   3   4
ATOM      4  N   UNL A   1      32.940  30.288  26.554  1.00  0.00    -0.352 N 
ATOM      5  C   UNL A   1      33.763  29.251  26.243  1.00  0.00     0.252 C 
ATOM      6  O   UNL A   1      34.750  29.152  26.976  1.00  0.00    -0.269 OA
ATOM      7  H   UNL A   1      33.338  30.895  27.219  1.00  0.00     0.163 HD
BRANCH   5   8
ATOM      8  C   UNL A   1      33.556  28.321  25.073  1.00  0.00     0.054 A 
ATOM      9  C   UNL A   1      32.278  23.881  22.994  1.00  0.00     0.046 C 
ATOM     10  C   UNL A   1      32.306  24.818  24.169  1.00  0.00    -0.027 A 
ATOM     11  C   UNL A   1      31.699  24.419  25.365  1.00  0.00     0.005 A 
ATOM     12  C   UNL A   1      32.881  26.104  24.097  1.00  0.00     0.052 A 
ATOM     13  C   UNL A   1      31.705  25.262  26.469  1.00  0.00     0.001 A 
ATOM     14  C   UNL A   1      32.925  26.968  25.215  1.00  0.00     0.011 A 
ATOM     15  N   UNL A   1      33.380  26.559  22.870  1.00  0.00    -0.322 N 
ATOM     16  C   UNL A   1      32.327  26.511  26.399  1.00  0.00     0.011 A 
ATOM     17  C   UNL A   1      33.835  27.821  22.661  1.00  0.00     0.249 A 
ATOM     18  H   UNL A   1      33.404  25.927  22.116  1.00  0.00     0.170 HD
ATOM     19  C   UNL A   1      33.863  28.720  23.828  1.00  0.00     0.086 A 
ATOM     20  O   UNL A   1      34.225  28.210  21.569  1.00  0.00    -0.270 OA
ENDBRANCH   5   8
ENDBRANCH   3   4
ENDBRANCH   2   3
ENDBRANCH   1   2
BRANCH   1  21
ATOM     21  N   UNL A   1      32.350  34.180  27.618  1.00  0.00    -0.352 N 
ATOM     22  C   UNL A   1      32.939  34.968  28.578  1.00  0.00     0.251 C 
ATOM     23  H   UNL A   1      31.690  34.639  27.050  1.00  0.00     0.163 HD
ATOM     24  O   UNL A   1      32.474  36.074  28.836  1.00  0.00    -0.269 OA
BRANCH  22  25
ATOM     25  C   UNL A   1      34.122  34.474  29.311  1.00  0.00     0.039 A 
ATOM     26  C   UNL A   1      35.396  34.596  28.756  1.00  0.00     0.014 A 
ATOM     27  C   UNL A   1      33.955  33.880  30.565  1.00  0.00     0.014 A 
ATOM     28  C   UNL A   1      36.472  33.958  29.359  1.00  0.00     0.010 A 
ATOM     29  C   UNL A   1      35.058  33.328  31.220  1.00  0.00     0.010 A 
ATOM     30  C   UNL A   1      36.317  33.316  30.599  1.00  0.00    -0.014 A 
BRANCH  30  31
ATOM     31  C   UNL A   1      37.482  32.630  31.212  1.00  0.00     0.031 A 
ATOM     32  C   UNL A   1      37.942  32.992  32.599  1.00  0.00     0.074 A 
ATOM     33  C   UNL A   1      38.087  31.633  30.538  1.00  0.00     0.049 A 
ATOM     34  N   UNL A   1      38.935  32.497  33.295  1.00  0.00    -0.248 NA
ATOM     35  C   UNL A   1      37.194  34.049  33.298  1.00  0.00     0.031 C 
ATOM     36  C   UNL A   1      37.714  31.179  29.197  1.00  0.00     0.029 A 
ATOM     37  N   UNL A   1      39.120  30.803  30.893  1.00  0.00    -0.354 N 
ATOM     38  C   UNL A   1      38.941  33.190  34.499  1.00  0.00     0.074 A 
ATOM     39  C   UNL A   1      37.876  34.167  34.429  1.00  0.00     0.031 C 
ATOM     40  C   UNL A   1      38.465  30.119  28.866  1.00  0.00     0.029 A 
ATOM     41  C   UNL A   1      39.424  29.866  29.936  1.00  0.00     0.049 A 
ATOM     42  H   UNL A   1      39.597  30.873  31.751  1.00  0.00     0.167 HD
ATOM     43  C   UNL A   1      39.748  33.012  35.571  1.00  0.00     0.037 A 
ATOM     44  C   UNL A   1      40.380  28.921  29.911  1.00  0.00     0.037 A 
ATOM     45  C   UNL A   1      40.792  32.021  35.641  1.00  0.00     0.049 A 
ATOM     46  C   UNL A   1      41.305  28.790  31.088  1.00  0.00     0.074 A 
ATOM     47  C   UNL A   1      41.655  31.753  36.689  1.00  0.00     0.029 A 
ATOM     48  N   UNL A   1      41.111  31.134  34.623  1.00  0.00    -0.354 N 
ATOM     49  N   UNL A   1      41.297  29.447  32.221  1.00  0.00    -0.248 NA
ATOM     50  C   UNL A   1      42.379  27.793  30.979  1.00  0.00     0.031 C 
ATOM     51  C   UNL A   1      42.532  30.742  36.286  1.00  0.00     0.029 A 
ATOM     52  C   UNL A   1      42.177  30.336  35.009  1.00  0.00     0.049 A 
ATOM     53  H   UNL A   1      40.650  31.079  33.755  1.00  0.00     0.167 HD
ATOM     54  C   UNL A   1      42.348  28.936  32.968  1.00  0.00     0.074 A 
ATOM     55  C   UNL A   1      42.960  27.896  32.166  1.00  0.00     0.031 C 
ATOM     56  C   UNL A   1      42.773  29.302  34.201  1.00  0.00     0.037 A 
BRANCH  43  57
ATOM     57  C   UNL A   1      39.550  33.907  36.762  1.00  0.00     0.064 A 
ATOM     58  C   UNL A   1      38.770  33.511  37.859  1.00  0.00     0.173 A 
ATOM     59  C   UNL A   1      40.210  35.143  36.840  1.00  0.00     0.173 A 
ATOM     60  F   UNL A   1      38.108  32.344  37.831  1.00  0.00    -0.203 F 
ATOM     61  C   UNL A   1      38.648  34.325  38.982  1.00  0.00     0.198 A 
ATOM     62  C   UNL A   1      40.110  35.940  37.977  1.00  0.00     0.198 A 
ATOM     63  F   UNL A   1      40.974  35.568  35.823  1.00  0.00    -0.203 F 
ATOM     64  F   UNL A   1      37.870  33.941  40.004  1.00  0.00    -0.200 F 
ATOM     65  C   UNL A   1      39.326  35.533  39.046  1.00  0.00     0.200 A 
ATOM     66  F   UNL A   1      40.780  37.099  38.044  1.00  0.00    -0.200 F 
ATOM     67  F   UNL A   1      39.223  36.305  40.136  1.00  0.00    -0.200 F 
ENDBRANCH  43  57
BRANCH  44  68
ATOM     68  C   UNL A   1      40.504  28.029  28.727  1.00  0.00     0.064 A 
ATOM     69  C   UNL A   1      39.834  26.801  28.678  1.00  0.00     0.173 A 
ATOM     70  C   UNL A   1      41.267  28.403  27.610  1.00  0.00     0.173 A 
ATOM     71  F   UNL A   1      39.109  26.390  29.728  1.00  0.00    -0.203 F 
ATOM     72  C   UNL A   1      39.925  25.977  27.558  1.00  0.00     0.198 A 
ATOM     73  C   UNL A   1      41.331  27.593  26.478  1.00  0.00     0.198 A 
ATOM     74  F   UNL A   1      41.925  29.571  27.605  1.00  0.00    -0.203 F 
ATOM     75  F   UNL A   1      39.303  24.790  27.549  1.00  0.00    -0.200 F 
ATOM     76  C   UNL A   1      40.664  26.378  26.455  1.00  0.00     0.200 A 
ATOM     77  F   UNL A   1      42.029  27.996  25.408  1.00  0.00    -0.200 F 
ATOM     78  F   UNL A   1      40.737  25.593  25.371  1.00  0.00    -0.200 F 
ENDBRANCH  44  68
BRANCH  56  79
ATOM     79  C   UNL A   1      43.946  28.563  34.778  1.00  0.00     0.064 A 
ATOM     80  C   UNL A   1      45.256  29.043  34.637  1.00  0.00     0.173 A 
ATOM     81  C   UNL A   1      43.750  27.400  35.541  1.00  0.00     0.173 A 
ATOM     82  F   UNL A   1      45.497  30.142  33.906  1.00  0.00    -0.203 F 
ATOM     83  C   UNL A   1      46.329  28.378  35.224  1.00  0.00     0.198 A 
ATOM     84  C   UNL A   1      44.822  26.757  36.153  1.00  0.00     0.198 A 
ATOM     85  F   UNL A   1      42.516  26.904  35.713  1.00  0.00    -0.203 F 
ATOM     86  F   UNL A   1      47.576  28.833  35.042  1.00  0.00    -0.200 F 
ATOM     87  C   UNL A   1      46.110  27.243  35.990  1.00  0.00     0.200 A 
ATOM     88  F   UNL A   1      44.605  25.672  36.908  1.00  0.00    -0.200 F 
ATOM     89  F   UNL A   1      47.142  26.615  36.569  1.00  0.00    -0.200 F 
ENDBRANCH  56  79
ENDBRANCH  30  31
ENDBRANCH  22  25
ENDBRANCH   1  21
TORSDOF 10
ENDMDL
