MODEL 1
REMARK VINA RESULT:     -12.6      0.000      0.000
REMARK SMILES O=Cc1ccc2c(c1)C=C(C(=O)NCCCNC(=O)c1ccc(-c3c4nc(c(-c5c(F)c(F)c(F)c(F)c5F)c5ccc([nH]5)c(-c5c(F)c(F)c(F)c(F)c5F)c5nc(c(-c6c(F)c(F)c(F)c(F)c6F)c6ccc3[nH]6)C=C5)C=C4)cc1)[C@H](C(F)(F)F)O2
REMARK SMILES IDX 15 1 14 2 13 3 11 4 12 5 10 7 3 8 4 9 8 10 5 11 7 12 6 13
REMARK SMILES IDX 9 14 88 15 83 16 2 17 1 18 84 19 85 20 86 21 87 22 16 23
REMARK SMILES IDX 17 24 18 25 19 27 20 28 21 29 82 30 22 31 81 32 23 33 24 34
REMARK SMILES IDX 25 35 75 36 26 37 80 38 74 39 76 40 27 41 79 42 73 43 72 44
REMARK SMILES IDX 28 46 60 47 40 48 59 49 41 50 44 51 58 52 77 53 42 54 43 55
REMARK SMILES IDX 57 57 78 58 45 59 29 60 30 61 38 62 31 63 32 64 36 65 39 66
REMARK SMILES IDX 33 67 34 68 37 69 35 70 61 71 62 72 70 73 63 74 64 75 68 76
REMARK SMILES IDX 71 77 65 78 66 79 69 80 67 81 46 82 47 83 55 84 48 85 49 86
REMARK SMILES IDX 53 87 56 88 50 89 51 90 54 91 52 92
REMARK H PARENT 13 6 17 26 76 45 44 56
REMARK Flexibility Score: inf
ROOT
ATOM      1  C   UNL A   1      32.642  28.031  26.263  1.00  0.00     0.042 C 
ENDROOT
BRANCH   1   2
ATOM      2  C   UNL A   1      31.413  27.337  25.667  1.00  0.00     0.118 C 
BRANCH   2   3
ATOM      3  N   UNL A   1      31.017  26.195  26.479  1.00  0.00    -0.352 N 
ATOM      4  C   UNL A   1      31.434  24.902  26.519  1.00  0.00     0.251 C 
ATOM      5  O   UNL A   1      30.833  24.122  27.252  1.00  0.00    -0.270 OA
ATOM      6  H   UNL A   1      30.306  26.400  27.128  1.00  0.00     0.163 HD
BRANCH   4   7
ATOM      7  C   UNL A   1      32.618  24.413  25.766  1.00  0.00     0.067 C 
ATOM      8  C   UNL A   1      37.230  23.048  25.356  1.00  0.00     0.015 A 
ATOM      9  C   UNL A   1      37.027  22.735  24.011  1.00  0.00     0.015 A 
ATOM     10  C   UNL A   1      36.187  23.571  26.125  1.00  0.00     0.023 A 
ATOM     11  C   UNL A   1      35.770  22.933  23.437  1.00  0.00     0.048 A 
ATOM     12  C   UNL A   1      34.929  23.771  25.545  1.00  0.00     0.018 A 
ATOM     13  C   UNL A   1      34.724  23.448  24.204  1.00  0.00     0.128 A 
ATOM     14  C   UNL A   1      33.817  24.254  26.344  1.00  0.00     0.025 C 
ATOM     15  O   UNL A   1      33.517  23.557  23.585  1.00  0.00    -0.475 OA
ATOM     16  C   UNL A   1      32.435  24.265  24.259  1.00  0.00     0.314 C 
BRANCH   8  17
ATOM     17  C   UNL A   1      38.543  22.809  25.988  1.00  0.00     0.260 C 
ATOM     18  O   UNL A   1      39.094  21.717  25.954  1.00  0.00    -0.298 OA
ENDBRANCH   8  17
BRANCH  16  19
ATOM     19  C   UNL A   1      31.110  23.606  23.813  1.00  0.00     0.429 C 
ATOM     20  F   UNL A   1      30.129  24.504  23.579  1.00  0.00    -0.167 F 
ATOM     21  F   UNL A   1      31.269  22.924  22.648  1.00  0.00    -0.167 F 
ATOM     22  F   UNL A   1      30.651  22.716  24.727  1.00  0.00    -0.167 F 
ENDBRANCH  16  19
ENDBRANCH   4   7
ENDBRANCH   2   3
ENDBRANCH   1   2
BRANCH   1  23
ATOM     23  C   UNL A   1      33.187  29.172  25.403  1.00  0.00     0.118 C 
BRANCH  23  24
ATOM     24  N   UNL A   1      32.773  30.471  25.903  1.00  0.00    -0.352 N 
ATOM     25  C   UNL A   1      33.274  31.235  26.924  1.00  0.00     0.251 C 
ATOM     26  H   UNL A   1      32.007  30.868  25.429  1.00  0.00     0.163 HD
ATOM     27  O   UNL A   1      32.625  32.207  27.306  1.00  0.00    -0.269 OA
BRANCH  25  28
ATOM     28  C   UNL A   1      34.566  30.922  27.580  1.00  0.00     0.039 A 
ATOM     29  C   UNL A   1      34.726  29.647  28.136  1.00  0.00     0.014 A 
ATOM     30  C   UNL A   1      35.574  31.876  27.747  1.00  0.00     0.014 A 
ATOM     31  C   UNL A   1      35.892  29.324  28.833  1.00  0.00     0.010 A 
ATOM     32  C   UNL A   1      36.766  31.534  28.395  1.00  0.00     0.010 A 
ATOM     33  C   UNL A   1      36.929  30.261  28.960  1.00  0.00    -0.014 A 
BRANCH  33  34
ATOM     34  C   UNL A   1      38.171  29.909  29.696  1.00  0.00     0.031 A 
ATOM     35  C   UNL A   1      38.427  30.456  31.074  1.00  0.00     0.074 A 
ATOM     36  C   UNL A   1      39.077  29.098  29.117  1.00  0.00     0.049 A 
ATOM     37  N   UNL A   1      39.437  30.233  31.878  1.00  0.00    -0.248 NA
ATOM     38  C   UNL A   1      37.432  31.396  31.611  1.00  0.00     0.031 C 
ATOM     39  C   UNL A   1      38.969  28.542  27.768  1.00  0.00     0.029 A 
ATOM     40  N   UNL A   1      40.264  28.597  29.591  1.00  0.00    -0.354 N 
ATOM     41  C   UNL A   1      39.202  31.006  33.008  1.00  0.00     0.074 A 
ATOM     42  C   UNL A   1      37.980  31.743  32.766  1.00  0.00     0.031 C 
ATOM     43  C   UNL A   1      40.029  27.754  27.532  1.00  0.00     0.029 A 
ATOM     44  C   UNL A   1      40.901  27.765  28.705  1.00  0.00     0.049 A 
ATOM     45  H   UNL A   1      40.624  28.814  30.481  1.00  0.00     0.167 HD
ATOM     46  C   UNL A   1      39.928  31.080  34.150  1.00  0.00     0.037 A 
ATOM     47  C   UNL A   1      42.051  27.076  28.828  1.00  0.00     0.037 A 
ATOM     48  C   UNL A   1      41.130  30.328  34.401  1.00  0.00     0.049 A 
ATOM     49  C   UNL A   1      42.817  27.147  30.119  1.00  0.00     0.074 A 
ATOM     50  C   UNL A   1      41.909  30.298  35.545  1.00  0.00     0.029 A 
ATOM     51  N   UNL A   1      41.728  29.471  33.489  1.00  0.00    -0.354 N 
ATOM     52  N   UNL A   1      42.548  27.829  31.205  1.00  0.00    -0.248 NA
ATOM     53  C   UNL A   1      44.041  26.337  30.206  1.00  0.00     0.031 C 
ATOM     54  C   UNL A   1      42.996  29.446  35.315  1.00  0.00     0.029 A 
ATOM     55  C   UNL A   1      42.871  28.914  34.042  1.00  0.00     0.049 A 
ATOM     56  H   UNL A   1      41.390  29.284  32.583  1.00  0.00     0.167 HD
ATOM     57  C   UNL A   1      43.548  27.511  32.113  1.00  0.00     0.074 A 
ATOM     58  C   UNL A   1      44.424  26.562  31.456  1.00  0.00     0.031 C 
ATOM     59  C   UNL A   1      43.726  27.965  33.377  1.00  0.00     0.037 A 
BRANCH  46  60
ATOM     60  C   UNL A   1      39.436  32.007  35.225  1.00  0.00     0.064 A 
ATOM     61  C   UNL A   1      38.590  31.557  36.249  1.00  0.00     0.173 A 
ATOM     62  C   UNL A   1      39.845  33.348  35.253  1.00  0.00     0.173 A 
ATOM     63  F   UNL A   1      38.161  30.286  36.262  1.00  0.00    -0.203 F 
ATOM     64  C   UNL A   1      38.150  32.423  37.248  1.00  0.00     0.198 A 
ATOM     65  C   UNL A   1      39.425  34.204  36.268  1.00  0.00     0.198 A 
ATOM     66  F   UNL A   1      40.660  33.828  34.301  1.00  0.00    -0.203 F 
ATOM     67  F   UNL A   1      37.305  31.982  38.191  1.00  0.00    -0.200 F 
ATOM     68  C   UNL A   1      38.572  33.744  37.260  1.00  0.00     0.200 A 
ATOM     69  F   UNL A   1      39.843  35.478  36.286  1.00  0.00    -0.200 F 
ATOM     70  F   UNL A   1      38.153  34.574  38.224  1.00  0.00    -0.200 F 
ENDBRANCH  46  60
BRANCH  47  71
ATOM     71  C   UNL A   1      42.519  26.217  27.710  1.00  0.00     0.064 A 
ATOM     72  C   UNL A   1      43.470  26.685  26.795  1.00  0.00     0.173 A 
ATOM     73  C   UNL A   1      42.033  24.913  27.540  1.00  0.00     0.173 A 
ATOM     74  F   UNL A   1      43.950  27.933  26.906  1.00  0.00    -0.203 F 
ATOM     75  C   UNL A   1      43.907  25.888  25.739  1.00  0.00     0.198 A 
ATOM     76  C   UNL A   1      42.489  24.107  26.499  1.00  0.00     0.198 A 
ATOM     77  F   UNL A   1      41.127  24.417  28.396  1.00  0.00    -0.203 F 
ATOM     78  F   UNL A   1      44.788  26.373  24.855  1.00  0.00    -0.200 F 
ATOM     79  C   UNL A   1      43.420  24.597  25.595  1.00  0.00     0.200 A 
ATOM     80  F   UNL A   1      42.027  22.855  26.373  1.00  0.00    -0.200 F 
ATOM     81  F   UNL A   1      43.844  23.828  24.584  1.00  0.00    -0.200 F 
ENDBRANCH  47  71
BRANCH  59  82
ATOM     82  C   UNL A   1      44.894  27.415  34.142  1.00  0.00     0.064 A 
ATOM     83  C   UNL A   1      44.790  26.237  34.895  1.00  0.00     0.173 A 
ATOM     84  C   UNL A   1      46.137  28.064  34.102  1.00  0.00     0.173 A 
ATOM     85  F   UNL A   1      43.618  25.589  34.976  1.00  0.00    -0.203 F 
ATOM     86  C   UNL A   1      45.882  25.746  35.607  1.00  0.00     0.198 A 
ATOM     87  C   UNL A   1      47.233  27.555  34.793  1.00  0.00     0.198 A 
ATOM     88  F   UNL A   1      46.290  29.191  33.390  1.00  0.00    -0.203 F 
ATOM     89  F   UNL A   1      45.746  24.646  36.362  1.00  0.00    -0.200 F 
ATOM     90  C   UNL A   1      47.102  26.402  35.552  1.00  0.00     0.200 A 
ATOM     91  F   UNL A   1      48.415  28.185  34.731  1.00  0.00    -0.200 F 
ATOM     92  F   UNL A   1      48.150  25.927  36.239  1.00  0.00    -0.200 F 
ENDBRANCH  59  82
ENDBRANCH  33  34
ENDBRANCH  25  28
ENDBRANCH  23  24
ENDBRANCH   1  23
TORSDOF 12
ENDMDL
MODEL 2
REMARK VINA RESULT:     -12.5      0.501      2.079
REMARK SMILES O=Cc1ccc2c(c1)C=C(C(=O)NCCCNC(=O)c1ccc(-c3c4nc(c(-c5c(F)c(F)c(F)c(F)c5F)c5ccc([nH]5)c(-c5c(F)c(F)c(F)c(F)c5F)c5nc(c(-c6c(F)c(F)c(F)c(F)c6F)c6ccc3[nH]6)C=C5)C=C4)cc1)[C@H](C(F)(F)F)O2
REMARK SMILES IDX 15 1 14 2 13 3 11 4 12 5 10 7 3 8 4 9 8 10 5 11 7 12 6 13
REMARK SMILES IDX 9 14 88 15 83 16 2 17 1 18 84 19 85 20 86 21 87 22 16 23
REMARK SMILES IDX 17 24 18 25 19 27 20 28 21 29 82 30 22 31 81 32 23 33 24 34
REMARK SMILES IDX 25 35 75 36 26 37 80 38 74 39 76 40 27 41 79 42 73 43 72 44
REMARK SMILES IDX 28 46 60 47 40 48 59 49 41 50 44 51 58 52 77 53 42 54 43 55
REMARK SMILES IDX 57 57 78 58 45 59 29 60 30 61 38 62 31 63 32 64 36 65 39 66
REMARK SMILES IDX 33 67 34 68 37 69 35 70 61 71 62 72 70 73 63 74 64 75 68 76
REMARK SMILES IDX 71 77 65 78 66 79 69 80 67 81 46 82 47 83 55 84 48 85 49 86
REMARK SMILES IDX 53 87 56 88 50 89 51 90 54 91 52 92
REMARK H PARENT 13 6 17 26 76 45 44 56
REMARK Flexibility Score: inf
ROOT
ATOM      1  C   UNL A   1      32.814  28.957  23.909  1.00  0.00     0.042 C 
ENDROOT
BRANCH   1   2
ATOM      2  C   UNL A   1      31.912  27.748  23.635  1.00  0.00     0.118 C 
BRANCH   2   3
ATOM      3  N   UNL A   1      31.444  27.156  24.880  1.00  0.00    -0.352 N 
ATOM      4  C   UNL A   1      31.736  25.991  25.515  1.00  0.00     0.251 C 
ATOM      5  O   UNL A   1      31.096  25.704  26.522  1.00  0.00    -0.270 OA
ATOM      6  H   UNL A   1      30.785  27.710  25.357  1.00  0.00     0.163 HD
BRANCH   4   7
ATOM      7  C   UNL A   1      32.833  25.089  25.080  1.00  0.00     0.067 C 
ATOM      8  C   UNL A   1      37.243  23.155  25.421  1.00  0.00     0.015 A 
ATOM      9  C   UNL A   1      36.967  22.313  24.342  1.00  0.00     0.015 A 
ATOM     10  C   UNL A   1      36.290  24.078  25.859  1.00  0.00     0.023 A 
ATOM     11  C   UNL A   1      35.726  22.387  23.708  1.00  0.00     0.048 A 
ATOM     12  C   UNL A   1      35.047  24.150  25.219  1.00  0.00     0.018 A 
ATOM     13  C   UNL A   1      34.769  23.302  24.148  1.00  0.00     0.128 A 
ATOM     14  C   UNL A   1      34.022  25.059  25.699  1.00  0.00     0.025 C 
ATOM     15  O   UNL A   1      33.565  23.270  23.513  1.00  0.00    -0.475 OA
ATOM     16  C   UNL A   1      32.592  24.322  23.784  1.00  0.00     0.314 C 
BRANCH   8  17
ATOM     17  C   UNL A   1      38.537  23.064  26.126  1.00  0.00     0.260 C 
ATOM     18  O   UNL A   1      39.133  22.003  26.261  1.00  0.00    -0.298 OA
ENDBRANCH   8  17
BRANCH  16  19
ATOM     19  C   UNL A   1      31.187  23.694  23.637  1.00  0.00     0.429 C 
ATOM     20  F   UNL A   1      31.159  22.672  22.753  1.00  0.00    -0.167 F 
ATOM     21  F   UNL A   1      30.758  23.171  24.816  1.00  0.00    -0.167 F 
ATOM     22  F   UNL A   1      30.260  24.603  23.252  1.00  0.00    -0.167 F 
ENDBRANCH  16  19
ENDBRANCH   4   7
ENDBRANCH   2   3
ENDBRANCH   1   2
BRANCH   1  23
ATOM     23  C   UNL A   1      33.157  29.151  25.385  1.00  0.00     0.118 C 
BRANCH  23  24
ATOM     24  N   UNL A   1      32.746  30.458  25.868  1.00  0.00    -0.352 N 
ATOM     25  C   UNL A   1      33.243  31.231  26.884  1.00  0.00     0.251 C 
ATOM     26  H   UNL A   1      31.985  30.853  25.384  1.00  0.00     0.163 HD
ATOM     27  O   UNL A   1      32.596  32.210  27.250  1.00  0.00    -0.269 OA
BRANCH  25  28
ATOM     28  C   UNL A   1      34.529  30.919  27.553  1.00  0.00     0.039 A 
ATOM     29  C   UNL A   1      34.707  29.625  28.059  1.00  0.00     0.014 A 
ATOM     30  C   UNL A   1      35.512  31.887  27.780  1.00  0.00     0.014 A 
ATOM     31  C   UNL A   1      35.866  29.299  28.766  1.00  0.00     0.010 A 
ATOM     32  C   UNL A   1      36.698  31.544  28.437  1.00  0.00     0.010 A 
ATOM     33  C   UNL A   1      36.879  30.252  28.952  1.00  0.00    -0.014 A 
BRANCH  33  34
ATOM     34  C   UNL A   1      38.114  29.897  29.699  1.00  0.00     0.031 A 
ATOM     35  C   UNL A   1      38.345  30.418  31.091  1.00  0.00     0.074 A 
ATOM     36  C   UNL A   1      39.035  29.107  29.117  1.00  0.00     0.049 A 
ATOM     37  N   UNL A   1      39.346  30.188  31.905  1.00  0.00    -0.248 NA
ATOM     38  C   UNL A   1      37.333  31.337  31.633  1.00  0.00     0.031 C 
ATOM     39  C   UNL A   1      38.951  28.578  27.755  1.00  0.00     0.029 A 
ATOM     40  N   UNL A   1      40.220  28.607  29.596  1.00  0.00    -0.354 N 
ATOM     41  C   UNL A   1      39.088  30.935  33.047  1.00  0.00     0.074 A 
ATOM     42  C   UNL A   1      37.862  31.665  32.803  1.00  0.00     0.031 C 
ATOM     43  C   UNL A   1      40.023  27.804  27.518  1.00  0.00     0.029 A 
ATOM     44  C   UNL A   1      40.878  27.799  28.703  1.00  0.00     0.049 A 
ATOM     45  H   UNL A   1      40.565  28.809  30.496  1.00  0.00     0.167 HD
ATOM     46  C   UNL A   1      39.797  30.992  34.201  1.00  0.00     0.037 A 
ATOM     47  C   UNL A   1      42.032  27.119  28.827  1.00  0.00     0.037 A 
ATOM     48  C   UNL A   1      41.003  30.247  34.453  1.00  0.00     0.049 A 
ATOM     49  C   UNL A   1      42.780  27.170  30.131  1.00  0.00     0.074 A 
ATOM     50  C   UNL A   1      41.765  30.200  35.607  1.00  0.00     0.029 A 
ATOM     51  N   UNL A   1      41.621  29.414  33.532  1.00  0.00    -0.354 N 
ATOM     52  N   UNL A   1      42.489  27.827  31.226  1.00  0.00    -0.248 NA
ATOM     53  C   UNL A   1      44.010  26.370  30.219  1.00  0.00     0.031 C 
ATOM     54  C   UNL A   1      42.864  29.363  35.374  1.00  0.00     0.029 A 
ATOM     55  C   UNL A   1      42.762  28.857  34.089  1.00  0.00     0.049 A 
ATOM     56  H   UNL A   1      41.298  29.243  32.617  1.00  0.00     0.167 HD
ATOM     57  C   UNL A   1      43.480  27.500  32.142  1.00  0.00     0.074 A 
ATOM     58  C   UNL A   1      44.373  26.573  31.478  1.00  0.00     0.031 C 
ATOM     59  C   UNL A   1      43.636  27.930  33.418  1.00  0.00     0.037 A 
BRANCH  46  60
ATOM     60  C   UNL A   1      39.281  31.892  35.287  1.00  0.00     0.064 A 
ATOM     61  C   UNL A   1      39.566  33.265  35.298  1.00  0.00     0.173 A 
ATOM     62  C   UNL A   1      38.461  31.383  36.305  1.00  0.00     0.173 A 
ATOM     63  F   UNL A   1      40.354  33.799  34.352  1.00  0.00    -0.203 F 
ATOM     64  C   UNL A   1      39.071  34.092  36.304  1.00  0.00     0.198 A 
ATOM     65  C   UNL A   1      37.947  32.218  37.295  1.00  0.00     0.198 A 
ATOM     66  F   UNL A   1      38.153  30.078  36.338  1.00  0.00    -0.203 F 
ATOM     67  F   UNL A   1      39.394  35.393  36.320  1.00  0.00    -0.200 F 
ATOM     68  C   UNL A   1      38.257  33.569  37.298  1.00  0.00     0.200 A 
ATOM     69  F   UNL A   1      37.151  31.713  38.249  1.00  0.00    -0.200 F 
ATOM     70  F   UNL A   1      37.778  34.367  38.262  1.00  0.00    -0.200 F 
ENDBRANCH  46  60
BRANCH  47  71
ATOM     71  C   UNL A   1      42.524  26.287  27.699  1.00  0.00     0.064 A 
ATOM     72  C   UNL A   1      42.048  24.984  27.507  1.00  0.00     0.173 A 
ATOM     73  C   UNL A   1      43.470  26.779  26.789  1.00  0.00     0.173 A 
ATOM     74  F   UNL A   1      41.157  24.463  28.364  1.00  0.00    -0.203 F 
ATOM     75  C   UNL A   1      42.512  24.195  26.457  1.00  0.00     0.198 A 
ATOM     76  C   UNL A   1      43.915  26.000  25.724  1.00  0.00     0.198 A 
ATOM     77  F   UNL A   1      43.950  28.024  26.927  1.00  0.00    -0.203 F 
ATOM     78  F   UNL A   1      42.070  22.939  26.318  1.00  0.00    -0.200 F 
ATOM     79  C   UNL A   1      43.442  24.706  25.563  1.00  0.00     0.200 A 
ATOM     80  F   UNL A   1      44.801  26.502  24.853  1.00  0.00    -0.200 F 
ATOM     81  F   UNL A   1      43.884  23.951  24.549  1.00  0.00    -0.200 F 
ENDBRANCH  47  71
BRANCH  59  82
ATOM     82  C   UNL A   1      44.798  27.375  34.187  1.00  0.00     0.064 A 
ATOM     83  C   UNL A   1      46.043  28.020  34.206  1.00  0.00     0.173 A 
ATOM     84  C   UNL A   1      44.656  26.194  34.932  1.00  0.00     0.173 A 
ATOM     85  F   UNL A   1      46.231  29.143  33.498  1.00  0.00    -0.203 F 
ATOM     86  C   UNL A   1      47.114  27.486  34.918  1.00  0.00     0.198 A 
ATOM     87  C   UNL A   1      45.722  25.678  35.664  1.00  0.00     0.198 A 
ATOM     88  F   UNL A   1      43.484  25.543  34.952  1.00  0.00    -0.203 F 
ATOM     89  F   UNL A   1      48.309  28.091  34.880  1.00  0.00    -0.200 F 
ATOM     90  C   UNL A   1      46.951  26.318  35.649  1.00  0.00     0.200 A 
ATOM     91  F   UNL A   1      45.561  24.555  36.378  1.00  0.00    -0.200 F 
ATOM     92  F   UNL A   1      47.984  25.806  36.332  1.00  0.00    -0.200 F 
ENDBRANCH  59  82
ENDBRANCH  33  34
ENDBRANCH  25  28
ENDBRANCH  23  24
ENDBRANCH   1  23
TORSDOF 12
ENDMDL
MODEL 3
REMARK VINA RESULT:     -12.5      0.484      1.297
REMARK SMILES O=Cc1ccc2c(c1)C=C(C(=O)NCCCNC(=O)c1ccc(-c3c4nc(c(-c5c(F)c(F)c(F)c(F)c5F)c5ccc([nH]5)c(-c5c(F)c(F)c(F)c(F)c5F)c5nc(c(-c6c(F)c(F)c(F)c(F)c6F)c6ccc3[nH]6)C=C5)C=C4)cc1)[C@H](C(F)(F)F)O2
REMARK SMILES IDX 15 1 14 2 13 3 11 4 12 5 10 7 3 8 4 9 8 10 5 11 7 12 6 13
REMARK SMILES IDX 9 14 88 15 83 16 2 17 1 18 84 19 85 20 86 21 87 22 16 23
REMARK SMILES IDX 17 24 18 25 19 27 20 28 21 29 82 30 22 31 81 32 23 33 24 34
REMARK SMILES IDX 25 35 75 36 26 37 80 38 74 39 76 40 27 41 79 42 73 43 72 44
REMARK SMILES IDX 28 46 60 47 40 48 59 49 41 50 44 51 58 52 77 53 42 54 43 55
REMARK SMILES IDX 57 57 78 58 45 59 29 60 30 61 38 62 31 63 32 64 36 65 39 66
REMARK SMILES IDX 33 67 34 68 37 69 35 70 61 71 62 72 70 73 63 74 64 75 68 76
REMARK SMILES IDX 71 77 65 78 66 79 69 80 67 81 46 82 47 83 55 84 48 85 49 86
REMARK SMILES IDX 53 87 56 88 50 89 51 90 54 91 52 92
REMARK H PARENT 13 6 17 26 76 45 44 56
REMARK Flexibility Score: inf
ROOT
ATOM      1  C   UNL A   1      32.814  28.917  24.063  1.00  0.00     0.042 C 
ENDROOT
BRANCH   1   2
ATOM      2  C   UNL A   1      31.846  27.764  23.771  1.00  0.00     0.118 C 
BRANCH   2   3
ATOM      3  N   UNL A   1      31.397  27.138  25.005  1.00  0.00    -0.352 N 
ATOM      4  C   UNL A   1      31.710  25.963  25.612  1.00  0.00     0.251 C 
ATOM      5  O   UNL A   1      31.082  25.644  26.617  1.00  0.00    -0.270 OA
ATOM      6  H   UNL A   1      30.733  27.672  25.499  1.00  0.00     0.163 HD
BRANCH   4   7
ATOM      7  C   UNL A   1      32.817  25.087  25.150  1.00  0.00     0.067 C 
ATOM      8  C   UNL A   1      37.251  23.198  25.427  1.00  0.00     0.015 A 
ATOM      9  C   UNL A   1      36.983  22.384  24.324  1.00  0.00     0.015 A 
ATOM     10  C   UNL A   1      36.288  24.097  25.893  1.00  0.00     0.023 A 
ATOM     11  C   UNL A   1      35.739  22.461  23.695  1.00  0.00     0.048 A 
ATOM     12  C   UNL A   1      35.043  24.172  25.257  1.00  0.00     0.018 A 
ATOM     13  C   UNL A   1      34.772  23.352  24.163  1.00  0.00     0.128 A 
ATOM     14  C   UNL A   1      34.008  25.055  25.765  1.00  0.00     0.025 C 
ATOM     15  O   UNL A   1      33.567  23.324  23.529  1.00  0.00    -0.475 OA
ATOM     16  C   UNL A   1      32.582  24.355  23.832  1.00  0.00     0.314 C 
BRANCH   8  17
ATOM     17  C   UNL A   1      38.548  23.103  26.126  1.00  0.00     0.260 C 
ATOM     18  O   UNL A   1      39.220  22.080  26.117  1.00  0.00    -0.298 OA
ENDBRANCH   8  17
BRANCH  16  19
ATOM     19  C   UNL A   1      31.185  23.714  23.670  1.00  0.00     0.429 C 
ATOM     20  F   UNL A   1      30.677  23.261  24.838  1.00  0.00    -0.167 F 
ATOM     21  F   UNL A   1      30.283  24.616  23.201  1.00  0.00    -0.167 F 
ATOM     22  F   UNL A   1      31.198  22.681  22.793  1.00  0.00    -0.167 F 
ENDBRANCH  16  19
ENDBRANCH   4   7
ENDBRANCH   2   3
ENDBRANCH   1   2
BRANCH   1  23
ATOM     23  C   UNL A   1      33.079  29.140  25.552  1.00  0.00     0.118 C 
BRANCH  23  24
ATOM     24  N   UNL A   1      32.704  30.478  25.973  1.00  0.00    -0.352 N 
ATOM     25  C   UNL A   1      33.238  31.294  26.936  1.00  0.00     0.251 C 
ATOM     26  H   UNL A   1      31.941  30.863  25.484  1.00  0.00     0.163 HD
ATOM     27  O   UNL A   1      32.618  32.303  27.263  1.00  0.00    -0.269 OA
BRANCH  25  28
ATOM     28  C   UNL A   1      34.531  30.991  27.595  1.00  0.00     0.039 A 
ATOM     29  C   UNL A   1      34.728  29.694  28.085  1.00  0.00     0.014 A 
ATOM     30  C   UNL A   1      35.503  31.969  27.826  1.00  0.00     0.014 A 
ATOM     31  C   UNL A   1      35.896  29.376  28.782  1.00  0.00     0.010 A 
ATOM     32  C   UNL A   1      36.698  31.634  28.473  1.00  0.00     0.010 A 
ATOM     33  C   UNL A   1      36.898  30.340  28.973  1.00  0.00    -0.014 A 
BRANCH  33  34
ATOM     34  C   UNL A   1      38.141  29.992  29.709  1.00  0.00     0.031 A 
ATOM     35  C   UNL A   1      38.375  30.503  31.104  1.00  0.00     0.074 A 
ATOM     36  C   UNL A   1      39.069  29.218  29.113  1.00  0.00     0.049 A 
ATOM     37  N   UNL A   1      39.384  30.277  31.910  1.00  0.00    -0.248 NA
ATOM     38  C   UNL A   1      37.356  31.404  31.660  1.00  0.00     0.031 C 
ATOM     39  C   UNL A   1      38.982  28.700  27.747  1.00  0.00     0.029 A 
ATOM     40  N   UNL A   1      40.262  28.728  29.581  1.00  0.00    -0.354 N 
ATOM     41  C   UNL A   1      39.124  31.011  33.060  1.00  0.00     0.074 A 
ATOM     42  C   UNL A   1      37.888  31.728  32.830  1.00  0.00     0.031 C 
ATOM     43  C   UNL A   1      40.061  27.942  27.497  1.00  0.00     0.029 A 
ATOM     44  C   UNL A   1      40.924  27.936  28.676  1.00  0.00     0.049 A 
ATOM     45  H   UNL A   1      40.611  28.926  30.480  1.00  0.00     0.167 HD
ATOM     46  C   UNL A   1      39.839  31.066  34.210  1.00  0.00     0.037 A 
ATOM     47  C   UNL A   1      42.087  27.269  28.787  1.00  0.00     0.037 A 
ATOM     48  C   UNL A   1      41.056  30.332  34.448  1.00  0.00     0.049 A 
ATOM     49  C   UNL A   1      42.842  27.317  30.086  1.00  0.00     0.074 A 
ATOM     50  C   UNL A   1      41.826  30.284  35.597  1.00  0.00     0.029 A 
ATOM     51  N   UNL A   1      41.678  29.515  33.516  1.00  0.00    -0.354 N 
ATOM     52  N   UNL A   1      42.550  27.960  31.190  1.00  0.00    -0.248 NA
ATOM     53  C   UNL A   1      44.082  26.531  30.160  1.00  0.00     0.031 C 
ATOM     54  C   UNL A   1      42.932  29.462  35.350  1.00  0.00     0.029 A 
ATOM     55  C   UNL A   1      42.828  28.967  34.061  1.00  0.00     0.049 A 
ATOM     56  H   UNL A   1      41.351  29.349  32.601  1.00  0.00     0.167 HD
ATOM     57  C   UNL A   1      43.550  27.636  32.096  1.00  0.00     0.074 A 
ATOM     58  C   UNL A   1      44.451  26.727  31.418  1.00  0.00     0.031 C 
ATOM     59  C   UNL A   1      43.709  28.056  33.375  1.00  0.00     0.037 A 
BRANCH  46  60
ATOM     60  C   UNL A   1      39.320  31.949  35.308  1.00  0.00     0.064 A 
ATOM     61  C   UNL A   1      38.497  31.445  36.326  1.00  0.00     0.173 A 
ATOM     62  C   UNL A   1      39.679  33.304  35.364  1.00  0.00     0.173 A 
ATOM     63  F   UNL A   1      38.116  30.158  36.312  1.00  0.00    -0.203 F 
ATOM     64  C   UNL A   1      38.032  32.272  37.346  1.00  0.00     0.198 A 
ATOM     65  C   UNL A   1      39.233  34.121  36.400  1.00  0.00     0.198 A 
ATOM     66  F   UNL A   1      40.469  33.835  34.418  1.00  0.00    -0.203 F 
ATOM     67  F   UNL A   1      37.209  31.779  38.284  1.00  0.00    -0.200 F 
ATOM     68  C   UNL A   1      38.404  33.607  37.386  1.00  0.00     0.200 A 
ATOM     69  F   UNL A   1      39.603  35.409  36.444  1.00  0.00    -0.200 F 
ATOM     70  F   UNL A   1      37.960  34.399  38.371  1.00  0.00    -0.200 F 
ENDBRANCH  46  60
BRANCH  47  71
ATOM     71  C   UNL A   1      42.582  26.454  27.649  1.00  0.00     0.064 A 
ATOM     72  C   UNL A   1      43.512  26.977  26.741  1.00  0.00     0.173 A 
ATOM     73  C   UNL A   1      42.143  25.137  27.449  1.00  0.00     0.173 A 
ATOM     74  F   UNL A   1      43.946  28.239  26.881  1.00  0.00    -0.203 F 
ATOM     75  C   UNL A   1      43.973  26.222  25.666  1.00  0.00     0.198 A 
ATOM     76  C   UNL A   1      42.624  24.373  26.388  1.00  0.00     0.198 A 
ATOM     77  F   UNL A   1      41.259  24.588  28.296  1.00  0.00    -0.203 F 
ATOM     78  F   UNL A   1      44.832  26.759  24.791  1.00  0.00    -0.200 F 
ATOM     79  C   UNL A   1      43.533  24.918  25.493  1.00  0.00     0.200 A 
ATOM     80  F   UNL A   1      42.208  23.109  26.234  1.00  0.00    -0.200 F 
ATOM     81  F   UNL A   1      43.980  24.188  24.463  1.00  0.00    -0.200 F 
ENDBRANCH  47  71
BRANCH  59  82
ATOM     82  C   UNL A   1      44.882  27.508  34.132  1.00  0.00     0.064 A 
ATOM     83  C   UNL A   1      46.107  28.189  34.185  1.00  0.00     0.173 A 
ATOM     84  C   UNL A   1      44.772  26.297  34.831  1.00  0.00     0.173 A 
ATOM     85  F   UNL A   1      46.266  29.344  33.520  1.00  0.00    -0.203 F 
ATOM     86  C   UNL A   1      47.190  27.661  34.884  1.00  0.00     0.198 A 
ATOM     87  C   UNL A   1      45.848  25.786  35.552  1.00  0.00     0.198 A 
ATOM     88  F   UNL A   1      43.620  25.610  34.818  1.00  0.00    -0.203 F 
ATOM     89  F   UNL A   1      48.366  28.304  34.878  1.00  0.00    -0.200 F 
ATOM     90  C   UNL A   1      47.057  26.463  35.570  1.00  0.00     0.200 A 
ATOM     91  F   UNL A   1      45.717  24.632  36.222  1.00  0.00    -0.200 F 
ATOM     92  F   UNL A   1      48.101  25.957  36.241  1.00  0.00    -0.200 F 
ENDBRANCH  59  82
ENDBRANCH  33  34
ENDBRANCH  25  28
ENDBRANCH  23  24
ENDBRANCH   1  23
TORSDOF 12
ENDMDL
