MODEL 1
REMARK VINA RESULT:     -10.6      0.000      0.000
REMARK SMILES C[C@@H](CC(=O)NCCCNC(=O)c1ccc(-c2c3nc(c(-c4c(F)c(F)c(F)c(F)c4F)c4ccc([nH]4)c(-c4c(F)c(F)c(F)c(F)c4F)c4nc(c(-c5c(F)c(F)c(F)c(F)c5F)c5ccc2[nH]5)C=C4)C=C3)cc1)CC(=O)N(C)C[C@H]1CCC[N@H+]1C
REMARK SMILES IDX 4 1 5 2 6 3 3 5 2 6 1 7 76 8 77 9 78 10 79 11 80 12 81 13
REMARK SMILES IDX 82 14 83 15 86 16 84 17 85 18 87 19 7 21 8 22 9 23 10 24
REMARK SMILES IDX 11 25 12 27 13 28 14 29 75 30 15 31 74 32 16 33 17 34 18 35
REMARK SMILES IDX 68 36 19 37 73 38 67 39 69 40 20 41 72 42 66 43 65 44 21 46
REMARK SMILES IDX 53 47 33 48 52 49 34 50 37 51 51 52 70 53 35 54 36 55 50 57
REMARK SMILES IDX 71 58 38 59 22 60 23 61 31 62 24 63 25 64 29 65 32 66 26 67
REMARK SMILES IDX 27 68 30 69 28 70 54 71 55 72 63 73 56 74 57 75 61 76 64 77
REMARK SMILES IDX 58 78 59 79 62 80 60 81 39 82 40 83 48 84 41 85 42 86 46 87
REMARK SMILES IDX 49 88 43 89 44 90 47 91 45 92
REMARK H PARENT 6 4 86 20 10 26 69 45 37 56
REMARK Flexibility Score: inf
ROOT
ATOM      1  C   UNL A   1      36.167  22.778  25.666  1.00  0.00     0.220 C 
ATOM      2  O   UNL A   1      36.638  23.824  26.117  1.00  0.00    -0.275 OA
ATOM      3  N   UNL A   1      37.011  21.727  25.509  1.00  0.00    -0.356 N 
ATOM      4  H   UNL A   1      37.933  21.895  25.811  1.00  0.00     0.163 HD
ENDROOT
BRANCH   1   5
ATOM      5  C   UNL A   1      34.700  22.691  25.283  1.00  0.00     0.103 C 
BRANCH   5   6
ATOM      6  C   UNL A   1      33.671  22.775  26.437  1.00  0.00     0.004 C 
ATOM      7  C   UNL A   1      34.015  21.790  27.555  1.00  0.00     0.009 C 
BRANCH   6   8
ATOM      8  C   UNL A   1      32.208  22.708  25.951  1.00  0.00     0.104 C 
BRANCH   8   9
ATOM      9  C   UNL A   1      31.409  23.984  26.183  1.00  0.00     0.222 C 
ATOM     10  O   UNL A   1      30.784  24.107  27.238  1.00  0.00    -0.275 OA
BRANCH   9  11
ATOM     11  N   UNL A   1      31.371  24.958  25.191  1.00  0.00    -0.340 N 
ATOM     12  C   UNL A   1      30.687  24.833  23.914  1.00  0.00     0.147 C 
BRANCH  11  13
ATOM     13  C   UNL A   1      32.152  26.192  25.375  1.00  0.00     0.184 C 
BRANCH  13  14
ATOM     14  C   UNL A   1      31.370  27.362  26.050  1.00  0.00     0.203 C 
ATOM     15  C   UNL A   1      32.001  27.813  27.371  1.00  0.00     0.073 C 
ATOM     16  N   UNL A   1      31.444  28.667  25.361  1.00  0.00    -0.333 N 
ATOM     17  C   UNL A   1      33.184  28.677  26.937  1.00  0.00     0.068 C 
ATOM     18  C   UNL A   1      32.810  29.163  25.539  1.00  0.00     0.262 C 
ATOM     19  C   UNL A   1      30.963  28.724  23.998  1.00  0.00     0.333 C 
ATOM     20  H   UNL A   1      30.767  29.291  25.799  1.00  0.00     0.348 HD
ENDBRANCH  13  14
ENDBRANCH  11  13
ENDBRANCH   9  11
ENDBRANCH   8   9
ENDBRANCH   6   8
ENDBRANCH   5   6
ENDBRANCH   1   5
BRANCH   3  21
ATOM     21  C   UNL A   1      36.791  20.396  24.971  1.00  0.00     0.117 C 
BRANCH  21  22
ATOM     22  C   UNL A   1      38.075  19.573  24.941  1.00  0.00     0.042 C 
BRANCH  22  23
ATOM     23  C   UNL A   1      39.162  20.029  25.910  1.00  0.00     0.118 C 
BRANCH  23  24
ATOM     24  N   UNL A   1      40.298  19.126  25.929  1.00  0.00    -0.352 N 
ATOM     25  C   UNL A   1      41.642  19.382  26.056  1.00  0.00     0.251 C 
ATOM     26  H   UNL A   1      40.068  18.173  25.835  1.00  0.00     0.163 HD
ATOM     27  O   UNL A   1      42.439  18.474  25.839  1.00  0.00    -0.269 OA
BRANCH  25  28
ATOM     28  C   UNL A   1      42.160  20.723  26.437  1.00  0.00     0.039 A 
ATOM     29  C   UNL A   1      42.196  21.054  27.797  1.00  0.00     0.014 A 
ATOM     30  C   UNL A   1      42.515  21.688  25.491  1.00  0.00     0.014 A 
ATOM     31  C   UNL A   1      42.613  22.326  28.207  1.00  0.00     0.010 A 
ATOM     32  C   UNL A   1      42.994  22.936  25.902  1.00  0.00     0.010 A 
ATOM     33  C   UNL A   1      43.032  23.277  27.264  1.00  0.00    -0.014 A 
BRANCH  33  34
ATOM     34  C   UNL A   1      43.466  24.637  27.686  1.00  0.00     0.031 A 
ATOM     35  C   UNL A   1      42.444  25.687  28.036  1.00  0.00     0.074 A 
ATOM     36  C   UNL A   1      44.777  24.945  27.728  1.00  0.00     0.049 A 
ATOM     37  N   UNL A   1      42.624  26.941  28.371  1.00  0.00    -0.248 NA
ATOM     38  C   UNL A   1      41.032  25.279  27.982  1.00  0.00     0.031 C 
ATOM     39  C   UNL A   1      45.871  24.034  27.391  1.00  0.00     0.029 A 
ATOM     40  N   UNL A   1      45.410  26.116  28.065  1.00  0.00    -0.354 N 
ATOM     41  C   UNL A   1      41.354  27.473  28.548  1.00  0.00     0.074 A 
ATOM     42  C   UNL A   1      40.409  26.419  28.243  1.00  0.00     0.031 C 
ATOM     43  C   UNL A   1      47.041  24.674  27.554  1.00  0.00     0.029 A 
ATOM     44  C   UNL A   1      46.779  26.048  27.976  1.00  0.00     0.049 A 
ATOM     45  H   UNL A   1      44.929  26.928  28.344  1.00  0.00     0.167 HD
ATOM     46  C   UNL A   1      41.003  28.720  28.947  1.00  0.00     0.037 A 
ATOM     47  C   UNL A   1      47.720  26.986  28.202  1.00  0.00     0.037 A 
ATOM     48  C   UNL A   1      41.936  29.761  29.289  1.00  0.00     0.049 A 
ATOM     49  C   UNL A   1      47.304  28.362  28.649  1.00  0.00     0.074 A 
ATOM     50  C   UNL A   1      41.672  31.037  29.758  1.00  0.00     0.029 A 
ATOM     51  N   UNL A   1      43.314  29.645  29.201  1.00  0.00    -0.354 N 
ATOM     52  N   UNL A   1      46.101  28.834  28.861  1.00  0.00    -0.248 NA
ATOM     53  C   UNL A   1      48.381  29.333  28.894  1.00  0.00     0.031 C 
ATOM     54  C   UNL A   1      42.892  31.704  29.921  1.00  0.00     0.029 A 
ATOM     55  C   UNL A   1      43.915  30.831  29.592  1.00  0.00     0.049 A 
ATOM     56  H   UNL A   1      43.797  28.840  28.905  1.00  0.00     0.167 HD
ATOM     57  C   UNL A   1      46.275  30.144  29.290  1.00  0.00     0.074 A 
ATOM     58  C   UNL A   1      47.701  30.389  29.319  1.00  0.00     0.031 C 
ATOM     59  C   UNL A   1      45.336  31.060  29.629  1.00  0.00     0.037 A 
BRANCH  46  60
ATOM     60  C   UNL A   1      39.538  29.032  29.040  1.00  0.00     0.064 A 
ATOM     61  C   UNL A   1      38.793  29.405  27.911  1.00  0.00     0.173 A 
ATOM     62  C   UNL A   1      38.861  28.914  30.263  1.00  0.00     0.173 A 
ATOM     63  F   UNL A   1      39.396  29.540  26.720  1.00  0.00    -0.203 F 
ATOM     64  C   UNL A   1      37.430  29.674  28.008  1.00  0.00     0.198 A 
ATOM     65  C   UNL A   1      37.493  29.159  30.353  1.00  0.00     0.198 A 
ATOM     66  F   UNL A   1      39.526  28.554  31.372  1.00  0.00    -0.203 F 
ATOM     67  F   UNL A   1      36.748  30.072  26.925  1.00  0.00    -0.200 F 
ATOM     68  C   UNL A   1      36.780  29.545  29.227  1.00  0.00     0.200 A 
ATOM     69  F   UNL A   1      36.864  29.022  31.528  1.00  0.00    -0.200 F 
ATOM     70  F   UNL A   1      35.468  29.800  29.318  1.00  0.00    -0.200 F 
ENDBRANCH  46  60
BRANCH  47  71
ATOM     71  C   UNL A   1      49.156  26.649  28.032  1.00  0.00     0.064 A 
ATOM     72  C   UNL A   1      49.961  26.353  29.141  1.00  0.00     0.173 A 
ATOM     73  C   UNL A   1      49.753  26.621  26.763  1.00  0.00     0.173 A 
ATOM     74  F   UNL A   1      49.439  26.389  30.375  1.00  0.00    -0.203 F 
ATOM     75  C   UNL A   1      51.315  26.059  28.988  1.00  0.00     0.198 A 
ATOM     76  C   UNL A   1      51.100  26.301  26.610  1.00  0.00     0.198 A 
ATOM     77  F   UNL A   1      49.023  26.891  25.671  1.00  0.00    -0.203 F 
ATOM     78  F   UNL A   1      52.072  25.820  30.068  1.00  0.00    -0.200 F 
ATOM     79  C   UNL A   1      51.882  26.028  27.722  1.00  0.00     0.200 A 
ATOM     80  F   UNL A   1      51.640  26.257  25.385  1.00  0.00    -0.200 F 
ATOM     81  F   UNL A   1      53.182  25.740  27.576  1.00  0.00    -0.200 F 
ENDBRANCH  47  71
BRANCH  59  82
ATOM     82  C   UNL A   1      45.817  32.402  30.094  1.00  0.00     0.064 A 
ATOM     83  C   UNL A   1      45.991  33.470  29.202  1.00  0.00     0.173 A 
ATOM     84  C   UNL A   1      46.069  32.634  31.455  1.00  0.00     0.173 A 
ATOM     85  F   UNL A   1      45.778  33.293  27.889  1.00  0.00    -0.203 F 
ATOM     86  C   UNL A   1      46.419  34.716  29.652  1.00  0.00     0.198 A 
ATOM     87  C   UNL A   1      46.472  33.888  31.905  1.00  0.00     0.198 A 
ATOM     88  F   UNL A   1      45.913  31.645  32.349  1.00  0.00    -0.203 F 
ATOM     89  F   UNL A   1      46.617  35.711  28.777  1.00  0.00    -0.200 F 
ATOM     90  C   UNL A   1      46.652  34.926  31.004  1.00  0.00     0.200 A 
ATOM     91  F   UNL A   1      46.689  34.091  33.212  1.00  0.00    -0.200 F 
ATOM     92  F   UNL A   1      47.059  36.127  31.436  1.00  0.00    -0.200 F 
ENDBRANCH  59  82
ENDBRANCH  33  34
ENDBRANCH  25  28
ENDBRANCH  23  24
ENDBRANCH  22  23
ENDBRANCH  21  22
ENDBRANCH   3  21
TORSDOF 16
ENDMDL
MODEL 2
REMARK VINA RESULT:     -10.6      5.368     10.753
REMARK SMILES C[C@@H](CC(=O)NCCCNC(=O)c1ccc(-c2c3nc(c(-c4c(F)c(F)c(F)c(F)c4F)c4ccc([nH]4)c(-c4c(F)c(F)c(F)c(F)c4F)c4nc(c(-c5c(F)c(F)c(F)c(F)c5F)c5ccc2[nH]5)C=C4)C=C3)cc1)CC(=O)N(C)C[C@H]1CCC[N@H+]1C
REMARK SMILES IDX 4 1 5 2 6 3 3 5 2 6 1 7 76 8 77 9 78 10 79 11 80 12 81 13
REMARK SMILES IDX 82 14 83 15 86 16 84 17 85 18 87 19 7 21 8 22 9 23 10 24
REMARK SMILES IDX 11 25 12 27 13 28 14 29 75 30 15 31 74 32 16 33 17 34 18 35
REMARK SMILES IDX 68 36 19 37 73 38 67 39 69 40 20 41 72 42 66 43 65 44 21 46
REMARK SMILES IDX 53 47 33 48 52 49 34 50 37 51 51 52 70 53 35 54 36 55 50 57
REMARK SMILES IDX 71 58 38 59 22 60 23 61 31 62 24 63 25 64 29 65 32 66 26 67
REMARK SMILES IDX 27 68 30 69 28 70 54 71 55 72 63 73 56 74 57 75 61 76 64 77
REMARK SMILES IDX 58 78 59 79 62 80 60 81 39 82 40 83 48 84 41 85 42 86 46 87
REMARK SMILES IDX 49 88 43 89 44 90 47 91 45 92
REMARK H PARENT 6 4 86 20 10 26 69 45 37 56
REMARK Flexibility Score: inf
ROOT
ATOM      1  C   UNL A   1      30.814  29.265  23.958  1.00  0.00     0.220 C 
ATOM      2  O   UNL A   1      30.511  29.412  22.773  1.00  0.00    -0.275 OA
ATOM      3  N   UNL A   1      31.049  30.385  24.689  1.00  0.00    -0.356 N 
ATOM      4  H   UNL A   1      30.917  31.228  24.197  1.00  0.00     0.163 HD
ENDROOT
BRANCH   1   5
ATOM      5  C   UNL A   1      30.938  27.876  24.561  1.00  0.00     0.103 C 
BRANCH   5   6
ATOM      6  C   UNL A   1      31.390  26.740  23.611  1.00  0.00     0.004 C 
ATOM      7  C   UNL A   1      30.555  25.477  23.825  1.00  0.00     0.009 C 
BRANCH   6   8
ATOM      8  C   UNL A   1      32.915  26.510  23.623  1.00  0.00     0.104 C 
BRANCH   8   9
ATOM      9  C   UNL A   1      33.425  25.613  22.502  1.00  0.00     0.222 C 
ATOM     10  O   UNL A   1      33.599  26.102  21.385  1.00  0.00    -0.275 OA
BRANCH   9  11
ATOM     11  N   UNL A   1      33.645  24.263  22.754  1.00  0.00    -0.340 N 
ATOM     12  C   UNL A   1      33.099  23.161  21.977  1.00  0.00     0.147 C 
BRANCH  11  13
ATOM     13  C   UNL A   1      34.414  23.877  23.948  1.00  0.00     0.184 C 
BRANCH  13  14
ATOM     14  C   UNL A   1      35.464  22.747  23.711  1.00  0.00     0.203 C 
ATOM     15  C   UNL A   1      36.899  23.201  23.996  1.00  0.00     0.073 C 
ATOM     16  N   UNL A   1      35.435  21.628  24.675  1.00  0.00    -0.333 N 
ATOM     17  C   UNL A   1      37.002  23.159  25.519  1.00  0.00     0.068 C 
ATOM     18  C   UNL A   1      35.937  22.152  25.946  1.00  0.00     0.262 C 
ATOM     19  C   UNL A   1      34.201  20.881  24.785  1.00  0.00     0.333 C 
ATOM     20  H   UNL A   1      36.040  20.890  24.317  1.00  0.00     0.348 HD
ENDBRANCH  13  14
ENDBRANCH  11  13
ENDBRANCH   9  11
ENDBRANCH   8   9
ENDBRANCH   6   8
ENDBRANCH   5   6
ENDBRANCH   1   5
BRANCH   3  21
ATOM     21  C   UNL A   1      31.462  30.556  26.071  1.00  0.00     0.117 C 
BRANCH  21  22
ATOM     22  C   UNL A   1      31.395  32.016  26.509  1.00  0.00     0.042 C 
BRANCH  22  23
ATOM     23  C   UNL A   1      32.671  32.567  27.136  1.00  0.00     0.118 C 
BRANCH  23  24
ATOM     24  N   UNL A   1      32.538  33.957  27.528  1.00  0.00    -0.352 N 
ATOM     25  C   UNL A   1      33.125  34.657  28.555  1.00  0.00     0.251 C 
ATOM     26  H   UNL A   1      31.926  34.487  26.967  1.00  0.00     0.163 HD
ATOM     27  O   UNL A   1      32.703  35.779  28.821  1.00  0.00    -0.269 OA
BRANCH  25  28
ATOM     28  C   UNL A   1      34.243  34.096  29.358  1.00  0.00     0.039 A 
ATOM     29  C   UNL A   1      35.553  34.371  28.948  1.00  0.00     0.014 A 
ATOM     30  C   UNL A   1      34.034  33.233  30.437  1.00  0.00     0.014 A 
ATOM     31  C   UNL A   1      36.642  33.815  29.628  1.00  0.00     0.010 A 
ATOM     32  C   UNL A   1      35.122  32.729  31.158  1.00  0.00     0.010 A 
ATOM     33  C   UNL A   1      36.438  32.999  30.752  1.00  0.00    -0.014 A 
BRANCH  33  34
ATOM     34  C   UNL A   1      37.588  32.392  31.477  1.00  0.00     0.031 A 
ATOM     35  C   UNL A   1      38.354  31.248  30.866  1.00  0.00     0.074 A 
ATOM     36  C   UNL A   1      37.930  32.843  32.700  1.00  0.00     0.049 A 
ATOM     37  N   UNL A   1      39.347  30.552  31.365  1.00  0.00    -0.248 NA
ATOM     38  C   UNL A   1      37.936  30.815  29.524  1.00  0.00     0.031 C 
ATOM     39  C   UNL A   1      37.259  33.925  33.420  1.00  0.00     0.029 A 
ATOM     40  N   UNL A   1      38.925  32.439  33.557  1.00  0.00    -0.354 N 
ATOM     41  C   UNL A   1      39.656  29.593  30.411  1.00  0.00     0.074 A 
ATOM     42  C   UNL A   1      38.720  29.766  29.320  1.00  0.00     0.031 C 
ATOM     43  C   UNL A   1      37.871  34.112  34.601  1.00  0.00     0.029 A 
ATOM     44  C   UNL A   1      38.955  33.142  34.736  1.00  0.00     0.049 A 
ATOM     45  H   UNL A   1      39.556  31.714  33.346  1.00  0.00     0.167 HD
ATOM     46  C   UNL A   1      40.642  28.662  30.430  1.00  0.00     0.037 A 
ATOM     47  C   UNL A   1      39.761  33.018  35.809  1.00  0.00     0.037 A 
ATOM     48  C   UNL A   1      41.599  28.509  31.494  1.00  0.00     0.049 A 
ATOM     49  C   UNL A   1      40.852  31.981  35.803  1.00  0.00     0.074 A 
ATOM     50  C   UNL A   1      42.668  27.632  31.573  1.00  0.00     0.029 A 
ATOM     51  N   UNL A   1      41.606  29.253  32.663  1.00  0.00    -0.354 N 
ATOM     52  N   UNL A   1      41.164  31.115  34.872  1.00  0.00    -0.248 NA
ATOM     53  C   UNL A   1      41.706  31.909  36.999  1.00  0.00     0.031 C 
ATOM     54  C   UNL A   1      43.301  27.823  32.807  1.00  0.00     0.029 A 
ATOM     55  C   UNL A   1      42.650  28.845  33.478  1.00  0.00     0.049 A 
ATOM     56  H   UNL A   1      40.964  29.966  32.884  1.00  0.00     0.167 HD
ATOM     57  C   UNL A   1      42.264  30.416  35.353  1.00  0.00     0.074 A 
ATOM     58  C   UNL A   1      42.572  30.966  36.656  1.00  0.00     0.031 C 
ATOM     59  C   UNL A   1      42.955  29.409  34.767  1.00  0.00     0.037 A 
BRANCH  46  60
ATOM     60  C   UNL A   1      40.740  27.732  29.257  1.00  0.00     0.064 A 
ATOM     61  C   UNL A   1      39.870  26.641  29.111  1.00  0.00     0.173 A 
ATOM     62  C   UNL A   1      41.685  27.958  28.245  1.00  0.00     0.173 A 
ATOM     63  F   UNL A   1      38.955  26.376  30.055  1.00  0.00    -0.203 F 
ATOM     64  C   UNL A   1      39.960  25.795  28.008  1.00  0.00     0.198 A 
ATOM     65  C   UNL A   1      41.756  27.126  27.132  1.00  0.00     0.198 A 
ATOM     66  F   UNL A   1      42.536  28.992  28.334  1.00  0.00    -0.203 F 
ATOM     67  F   UNL A   1      39.148  24.733  27.912  1.00  0.00    -0.200 F 
ATOM     68  C   UNL A   1      40.898  26.041  27.017  1.00  0.00     0.200 A 
ATOM     69  F   UNL A   1      42.655  27.372  26.168  1.00  0.00    -0.200 F 
ATOM     70  F   UNL A   1      40.981  25.230  25.953  1.00  0.00    -0.200 F 
ENDBRANCH  46  60
BRANCH  47  71
ATOM     71  C   UNL A   1      39.583  33.920  36.976  1.00  0.00     0.064 A 
ATOM     72  C   UNL A   1      40.188  35.184  37.006  1.00  0.00     0.173 A 
ATOM     73  C   UNL A   1      38.811  33.536  38.082  1.00  0.00     0.173 A 
ATOM     74  F   UNL A   1      40.952  35.584  35.981  1.00  0.00    -0.203 F 
ATOM     75  C   UNL A   1      40.042  36.024  38.108  1.00  0.00     0.198 A 
ATOM     76  C   UNL A   1      38.645  34.388  39.172  1.00  0.00     0.198 A 
ATOM     77  F   UNL A   1      38.207  32.339  38.098  1.00  0.00    -0.203 F 
ATOM     78  F   UNL A   1      40.665  37.210  38.131  1.00  0.00    -0.200 F 
ATOM     79  C   UNL A   1      39.266  35.627  39.188  1.00  0.00     0.200 A 
ATOM     80  F   UNL A   1      37.883  34.006  40.206  1.00  0.00    -0.200 F 
ATOM     81  F   UNL A   1      39.123  36.438  40.246  1.00  0.00    -0.200 F 
ENDBRANCH  47  71
BRANCH  59  82
ATOM     82  C   UNL A   1      44.135  28.857  35.511  1.00  0.00     0.064 A 
ATOM     83  C   UNL A   1      45.431  29.351  35.303  1.00  0.00     0.173 A 
ATOM     84  C   UNL A   1      43.961  27.849  36.471  1.00  0.00     0.173 A 
ATOM     85  F   UNL A   1      45.651  30.302  34.383  1.00  0.00    -0.203 F 
ATOM     86  C   UNL A   1      46.513  28.841  36.016  1.00  0.00     0.198 A 
ATOM     87  C   UNL A   1      45.041  27.361  37.201  1.00  0.00     0.198 A 
ATOM     88  F   UNL A   1      42.739  27.348  36.711  1.00  0.00    -0.203 F 
ATOM     89  F   UNL A   1      47.749  29.299  35.772  1.00  0.00    -0.200 F 
ATOM     90  C   UNL A   1      46.316  27.852  36.969  1.00  0.00     0.200 A 
ATOM     91  F   UNL A   1      44.848  26.411  38.127  1.00  0.00    -0.200 F 
ATOM     92  F   UNL A   1      47.358  27.367  37.658  1.00  0.00    -0.200 F 
ENDBRANCH  59  82
ENDBRANCH  33  34
ENDBRANCH  25  28
ENDBRANCH  23  24
ENDBRANCH  22  23
ENDBRANCH  21  22
ENDBRANCH   3  21
TORSDOF 16
ENDMDL
MODEL 3
REMARK VINA RESULT:     -10.6      1.335      2.370
REMARK SMILES C[C@@H](CC(=O)NCCCNC(=O)c1ccc(-c2c3nc(c(-c4c(F)c(F)c(F)c(F)c4F)c4ccc([nH]4)c(-c4c(F)c(F)c(F)c(F)c4F)c4nc(c(-c5c(F)c(F)c(F)c(F)c5F)c5ccc2[nH]5)C=C4)C=C3)cc1)CC(=O)N(C)C[C@H]1CCC[N@H+]1C
REMARK SMILES IDX 4 1 5 2 6 3 3 5 2 6 1 7 76 8 77 9 78 10 79 11 80 12 81 13
REMARK SMILES IDX 82 14 83 15 86 16 84 17 85 18 87 19 7 21 8 22 9 23 10 24
REMARK SMILES IDX 11 25 12 27 13 28 14 29 75 30 15 31 74 32 16 33 17 34 18 35
REMARK SMILES IDX 68 36 19 37 73 38 67 39 69 40 20 41 72 42 66 43 65 44 21 46
REMARK SMILES IDX 53 47 33 48 52 49 34 50 37 51 51 52 70 53 35 54 36 55 50 57
REMARK SMILES IDX 71 58 38 59 22 60 23 61 31 62 24 63 25 64 29 65 32 66 26 67
REMARK SMILES IDX 27 68 30 69 28 70 54 71 55 72 63 73 56 74 57 75 61 76 64 77
REMARK SMILES IDX 58 78 59 79 62 80 60 81 39 82 40 83 48 84 41 85 42 86 46 87
REMARK SMILES IDX 49 88 43 89 44 90 47 91 45 92
REMARK H PARENT 6 4 86 20 10 26 69 45 37 56
REMARK Flexibility Score: inf
ROOT
ATOM      1  C   UNL A   1      34.243  20.291  24.987  1.00  0.00     0.220 C 
ATOM      2  O   UNL A   1      33.336  19.529  25.328  1.00  0.00    -0.275 OA
ATOM      3  N   UNL A   1      35.515  19.822  25.057  1.00  0.00    -0.356 N 
ATOM      4  H   UNL A   1      35.588  18.884  25.347  1.00  0.00     0.163 HD
ENDROOT
BRANCH   1   5
ATOM      5  C   UNL A   1      33.936  21.706  24.528  1.00  0.00     0.103 C 
BRANCH   5   6
ATOM      6  C   UNL A   1      33.344  22.670  25.586  1.00  0.00     0.004 C 
ATOM      7  C   UNL A   1      34.082  22.545  26.920  1.00  0.00     0.009 C 
BRANCH   6   8
ATOM      8  C   UNL A   1      31.808  22.585  25.692  1.00  0.00     0.104 C 
BRANCH   8   9
ATOM      9  C   UNL A   1      31.151  23.810  26.316  1.00  0.00     0.222 C 
ATOM     10  O   UNL A   1      30.395  23.650  27.276  1.00  0.00    -0.275 OA
BRANCH   9  11
ATOM     11  N   UNL A   1      31.388  25.066  25.770  1.00  0.00    -0.340 N 
ATOM     12  C   UNL A   1      31.662  26.277  26.528  1.00  0.00     0.147 C 
BRANCH  11  13
ATOM     13  C   UNL A   1      31.269  25.243  24.313  1.00  0.00     0.184 C 
BRANCH  13  14
ATOM     14  C   UNL A   1      32.300  26.235  23.691  1.00  0.00     0.203 C 
ATOM     15  C   UNL A   1      33.503  25.526  23.062  1.00  0.00     0.073 C 
ATOM     16  N   UNL A   1      31.855  26.946  22.474  1.00  0.00    -0.333 N 
ATOM     17  C   UNL A   1      32.974  25.025  21.719  1.00  0.00     0.068 C 
ATOM     18  C   UNL A   1      31.805  25.955  21.399  1.00  0.00     0.262 C 
ATOM     19  C   UNL A   1      30.668  27.767  22.584  1.00  0.00     0.333 C 
ATOM     20  H   UNL A   1      32.538  27.676  22.271  1.00  0.00     0.348 HD
ENDBRANCH  13  14
ENDBRANCH  11  13
ENDBRANCH   9  11
ENDBRANCH   8   9
ENDBRANCH   6   8
ENDBRANCH   5   6
ENDBRANCH   1   5
BRANCH   3  21
ATOM     21  C   UNL A   1      36.787  20.464  24.778  1.00  0.00     0.117 C 
BRANCH  21  22
ATOM     22  C   UNL A   1      37.961  19.506  24.959  1.00  0.00     0.042 C 
BRANCH  22  23
ATOM     23  C   UNL A   1      39.059  19.993  25.899  1.00  0.00     0.118 C 
BRANCH  23  24
ATOM     24  N   UNL A   1      40.173  19.068  25.972  1.00  0.00    -0.352 N 
ATOM     25  C   UNL A   1      41.525  19.300  26.066  1.00  0.00     0.251 C 
ATOM     26  H   UNL A   1      39.921  18.116  25.949  1.00  0.00     0.163 HD
ATOM     27  O   UNL A   1      42.298  18.359  25.908  1.00  0.00    -0.269 OA
BRANCH  25  28
ATOM     28  C   UNL A   1      42.078  20.651  26.345  1.00  0.00     0.039 A 
ATOM     29  C   UNL A   1      42.249  21.032  27.681  1.00  0.00     0.014 A 
ATOM     30  C   UNL A   1      42.338  21.580  25.333  1.00  0.00     0.014 A 
ATOM     31  C   UNL A   1      42.705  22.316  28.001  1.00  0.00     0.010 A 
ATOM     32  C   UNL A   1      42.856  22.840  25.649  1.00  0.00     0.010 A 
ATOM     33  C   UNL A   1      43.028  23.230  26.987  1.00  0.00    -0.014 A 
BRANCH  33  34
ATOM     34  C   UNL A   1      43.502  24.603  27.314  1.00  0.00     0.031 A 
ATOM     35  C   UNL A   1      42.548  25.622  27.881  1.00  0.00     0.074 A 
ATOM     36  C   UNL A   1      44.781  24.951  27.076  1.00  0.00     0.049 A 
ATOM     37  N   UNL A   1      42.758  26.881  28.177  1.00  0.00    -0.248 NA
ATOM     38  C   UNL A   1      41.170  25.171  28.129  1.00  0.00     0.031 C 
ATOM     39  C   UNL A   1      45.804  24.074  26.507  1.00  0.00     0.029 A 
ATOM     40  N   UNL A   1      45.437  26.141  27.275  1.00  0.00    -0.354 N 
ATOM     41  C   UNL A   1      41.540  27.375  28.625  1.00  0.00     0.074 A 
ATOM     42  C   UNL A   1      40.584  26.292  28.523  1.00  0.00     0.031 C 
ATOM     43  C   UNL A   1      46.962  24.748  26.419  1.00  0.00     0.029 A 
ATOM     44  C   UNL A   1      46.757  26.114  26.895  1.00  0.00     0.049 A 
ATOM     45  H   UNL A   1      45.003  26.938  27.656  1.00  0.00     0.167 HD
ATOM     46  C   UNL A   1      41.246  28.611  29.097  1.00  0.00     0.037 A 
ATOM     47  C   UNL A   1      47.696  27.081  26.919  1.00  0.00     0.037 A 
ATOM     48  C   UNL A   1      42.200  29.680  29.237  1.00  0.00     0.049 A 
ATOM     49  C   UNL A   1      47.345  28.443  27.453  1.00  0.00     0.074 A 
ATOM     50  C   UNL A   1      42.005  30.948  29.759  1.00  0.00     0.029 A 
ATOM     51  N   UNL A   1      43.530  29.606  28.855  1.00  0.00    -0.354 N 
ATOM     52  N   UNL A   1      46.202  28.879  27.921  1.00  0.00    -0.248 NA
ATOM     53  C   UNL A   1      48.420  29.447  27.467  1.00  0.00     0.031 C 
ATOM     54  C   UNL A   1      43.210  31.652  29.661  1.00  0.00     0.029 A 
ATOM     55  C   UNL A   1      44.165  30.810  29.115  1.00  0.00     0.049 A 
ATOM     56  H   UNL A   1      43.961  28.815  28.457  1.00  0.00     0.167 HD
ATOM     57  C   UNL A   1      46.424  30.194  28.310  1.00  0.00     0.074 A 
ATOM     58  C   UNL A   1      47.816  30.483  28.033  1.00  0.00     0.031 C 
ATOM     59  C   UNL A   1      45.554  31.081  28.847  1.00  0.00     0.037 A 
BRANCH  46  60
ATOM     60  C   UNL A   1      39.827  28.878  29.504  1.00  0.00     0.064 A 
ATOM     61  C   UNL A   1      38.880  29.366  28.591  1.00  0.00     0.173 A 
ATOM     62  C   UNL A   1      39.396  28.603  30.811  1.00  0.00     0.173 A 
ATOM     63  F   UNL A   1      39.244  29.653  27.332  1.00  0.00    -0.203 F 
ATOM     64  C   UNL A   1      37.561  29.593  28.977  1.00  0.00     0.198 A 
ATOM     65  C   UNL A   1      38.072  28.806  31.187  1.00  0.00     0.198 A 
ATOM     66  F   UNL A   1      40.261  28.129  31.721  1.00  0.00    -0.203 F 
ATOM     67  F   UNL A   1      36.686  30.101  28.099  1.00  0.00    -0.200 F 
ATOM     68  C   UNL A   1      37.157  29.307  30.272  1.00  0.00     0.200 A 
ATOM     69  F   UNL A   1      37.679  28.519  32.436  1.00  0.00    -0.200 F 
ATOM     70  F   UNL A   1      35.886  29.521  30.642  1.00  0.00    -0.200 F 
ENDBRANCH  46  60
BRANCH  47  71
ATOM     71  C   UNL A   1      49.071  26.787  26.443  1.00  0.00     0.064 A 
ATOM     72  C   UNL A   1      49.418  26.959  25.096  1.00  0.00     0.173 A 
ATOM     73  C   UNL A   1      50.064  26.327  27.321  1.00  0.00     0.173 A 
ATOM     74  F   UNL A   1      48.496  27.376  24.217  1.00  0.00    -0.203 F 
ATOM     75  C   UNL A   1      50.701  26.663  24.640  1.00  0.00     0.198 A 
ATOM     76  C   UNL A   1      51.353  26.056  26.868  1.00  0.00     0.198 A 
ATOM     77  F   UNL A   1      49.784  26.153  28.621  1.00  0.00    -0.203 F 
ATOM     78  F   UNL A   1      50.994  26.796  23.339  1.00  0.00    -0.200 F 
ATOM     79  C   UNL A   1      51.669  26.217  25.528  1.00  0.00     0.200 A 
ATOM     80  F   UNL A   1      52.289  25.640  27.732  1.00  0.00    -0.200 F 
ATOM     81  F   UNL A   1      52.904  25.938  25.090  1.00  0.00    -0.200 F 
ENDBRANCH  47  71
BRANCH  59  82
ATOM     82  C   UNL A   1      46.083  32.438  29.206  1.00  0.00     0.064 A 
ATOM     83  C   UNL A   1      46.649  32.697  30.463  1.00  0.00     0.173 A 
ATOM     84  C   UNL A   1      46.060  33.480  28.267  1.00  0.00     0.173 A 
ATOM     85  F   UNL A   1      46.679  31.738  31.400  1.00  0.00    -0.203 F 
ATOM     86  C   UNL A   1      47.154  33.957  30.774  1.00  0.00     0.198 A 
ATOM     87  C   UNL A   1      46.589  34.731  28.572  1.00  0.00     0.198 A 
ATOM     88  F   UNL A   1      45.534  33.281  27.049  1.00  0.00    -0.203 F 
ATOM     89  F   UNL A   1      47.653  34.194  31.995  1.00  0.00    -0.200 F 
ATOM     90  C   UNL A   1      47.130  34.970  29.826  1.00  0.00     0.200 A 
ATOM     91  F   UNL A   1      46.574  35.707  27.653  1.00  0.00    -0.200 F 
ATOM     92  F   UNL A   1      47.622  36.181  30.125  1.00  0.00    -0.200 F 
ENDBRANCH  59  82
ENDBRANCH  33  34
ENDBRANCH  25  28
ENDBRANCH  23  24
ENDBRANCH  22  23
ENDBRANCH  21  22
ENDBRANCH   3  21
TORSDOF 16
ENDMDL
