MODEL 1
REMARK VINA RESULT:     -12.2      0.000      0.000
REMARK SMILES N#Cc1ccc(/C=C/C(=O)N[C@H]2C=C[C@H](C(=O)NCCCNC(=O)c3ccc(-c4c5nc(c(-c6c(F)c(F)c(F)c(F)c6F)c6ccc([nH]6)c(-c6c(F)c(F)c(F)c(F)c6F)c6nc(c(-c7c(F)c(F)c(F)c(F)c7F)c7ccc4[nH]7)C=C6)C=C5)cc3)C2)cc1
REMARK SMILES IDX 19 1 18 2 16 3 17 4 15 6 12 7 13 8 88 9 14 10 11 11 9 12
REMARK SMILES IDX 10 13 8 15 7 16 6 17 3 18 4 19 90 20 5 21 89 22 2 23 1 24
REMARK SMILES IDX 20 25 21 26 22 27 23 28 24 30 25 31 26 32 87 33 27 34 86 35
REMARK SMILES IDX 28 36 29 37 30 38 80 39 31 40 85 41 79 42 81 43 32 44 84 45
REMARK SMILES IDX 78 46 77 47 33 49 65 50 45 51 64 52 46 53 49 54 63 55 82 56
REMARK SMILES IDX 47 57 48 58 62 60 83 61 50 62 34 63 35 64 43 65 36 66 37 67
REMARK SMILES IDX 41 68 44 69 38 70 39 71 42 72 40 73 66 74 67 75 75 76 68 77
REMARK SMILES IDX 69 78 73 79 76 80 70 81 71 82 74 83 72 84 51 85 52 86 60 87
REMARK SMILES IDX 53 88 54 89 58 90 61 91 55 92 56 93 59 94 57 95
REMARK H PARENT 18 5 11 14 22 29 81 48 49 59
REMARK Flexibility Score: inf
ROOT
ATOM      1  C   UNL A   1      31.268  30.767  25.642  1.00  0.00     0.117 C 
ENDROOT
BRANCH   1   2
ATOM      2  N   UNL A   1      32.515  30.078  25.866  1.00  0.00    -0.356 N 
ATOM      3  C   UNL A   1      33.194  29.242  25.043  1.00  0.00     0.227 C 
ATOM      4  O   UNL A   1      34.197  28.708  25.516  1.00  0.00    -0.274 OA
ATOM      5  H   UNL A   1      32.934  30.238  26.743  1.00  0.00     0.163 HD
BRANCH   3   6
ATOM      6  C   UNL A   1      32.688  28.947  23.625  1.00  0.00     0.103 C 
ATOM      7  C   UNL A   1      32.550  26.544  23.492  1.00  0.00     0.106 C 
ATOM      8  C   UNL A   1      33.541  27.036  22.498  1.00  0.00    -0.006 C 
ATOM      9  C   UNL A   1      31.682  27.791  23.679  1.00  0.00     0.047 C 
ATOM     10  C   UNL A   1      33.704  28.360  22.667  1.00  0.00    -0.016 C 
BRANCH   7  11
ATOM     11  N   UNL A   1      31.777  25.400  23.121  1.00  0.00    -0.346 N 
ATOM     12  C   UNL A   1      31.957  24.095  23.491  1.00  0.00     0.244 C 
ATOM     13  O   UNL A   1      31.074  23.286  23.197  1.00  0.00    -0.270 OA
ATOM     14  H   UNL A   1      31.016  25.573  22.521  1.00  0.00     0.164 HD
BRANCH  12  15
ATOM     15  C   UNL A   1      33.155  23.572  24.244  1.00  0.00     0.072 C 
ATOM     16  C   UNL A   1      34.453  23.619  23.911  1.00  0.00     0.014 C 
BRANCH  16  17
ATOM     17  C   UNL A   1      35.678  23.138  24.568  1.00  0.00    -0.025 A 
ATOM     18  C   UNL A   1      38.085  22.053  25.547  1.00  0.00     0.052 A 
ATOM     19  C   UNL A   1      37.668  23.335  25.931  1.00  0.00     0.020 A 
ATOM     20  C   UNL A   1      37.288  21.296  24.696  1.00  0.00     0.020 A 
ATOM     21  C   UNL A   1      36.470  23.879  25.441  1.00  0.00     0.009 A 
ATOM     22  C   UNL A   1      36.093  21.833  24.228  1.00  0.00     0.009 A 
BRANCH  18  23
ATOM     23  C   UNL A   1      39.333  21.511  26.002  1.00  0.00     0.099 C 
ATOM     24  N   UNL A   1      40.326  21.063  26.396  1.00  0.00    -0.192 NA
ENDBRANCH  18  23
ENDBRANCH  16  17
ENDBRANCH  12  15
ENDBRANCH   7  11
ENDBRANCH   3   6
ENDBRANCH   1   2
BRANCH   1  25
ATOM     25  C   UNL A   1      31.161  32.020  26.499  1.00  0.00     0.042 C 
BRANCH  25  26
ATOM     26  C   UNL A   1      32.490  32.503  27.072  1.00  0.00     0.118 C 
BRANCH  26  27
ATOM     27  N   UNL A   1      32.432  33.874  27.557  1.00  0.00    -0.352 N 
ATOM     28  C   UNL A   1      33.169  34.511  28.520  1.00  0.00     0.251 C 
ATOM     29  H   UNL A   1      31.752  34.435  27.122  1.00  0.00     0.163 HD
ATOM     30  O   UNL A   1      32.816  35.622  28.909  1.00  0.00    -0.269 OA
BRANCH  28  31
ATOM     31  C   UNL A   1      34.372  33.879  29.107  1.00  0.00     0.039 A 
ATOM     32  C   UNL A   1      34.200  32.836  30.020  1.00  0.00     0.014 A 
ATOM     33  C   UNL A   1      35.659  34.336  28.812  1.00  0.00     0.014 A 
ATOM     34  C   UNL A   1      35.313  32.235  30.607  1.00  0.00     0.010 A 
ATOM     35  C   UNL A   1      36.772  33.665  29.314  1.00  0.00     0.010 A 
ATOM     36  C   UNL A   1      36.612  32.626  30.242  1.00  0.00    -0.014 A 
BRANCH  36  37
ATOM     37  C   UNL A   1      37.800  31.985  30.863  1.00  0.00     0.031 A 
ATOM     38  C   UNL A   1      38.236  32.368  32.252  1.00  0.00     0.074 A 
ATOM     39  C   UNL A   1      38.498  31.063  30.172  1.00  0.00     0.049 A 
ATOM     40  N   UNL A   1      39.235  31.908  32.965  1.00  0.00    -0.248 NA
ATOM     41  C   UNL A   1      37.467  33.429  32.920  1.00  0.00     0.031 C 
ATOM     42  C   UNL A   1      38.211  30.641  28.801  1.00  0.00     0.029 A 
ATOM     43  N   UNL A   1      39.589  30.311  30.530  1.00  0.00    -0.354 N 
ATOM     44  C   UNL A   1      39.207  32.619  34.158  1.00  0.00     0.074 A 
ATOM     45  C   UNL A   1      38.152  33.599  34.039  1.00  0.00     0.031 C 
ATOM     46  C   UNL A   1      39.080  29.682  28.447  1.00  0.00     0.029 A 
ATOM     47  C   UNL A   1      40.010  29.451  29.548  1.00  0.00     0.049 A 
ATOM     48  H   UNL A   1      40.027  30.382  31.409  1.00  0.00     0.167 HD
ATOM     49  C   UNL A   1      39.968  32.449  35.267  1.00  0.00     0.037 A 
ATOM     50  C   UNL A   1      41.035  28.577  29.531  1.00  0.00     0.037 A 
ATOM     51  C   UNL A   1      41.025  31.477  35.378  1.00  0.00     0.049 A 
ATOM     52  C   UNL A   1      41.886  28.424  30.763  1.00  0.00     0.074 A 
ATOM     53  C   UNL A   1      41.840  31.206  36.463  1.00  0.00     0.029 A 
ATOM     54  N   UNL A   1      41.425  30.623  34.359  1.00  0.00    -0.354 N 
ATOM     55  N   UNL A   1      41.812  29.057  31.908  1.00  0.00    -0.248 NA
ATOM     56  C   UNL A   1      42.954  27.418  30.703  1.00  0.00     0.031 C 
ATOM     57  C   UNL A   1      42.776  30.240  36.079  1.00  0.00     0.029 A 
ATOM     58  C   UNL A   1      42.489  29.842  34.783  1.00  0.00     0.049 A 
ATOM     59  H   UNL A   1      41.013  30.579  33.466  1.00  0.00     0.167 HD
ATOM     60  C   UNL A   1      42.796  28.502  32.717  1.00  0.00     0.074 A 
ATOM     61  C   UNL A   1      43.441  27.470  31.934  1.00  0.00     0.031 C 
ATOM     62  C   UNL A   1      43.128  28.815  33.996  1.00  0.00     0.037 A 
BRANCH  49  63
ATOM     63  C   UNL A   1      39.685  33.348  36.440  1.00  0.00     0.064 A 
ATOM     64  C   UNL A   1      38.777  32.985  37.449  1.00  0.00     0.173 A 
ATOM     65  C   UNL A   1      40.329  34.589  36.563  1.00  0.00     0.173 A 
ATOM     66  F   UNL A   1      38.124  31.814  37.381  1.00  0.00    -0.203 F 
ATOM     67  C   UNL A   1      38.486  33.848  38.503  1.00  0.00     0.198 A 
ATOM     68  C   UNL A   1      40.068  35.432  37.641  1.00  0.00     0.198 A 
ATOM     69  F   UNL A   1      41.213  34.988  35.636  1.00  0.00    -0.203 F 
ATOM     70  F   UNL A   1      37.557  33.509  39.407  1.00  0.00    -0.200 F 
ATOM     71  C   UNL A   1      39.137  35.068  38.601  1.00  0.00     0.200 A 
ATOM     72  F   UNL A   1      40.714  36.602  37.745  1.00  0.00    -0.200 F 
ATOM     73  F   UNL A   1      38.858  35.898  39.615  1.00  0.00    -0.200 F 
ENDBRANCH  49  63
BRANCH  50  74
ATOM     74  C   UNL A   1      41.293  27.767  28.312  1.00  0.00     0.064 A 
ATOM     75  C   UNL A   1      42.117  28.242  27.282  1.00  0.00     0.173 A 
ATOM     76  C   UNL A   1      40.723  26.494  28.155  1.00  0.00     0.173 A 
ATOM     77  F   UNL A   1      42.672  29.460  27.374  1.00  0.00    -0.203 F 
ATOM     78  C   UNL A   1      42.341  27.486  26.131  1.00  0.00     0.198 A 
ATOM     79  C   UNL A   1      40.978  25.725  27.022  1.00  0.00     0.198 A 
ATOM     80  F   UNL A   1      39.934  25.989  29.114  1.00  0.00    -0.203 F 
ATOM     81  F   UNL A   1      43.091  27.985  25.140  1.00  0.00    -0.200 F 
ATOM     82  C   UNL A   1      41.778  26.225  26.007  1.00  0.00     0.200 A 
ATOM     83  F   UNL A   1      40.448  24.498  26.917  1.00  0.00    -0.200 F 
ATOM     84  F   UNL A   1      42.002  25.494  24.907  1.00  0.00    -0.200 F 
ENDBRANCH  50  74
BRANCH  62  85
ATOM     85  C   UNL A   1      44.201  27.987  34.651  1.00  0.00     0.064 A 
ATOM     86  C   UNL A   1      43.917  26.798  35.339  1.00  0.00     0.173 A 
ATOM     87  C   UNL A   1      45.543  28.396  34.585  1.00  0.00     0.173 A 
ATOM     88  F   UNL A   1      42.652  26.361  35.441  1.00  0.00    -0.203 F 
ATOM     89  C   UNL A   1      44.925  26.082  35.981  1.00  0.00     0.198 A 
ATOM     90  C   UNL A   1      46.554  27.653  35.188  1.00  0.00     0.198 A 
ATOM     91  F   UNL A   1      45.877  29.518  33.930  1.00  0.00    -0.203 F 
ATOM     92  F   UNL A   1      44.616  24.993  36.701  1.00  0.00    -0.200 F 
ATOM     93  C   UNL A   1      46.243  26.507  35.901  1.00  0.00     0.200 A 
ATOM     94  F   UNL A   1      47.828  28.056  35.089  1.00  0.00    -0.200 F 
ATOM     95  F   UNL A   1      47.210  25.818  36.520  1.00  0.00    -0.200 F 
ENDBRANCH  62  85
ENDBRANCH  36  37
ENDBRANCH  28  31
ENDBRANCH  26  27
ENDBRANCH  25  26
ENDBRANCH   1  25
TORSDOF 14
ENDMDL
MODEL 2
REMARK VINA RESULT:     -12.1      2.196      4.656
REMARK SMILES N#Cc1ccc(/C=C/C(=O)N[C@H]2C=C[C@H](C(=O)NCCCNC(=O)c3ccc(-c4c5nc(c(-c6c(F)c(F)c(F)c(F)c6F)c6ccc([nH]6)c(-c6c(F)c(F)c(F)c(F)c6F)c6nc(c(-c7c(F)c(F)c(F)c(F)c7F)c7ccc4[nH]7)C=C6)C=C5)cc3)C2)cc1
REMARK SMILES IDX 19 1 18 2 16 3 17 4 15 6 12 7 13 8 88 9 14 10 11 11 9 12
REMARK SMILES IDX 10 13 8 15 7 16 6 17 3 18 4 19 90 20 5 21 89 22 2 23 1 24
REMARK SMILES IDX 20 25 21 26 22 27 23 28 24 30 25 31 26 32 87 33 27 34 86 35
REMARK SMILES IDX 28 36 29 37 30 38 80 39 31 40 85 41 79 42 81 43 32 44 84 45
REMARK SMILES IDX 78 46 77 47 33 49 65 50 45 51 64 52 46 53 49 54 63 55 82 56
REMARK SMILES IDX 47 57 48 58 62 60 83 61 50 62 34 63 35 64 43 65 36 66 37 67
REMARK SMILES IDX 41 68 44 69 38 70 39 71 42 72 40 73 66 74 67 75 75 76 68 77
REMARK SMILES IDX 69 78 73 79 76 80 70 81 71 82 74 83 72 84 51 85 52 86 60 87
REMARK SMILES IDX 53 88 54 89 58 90 61 91 55 92 56 93 59 94 57 95
REMARK H PARENT 18 5 11 14 22 29 81 48 49 59
REMARK Flexibility Score: inf
ROOT
ATOM      1  C   UNL A   1      32.379  27.215  26.842  1.00  0.00     0.117 C 
ENDROOT
BRANCH   1   2
ATOM      2  N   UNL A   1      31.429  26.131  26.888  1.00  0.00    -0.356 N 
ATOM      3  C   UNL A   1      31.583  24.838  26.510  1.00  0.00     0.227 C 
ATOM      4  O   UNL A   1      30.577  24.131  26.566  1.00  0.00    -0.274 OA
ATOM      5  H   UNL A   1      30.541  26.363  27.245  1.00  0.00     0.163 HD
BRANCH   3   6
ATOM      6  C   UNL A   1      32.931  24.323  25.988  1.00  0.00     0.103 C 
ATOM      7  C   UNL A   1      32.545  23.786  23.670  1.00  0.00     0.106 C 
ATOM      8  C   UNL A   1      32.923  22.549  24.406  1.00  0.00    -0.006 C 
ATOM      9  C   UNL A   1      33.161  24.859  24.570  1.00  0.00     0.047 C 
ATOM     10  C   UNL A   1      33.011  22.835  25.716  1.00  0.00    -0.016 C 
BRANCH   7  11
ATOM     11  N   UNL A   1      32.994  23.895  22.316  1.00  0.00    -0.346 N 
ATOM     12  C   UNL A   1      32.660  24.836  21.382  1.00  0.00     0.244 C 
ATOM     13  O   UNL A   1      33.293  24.848  20.324  1.00  0.00    -0.270 OA
ATOM     14  H   UNL A   1      33.626  23.201  22.018  1.00  0.00     0.164 HD
BRANCH  12  15
ATOM     15  C   UNL A   1      31.578  25.874  21.555  1.00  0.00     0.072 C 
ATOM     16  C   UNL A   1      31.635  27.065  22.166  1.00  0.00     0.014 C 
BRANCH  16  17
ATOM     17  C   UNL A   1      30.645  28.130  22.388  1.00  0.00    -0.025 A 
ATOM     18  C   UNL A   1      28.668  30.009  23.090  1.00  0.00     0.052 A 
ATOM     19  C   UNL A   1      29.832  30.409  22.419  1.00  0.00     0.020 A 
ATOM     20  C   UNL A   1      28.473  28.665  23.388  1.00  0.00     0.020 A 
ATOM     21  C   UNL A   1      30.820  29.475  22.071  1.00  0.00     0.009 A 
ATOM     22  C   UNL A   1      29.447  27.740  23.025  1.00  0.00     0.009 A 
BRANCH  18  23
ATOM     23  C   UNL A   1      27.678  30.965  23.494  1.00  0.00     0.099 C 
ATOM     24  N   UNL A   1      26.893  31.759  23.803  1.00  0.00    -0.192 NA
ENDBRANCH  18  23
ENDBRANCH  16  17
ENDBRANCH  12  15
ENDBRANCH   7  11
ENDBRANCH   3   6
ENDBRANCH   1   2
BRANCH   1  25
ATOM     25  C   UNL A   1      31.960  28.283  25.843  1.00  0.00     0.042 C 
BRANCH  25  26
ATOM     26  C   UNL A   1      33.050  29.299  25.519  1.00  0.00     0.118 C 
BRANCH  26  27
ATOM     27  N   UNL A   1      32.700  30.653  25.924  1.00  0.00    -0.352 N 
ATOM     28  C   UNL A   1      33.206  31.444  26.922  1.00  0.00     0.251 C 
ATOM     29  H   UNL A   1      31.983  31.067  25.395  1.00  0.00     0.163 HD
ATOM     30  O   UNL A   1      32.623  32.486  27.215  1.00  0.00    -0.269 OA
BRANCH  28  31
ATOM     31  C   UNL A   1      34.430  31.060  27.658  1.00  0.00     0.039 A 
ATOM     32  C   UNL A   1      35.450  32.005  27.797  1.00  0.00     0.014 A 
ATOM     33  C   UNL A   1      34.610  29.769  28.162  1.00  0.00     0.014 A 
ATOM     34  C   UNL A   1      36.626  31.666  28.466  1.00  0.00     0.010 A 
ATOM     35  C   UNL A   1      35.736  29.465  28.922  1.00  0.00     0.010 A 
ATOM     36  C   UNL A   1      36.772  30.400  29.057  1.00  0.00    -0.014 A 
BRANCH  36  37
ATOM     37  C   UNL A   1      38.022  30.037  29.773  1.00  0.00     0.031 A 
ATOM     38  C   UNL A   1      38.294  30.572  31.154  1.00  0.00     0.074 A 
ATOM     39  C   UNL A   1      38.923  29.232  29.177  1.00  0.00     0.049 A 
ATOM     40  N   UNL A   1      39.319  30.354  31.942  1.00  0.00    -0.248 NA
ATOM     41  C   UNL A   1      37.298  31.498  31.715  1.00  0.00     0.031 C 
ATOM     42  C   UNL A   1      38.804  28.689  27.824  1.00  0.00     0.029 A 
ATOM     43  N   UNL A   1      40.115  28.728  29.635  1.00  0.00    -0.354 N 
ATOM     44  C   UNL A   1      39.086  31.110  33.083  1.00  0.00     0.074 A 
ATOM     45  C   UNL A   1      37.871  31.858  32.851  1.00  0.00     0.031 C 
ATOM     46  C   UNL A   1      39.859  27.899  27.575  1.00  0.00     0.029 A 
ATOM     47  C   UNL A   1      40.750  27.914  28.731  1.00  0.00     0.049 A 
ATOM     48  H   UNL A   1      40.479  28.930  30.527  1.00  0.00     0.167 HD
ATOM     49  C   UNL A   1      39.799  31.152  34.236  1.00  0.00     0.037 A 
ATOM     50  C   UNL A   1      41.922  27.256  28.819  1.00  0.00     0.037 A 
ATOM     51  C   UNL A   1      41.013  30.412  34.460  1.00  0.00     0.049 A 
ATOM     52  C   UNL A   1      42.713  27.338  30.097  1.00  0.00     0.074 A 
ATOM     53  C   UNL A   1      41.799  30.364  35.597  1.00  0.00     0.029 A 
ATOM     54  N   UNL A   1      41.629  29.598  33.518  1.00  0.00    -0.354 N 
ATOM     55  N   UNL A   1      42.452  28.007  31.195  1.00  0.00    -0.248 NA
ATOM     56  C   UNL A   1      43.955  26.558  30.153  1.00  0.00     0.031 C 
ATOM     57  C   UNL A   1      42.924  29.579  35.321  1.00  0.00     0.029 A 
ATOM     58  C   UNL A   1      42.795  29.063  34.042  1.00  0.00     0.049 A 
ATOM     59  H   UNL A   1      41.286  29.426  32.611  1.00  0.00     0.167 HD
ATOM     60  C   UNL A   1      43.474  27.699  32.083  1.00  0.00     0.074 A 
ATOM     61  C   UNL A   1      44.350  26.770  31.399  1.00  0.00     0.031 C 
ATOM     62  C   UNL A   1      43.664  28.139  33.353  1.00  0.00     0.037 A 
BRANCH  49  63
ATOM     63  C   UNL A   1      39.279  32.041  35.334  1.00  0.00     0.064 A 
ATOM     64  C   UNL A   1      39.602  33.408  35.396  1.00  0.00     0.173 A 
ATOM     65  C   UNL A   1      38.445  31.526  36.338  1.00  0.00     0.173 A 
ATOM     66  F   UNL A   1      40.402  33.955  34.468  1.00  0.00    -0.203 F 
ATOM     67  C   UNL A   1      39.156  34.207  36.444  1.00  0.00     0.198 A 
ATOM     68  C   UNL A   1      37.965  32.339  37.362  1.00  0.00     0.198 A 
ATOM     69  F   UNL A   1      38.094  30.231  36.329  1.00  0.00    -0.203 F 
ATOM     70  F   UNL A   1      39.544  35.487  36.520  1.00  0.00    -0.200 F 
ATOM     71  C   UNL A   1      38.332  33.674  37.424  1.00  0.00     0.200 A 
ATOM     72  F   UNL A   1      37.152  31.825  38.296  1.00  0.00    -0.200 F 
ATOM     73  F   UNL A   1      37.902  34.443  38.432  1.00  0.00    -0.200 F 
ENDBRANCH  49  63
BRANCH  50  74
ATOM     74  C   UNL A   1      42.402  26.447  27.668  1.00  0.00     0.064 A 
ATOM     75  C   UNL A   1      41.932  25.144  27.446  1.00  0.00     0.173 A 
ATOM     76  C   UNL A   1      43.339  26.964  26.761  1.00  0.00     0.173 A 
ATOM     77  F   UNL A   1      41.049  24.596  28.294  1.00  0.00    -0.203 F 
ATOM     78  C   UNL A   1      42.399  24.383  26.375  1.00  0.00     0.198 A 
ATOM     79  C   UNL A   1      43.776  26.216  25.671  1.00  0.00     0.198 A 
ATOM     80  F   UNL A   1      43.814  28.208  26.923  1.00  0.00    -0.203 F 
ATOM     81  F   UNL A   1      41.971  23.123  26.216  1.00  0.00    -0.200 F 
ATOM     82  C   UNL A   1      43.314  24.923  25.484  1.00  0.00     0.200 A 
ATOM     83  F   UNL A   1      44.644  26.750  24.801  1.00  0.00    -0.200 F 
ATOM     84  F   UNL A   1      43.754  24.195  24.449  1.00  0.00    -0.200 F 
ENDBRANCH  50  74
BRANCH  62  85
ATOM     85  C   UNL A   1      44.836  27.573  34.110  1.00  0.00     0.064 A 
ATOM     86  C   UNL A   1      44.757  26.366  34.823  1.00  0.00     0.173 A 
ATOM     87  C   UNL A   1      46.064  28.255  34.119  1.00  0.00     0.173 A 
ATOM     88  F   UNL A   1      43.607  25.674  34.857  1.00  0.00    -0.203 F 
ATOM     89  C   UNL A   1      45.842  25.895  35.558  1.00  0.00     0.198 A 
ATOM     90  C   UNL A   1      47.160  27.757  34.817  1.00  0.00     0.198 A 
ATOM     91  F   UNL A   1      46.203  29.407  33.445  1.00  0.00    -0.203 F 
ATOM     92  F   UNL A   1      45.716  24.783  36.297  1.00  0.00    -0.200 F 
ATOM     93  C   UNL A   1      47.044  26.587  35.551  1.00  0.00     0.200 A 
ATOM     94  F   UNL A   1      48.326  28.417  34.789  1.00  0.00    -0.200 F 
ATOM     95  F   UNL A   1      48.085  26.133  36.260  1.00  0.00    -0.200 F 
ENDBRANCH  62  85
ENDBRANCH  36  37
ENDBRANCH  28  31
ENDBRANCH  26  27
ENDBRANCH  25  26
ENDBRANCH   1  25
TORSDOF 14
ENDMDL
MODEL 3
REMARK VINA RESULT:     -12.0      4.983     12.713
REMARK SMILES N#Cc1ccc(/C=C/C(=O)N[C@H]2C=C[C@H](C(=O)NCCCNC(=O)c3ccc(-c4c5nc(c(-c6c(F)c(F)c(F)c(F)c6F)c6ccc([nH]6)c(-c6c(F)c(F)c(F)c(F)c6F)c6nc(c(-c7c(F)c(F)c(F)c(F)c7F)c7ccc4[nH]7)C=C6)C=C5)cc3)C2)cc1
REMARK SMILES IDX 19 1 18 2 16 3 17 4 15 6 12 7 13 8 88 9 14 10 11 11 9 12
REMARK SMILES IDX 10 13 8 15 7 16 6 17 3 18 4 19 90 20 5 21 89 22 2 23 1 24
REMARK SMILES IDX 20 25 21 26 22 27 23 28 24 30 25 31 26 32 87 33 27 34 86 35
REMARK SMILES IDX 28 36 29 37 30 38 80 39 31 40 85 41 79 42 81 43 32 44 84 45
REMARK SMILES IDX 78 46 77 47 33 49 65 50 45 51 64 52 46 53 49 54 63 55 82 56
REMARK SMILES IDX 47 57 48 58 62 60 83 61 50 62 34 63 35 64 43 65 36 66 37 67
REMARK SMILES IDX 41 68 44 69 38 70 39 71 42 72 40 73 66 74 67 75 75 76 68 77
REMARK SMILES IDX 69 78 73 79 76 80 70 81 71 82 74 83 72 84 51 85 52 86 60 87
REMARK SMILES IDX 53 88 54 89 58 90 61 91 55 92 56 93 59 94 57 95
REMARK H PARENT 18 5 11 14 22 29 81 48 49 59
REMARK Flexibility Score: inf
ROOT
ATOM      1  C   UNL A   1      47.812  25.487  32.535  1.00  0.00     0.117 C 
ENDROOT
BRANCH   1   2
ATOM      2  N   UNL A   1      48.487  26.494  31.755  1.00  0.00    -0.356 N 
ATOM      3  C   UNL A   1      48.625  26.589  30.410  1.00  0.00     0.227 C 
ATOM      4  O   UNL A   1      49.335  27.508  29.999  1.00  0.00    -0.274 OA
ATOM      5  H   UNL A   1      48.907  27.219  32.274  1.00  0.00     0.163 HD
BRANCH   3   6
ATOM      6  C   UNL A   1      47.973  25.562  29.475  1.00  0.00     0.103 C 
ATOM      7  C   UNL A   1      47.677  26.718  27.380  1.00  0.00     0.106 C 
ATOM      8  C   UNL A   1      46.346  26.328  27.920  1.00  0.00    -0.006 C 
ATOM      9  C   UNL A   1      48.582  25.698  28.074  1.00  0.00     0.047 C 
ATOM     10  C   UNL A   1      46.514  25.799  29.144  1.00  0.00    -0.016 C 
BRANCH   7  11
ATOM     11  N   UNL A   1      47.829  26.694  25.958  1.00  0.00    -0.346 N 
ATOM     12  C   UNL A   1      47.313  25.799  25.061  1.00  0.00     0.244 C 
ATOM     13  O   UNL A   1      47.422  26.058  23.860  1.00  0.00    -0.270 OA
ATOM     14  H   UNL A   1      48.377  27.417  25.574  1.00  0.00     0.164 HD
BRANCH  12  15
ATOM     15  C   UNL A   1      46.609  24.518  25.433  1.00  0.00     0.072 C 
ATOM     16  C   UNL A   1      46.414  23.413  24.700  1.00  0.00     0.014 C 
BRANCH  16  17
ATOM     17  C   UNL A   1      45.743  22.132  24.970  1.00  0.00    -0.025 A 
ATOM     18  C   UNL A   1      44.176  19.835  25.417  1.00  0.00     0.052 A 
ATOM     19  C   UNL A   1      45.467  19.730  24.879  1.00  0.00     0.020 A 
ATOM     20  C   UNL A   1      43.674  21.085  25.761  1.00  0.00     0.020 A 
ATOM     21  C   UNL A   1      46.247  20.874  24.652  1.00  0.00     0.009 A 
ATOM     22  C   UNL A   1      44.459  22.214  25.551  1.00  0.00     0.009 A 
BRANCH  18  23
ATOM     23  C   UNL A   1      43.353  18.676  25.604  1.00  0.00     0.099 C 
ATOM     24  N   UNL A   1      42.662  17.757  25.748  1.00  0.00    -0.192 NA
ENDBRANCH  18  23
ENDBRANCH  16  17
ENDBRANCH  12  15
ENDBRANCH   7  11
ENDBRANCH   3   6
ENDBRANCH   1   2
BRANCH   1  25
ATOM     25  C   UNL A   1      48.654  25.044  33.723  1.00  0.00     0.042 C 
BRANCH  25  26
ATOM     26  C   UNL A   1      47.964  24.036  34.637  1.00  0.00     0.118 C 
BRANCH  26  27
ATOM     27  N   UNL A   1      47.857  24.500  36.012  1.00  0.00    -0.352 N 
ATOM     28  C   UNL A   1      47.087  25.492  36.561  1.00  0.00     0.251 C 
ATOM     29  H   UNL A   1      48.432  24.024  36.652  1.00  0.00     0.163 HD
ATOM     30  O   UNL A   1      47.302  25.848  37.717  1.00  0.00    -0.269 OA
BRANCH  28  31
ATOM     31  C   UNL A   1      46.012  26.146  35.782  1.00  0.00     0.039 A 
ATOM     32  C   UNL A   1      46.270  27.393  35.207  1.00  0.00     0.014 A 
ATOM     33  C   UNL A   1      44.743  25.576  35.659  1.00  0.00     0.014 A 
ATOM     34  C   UNL A   1      45.270  28.046  34.485  1.00  0.00     0.010 A 
ATOM     35  C   UNL A   1      43.782  26.176  34.849  1.00  0.00     0.010 A 
ATOM     36  C   UNL A   1      44.023  27.434  34.278  1.00  0.00    -0.014 A 
BRANCH  36  37
ATOM     37  C   UNL A   1      42.957  28.124  33.507  1.00  0.00     0.031 A 
ATOM     38  C   UNL A   1      42.767  27.838  32.041  1.00  0.00     0.074 A 
ATOM     39  C   UNL A   1      42.163  29.022  34.122  1.00  0.00     0.049 A 
ATOM     40  N   UNL A   1      41.883  28.329  31.207  1.00  0.00    -0.248 NA
ATOM     41  C   UNL A   1      43.713  26.897  31.420  1.00  0.00     0.031 C 
ATOM     42  C   UNL A   1      42.277  29.427  35.523  1.00  0.00     0.029 A 
ATOM     43  N   UNL A   1      41.102  29.753  33.649  1.00  0.00    -0.354 N 
ATOM     44  C   UNL A   1      42.166  27.755  29.974  1.00  0.00     0.074 A 
ATOM     45  C   UNL A   1      43.354  26.949  30.148  1.00  0.00     0.031 C 
ATOM     46  C   UNL A   1      41.302  30.305  35.806  1.00  0.00     0.029 A 
ATOM     47  C   UNL A   1      40.523  30.558  34.598  1.00  0.00     0.049 A 
ATOM     48  H   UNL A   1      40.786  29.703  32.718  1.00  0.00     0.167 HD
ATOM     49  C   UNL A   1      41.480  27.859  28.810  1.00  0.00     0.037 A 
ATOM     50  C   UNL A   1      39.483  31.409  34.505  1.00  0.00     0.037 A 
ATOM     51  C   UNL A   1      40.302  28.670  28.638  1.00  0.00     0.049 A 
ATOM     52  C   UNL A   1      38.752  31.532  33.196  1.00  0.00     0.074 A 
ATOM     53  C   UNL A   1      39.519  28.828  27.509  1.00  0.00     0.029 A 
ATOM     54  N   UNL A   1      39.746  29.475  29.623  1.00  0.00    -0.354 N 
ATOM     55  N   UNL A   1      38.990  30.936  32.052  1.00  0.00    -0.248 NA
ATOM     56  C   UNL A   1      37.595  32.435  33.171  1.00  0.00     0.031 C 
ATOM     57  C   UNL A   1      38.531  29.778  27.789  1.00  0.00     0.029 A 
ATOM     58  C   UNL A   1      38.642  30.147  29.120  1.00  0.00     0.049 A 
ATOM     59  H   UNL A   1      40.084  29.555  30.545  1.00  0.00     0.167 HD
ATOM     60  C   UNL A   1      37.992  31.362  31.184  1.00  0.00     0.074 A 
ATOM     61  C   UNL A   1      37.139  32.254  31.941  1.00  0.00     0.031 C 
ATOM     62  C   UNL A   1      37.797  31.036  29.880  1.00  0.00     0.037 A 
BRANCH  49  63
ATOM     63  C   UNL A   1      42.003  27.082  27.631  1.00  0.00     0.064 A 
ATOM     64  C   UNL A   1      42.977  27.611  26.768  1.00  0.00     0.173 A 
ATOM     65  C   UNL A   1      41.528  25.789  27.359  1.00  0.00     0.173 A 
ATOM     66  F   UNL A   1      43.462  28.846  26.973  1.00  0.00    -0.203 F 
ATOM     67  C   UNL A   1      43.415  26.901  25.653  1.00  0.00     0.198 A 
ATOM     68  C   UNL A   1      42.000  25.064  26.268  1.00  0.00     0.198 A 
ATOM     69  F   UNL A   1      40.604  25.226  28.152  1.00  0.00    -0.203 F 
ATOM     70  F   UNL A   1      44.286  27.462  24.804  1.00  0.00    -0.200 F 
ATOM     71  C   UNL A   1      42.931  25.626  25.407  1.00  0.00     0.200 A 
ATOM     72  F   UNL A   1      41.546  23.824  26.044  1.00  0.00    -0.200 F 
ATOM     73  F   UNL A   1      43.353  24.943  24.335  1.00  0.00    -0.200 F 
ENDBRANCH  49  63
BRANCH  50  74
ATOM     74  C   UNL A   1      39.063  32.191  35.698  1.00  0.00     0.064 A 
ATOM     75  C   UNL A   1      38.234  31.633  36.681  1.00  0.00     0.173 A 
ATOM     76  C   UNL A   1      39.490  33.516  35.881  1.00  0.00     0.173 A 
ATOM     77  F   UNL A   1      37.783  30.377  36.546  1.00  0.00    -0.203 F 
ATOM     78  C   UNL A   1      37.828  32.378  37.788  1.00  0.00     0.198 A 
ATOM     79  C   UNL A   1      39.114  34.245  37.006  1.00  0.00     0.198 A 
ATOM     80  F   UNL A   1      40.291  34.093  34.974  1.00  0.00    -0.203 F 
ATOM     81  F   UNL A   1      36.994  31.837  38.687  1.00  0.00    -0.200 F 
ATOM     82  C   UNL A   1      38.276  33.679  37.954  1.00  0.00     0.200 A 
ATOM     83  F   UNL A   1      39.567  35.496  37.171  1.00  0.00    -0.200 F 
ATOM     84  F   UNL A   1      37.895  34.391  39.023  1.00  0.00    -0.200 F 
ENDBRANCH  50  74
BRANCH  62  85
ATOM     85  C   UNL A   1      36.577  31.601  29.205  1.00  0.00     0.064 A 
ATOM     86  C   UNL A   1      36.475  32.954  28.847  1.00  0.00     0.173 A 
ATOM     87  C   UNL A   1      35.487  30.766  28.908  1.00  0.00     0.173 A 
ATOM     88  F   UNL A   1      37.482  33.801  29.112  1.00  0.00    -0.203 F 
ATOM     89  C   UNL A   1      35.311  33.459  28.272  1.00  0.00     0.198 A 
ATOM     90  C   UNL A   1      34.343  31.264  28.291  1.00  0.00     0.198 A 
ATOM     91  F   UNL A   1      35.531  29.460  29.215  1.00  0.00    -0.203 F 
ATOM     92  F   UNL A   1      35.207  34.771  28.016  1.00  0.00    -0.200 F 
ATOM     93  C   UNL A   1      34.248  32.613  27.990  1.00  0.00     0.200 A 
ATOM     94  F   UNL A   1      33.328  30.439  28.000  1.00  0.00    -0.200 F 
ATOM     95  F   UNL A   1      33.129  33.101  27.438  1.00  0.00    -0.200 F 
ENDBRANCH  62  85
ENDBRANCH  36  37
ENDBRANCH  28  31
ENDBRANCH  26  27
ENDBRANCH  25  26
ENDBRANCH   1  25
TORSDOF 14
ENDMDL
