MODEL 1
REMARK VINA RESULT:     -12.5      0.000      0.000
REMARK SMILES O=C1C[N@@H+](Cc2ccc(C(=O)NCCCNC(=O)c3ccc(-c4c5nc(c(-c6c(F)c(F)c(F)c(F)c6F)c6ccc([nH]6)c(-c6c(F)c(F)c(F)c(F)c6F)c6nc(c(-c7c(F)c(F)c(F)c(F)c7F)c7ccc4[nH]7)C=C6)C=C5)cc3)cc2)CCN1
REMARK SMILES IDX 14 1 13 2 12 3 10 4 11 5 9 7 6 8 7 9 83 10 8 11 82 12 5 13
REMARK SMILES IDX 4 14 1 15 2 16 3 17 86 18 85 19 84 21 15 23 16 24 17 25
REMARK SMILES IDX 18 27 19 28 20 29 81 30 21 31 80 32 22 33 23 34 24 35 74 36
REMARK SMILES IDX 25 37 79 38 73 39 75 40 26 41 78 42 72 43 71 44 27 46 59 47
REMARK SMILES IDX 39 48 58 49 40 50 43 51 57 52 76 53 41 54 42 55 56 57 77 58
REMARK SMILES IDX 44 59 28 60 29 61 37 62 30 63 31 64 35 65 38 66 32 67 33 68
REMARK SMILES IDX 36 69 34 70 60 71 61 72 69 73 62 74 63 75 67 76 70 77 64 78
REMARK SMILES IDX 65 79 68 80 66 81 45 82 46 83 54 84 47 85 48 86 52 87 55 88
REMARK SMILES IDX 49 89 50 90 53 91 51 92
REMARK H PARENT 12 6 86 20 4 22 16 26 75 45 43 56
REMARK Flexibility Score: inf
ROOT
ATOM      1  C   UNL A   1      31.427  32.150  26.730  1.00  0.00     0.042 C 
ENDROOT
BRANCH   1   2
ATOM      2  C   UNL A   1      31.632  30.674  26.395  1.00  0.00     0.118 C 
BRANCH   2   3
ATOM      3  N   UNL A   1      31.255  30.377  25.024  1.00  0.00    -0.352 N 
ATOM      4  C   UNL A   1      31.280  29.190  24.331  1.00  0.00     0.251 C 
ATOM      5  O   UNL A   1      30.807  29.141  23.199  1.00  0.00    -0.269 OA
ATOM      6  H   UNL A   1      30.927  31.148  24.508  1.00  0.00     0.163 HD
BRANCH   4   7
ATOM      7  C   UNL A   1      31.807  27.961  24.961  1.00  0.00     0.039 A 
ATOM      8  C   UNL A   1      32.832  25.530  25.902  1.00  0.00     0.006 A 
ATOM      9  C   UNL A   1      33.660  26.432  25.219  1.00  0.00     0.010 A 
ATOM     10  C   UNL A   1      31.517  25.914  26.209  1.00  0.00     0.010 A 
ATOM     11  C   UNL A   1      33.150  27.642  24.748  1.00  0.00     0.014 A 
ATOM     12  C   UNL A   1      31.009  27.129  25.747  1.00  0.00     0.014 A 
BRANCH   8  13
ATOM     13  C   UNL A   1      33.330  24.155  26.276  1.00  0.00     0.299 C 
BRANCH  13  14
ATOM     14  N   UNL A   1      33.898  23.340  25.199  1.00  0.00    -0.322 N 
ATOM     15  O   UNL A   1      32.108  20.162  25.238  1.00  0.00    -0.269 OA
ATOM     16  C   UNL A   1      33.048  20.953  25.291  1.00  0.00     0.275 C 
ATOM     17  C   UNL A   1      32.992  22.331  24.626  1.00  0.00     0.363 C 
ATOM     18  N   UNL A   1      34.229  20.559  25.857  1.00  0.00    -0.346 N 
ATOM     19  C   UNL A   1      35.318  21.461  26.148  1.00  0.00     0.177 C 
ATOM     20  H   UNL A   1      34.342  19.607  26.079  1.00  0.00     0.163 HD
ATOM     21  C   UNL A   1      35.245  22.806  25.408  1.00  0.00     0.284 C 
ATOM     22  H   UNL A   1      34.020  24.060  24.487  1.00  0.00     0.348 HD
ENDBRANCH  13  14
ENDBRANCH   8  13
ENDBRANCH   4   7
ENDBRANCH   2   3
ENDBRANCH   1   2
BRANCH   1  23
ATOM     23  C   UNL A   1      32.715  32.888  27.086  1.00  0.00     0.118 C 
BRANCH  23  24
ATOM     24  N   UNL A   1      32.464  34.222  27.609  1.00  0.00    -0.352 N 
ATOM     25  C   UNL A   1      33.033  34.879  28.671  1.00  0.00     0.251 C 
ATOM     26  H   UNL A   1      31.776  34.735  27.125  1.00  0.00     0.163 HD
ATOM     27  O   UNL A   1      32.542  35.936  29.058  1.00  0.00    -0.269 OA
BRANCH  25  28
ATOM     28  C   UNL A   1      34.216  34.324  29.371  1.00  0.00     0.039 A 
ATOM     29  C   UNL A   1      34.009  33.564  30.527  1.00  0.00     0.014 A 
ATOM     30  C   UNL A   1      35.518  34.580  28.935  1.00  0.00     0.014 A 
ATOM     31  C   UNL A   1      35.098  33.015  31.208  1.00  0.00     0.010 A 
ATOM     32  C   UNL A   1      36.600  33.973  29.571  1.00  0.00     0.010 A 
ATOM     33  C   UNL A   1      36.402  33.188  30.718  1.00  0.00    -0.014 A 
BRANCH  33  34
ATOM     34  C   UNL A   1      37.562  32.542  31.386  1.00  0.00     0.031 A 
ATOM     35  C   UNL A   1      38.270  31.383  30.741  1.00  0.00     0.074 A 
ATOM     36  C   UNL A   1      37.934  32.957  32.611  1.00  0.00     0.049 A 
ATOM     37  N   UNL A   1      39.266  30.665  31.196  1.00  0.00    -0.248 NA
ATOM     38  C   UNL A   1      37.774  30.956  29.425  1.00  0.00     0.031 C 
ATOM     39  C   UNL A   1      37.287  34.028  33.371  1.00  0.00     0.029 A 
ATOM     40  N   UNL A   1      38.936  32.518  33.441  1.00  0.00    -0.354 N 
ATOM     41  C   UNL A   1      39.502  29.692  30.233  1.00  0.00     0.074 A 
ATOM     42  C   UNL A   1      38.515  29.883  29.192  1.00  0.00     0.031 C 
ATOM     43  C   UNL A   1      37.915  34.171  34.548  1.00  0.00     0.029 A 
ATOM     44  C   UNL A   1      38.987  33.184  34.641  1.00  0.00     0.049 A 
ATOM     45  H   UNL A   1      39.560  31.796  33.199  1.00  0.00     0.167 HD
ATOM     46  C   UNL A   1      40.464  28.738  30.213  1.00  0.00     0.037 A 
ATOM     47  C   UNL A   1      39.798  33.013  35.702  1.00  0.00     0.037 A 
ATOM     48  C   UNL A   1      41.463  28.570  31.237  1.00  0.00     0.049 A 
ATOM     49  C   UNL A   1      40.876  31.967  35.645  1.00  0.00     0.074 A 
ATOM     50  C   UNL A   1      42.536  27.697  31.262  1.00  0.00     0.029 A 
ATOM     51  N   UNL A   1      41.503  29.285  32.426  1.00  0.00    -0.354 N 
ATOM     52  N   UNL A   1      41.149  31.114  34.688  1.00  0.00    -0.248 NA
ATOM     53  C   UNL A   1      41.765  31.868  36.810  1.00  0.00     0.031 C 
ATOM     54  C   UNL A   1      43.195  27.847  32.488  1.00  0.00     0.029 A 
ATOM     55  C   UNL A   1      42.565  28.850  33.204  1.00  0.00     0.049 A 
ATOM     56  H   UNL A   1      40.871  29.997  32.679  1.00  0.00     0.167 HD
ATOM     57  C   UNL A   1      42.248  30.389  35.126  1.00  0.00     0.074 A 
ATOM     58  C   UNL A   1      42.605  30.916  36.426  1.00  0.00     0.031 C 
ATOM     59  C   UNL A   1      42.902  29.376  34.503  1.00  0.00     0.037 A 
BRANCH  46  60
ATOM     60  C   UNL A   1      40.479  27.793  29.044  1.00  0.00     0.064 A 
ATOM     61  C   UNL A   1      41.295  28.012  27.925  1.00  0.00     0.173 A 
ATOM     62  C   UNL A   1      39.682  26.638  29.057  1.00  0.00     0.173 A 
ATOM     63  F   UNL A   1      42.071  29.105  27.859  1.00  0.00    -0.203 F 
ATOM     64  C   UNL A   1      41.285  27.131  26.846  1.00  0.00     0.198 A 
ATOM     65  C   UNL A   1      39.698  25.743  27.990  1.00  0.00     0.198 A 
ATOM     66  F   UNL A   1      38.888  26.374  30.105  1.00  0.00    -0.203 F 
ATOM     67  F   UNL A   1      42.031  27.393  25.763  1.00  0.00    -0.200 F 
ATOM     68  C   UNL A   1      40.491  25.996  26.881  1.00  0.00     0.200 A 
ATOM     69  F   UNL A   1      38.940  24.639  28.031  1.00  0.00    -0.200 F 
ATOM     70  F   UNL A   1      40.484  25.149  25.843  1.00  0.00    -0.200 F 
ENDBRANCH  46  60
BRANCH  47  71
ATOM     71  C   UNL A   1      39.626  33.876  36.899  1.00  0.00     0.064 A 
ATOM     72  C   UNL A   1      40.214  35.146  36.962  1.00  0.00     0.173 A 
ATOM     73  C   UNL A   1      38.845  33.461  37.988  1.00  0.00     0.173 A 
ATOM     74  F   UNL A   1      40.984  35.579  35.954  1.00  0.00    -0.203 F 
ATOM     75  C   UNL A   1      40.035  35.966  38.074  1.00  0.00     0.198 A 
ATOM     76  C   UNL A   1      38.644  34.292  39.087  1.00  0.00     0.198 A 
ATOM     77  F   UNL A   1      38.254  32.257  37.970  1.00  0.00    -0.203 F 
ATOM     78  F   UNL A   1      40.632  37.164  38.124  1.00  0.00    -0.200 F 
ATOM     79  C   UNL A   1      39.243  35.542  39.132  1.00  0.00     0.200 A 
ATOM     80  F   UNL A   1      37.864  33.887  40.097  1.00  0.00    -0.200 F 
ATOM     81  F   UNL A   1      39.058  36.337  40.194  1.00  0.00    -0.200 F 
ENDBRANCH  47  71
BRANCH  59  82
ATOM     82  C   UNL A   1      44.080  28.779  35.219  1.00  0.00     0.064 A 
ATOM     83  C   UNL A   1      45.381  29.273  35.032  1.00  0.00     0.173 A 
ATOM     84  C   UNL A   1      43.902  27.724  36.127  1.00  0.00     0.173 A 
ATOM     85  F   UNL A   1      45.605  30.269  34.162  1.00  0.00    -0.203 F 
ATOM     86  C   UNL A   1      46.461  28.715  35.710  1.00  0.00     0.198 A 
ATOM     87  C   UNL A   1      44.981  27.190  36.825  1.00  0.00     0.198 A 
ATOM     88  F   UNL A   1      42.679  27.220  36.346  1.00  0.00    -0.203 F 
ATOM     89  F   UNL A   1      47.700  29.171  35.479  1.00  0.00    -0.200 F 
ATOM     90  C   UNL A   1      46.261  27.680  36.610  1.00  0.00     0.200 A 
ATOM     91  F   UNL A   1      44.783  26.197  37.704  1.00  0.00    -0.200 F 
ATOM     92  F   UNL A   1      47.302  27.148  37.265  1.00  0.00    -0.200 F 
ENDBRANCH  59  82
ENDBRANCH  33  34
ENDBRANCH  25  28
ENDBRANCH  23  24
ENDBRANCH   1  23
TORSDOF 12
ENDMDL
MODEL 2
REMARK VINA RESULT:     -12.3      5.568     11.368
REMARK SMILES O=C1C[N@@H+](Cc2ccc(C(=O)NCCCNC(=O)c3ccc(-c4c5nc(c(-c6c(F)c(F)c(F)c(F)c6F)c6ccc([nH]6)c(-c6c(F)c(F)c(F)c(F)c6F)c6nc(c(-c7c(F)c(F)c(F)c(F)c7F)c7ccc4[nH]7)C=C6)C=C5)cc3)cc2)CCN1
REMARK SMILES IDX 14 1 13 2 12 3 10 4 11 5 9 7 6 8 7 9 83 10 8 11 82 12 5 13
REMARK SMILES IDX 4 14 1 15 2 16 3 17 86 18 85 19 84 21 15 23 16 24 17 25
REMARK SMILES IDX 18 27 19 28 20 29 81 30 21 31 80 32 22 33 23 34 24 35 74 36
REMARK SMILES IDX 25 37 79 38 73 39 75 40 26 41 78 42 72 43 71 44 27 46 59 47
REMARK SMILES IDX 39 48 58 49 40 50 43 51 57 52 76 53 41 54 42 55 56 57 77 58
REMARK SMILES IDX 44 59 28 60 29 61 37 62 30 63 31 64 35 65 38 66 32 67 33 68
REMARK SMILES IDX 36 69 34 70 60 71 61 72 69 73 62 74 63 75 67 76 70 77 64 78
REMARK SMILES IDX 65 79 68 80 66 81 45 82 46 83 54 84 47 85 48 86 52 87 55 88
REMARK SMILES IDX 49 89 50 90 53 91 51 92
REMARK H PARENT 12 6 86 20 4 22 16 26 75 45 43 56
REMARK Flexibility Score: inf
ROOT
ATOM      1  C   UNL A   1      38.184  19.574  25.001  1.00  0.00     0.042 C 
ENDROOT
BRANCH   1   2
ATOM      2  C   UNL A   1      37.114  20.649  24.825  1.00  0.00     0.118 C 
BRANCH   2   3
ATOM      3  N   UNL A   1      35.784  20.135  25.106  1.00  0.00    -0.352 N 
ATOM      4  C   UNL A   1      34.559  20.754  25.043  1.00  0.00     0.251 C 
ATOM      5  O   UNL A   1      33.539  20.094  25.218  1.00  0.00    -0.269 OA
ATOM      6  H   UNL A   1      35.756  19.191  25.384  1.00  0.00     0.163 HD
BRANCH   4   7
ATOM      7  C   UNL A   1      34.456  22.188  24.700  1.00  0.00     0.039 A 
ATOM      8  C   UNL A   1      34.027  24.909  24.190  1.00  0.00     0.006 A 
ATOM      9  C   UNL A   1      34.366  24.473  25.479  1.00  0.00     0.010 A 
ATOM     10  C   UNL A   1      34.021  23.979  23.139  1.00  0.00     0.010 A 
ATOM     11  C   UNL A   1      34.577  23.118  25.735  1.00  0.00     0.014 A 
ATOM     12  C   UNL A   1      34.243  22.624  23.391  1.00  0.00     0.014 A 
BRANCH   8  13
ATOM     13  C   UNL A   1      33.642  26.346  23.937  1.00  0.00     0.299 C 
BRANCH  13  14
ATOM     14  N   UNL A   1      32.434  26.837  24.605  1.00  0.00    -0.322 N 
ATOM     15  O   UNL A   1      30.279  28.204  22.000  1.00  0.00    -0.269 OA
ATOM     16  C   UNL A   1      30.965  28.161  23.021  1.00  0.00     0.275 C 
ATOM     17  C   UNL A   1      31.217  26.855  23.777  1.00  0.00     0.363 C 
ATOM     18  N   UNL A   1      31.427  29.324  23.571  1.00  0.00    -0.346 N 
ATOM     19  C   UNL A   1      32.396  29.376  24.641  1.00  0.00     0.177 C 
ATOM     20  H   UNL A   1      31.079  30.175  23.218  1.00  0.00     0.163 HD
ATOM     21  C   UNL A   1      32.566  28.054  25.407  1.00  0.00     0.284 C 
ATOM     22  H   UNL A   1      32.307  26.094  25.294  1.00  0.00     0.348 HD
ENDBRANCH  13  14
ENDBRANCH   8  13
ENDBRANCH   4   7
ENDBRANCH   2   3
ENDBRANCH   1   2
BRANCH   1  23
ATOM     23  C   UNL A   1      39.225  19.905  26.067  1.00  0.00     0.118 C 
BRANCH  23  24
ATOM     24  N   UNL A   1      40.343  18.975  26.059  1.00  0.00    -0.352 N 
ATOM     25  C   UNL A   1      41.694  19.212  26.126  1.00  0.00     0.251 C 
ATOM     26  H   UNL A   1      40.092  18.025  25.996  1.00  0.00     0.163 HD
ATOM     27  O   UNL A   1      42.477  18.291  25.916  1.00  0.00    -0.269 OA
BRANCH  25  28
ATOM     28  C   UNL A   1      42.220  20.565  26.425  1.00  0.00     0.039 A 
ATOM     29  C   UNL A   1      42.635  21.369  25.357  1.00  0.00     0.014 A 
ATOM     30  C   UNL A   1      42.355  21.031  27.735  1.00  0.00     0.014 A 
ATOM     31  C   UNL A   1      43.126  22.653  25.598  1.00  0.00     0.010 A 
ATOM     32  C   UNL A   1      42.777  22.339  27.971  1.00  0.00     0.010 A 
ATOM     33  C   UNL A   1      43.172  23.162  26.906  1.00  0.00    -0.014 A 
BRANCH  33  34
ATOM     34  C   UNL A   1      43.616  24.556  27.169  1.00  0.00     0.031 A 
ATOM     35  C   UNL A   1      42.644  25.590  27.664  1.00  0.00     0.074 A 
ATOM     36  C   UNL A   1      44.886  24.908  26.893  1.00  0.00     0.049 A 
ATOM     37  N   UNL A   1      42.838  26.863  27.901  1.00  0.00    -0.248 NA
ATOM     38  C   UNL A   1      41.263  25.141  27.895  1.00  0.00     0.031 C 
ATOM     39  C   UNL A   1      45.909  24.015  26.348  1.00  0.00     0.029 A 
ATOM     40  N   UNL A   1      45.530  26.115  27.018  1.00  0.00    -0.354 N 
ATOM     41  C   UNL A   1      41.604  27.369  28.288  1.00  0.00     0.074 A 
ATOM     42  C   UNL A   1      40.659  26.277  28.210  1.00  0.00     0.031 C 
ATOM     43  C   UNL A   1      47.054  24.699  26.196  1.00  0.00     0.029 A 
ATOM     44  C   UNL A   1      46.839  26.085  26.603  1.00  0.00     0.049 A 
ATOM     45  H   UNL A   1      45.095  26.924  27.372  1.00  0.00     0.167 HD
ATOM     46  C   UNL A   1      41.294  28.626  28.689  1.00  0.00     0.037 A 
ATOM     47  C   UNL A   1      47.760  27.065  26.546  1.00  0.00     0.037 A 
ATOM     48  C   UNL A   1      42.244  29.703  28.794  1.00  0.00     0.049 A 
ATOM     49  C   UNL A   1      47.400  28.444  27.022  1.00  0.00     0.074 A 
ATOM     50  C   UNL A   1      42.047  30.984  29.280  1.00  0.00     0.029 A 
ATOM     51  N   UNL A   1      43.571  29.627  28.395  1.00  0.00    -0.354 N 
ATOM     52  N   UNL A   1      46.253  28.888  27.476  1.00  0.00    -0.248 NA
ATOM     53  C   UNL A   1      48.465  29.456  26.989  1.00  0.00     0.031 C 
ATOM     54  C   UNL A   1      43.240  31.699  29.127  1.00  0.00     0.029 A 
ATOM     55  C   UNL A   1      44.195  30.848  28.595  1.00  0.00     0.049 A 
ATOM     56  H   UNL A   1      44.004  28.824  28.025  1.00  0.00     0.167 HD
ATOM     57  C   UNL A   1      46.460  30.222  27.797  1.00  0.00     0.074 A 
ATOM     58  C   UNL A   1      47.849  30.511  27.506  1.00  0.00     0.031 C 
ATOM     59  C   UNL A   1      45.577  31.126  28.290  1.00  0.00     0.037 A 
BRANCH  46  60
ATOM     60  C   UNL A   1      39.859  28.907  29.038  1.00  0.00     0.064 A 
ATOM     61  C   UNL A   1      38.931  29.328  28.074  1.00  0.00     0.173 A 
ATOM     62  C   UNL A   1      39.401  28.727  30.352  1.00  0.00     0.173 A 
ATOM     63  F   UNL A   1      39.318  29.523  26.804  1.00  0.00    -0.203 F 
ATOM     64  C   UNL A   1      37.609  29.596  28.420  1.00  0.00     0.198 A 
ATOM     65  C   UNL A   1      38.070  28.965  30.688  1.00  0.00     0.198 A 
ATOM     66  F   UNL A   1      40.242  28.317  31.313  1.00  0.00    -0.203 F 
ATOM     67  F   UNL A   1      36.755  30.053  27.493  1.00  0.00    -0.200 F 
ATOM     68  C   UNL A   1      37.178  29.410  29.724  1.00  0.00     0.200 A 
ATOM     69  F   UNL A   1      37.653  28.772  31.947  1.00  0.00    -0.200 F 
ATOM     70  F   UNL A   1      35.905  29.666  30.055  1.00  0.00    -0.200 F 
ENDBRANCH  46  60
BRANCH  47  71
ATOM     71  C   UNL A   1      49.120  26.759  26.035  1.00  0.00     0.064 A 
ATOM     72  C   UNL A   1      49.454  26.985  24.693  1.00  0.00     0.173 A 
ATOM     73  C   UNL A   1      50.123  26.265  26.884  1.00  0.00     0.173 A 
ATOM     74  F   UNL A   1      48.525  27.439  23.839  1.00  0.00    -0.203 F 
ATOM     75  C   UNL A   1      50.736  26.720  24.217  1.00  0.00     0.198 A 
ATOM     76  C   UNL A   1      51.411  26.026  26.413  1.00  0.00     0.198 A 
ATOM     77  F   UNL A   1      49.855  26.041  28.179  1.00  0.00    -0.203 F 
ATOM     78  F   UNL A   1      51.021  26.916  22.922  1.00  0.00    -0.200 F 
ATOM     79  C   UNL A   1      51.716  26.249  25.079  1.00  0.00     0.200 A 
ATOM     80  F   UNL A   1      52.359  25.589  27.253  1.00  0.00    -0.200 F 
ATOM     81  F   UNL A   1      52.953  26.009  24.624  1.00  0.00    -0.200 F 
ENDBRANCH  47  71
BRANCH  59  82
ATOM     82  C   UNL A   1      46.091  32.512  28.556  1.00  0.00     0.064 A 
ATOM     83  C   UNL A   1      46.014  33.523  27.585  1.00  0.00     0.173 A 
ATOM     84  C   UNL A   1      46.634  32.842  29.807  1.00  0.00     0.173 A 
ATOM     85  F   UNL A   1      45.518  33.254  26.369  1.00  0.00    -0.203 F 
ATOM     86  C   UNL A   1      46.486  34.806  27.851  1.00  0.00     0.198 A 
ATOM     87  C   UNL A   1      47.077  34.133  30.078  1.00  0.00     0.198 A 
ATOM     88  F   UNL A   1      46.725  31.914  30.771  1.00  0.00    -0.203 F 
ATOM     89  F   UNL A   1      46.447  35.742  26.893  1.00  0.00    -0.200 F 
ATOM     90  C   UNL A   1      47.010  35.112  29.098  1.00  0.00     0.200 A 
ATOM     91  F   UNL A   1      47.572  34.430  31.288  1.00  0.00    -0.200 F 
ATOM     92  F   UNL A   1      47.459  36.349  29.353  1.00  0.00    -0.200 F 
ENDBRANCH  59  82
ENDBRANCH  33  34
ENDBRANCH  25  28
ENDBRANCH  23  24
ENDBRANCH   1  23
TORSDOF 12
ENDMDL
MODEL 3
REMARK VINA RESULT:     -12.3      5.513     11.332
REMARK SMILES O=C1C[N@@H+](Cc2ccc(C(=O)NCCCNC(=O)c3ccc(-c4c5nc(c(-c6c(F)c(F)c(F)c(F)c6F)c6ccc([nH]6)c(-c6c(F)c(F)c(F)c(F)c6F)c6nc(c(-c7c(F)c(F)c(F)c(F)c7F)c7ccc4[nH]7)C=C6)C=C5)cc3)cc2)CCN1
REMARK SMILES IDX 14 1 13 2 12 3 10 4 11 5 9 7 6 8 7 9 83 10 8 11 82 12 5 13
REMARK SMILES IDX 4 14 1 15 2 16 3 17 86 18 85 19 84 21 15 23 16 24 17 25
REMARK SMILES IDX 18 27 19 28 20 29 81 30 21 31 80 32 22 33 23 34 24 35 74 36
REMARK SMILES IDX 25 37 79 38 73 39 75 40 26 41 78 42 72 43 71 44 27 46 59 47
REMARK SMILES IDX 39 48 58 49 40 50 43 51 57 52 76 53 41 54 42 55 56 57 77 58
REMARK SMILES IDX 44 59 28 60 29 61 37 62 30 63 31 64 35 65 38 66 32 67 33 68
REMARK SMILES IDX 36 69 34 70 60 71 61 72 69 73 62 74 63 75 67 76 70 77 64 78
REMARK SMILES IDX 65 79 68 80 66 81 45 82 46 83 54 84 47 85 48 86 52 87 55 88
REMARK SMILES IDX 49 89 50 90 53 91 51 92
REMARK H PARENT 12 6 86 20 4 22 16 26 75 45 43 56
REMARK Flexibility Score: inf
ROOT
ATOM      1  C   UNL A   1      38.026  19.503  25.008  1.00  0.00     0.042 C 
ENDROOT
BRANCH   1   2
ATOM      2  C   UNL A   1      36.958  20.561  24.733  1.00  0.00     0.118 C 
BRANCH   2   3
ATOM      3  N   UNL A   1      35.640  20.114  25.151  1.00  0.00    -0.352 N 
ATOM      4  C   UNL A   1      34.444  20.789  25.194  1.00  0.00     0.251 C 
ATOM      5  O   UNL A   1      33.417  20.181  25.480  1.00  0.00    -0.269 OA
ATOM      6  H   UNL A   1      35.595  19.177  25.450  1.00  0.00     0.163 HD
BRANCH   4   7
ATOM      7  C   UNL A   1      34.374  22.221  24.834  1.00  0.00     0.039 A 
ATOM      8  C   UNL A   1      34.013  24.947  24.301  1.00  0.00     0.006 A 
ATOM      9  C   UNL A   1      34.398  24.519  25.580  1.00  0.00     0.010 A 
ATOM     10  C   UNL A   1      33.927  24.003  23.266  1.00  0.00     0.010 A 
ATOM     11  C   UNL A   1      34.575  23.161  25.847  1.00  0.00     0.014 A 
ATOM     12  C   UNL A   1      34.114  22.646  23.529  1.00  0.00     0.014 A 
BRANCH   8  13
ATOM     13  C   UNL A   1      33.666  26.393  24.044  1.00  0.00     0.299 C 
BRANCH  13  14
ATOM     14  N   UNL A   1      32.458  26.911  24.691  1.00  0.00    -0.322 N 
ATOM     15  O   UNL A   1      30.371  28.308  22.046  1.00  0.00    -0.269 OA
ATOM     16  C   UNL A   1      31.040  28.256  23.077  1.00  0.00     0.275 C 
ATOM     17  C   UNL A   1      31.254  26.949  23.844  1.00  0.00     0.363 C 
ATOM     18  N   UNL A   1      31.515  29.413  23.630  1.00  0.00    -0.346 N 
ATOM     19  C   UNL A   1      32.468  29.450  24.714  1.00  0.00     0.177 C 
ATOM     20  H   UNL A   1      31.190  30.268  23.268  1.00  0.00     0.163 HD
ATOM     21  C   UNL A   1      32.600  28.129  25.489  1.00  0.00     0.284 C 
ATOM     22  H   UNL A   1      32.306  26.174  25.380  1.00  0.00     0.348 HD
ENDBRANCH  13  14
ENDBRANCH   8  13
ENDBRANCH   4   7
ENDBRANCH   2   3
ENDBRANCH   1   2
BRANCH   1  23
ATOM     23  C   UNL A   1      39.188  20.005  25.861  1.00  0.00     0.118 C 
BRANCH  23  24
ATOM     24  N   UNL A   1      40.284  19.051  25.922  1.00  0.00    -0.352 N 
ATOM     25  C   UNL A   1      41.632  19.258  26.072  1.00  0.00     0.251 C 
ATOM     26  H   UNL A   1      40.017  18.106  25.842  1.00  0.00     0.163 HD
ATOM     27  O   UNL A   1      42.407  18.319  25.910  1.00  0.00    -0.269 OA
BRANCH  25  28
ATOM     28  C   UNL A   1      42.169  20.599  26.403  1.00  0.00     0.039 A 
ATOM     29  C   UNL A   1      42.575  21.431  25.355  1.00  0.00     0.014 A 
ATOM     30  C   UNL A   1      42.321  21.026  27.725  1.00  0.00     0.014 A 
ATOM     31  C   UNL A   1      43.076  22.706  25.627  1.00  0.00     0.010 A 
ATOM     32  C   UNL A   1      42.753  22.325  27.994  1.00  0.00     0.010 A 
ATOM     33  C   UNL A   1      43.139  23.177  26.948  1.00  0.00    -0.014 A 
BRANCH  33  34
ATOM     34  C   UNL A   1      43.593  24.561  27.246  1.00  0.00     0.031 A 
ATOM     35  C   UNL A   1      42.620  25.599  27.729  1.00  0.00     0.074 A 
ATOM     36  C   UNL A   1      44.875  24.900  27.013  1.00  0.00     0.049 A 
ATOM     37  N   UNL A   1      42.823  26.866  27.992  1.00  0.00    -0.248 NA
ATOM     38  C   UNL A   1      41.227  25.165  27.913  1.00  0.00     0.031 C 
ATOM     39  C   UNL A   1      45.902  24.003  26.483  1.00  0.00     0.029 A 
ATOM     40  N   UNL A   1      45.530  26.097  27.175  1.00  0.00    -0.354 N 
ATOM     41  C   UNL A   1      41.585  27.382  28.351  1.00  0.00     0.074 A 
ATOM     42  C   UNL A   1      40.628  26.304  28.228  1.00  0.00     0.031 C 
ATOM     43  C   UNL A   1      47.059  24.674  26.376  1.00  0.00     0.029 A 
ATOM     44  C   UNL A   1      46.850  26.056  26.798  1.00  0.00     0.049 A 
ATOM     45  H   UNL A   1      45.095  26.906  27.529  1.00  0.00     0.167 HD
ATOM     46  C   UNL A   1      41.279  28.636  28.763  1.00  0.00     0.037 A 
ATOM     47  C   UNL A   1      47.785  27.024  26.784  1.00  0.00     0.037 A 
ATOM     48  C   UNL A   1      42.239  29.699  28.912  1.00  0.00     0.049 A 
ATOM     49  C   UNL A   1      47.428  28.400  27.271  1.00  0.00     0.074 A 
ATOM     50  C   UNL A   1      42.045  30.975  29.413  1.00  0.00     0.029 A 
ATOM     51  N   UNL A   1      43.576  29.612  28.551  1.00  0.00    -0.354 N 
ATOM     52  N   UNL A   1      46.274  28.852  27.698  1.00  0.00    -0.248 NA
ATOM     53  C   UNL A   1      48.507  29.398  27.285  1.00  0.00     0.031 C 
ATOM     54  C   UNL A   1      43.251  31.677  29.305  1.00  0.00     0.029 A 
ATOM     55  C   UNL A   1      44.210  30.822  28.788  1.00  0.00     0.049 A 
ATOM     56  H   UNL A   1      44.010  28.810  28.180  1.00  0.00     0.167 HD
ATOM     57  C   UNL A   1      46.489  30.179  28.046  1.00  0.00     0.074 A 
ATOM     58  C   UNL A   1      47.889  30.453  27.800  1.00  0.00     0.031 C 
ATOM     59  C   UNL A   1      45.603  31.086  28.527  1.00  0.00     0.037 A 
BRANCH  46  60
ATOM     60  C   UNL A   1      39.838  28.931  29.075  1.00  0.00     0.064 A 
ATOM     61  C   UNL A   1      39.316  28.786  30.369  1.00  0.00     0.173 A 
ATOM     62  C   UNL A   1      38.974  29.388  28.068  1.00  0.00     0.173 A 
ATOM     63  F   UNL A   1      40.097  28.345  31.367  1.00  0.00    -0.203 F 
ATOM     64  C   UNL A   1      37.975  29.052  30.635  1.00  0.00     0.198 A 
ATOM     65  C   UNL A   1      37.641  29.683  28.345  1.00  0.00     0.198 A 
ATOM     66  F   UNL A   1      39.421  29.552  26.814  1.00  0.00    -0.203 F 
ATOM     67  F   UNL A   1      37.486  28.851  31.867  1.00  0.00    -0.200 F 
ATOM     68  C   UNL A   1      37.140  29.505  29.626  1.00  0.00     0.200 A 
ATOM     69  F   UNL A   1      36.839  30.133  27.371  1.00  0.00    -0.200 F 
ATOM     70  F   UNL A   1      35.851  29.761  29.884  1.00  0.00    -0.200 F 
ENDBRANCH  46  60
BRANCH  47  71
ATOM     71  C   UNL A   1      49.155  26.708  26.307  1.00  0.00     0.064 A 
ATOM     72  C   UNL A   1      49.536  26.966  24.984  1.00  0.00     0.173 A 
ATOM     73  C   UNL A   1      50.121  26.173  27.173  1.00  0.00     0.173 A 
ATOM     74  F   UNL A   1      48.643  27.461  24.114  1.00  0.00    -0.203 F 
ATOM     75  C   UNL A   1      50.828  26.692  24.541  1.00  0.00     0.198 A 
ATOM     76  C   UNL A   1      51.420  25.924  26.737  1.00  0.00     0.198 A 
ATOM     77  F   UNL A   1      49.808  25.917  28.452  1.00  0.00    -0.203 F 
ATOM     78  F   UNL A   1      51.158  26.919  23.262  1.00  0.00    -0.200 F 
ATOM     79  C   UNL A   1      51.771  26.179  25.420  1.00  0.00     0.200 A 
ATOM     80  F   UNL A   1      52.332  25.446  27.593  1.00  0.00    -0.200 F 
ATOM     81  F   UNL A   1      53.018  25.930  24.997  1.00  0.00    -0.200 F 
ENDBRANCH  47  71
BRANCH  59  82
ATOM     82  C   UNL A   1      46.126  32.461  28.831  1.00  0.00     0.064 A 
ATOM     83  C   UNL A   1      46.681  32.776  30.080  1.00  0.00     0.173 A 
ATOM     84  C   UNL A   1      46.104  33.464  27.849  1.00  0.00     0.173 A 
ATOM     85  F   UNL A   1      46.711  31.857  31.056  1.00  0.00    -0.203 F 
ATOM     86  C   UNL A   1      47.171  34.053  30.343  1.00  0.00     0.198 A 
ATOM     87  C   UNL A   1      46.623  34.729  28.107  1.00  0.00     0.198 A 
ATOM     88  F   UNL A   1      45.590  33.212  26.637  1.00  0.00    -0.203 F 
ATOM     89  F   UNL A   1      47.653  34.345  31.559  1.00  0.00    -0.200 F 
ATOM     90  C   UNL A   1      47.149  35.026  29.356  1.00  0.00     0.200 A 
ATOM     91  F   UNL A   1      46.610  35.665  27.146  1.00  0.00    -0.200 F 
ATOM     92  F   UNL A   1      47.625  36.252  29.609  1.00  0.00    -0.200 F 
ENDBRANCH  59  82
ENDBRANCH  33  34
ENDBRANCH  25  28
ENDBRANCH  23  24
ENDBRANCH   1  23
TORSDOF 12
ENDMDL
