MODEL 1
REMARK VINA RESULT:     -13.3      0.000      0.000
REMARK SMILES Cc1ccc(C(F)(F)F)cc1/C=C/C(=O)NCCCNC(=O)c1ccc(-c2c3nc(c(-c4c(F)c(F)c(F)c(F)c4F)c4ccc([nH]4)c(-c4c(F)c(F)c(F)c(F)c4F)c4nc(c(-c5c(F)c(F)c(F)c(F)c5F)c5ccc2[nH]5)C=C4)C=C3)cc1
REMARK SMILES IDX 18 1 17 2 16 3 14 4 15 5 13 7 12 8 11 9 1 10 2 11 3 12 4 13
REMARK SMILES IDX 10 14 5 15 6 16 7 17 8 18 9 19 19 20 20 21 21 22 22 24 23 25
REMARK SMILES IDX 24 26 85 27 25 28 84 29 26 30 27 31 28 32 78 33 29 34 83 35
REMARK SMILES IDX 77 36 79 37 30 38 82 39 76 40 75 41 31 43 63 44 43 45 62 46
REMARK SMILES IDX 44 47 47 48 61 49 80 50 45 51 46 52 60 54 81 55 48 56 32 57
REMARK SMILES IDX 33 58 41 59 34 60 35 61 39 62 42 63 36 64 37 65 40 66 38 67
REMARK SMILES IDX 64 68 65 69 73 70 66 71 67 72 71 73 74 74 68 75 69 76 72 77
REMARK SMILES IDX 70 78 49 79 50 80 58 81 51 82 52 83 56 84 59 85 53 86 54 87
REMARK SMILES IDX 57 88 55 89
REMARK H PARENT 16 6 20 23 79 42 47 53
REMARK Flexibility Score: inf
ROOT
ATOM      1  C   UNL A   1      38.723  21.616  25.642  1.00  0.00     0.042 C 
ENDROOT
BRANCH   1   2
ATOM      2  C   UNL A   1      37.331  21.896  25.073  1.00  0.00     0.118 C 
BRANCH   2   3
ATOM      3  N   UNL A   1      36.281  21.561  26.026  1.00  0.00    -0.352 N 
ATOM      4  C   UNL A   1      35.243  22.320  26.480  1.00  0.00     0.244 C 
ATOM      5  O   UNL A   1      34.379  21.813  27.192  1.00  0.00    -0.270 OA
ATOM      6  H   UNL A   1      36.328  20.651  26.398  1.00  0.00     0.163 HD
BRANCH   4   7
ATOM      7  C   UNL A   1      35.106  23.734  26.059  1.00  0.00     0.072 C 
ATOM      8  C   UNL A   1      33.926  24.290  25.750  1.00  0.00     0.014 C 
BRANCH   8   9
ATOM      9  C   UNL A   1      33.737  25.677  25.304  1.00  0.00    -0.022 A 
ATOM     10  C   UNL A   1      33.840  24.982  22.838  1.00  0.00     0.045 C 
ATOM     11  C   UNL A   1      33.743  26.010  23.933  1.00  0.00    -0.044 A 
ATOM     12  C   UNL A   1      33.698  27.360  23.554  1.00  0.00     0.004 A 
ATOM     13  C   UNL A   1      33.612  28.368  24.512  1.00  0.00     0.013 A 
ATOM     14  C   UNL A   1      33.645  26.701  26.260  1.00  0.00     0.021 A 
ATOM     15  C   UNL A   1      33.572  28.048  25.875  1.00  0.00     0.056 A 
BRANCH  15  16
ATOM     16  C   UNL A   1      33.481  29.150  26.900  1.00  0.00     0.416 C 
ATOM     17  F   UNL A   1      34.315  28.944  27.957  1.00  0.00    -0.166 F 
ATOM     18  F   UNL A   1      33.818  30.366  26.388  1.00  0.00    -0.166 F 
ATOM     19  F   UNL A   1      32.235  29.301  27.430  1.00  0.00    -0.166 F 
ENDBRANCH  15  16
ENDBRANCH   8   9
ENDBRANCH   4   7
ENDBRANCH   2   3
ENDBRANCH   1   2
BRANCH   1  20
ATOM     20  C   UNL A   1      39.216  22.687  26.599  1.00  0.00     0.118 C 
BRANCH  20  21
ATOM     21  N   UNL A   1      40.647  22.969  26.503  1.00  0.00    -0.352 N 
ATOM     22  C   UNL A   1      41.266  24.207  26.506  1.00  0.00     0.251 C 
ATOM     23  H   UNL A   1      41.239  22.187  26.427  1.00  0.00     0.163 HD
ATOM     24  O   UNL A   1      42.485  24.311  26.400  1.00  0.00    -0.269 OA
BRANCH  22  25
ATOM     25  C   UNL A   1      40.428  25.394  26.778  1.00  0.00     0.039 A 
ATOM     26  C   UNL A   1      40.836  26.605  26.214  1.00  0.00     0.014 A 
ATOM     27  C   UNL A   1      39.515  25.362  27.828  1.00  0.00     0.014 A 
ATOM     28  C   UNL A   1      40.550  27.788  26.887  1.00  0.00     0.010 A 
ATOM     29  C   UNL A   1      39.315  26.523  28.550  1.00  0.00     0.010 A 
ATOM     30  C   UNL A   1      39.900  27.721  28.119  1.00  0.00    -0.014 A 
BRANCH  30  31
ATOM     31  C   UNL A   1      39.865  28.840  29.054  1.00  0.00     0.031 A 
ATOM     32  C   UNL A   1      38.838  29.889  28.911  1.00  0.00     0.074 A 
ATOM     33  C   UNL A   1      40.748  28.922  30.075  1.00  0.00     0.049 A 
ATOM     34  N   UNL A   1      38.988  31.105  29.317  1.00  0.00    -0.248 NA
ATOM     35  C   UNL A   1      37.561  29.649  28.257  1.00  0.00     0.031 C 
ATOM     36  C   UNL A   1      40.703  29.850  31.202  1.00  0.00     0.029 A 
ATOM     37  N   UNL A   1      42.002  28.299  30.191  1.00  0.00    -0.354 N 
ATOM     38  C   UNL A   1      37.767  31.728  29.231  1.00  0.00     0.074 A 
ATOM     39  C   UNL A   1      36.927  30.800  28.507  1.00  0.00     0.031 C 
ATOM     40  C   UNL A   1      41.943  29.991  31.697  1.00  0.00     0.029 A 
ATOM     41  C   UNL A   1      42.840  29.244  30.840  1.00  0.00     0.049 A 
ATOM     42  H   UNL A   1      42.248  27.396  29.886  1.00  0.00     0.167 HD
ATOM     43  C   UNL A   1      37.571  32.908  29.889  1.00  0.00     0.037 A 
ATOM     44  C   UNL A   1      43.955  29.735  30.229  1.00  0.00     0.037 A 
ATOM     45  C   UNL A   1      38.789  33.367  30.561  1.00  0.00     0.049 A 
ATOM     46  C   UNL A   1      43.924  31.225  29.969  1.00  0.00     0.074 A 
ATOM     47  C   UNL A   1      39.248  33.327  31.868  1.00  0.00     0.029 A 
ATOM     48  N   UNL A   1      39.882  33.725  29.791  1.00  0.00    -0.354 N 
ATOM     49  N   UNL A   1      42.951  32.017  30.324  1.00  0.00    -0.248 NA
ATOM     50  C   UNL A   1      44.942  31.915  29.175  1.00  0.00     0.031 C 
ATOM     51  C   UNL A   1      40.626  33.687  31.872  1.00  0.00     0.029 A 
ATOM     52  C   UNL A   1      41.005  33.943  30.568  1.00  0.00     0.049 A 
ATOM     53  H   UNL A   1      39.862  33.814  28.811  1.00  0.00     0.167 HD
ATOM     54  C   UNL A   1      43.154  33.258  29.780  1.00  0.00     0.074 A 
ATOM     55  C   UNL A   1      44.412  33.143  29.064  1.00  0.00     0.031 C 
ATOM     56  C   UNL A   1      42.257  34.278  29.910  1.00  0.00     0.037 A 
BRANCH  43  57
ATOM     57  C   UNL A   1      36.205  33.512  30.130  1.00  0.00     0.064 A 
ATOM     58  C   UNL A   1      35.447  34.038  29.064  1.00  0.00     0.173 A 
ATOM     59  C   UNL A   1      35.608  33.649  31.397  1.00  0.00     0.173 A 
ATOM     60  F   UNL A   1      35.816  33.867  27.788  1.00  0.00    -0.203 F 
ATOM     61  C   UNL A   1      34.271  34.765  29.265  1.00  0.00     0.198 A 
ATOM     62  C   UNL A   1      34.468  34.432  31.608  1.00  0.00     0.198 A 
ATOM     63  F   UNL A   1      36.070  32.980  32.460  1.00  0.00    -0.203 F 
ATOM     64  F   UNL A   1      33.599  35.248  28.210  1.00  0.00    -0.200 F 
ATOM     65  C   UNL A   1      33.807  35.004  30.542  1.00  0.00     0.200 A 
ATOM     66  F   UNL A   1      34.016  34.625  32.856  1.00  0.00    -0.200 F 
ATOM     67  F   UNL A   1      32.714  35.751  30.740  1.00  0.00    -0.200 F 
ENDBRANCH  43  57
BRANCH  44  68
ATOM     68  C   UNL A   1      44.599  28.716  29.358  1.00  0.00     0.064 A 
ATOM     69  C   UNL A   1      45.320  27.687  29.998  1.00  0.00     0.173 A 
ATOM     70  C   UNL A   1      44.142  28.483  28.058  1.00  0.00     0.173 A 
ATOM     71  F   UNL A   1      45.800  27.874  31.238  1.00  0.00    -0.203 F 
ATOM     72  C   UNL A   1      45.396  26.415  29.440  1.00  0.00     0.198 A 
ATOM     73  C   UNL A   1      44.260  27.218  27.486  1.00  0.00     0.198 A 
ATOM     74  F   UNL A   1      43.458  29.427  27.398  1.00  0.00    -0.203 F 
ATOM     75  F   UNL A   1      45.921  25.406  30.148  1.00  0.00    -0.200 F 
ATOM     76  C   UNL A   1      44.829  26.173  28.200  1.00  0.00     0.200 A 
ATOM     77  F   UNL A   1      43.721  26.984  26.281  1.00  0.00    -0.200 F 
ATOM     78  F   UNL A   1      44.784  24.923  27.720  1.00  0.00    -0.200 F 
ENDBRANCH  44  68
BRANCH  56  79
ATOM     79  C   UNL A   1      42.495  35.672  29.391  1.00  0.00     0.064 A 
ATOM     80  C   UNL A   1      41.967  36.123  28.169  1.00  0.00     0.173 A 
ATOM     81  C   UNL A   1      43.351  36.577  30.058  1.00  0.00     0.173 A 
ATOM     82  F   UNL A   1      41.238  35.311  27.391  1.00  0.00    -0.203 F 
ATOM     83  C   UNL A   1      42.198  37.418  27.697  1.00  0.00     0.198 A 
ATOM     84  C   UNL A   1      43.624  37.849  29.556  1.00  0.00     0.198 A 
ATOM     85  F   UNL A   1      43.934  36.265  31.223  1.00  0.00    -0.203 F 
ATOM     86  F   UNL A   1      41.611  37.825  26.563  1.00  0.00    -0.200 F 
ATOM     87  C   UNL A   1      43.029  38.278  28.389  1.00  0.00     0.200 A 
ATOM     88  F   UNL A   1      44.463  38.657  30.220  1.00  0.00    -0.200 F 
ATOM     89  F   UNL A   1      43.259  39.516  27.930  1.00  0.00    -0.200 F 
ENDBRANCH  56  79
ENDBRANCH  30  31
ENDBRANCH  22  25
ENDBRANCH  20  21
ENDBRANCH   1  20
TORSDOF 12
ENDMDL
MODEL 2
REMARK VINA RESULT:     -13.3      3.813     10.220
REMARK SMILES Cc1ccc(C(F)(F)F)cc1/C=C/C(=O)NCCCNC(=O)c1ccc(-c2c3nc(c(-c4c(F)c(F)c(F)c(F)c4F)c4ccc([nH]4)c(-c4c(F)c(F)c(F)c(F)c4F)c4nc(c(-c5c(F)c(F)c(F)c(F)c5F)c5ccc2[nH]5)C=C4)C=C3)cc1
REMARK SMILES IDX 18 1 17 2 16 3 14 4 15 5 13 7 12 8 11 9 1 10 2 11 3 12 4 13
REMARK SMILES IDX 10 14 5 15 6 16 7 17 8 18 9 19 19 20 20 21 21 22 22 24 23 25
REMARK SMILES IDX 24 26 85 27 25 28 84 29 26 30 27 31 28 32 78 33 29 34 83 35
REMARK SMILES IDX 77 36 79 37 30 38 82 39 76 40 75 41 31 43 63 44 43 45 62 46
REMARK SMILES IDX 44 47 47 48 61 49 80 50 45 51 46 52 60 54 81 55 48 56 32 57
REMARK SMILES IDX 33 58 41 59 34 60 35 61 39 62 42 63 36 64 37 65 40 66 38 67
REMARK SMILES IDX 64 68 65 69 73 70 66 71 67 72 71 73 74 74 68 75 69 76 72 77
REMARK SMILES IDX 70 78 49 79 50 80 58 81 51 82 52 83 56 84 59 85 53 86 54 87
REMARK SMILES IDX 57 88 55 89
REMARK H PARENT 16 6 20 23 79 42 47 53
REMARK Flexibility Score: inf
ROOT
ATOM      1  C   UNL A   1      32.910  31.026  27.251  1.00  0.00     0.042 C 
ENDROOT
BRANCH   1   2
ATOM      2  C   UNL A   1      32.096  29.995  26.468  1.00  0.00     0.118 C 
BRANCH   2   3
ATOM      3  N   UNL A   1      32.493  29.945  25.067  1.00  0.00    -0.352 N 
ATOM      4  C   UNL A   1      33.107  28.945  24.372  1.00  0.00     0.244 C 
ATOM      5  O   UNL A   1      33.246  29.042  23.155  1.00  0.00    -0.270 OA
ATOM      6  H   UNL A   1      32.287  30.753  24.544  1.00  0.00     0.163 HD
BRANCH   4   7
ATOM      7  C   UNL A   1      33.543  27.708  25.062  1.00  0.00     0.072 C 
ATOM      8  C   UNL A   1      33.441  26.492  24.507  1.00  0.00     0.014 C 
BRANCH   8   9
ATOM      9  C   UNL A   1      33.833  25.233  25.156  1.00  0.00    -0.022 A 
ATOM     10  C   UNL A   1      31.645  25.145  26.490  1.00  0.00     0.045 C 
ATOM     11  C   UNL A   1      33.008  24.622  26.123  1.00  0.00    -0.044 A 
ATOM     12  C   UNL A   1      33.480  23.498  26.817  1.00  0.00     0.004 A 
ATOM     13  C   UNL A   1      34.734  22.960  26.535  1.00  0.00     0.013 A 
ATOM     14  C   UNL A   1      35.092  24.679  24.876  1.00  0.00     0.021 A 
ATOM     15  C   UNL A   1      35.548  23.537  25.553  1.00  0.00     0.056 A 
BRANCH  15  16
ATOM     16  C   UNL A   1      36.903  22.944  25.261  1.00  0.00     0.416 C 
ATOM     17  F   UNL A   1      37.902  23.864  25.360  1.00  0.00    -0.166 F 
ATOM     18  F   UNL A   1      37.230  21.943  26.124  1.00  0.00    -0.166 F 
ATOM     19  F   UNL A   1      37.008  22.411  24.013  1.00  0.00    -0.166 F 
ENDBRANCH  15  16
ENDBRANCH   8   9
ENDBRANCH   4   7
ENDBRANCH   2   3
ENDBRANCH   1   2
BRANCH   1  20
ATOM     20  C   UNL A   1      34.283  30.529  27.665  1.00  0.00     0.118 C 
BRANCH  20  21
ATOM     21  N   UNL A   1      34.933  31.340  28.693  1.00  0.00    -0.352 N 
ATOM     22  C   UNL A   1      36.016  30.993  29.484  1.00  0.00     0.251 C 
ATOM     23  H   UNL A   1      34.558  32.237  28.841  1.00  0.00     0.163 HD
ATOM     24  O   UNL A   1      36.460  31.762  30.332  1.00  0.00    -0.269 OA
BRANCH  22  25
ATOM     25  C   UNL A   1      36.706  29.721  29.185  1.00  0.00     0.039 A 
ATOM     26  C   UNL A   1      37.129  28.953  30.272  1.00  0.00     0.014 A 
ATOM     27  C   UNL A   1      37.221  29.504  27.909  1.00  0.00     0.014 A 
ATOM     28  C   UNL A   1      38.269  28.168  30.136  1.00  0.00     0.010 A 
ATOM     29  C   UNL A   1      38.407  28.805  27.797  1.00  0.00     0.010 A 
ATOM     30  C   UNL A   1      38.971  28.203  28.930  1.00  0.00    -0.014 A 
BRANCH  30  31
ATOM     31  C   UNL A   1      40.337  27.709  28.798  1.00  0.00     0.031 A 
ATOM     32  C   UNL A   1      40.580  26.297  28.451  1.00  0.00     0.074 A 
ATOM     33  C   UNL A   1      41.395  28.535  28.964  1.00  0.00     0.049 A 
ATOM     34  N   UNL A   1      41.646  25.648  28.777  1.00  0.00    -0.248 NA
ATOM     35  C   UNL A   1      39.607  25.490  27.730  1.00  0.00     0.031 C 
ATOM     36  C   UNL A   1      42.793  28.244  28.655  1.00  0.00     0.029 A 
ATOM     37  N   UNL A   1      41.441  29.760  29.650  1.00  0.00    -0.354 N 
ATOM     38  C   UNL A   1      41.632  24.452  28.101  1.00  0.00     0.074 A 
ATOM     39  C   UNL A   1      40.312  24.376  27.513  1.00  0.00     0.031 C 
ATOM     40  C   UNL A   1      43.575  29.043  29.396  1.00  0.00     0.029 A 
ATOM     41  C   UNL A   1      42.713  29.797  30.282  1.00  0.00     0.049 A 
ATOM     42  H   UNL A   1      40.739  30.450  29.685  1.00  0.00     0.167 HD
ATOM     43  C   UNL A   1      42.780  23.719  28.013  1.00  0.00     0.037 A 
ATOM     44  C   UNL A   1      42.825  29.867  31.639  1.00  0.00     0.037 A 
ATOM     45  C   UNL A   1      43.881  24.338  28.754  1.00  0.00     0.049 A 
ATOM     46  C   UNL A   1      43.497  28.671  32.276  1.00  0.00     0.074 A 
ATOM     47  C   UNL A   1      44.975  25.111  28.399  1.00  0.00     0.029 A 
ATOM     48  N   UNL A   1      43.787  24.434  30.132  1.00  0.00    -0.354 N 
ATOM     49  N   UNL A   1      43.984  27.657  31.615  1.00  0.00    -0.248 NA
ATOM     50  C   UNL A   1      43.561  28.472  33.724  1.00  0.00     0.031 C 
ATOM     51  C   UNL A   1      45.548  25.652  29.585  1.00  0.00     0.029 A 
ATOM     52  C   UNL A   1      44.801  25.212  30.660  1.00  0.00     0.049 A 
ATOM     53  H   UNL A   1      43.085  24.002  30.670  1.00  0.00     0.167 HD
ATOM     54  C   UNL A   1      44.352  26.675  32.496  1.00  0.00     0.074 A 
ATOM     55  C   UNL A   1      44.063  27.230  33.805  1.00  0.00     0.031 C 
ATOM     56  C   UNL A   1      44.820  25.458  32.093  1.00  0.00     0.037 A 
BRANCH  43  57
ATOM     57  C   UNL A   1      42.965  22.573  27.044  1.00  0.00     0.064 A 
ATOM     58  C   UNL A   1      42.278  21.354  27.221  1.00  0.00     0.173 A 
ATOM     59  C   UNL A   1      43.847  22.592  25.947  1.00  0.00     0.173 A 
ATOM     60  F   UNL A   1      41.309  21.222  28.136  1.00  0.00    -0.203 F 
ATOM     61  C   UNL A   1      42.558  20.215  26.462  1.00  0.00     0.198 A 
ATOM     62  C   UNL A   1      44.178  21.439  25.229  1.00  0.00     0.198 A 
ATOM     63  F   UNL A   1      44.369  23.739  25.495  1.00  0.00    -0.203 F 
ATOM     64  F   UNL A   1      41.876  19.083  26.685  1.00  0.00    -0.200 F 
ATOM     65  C   UNL A   1      43.544  20.244  25.497  1.00  0.00     0.200 A 
ATOM     66  F   UNL A   1      45.117  21.496  24.273  1.00  0.00    -0.200 F 
ATOM     67  F   UNL A   1      43.855  19.138  24.810  1.00  0.00    -0.200 F 
ENDBRANCH  43  57
BRANCH  44  68
ATOM     68  C   UNL A   1      41.725  30.666  32.241  1.00  0.00     0.064 A 
ATOM     69  C   UNL A   1      41.794  32.067  32.096  1.00  0.00     0.173 A 
ATOM     70  C   UNL A   1      40.474  30.097  32.499  1.00  0.00     0.173 A 
ATOM     71  F   UNL A   1      42.977  32.661  31.871  1.00  0.00    -0.203 F 
ATOM     72  C   UNL A   1      40.637  32.833  32.005  1.00  0.00     0.198 A 
ATOM     73  C   UNL A   1      39.322  30.877  32.451  1.00  0.00     0.198 A 
ATOM     74  F   UNL A   1      40.349  28.771  32.654  1.00  0.00    -0.203 F 
ATOM     75  F   UNL A   1      40.719  34.130  31.679  1.00  0.00    -0.200 F 
ATOM     76  C   UNL A   1      39.399  32.228  32.143  1.00  0.00     0.200 A 
ATOM     77  F   UNL A   1      38.123  30.296  32.594  1.00  0.00    -0.200 F 
ATOM     78  F   UNL A   1      38.283  32.936  31.926  1.00  0.00    -0.200 F 
ENDBRANCH  44  68
BRANCH  56  79
ATOM     79  C   UNL A   1      45.308  24.394  33.041  1.00  0.00     0.064 A 
ATOM     80  C   UNL A   1      44.487  23.342  33.482  1.00  0.00     0.173 A 
ATOM     81  C   UNL A   1      46.594  24.451  33.624  1.00  0.00     0.173 A 
ATOM     82  F   UNL A   1      43.208  23.254  33.088  1.00  0.00    -0.203 F 
ATOM     83  C   UNL A   1      44.950  22.363  34.364  1.00  0.00     0.198 A 
ATOM     84  C   UNL A   1      47.034  23.503  34.547  1.00  0.00     0.198 A 
ATOM     85  F   UNL A   1      47.469  25.413  33.305  1.00  0.00    -0.203 F 
ATOM     86  F   UNL A   1      44.153  21.338  34.696  1.00  0.00    -0.200 F 
ATOM     87  C   UNL A   1      46.222  22.446  34.899  1.00  0.00     0.200 A 
ATOM     88  F   UNL A   1      48.256  23.621  35.086  1.00  0.00    -0.200 F 
ATOM     89  F   UNL A   1      46.662  21.513  35.755  1.00  0.00    -0.200 F 
ENDBRANCH  56  79
ENDBRANCH  30  31
ENDBRANCH  22  25
ENDBRANCH  20  21
ENDBRANCH   1  20
TORSDOF 12
ENDMDL
MODEL 3
REMARK VINA RESULT:     -13.2      4.225     10.229
REMARK SMILES Cc1ccc(C(F)(F)F)cc1/C=C/C(=O)NCCCNC(=O)c1ccc(-c2c3nc(c(-c4c(F)c(F)c(F)c(F)c4F)c4ccc([nH]4)c(-c4c(F)c(F)c(F)c(F)c4F)c4nc(c(-c5c(F)c(F)c(F)c(F)c5F)c5ccc2[nH]5)C=C4)C=C3)cc1
REMARK SMILES IDX 18 1 17 2 16 3 14 4 15 5 13 7 12 8 11 9 1 10 2 11 3 12 4 13
REMARK SMILES IDX 10 14 5 15 6 16 7 17 8 18 9 19 19 20 20 21 21 22 22 24 23 25
REMARK SMILES IDX 24 26 85 27 25 28 84 29 26 30 27 31 28 32 78 33 29 34 83 35
REMARK SMILES IDX 77 36 79 37 30 38 82 39 76 40 75 41 31 43 63 44 43 45 62 46
REMARK SMILES IDX 44 47 47 48 61 49 80 50 45 51 46 52 60 54 81 55 48 56 32 57
REMARK SMILES IDX 33 58 41 59 34 60 35 61 39 62 42 63 36 64 37 65 40 66 38 67
REMARK SMILES IDX 64 68 65 69 73 70 66 71 67 72 71 73 74 74 68 75 69 76 72 77
REMARK SMILES IDX 70 78 49 79 50 80 58 81 51 82 52 83 56 84 59 85 53 86 54 87
REMARK SMILES IDX 57 88 55 89
REMARK H PARENT 16 6 20 23 79 42 47 53
REMARK Flexibility Score: inf
ROOT
ATOM      1  C   UNL A   1      32.879  31.020  27.257  1.00  0.00     0.042 C 
ENDROOT
BRANCH   1   2
ATOM      2  C   UNL A   1      32.069  30.034  26.415  1.00  0.00     0.118 C 
BRANCH   2   3
ATOM      3  N   UNL A   1      32.489  30.045  25.019  1.00  0.00    -0.352 N 
ATOM      4  C   UNL A   1      33.147  29.090  24.300  1.00  0.00     0.244 C 
ATOM      5  O   UNL A   1      33.300  29.234  23.090  1.00  0.00    -0.270 OA
ATOM      6  H   UNL A   1      32.264  30.863  24.521  1.00  0.00     0.163 HD
BRANCH   4   7
ATOM      7  C   UNL A   1      33.613  27.846  24.955  1.00  0.00     0.072 C 
ATOM      8  C   UNL A   1      33.245  26.625  24.541  1.00  0.00     0.014 C 
BRANCH   8   9
ATOM      9  C   UNL A   1      33.657  25.362  25.168  1.00  0.00    -0.022 A 
ATOM     10  C   UNL A   1      31.462  25.206  26.483  1.00  0.00     0.045 C 
ATOM     11  C   UNL A   1      32.837  24.716  26.118  1.00  0.00    -0.044 A 
ATOM     12  C   UNL A   1      33.326  23.589  26.793  1.00  0.00     0.004 A 
ATOM     13  C   UNL A   1      34.593  23.081  26.511  1.00  0.00     0.013 A 
ATOM     14  C   UNL A   1      34.929  24.838  24.888  1.00  0.00     0.021 A 
ATOM     15  C   UNL A   1      35.403  23.693  25.546  1.00  0.00     0.056 A 
BRANCH  15  16
ATOM     16  C   UNL A   1      36.772  23.132  25.253  1.00  0.00     0.416 C 
ATOM     17  F   UNL A   1      37.747  24.078  25.342  1.00  0.00    -0.166 F 
ATOM     18  F   UNL A   1      37.126  22.146  26.122  1.00  0.00    -0.166 F 
ATOM     19  F   UNL A   1      36.885  22.593  24.008  1.00  0.00    -0.166 F 
ENDBRANCH  15  16
ENDBRANCH   8   9
ENDBRANCH   4   7
ENDBRANCH   2   3
ENDBRANCH   1   2
BRANCH   1  20
ATOM     20  C   UNL A   1      34.249  30.499  27.653  1.00  0.00     0.118 C 
BRANCH  20  21
ATOM     21  N   UNL A   1      34.976  31.360  28.585  1.00  0.00    -0.352 N 
ATOM     22  C   UNL A   1      36.124  31.056  29.295  1.00  0.00     0.251 C 
ATOM     23  H   UNL A   1      34.605  32.261  28.723  1.00  0.00     0.163 HD
ATOM     24  O   UNL A   1      36.631  31.866  30.067  1.00  0.00    -0.269 OA
BRANCH  22  25
ATOM     25  C   UNL A   1      36.799  29.776  28.996  1.00  0.00     0.039 A 
ATOM     26  C   UNL A   1      37.190  28.991  30.083  1.00  0.00     0.014 A 
ATOM     27  C   UNL A   1      37.335  29.563  27.728  1.00  0.00     0.014 A 
ATOM     28  C   UNL A   1      38.320  28.189  29.960  1.00  0.00     0.010 A 
ATOM     29  C   UNL A   1      38.512  28.847  27.631  1.00  0.00     0.010 A 
ATOM     30  C   UNL A   1      39.045  28.225  28.768  1.00  0.00    -0.014 A 
BRANCH  30  31
ATOM     31  C   UNL A   1      40.404  27.710  28.656  1.00  0.00     0.031 A 
ATOM     32  C   UNL A   1      40.631  26.288  28.341  1.00  0.00     0.074 A 
ATOM     33  C   UNL A   1      41.472  28.526  28.812  1.00  0.00     0.049 A 
ATOM     34  N   UNL A   1      41.686  25.632  28.688  1.00  0.00    -0.248 NA
ATOM     35  C   UNL A   1      39.652  25.479  27.630  1.00  0.00     0.031 C 
ATOM     36  C   UNL A   1      42.868  28.209  28.520  1.00  0.00     0.029 A 
ATOM     37  N   UNL A   1      41.531  29.764  29.473  1.00  0.00    -0.354 N 
ATOM     38  C   UNL A   1      41.661  24.422  28.037  1.00  0.00     0.074 A 
ATOM     39  C   UNL A   1      40.344  24.351  27.441  1.00  0.00     0.031 C 
ATOM     40  C   UNL A   1      43.656  29.013  29.250  1.00  0.00     0.029 A 
ATOM     41  C   UNL A   1      42.798  29.798  30.113  1.00  0.00     0.049 A 
ATOM     42  H   UNL A   1      40.837  30.463  29.488  1.00  0.00     0.167 HD
ATOM     43  C   UNL A   1      42.800  23.673  27.973  1.00  0.00     0.037 A 
ATOM     44  C   UNL A   1      42.901  29.894  31.469  1.00  0.00     0.037 A 
ATOM     45  C   UNL A   1      43.903  24.293  28.709  1.00  0.00     0.049 A 
ATOM     46  C   UNL A   1      43.553  28.703  32.135  1.00  0.00     0.074 A 
ATOM     47  C   UNL A   1      45.010  25.043  28.345  1.00  0.00     0.029 A 
ATOM     48  N   UNL A   1      43.801  24.419  30.083  1.00  0.00    -0.354 N 
ATOM     49  N   UNL A   1      44.031  27.669  31.499  1.00  0.00    -0.248 NA
ATOM     50  C   UNL A   1      43.605  28.534  33.588  1.00  0.00     0.031 C 
ATOM     51  C   UNL A   1      45.582  25.601  29.523  1.00  0.00     0.029 A 
ATOM     52  C   UNL A   1      44.822  25.194  30.603  1.00  0.00     0.049 A 
ATOM     53  H   UNL A   1      43.090  24.007  30.625  1.00  0.00     0.167 HD
ATOM     54  C   UNL A   1      44.380  26.701  32.404  1.00  0.00     0.074 A 
ATOM     55  C   UNL A   1      44.090  27.288  33.699  1.00  0.00     0.031 C 
ATOM     56  C   UNL A   1      44.835  25.470  32.030  1.00  0.00     0.037 A 
BRANCH  43  57
ATOM     57  C   UNL A   1      42.976  22.503  27.029  1.00  0.00     0.064 A 
ATOM     58  C   UNL A   1      42.278  21.295  27.233  1.00  0.00     0.173 A 
ATOM     59  C   UNL A   1      43.859  22.491  25.933  1.00  0.00     0.173 A 
ATOM     60  F   UNL A   1      41.308  21.191  28.150  1.00  0.00    -0.203 F 
ATOM     61  C   UNL A   1      42.550  20.137  26.499  1.00  0.00     0.198 A 
ATOM     62  C   UNL A   1      44.181  21.320  25.242  1.00  0.00     0.198 A 
ATOM     63  F   UNL A   1      44.391  23.624  25.456  1.00  0.00    -0.203 F 
ATOM     64  F   UNL A   1      41.858  19.016  26.746  1.00  0.00    -0.200 F 
ATOM     65  C   UNL A   1      43.537  20.137  25.535  1.00  0.00     0.200 A 
ATOM     66  F   UNL A   1      45.121  21.348  24.285  1.00  0.00    -0.200 F 
ATOM     67  F   UNL A   1      43.839  19.013  24.873  1.00  0.00    -0.200 F 
ENDBRANCH  43  57
BRANCH  44  68
ATOM     68  C   UNL A   1      41.808  30.721  32.046  1.00  0.00     0.064 A 
ATOM     69  C   UNL A   1      40.734  30.035  32.649  1.00  0.00     0.173 A 
ATOM     70  C   UNL A   1      42.027  32.050  32.419  1.00  0.00     0.173 A 
ATOM     71  F   UNL A   1      40.470  28.764  32.305  1.00  0.00    -0.203 F 
ATOM     72  C   UNL A   1      40.045  30.591  33.722  1.00  0.00     0.198 A 
ATOM     73  C   UNL A   1      41.303  32.616  33.466  1.00  0.00     0.198 A 
ATOM     74  F   UNL A   1      43.029  32.754  31.873  1.00  0.00    -0.203 F 
ATOM     75  F   UNL A   1      39.157  29.851  34.401  1.00  0.00    -0.200 F 
ATOM     76  C   UNL A   1      40.360  31.867  34.155  1.00  0.00     0.200 A 
ATOM     77  F   UNL A   1      41.600  33.856  33.880  1.00  0.00    -0.200 F 
ATOM     78  F   UNL A   1      39.794  32.353  35.268  1.00  0.00    -0.200 F 
ENDBRANCH  44  68
BRANCH  56  79
ATOM     79  C   UNL A   1      45.301  24.420  33.004  1.00  0.00     0.064 A 
ATOM     80  C   UNL A   1      44.491  23.341  33.396  1.00  0.00     0.173 A 
ATOM     81  C   UNL A   1      46.549  24.517  33.659  1.00  0.00     0.173 A 
ATOM     82  F   UNL A   1      43.241  23.213  32.931  1.00  0.00    -0.203 F 
ATOM     83  C   UNL A   1      44.935  22.375  34.303  1.00  0.00     0.198 A 
ATOM     84  C   UNL A   1      46.967  23.582  34.605  1.00  0.00     0.198 A 
ATOM     85  F   UNL A   1      47.411  25.508  33.390  1.00  0.00    -0.203 F 
ATOM     86  F   UNL A   1      44.153  21.325  34.589  1.00  0.00    -0.200 F 
ATOM     87  C   UNL A   1      46.171  22.498  34.909  1.00  0.00     0.200 A 
ATOM     88  F   UNL A   1      48.152  23.737  35.213  1.00  0.00    -0.200 F 
ATOM     89  F   UNL A   1      46.591  21.577  35.788  1.00  0.00    -0.200 F 
ENDBRANCH  56  79
ENDBRANCH  30  31
ENDBRANCH  22  25
ENDBRANCH  20  21
ENDBRANCH   1  20
TORSDOF 12
ENDMDL
