MODEL 1
REMARK VINA RESULT:     -13.8      0.000      0.000
REMARK SMILES Cc1ccc(-n2nc(C(=O)NCCCNC(=O)c3ccc(-c4c5nc(c(-c6c(F)c(F)c(F)c(F)c6F)c6ccc([nH]6)c(-c6c(F)c(F)c(F)c(F)c6F)c6nc(c(-c7c(F)c(F)c(F)c(F)c7F)c7ccc4[nH]7)C=C6)C=C5)cc3)c3c2CCC3)c(F)c1
REMARK SMILES IDX 13 1 12 2 11 3 9 4 10 5 8 7 6 8 7 9 82 10 81 11 83 12 85 13
REMARK SMILES IDX 84 14 5 15 1 16 2 17 3 18 88 19 4 20 86 21 87 22 14 23 15 24
REMARK SMILES IDX 16 25 17 27 18 28 19 29 80 30 20 31 79 32 21 33 22 34 23 35
REMARK SMILES IDX 73 36 24 37 78 38 72 39 74 40 25 41 77 42 71 43 70 44 26 46
REMARK SMILES IDX 58 47 38 48 57 49 39 50 42 51 56 52 75 53 40 54 41 55 55 57
REMARK SMILES IDX 76 58 43 59 27 60 28 61 36 62 29 63 30 64 34 65 37 66 31 67
REMARK SMILES IDX 32 68 35 69 33 70 59 71 60 72 68 73 61 74 62 75 66 76 69 77
REMARK SMILES IDX 63 78 64 79 67 80 65 81 44 82 45 83 53 84 46 85 47 86 51 87
REMARK SMILES IDX 54 88 48 89 49 90 52 91 50 92
REMARK H PARENT 11 6 15 26 74 45 42 56
REMARK Flexibility Score: inf
ROOT
ATOM      1  C   UNL A   1      33.091  28.442  27.302  1.00  0.00     0.042 C 
ENDROOT
BRANCH   1   2
ATOM      2  C   UNL A   1      32.004  28.275  26.241  1.00  0.00     0.118 C 
BRANCH   2   3
ATOM      3  N   UNL A   1      31.046  27.256  26.626  1.00  0.00    -0.351 N 
ATOM      4  C   UNL A   1      31.016  25.926  26.276  1.00  0.00     0.272 C 
ATOM      5  O   UNL A   1      30.079  25.244  26.697  1.00  0.00    -0.267 OA
ATOM      6  H   UNL A   1      30.319  27.556  27.217  1.00  0.00     0.163 HD
BRANCH   4   7
ATOM      7  C   UNL A   1      32.080  25.360  25.437  1.00  0.00     0.154 A 
ATOM      8  N   UNL A   1      33.858  24.262  24.851  1.00  0.00    -0.234 N 
ATOM      9  N   UNL A   1      33.174  24.731  25.919  1.00  0.00    -0.162 NA
ATOM     10  C   UNL A   1      33.266  24.678  23.703  1.00  0.00     0.048 A 
ATOM     11  C   UNL A   1      32.124  25.343  24.041  1.00  0.00     0.007 A 
ATOM     12  C   UNL A   1      33.399  24.397  22.268  1.00  0.00     0.057 C 
ATOM     13  C   UNL A   1      31.307  25.693  22.872  1.00  0.00     0.040 C 
ATOM     14  C   UNL A   1      32.291  25.353  21.698  1.00  0.00     0.011 C 
BRANCH   8  15
ATOM     15  C   UNL A   1      35.032  23.517  25.029  1.00  0.00     0.101 A 
ATOM     16  C   UNL A   1      38.632  21.215  25.506  1.00  0.00     0.044 C 
ATOM     17  C   UNL A   1      37.367  22.012  25.383  1.00  0.00    -0.048 A 
ATOM     18  C   UNL A   1      37.340  23.374  25.716  1.00  0.00     0.006 A 
ATOM     19  C   UNL A   1      36.206  21.407  24.885  1.00  0.00     0.045 A 
ATOM     20  C   UNL A   1      36.184  24.134  25.523  1.00  0.00     0.032 A 
ATOM     21  C   UNL A   1      35.038  22.152  24.735  1.00  0.00     0.149 A 
ATOM     22  F   UNL A   1      33.964  21.541  24.215  1.00  0.00    -0.205 F 
ENDBRANCH   8  15
ENDBRANCH   4   7
ENDBRANCH   2   3
ENDBRANCH   1   2
BRANCH   1  23
ATOM     23  C   UNL A   1      34.355  28.926  26.633  1.00  0.00     0.118 C 
BRANCH  23  24
ATOM     24  N   UNL A   1      34.584  30.340  26.950  1.00  0.00    -0.352 N 
ATOM     25  C   UNL A   1      35.510  30.894  27.795  1.00  0.00     0.251 C 
ATOM     26  H   UNL A   1      33.991  30.979  26.492  1.00  0.00     0.163 HD
ATOM     27  O   UNL A   1      35.390  32.027  28.219  1.00  0.00    -0.269 OA
BRANCH  25  28
ATOM     28  C   UNL A   1      36.682  30.082  28.121  1.00  0.00     0.039 A 
ATOM     29  C   UNL A   1      36.770  29.381  29.327  1.00  0.00     0.014 A 
ATOM     30  C   UNL A   1      37.722  30.088  27.195  1.00  0.00     0.014 A 
ATOM     31  C   UNL A   1      37.938  28.689  29.606  1.00  0.00     0.010 A 
ATOM     32  C   UNL A   1      38.767  29.250  27.370  1.00  0.00     0.010 A 
ATOM     33  C   UNL A   1      38.922  28.653  28.618  1.00  0.00    -0.014 A 
BRANCH  33  34
ATOM     34  C   UNL A   1      40.224  28.053  28.762  1.00  0.00     0.031 A 
ATOM     35  C   UNL A   1      40.337  26.614  28.541  1.00  0.00     0.074 A 
ATOM     36  C   UNL A   1      41.232  28.948  28.865  1.00  0.00     0.049 A 
ATOM     37  N   UNL A   1      41.270  25.881  29.021  1.00  0.00    -0.248 NA
ATOM     38  C   UNL A   1      39.348  25.858  27.775  1.00  0.00     0.031 C 
ATOM     39  C   UNL A   1      42.664  28.800  28.698  1.00  0.00     0.029 A 
ATOM     40  N   UNL A   1      41.083  30.291  29.270  1.00  0.00    -0.354 N 
ATOM     41  C   UNL A   1      41.224  24.681  28.345  1.00  0.00     0.074 A 
ATOM     42  C   UNL A   1      39.927  24.653  27.717  1.00  0.00     0.031 C 
ATOM     43  C   UNL A   1      43.272  29.835  29.315  1.00  0.00     0.029 A 
ATOM     44  C   UNL A   1      42.239  30.609  29.991  1.00  0.00     0.049 A 
ATOM     45  H   UNL A   1      40.320  30.884  29.081  1.00  0.00     0.167 HD
ATOM     46  C   UNL A   1      42.385  23.970  28.239  1.00  0.00     0.037 A 
ATOM     47  C   UNL A   1      42.110  30.762  31.344  1.00  0.00     0.037 A 
ATOM     48  C   UNL A   1      43.452  24.704  28.927  1.00  0.00     0.049 A 
ATOM     49  C   UNL A   1      42.788  29.623  32.055  1.00  0.00     0.074 A 
ATOM     50  C   UNL A   1      44.392  25.606  28.452  1.00  0.00     0.029 A 
ATOM     51  N   UNL A   1      43.363  24.915  30.302  1.00  0.00    -0.354 N 
ATOM     52  N   UNL A   1      42.867  28.403  31.592  1.00  0.00    -0.248 NA
ATOM     53  C   UNL A   1      43.568  29.835  33.266  1.00  0.00     0.031 C 
ATOM     54  C   UNL A   1      44.802  26.420  29.542  1.00  0.00     0.029 A 
ATOM     55  C   UNL A   1      44.116  26.014  30.676  1.00  0.00     0.049 A 
ATOM     56  H   UNL A   1      42.836  24.359  30.921  1.00  0.00     0.167 HD
ATOM     57  C   UNL A   1      43.765  27.702  32.353  1.00  0.00     0.074 A 
ATOM     58  C   UNL A   1      44.161  28.638  33.395  1.00  0.00     0.031 C 
ATOM     59  C   UNL A   1      44.190  26.434  32.067  1.00  0.00     0.037 A 
BRANCH  46  60
ATOM     60  C   UNL A   1      42.653  22.839  27.266  1.00  0.00     0.064 A 
ATOM     61  C   UNL A   1      41.983  21.602  27.416  1.00  0.00     0.173 A 
ATOM     62  C   UNL A   1      43.558  22.881  26.189  1.00  0.00     0.173 A 
ATOM     63  F   UNL A   1      41.029  21.430  28.341  1.00  0.00    -0.203 F 
ATOM     64  C   UNL A   1      42.257  20.489  26.617  1.00  0.00     0.198 A 
ATOM     65  C   UNL A   1      43.857  21.757  25.407  1.00  0.00     0.198 A 
ATOM     66  F   UNL A   1      44.148  24.019  25.809  1.00  0.00    -0.203 F 
ATOM     67  F   UNL A   1      41.589  19.344  26.821  1.00  0.00    -0.200 F 
ATOM     68  C   UNL A   1      43.211  20.559  25.626  1.00  0.00     0.200 A 
ATOM     69  F   UNL A   1      44.772  21.850  24.431  1.00  0.00    -0.200 F 
ATOM     70  F   UNL A   1      43.486  19.488  24.868  1.00  0.00    -0.200 F 
ENDBRANCH  46  60
BRANCH  47  71
ATOM     71  C   UNL A   1      40.823  31.444  31.702  1.00  0.00     0.064 A 
ATOM     72  C   UNL A   1      39.860  30.637  32.348  1.00  0.00     0.173 A 
ATOM     73  C   UNL A   1      40.731  32.828  31.907  1.00  0.00     0.173 A 
ATOM     74  F   UNL A   1      39.869  29.307  32.154  1.00  0.00    -0.203 F 
ATOM     75  C   UNL A   1      39.005  31.157  33.316  1.00  0.00     0.198 A 
ATOM     76  C   UNL A   1      39.832  33.353  32.846  1.00  0.00     0.198 A 
ATOM     77  F   UNL A   1      41.586  33.665  31.300  1.00  0.00    -0.203 F 
ATOM     78  F   UNL A   1      38.237  30.330  34.043  1.00  0.00    -0.200 F 
ATOM     79  C   UNL A   1      39.023  32.510  33.597  1.00  0.00     0.200 A 
ATOM     80  F   UNL A   1      39.807  34.673  33.084  1.00  0.00    -0.200 F 
ATOM     81  F   UNL A   1      38.290  32.990  34.612  1.00  0.00    -0.200 F 
ENDBRANCH  47  71
BRANCH  59  82
ATOM     82  C   UNL A   1      44.869  25.521  33.058  1.00  0.00     0.064 A 
ATOM     83  C   UNL A   1      46.251  25.274  33.057  1.00  0.00     0.173 A 
ATOM     84  C   UNL A   1      44.157  24.968  34.152  1.00  0.00     0.173 A 
ATOM     85  F   UNL A   1      47.073  25.883  32.192  1.00  0.00    -0.203 F 
ATOM     86  C   UNL A   1      46.852  24.432  33.990  1.00  0.00     0.198 A 
ATOM     87  C   UNL A   1      44.778  24.202  35.133  1.00  0.00     0.198 A 
ATOM     88  F   UNL A   1      42.845  25.179  34.328  1.00  0.00    -0.203 F 
ATOM     89  F   UNL A   1      48.160  24.159  33.885  1.00  0.00    -0.200 F 
ATOM     90  C   UNL A   1      46.118  23.901  35.032  1.00  0.00     0.200 A 
ATOM     91  F   UNL A   1      44.068  23.770  36.185  1.00  0.00    -0.200 F 
ATOM     92  F   UNL A   1      46.708  23.128  35.951  1.00  0.00    -0.200 F 
ENDBRANCH  59  82
ENDBRANCH  33  34
ENDBRANCH  25  28
ENDBRANCH  23  24
ENDBRANCH   1  23
TORSDOF 11
ENDMDL
MODEL 2
REMARK VINA RESULT:     -13.7      1.069      1.690
REMARK SMILES Cc1ccc(-n2nc(C(=O)NCCCNC(=O)c3ccc(-c4c5nc(c(-c6c(F)c(F)c(F)c(F)c6F)c6ccc([nH]6)c(-c6c(F)c(F)c(F)c(F)c6F)c6nc(c(-c7c(F)c(F)c(F)c(F)c7F)c7ccc4[nH]7)C=C6)C=C5)cc3)c3c2CCC3)c(F)c1
REMARK SMILES IDX 13 1 12 2 11 3 9 4 10 5 8 7 6 8 7 9 82 10 81 11 83 12 85 13
REMARK SMILES IDX 84 14 5 15 1 16 2 17 3 18 88 19 4 20 86 21 87 22 14 23 15 24
REMARK SMILES IDX 16 25 17 27 18 28 19 29 80 30 20 31 79 32 21 33 22 34 23 35
REMARK SMILES IDX 73 36 24 37 78 38 72 39 74 40 25 41 77 42 71 43 70 44 26 46
REMARK SMILES IDX 58 47 38 48 57 49 39 50 42 51 56 52 75 53 40 54 41 55 55 57
REMARK SMILES IDX 76 58 43 59 27 60 28 61 36 62 29 63 30 64 34 65 37 66 31 67
REMARK SMILES IDX 32 68 35 69 33 70 59 71 60 72 68 73 61 74 62 75 66 76 69 77
REMARK SMILES IDX 63 78 64 79 67 80 65 81 44 82 45 83 53 84 46 85 47 86 51 87
REMARK SMILES IDX 54 88 48 89 49 90 52 91 50 92
REMARK H PARENT 11 6 15 26 74 45 42 56
REMARK Flexibility Score: inf
ROOT
ATOM      1  C   UNL A   1      32.453  28.172  27.317  1.00  0.00     0.042 C 
ENDROOT
BRANCH   1   2
ATOM      2  C   UNL A   1      32.200  27.077  26.281  1.00  0.00     0.118 C 
BRANCH   2   3
ATOM      3  N   UNL A   1      31.488  25.956  26.866  1.00  0.00    -0.351 N 
ATOM      4  C   UNL A   1      31.688  24.611  26.666  1.00  0.00     0.272 C 
ATOM      5  O   UNL A   1      30.936  23.826  27.247  1.00  0.00    -0.267 OA
ATOM      6  H   UNL A   1      30.764  26.190  27.490  1.00  0.00     0.163 HD
BRANCH   4   7
ATOM      7  C   UNL A   1      32.775  24.149  25.792  1.00  0.00     0.154 A 
ATOM      8  N   UNL A   1      34.619  23.204  25.144  1.00  0.00    -0.234 N 
ATOM      9  N   UNL A   1      33.923  23.592  26.236  1.00  0.00    -0.162 NA
ATOM     10  C   UNL A   1      33.974  23.604  24.018  1.00  0.00     0.048 A 
ATOM     11  C   UNL A   1      32.792  24.171  24.396  1.00  0.00     0.007 A 
ATOM     12  C   UNL A   1      34.098  23.371  22.574  1.00  0.00     0.057 C 
ATOM     13  C   UNL A   1      31.928  24.489  23.251  1.00  0.00     0.040 C 
ATOM     14  C   UNL A   1      32.910  24.256  22.051  1.00  0.00     0.011 C 
BRANCH   8  15
ATOM     15  C   UNL A   1      35.849  22.545  25.279  1.00  0.00     0.101 A 
ATOM     16  C   UNL A   1      39.622  20.542  25.760  1.00  0.00     0.044 C 
ATOM     17  C   UNL A   1      38.315  21.247  25.549  1.00  0.00    -0.048 A 
ATOM     18  C   UNL A   1      37.200  20.560  25.049  1.00  0.00     0.006 A 
ATOM     19  C   UNL A   1      38.186  22.598  25.898  1.00  0.00     0.045 A 
ATOM     20  C   UNL A   1      35.962  21.197  24.931  1.00  0.00     0.032 A 
ATOM     21  C   UNL A   1      36.965  23.248  25.737  1.00  0.00     0.149 A 
ATOM     22  F   UNL A   1      36.877  24.530  26.124  1.00  0.00    -0.205 F 
ENDBRANCH   8  15
ENDBRANCH   4   7
ENDBRANCH   2   3
ENDBRANCH   1   2
BRANCH   1  23
ATOM     23  C   UNL A   1      33.876  28.656  27.176  1.00  0.00     0.118 C 
BRANCH  23  24
ATOM     24  N   UNL A   1      33.946  30.099  27.432  1.00  0.00    -0.352 N 
ATOM     25  C   UNL A   1      34.840  30.794  28.204  1.00  0.00     0.251 C 
ATOM     26  H   UNL A   1      33.256  30.643  26.987  1.00  0.00     0.163 HD
ATOM     27  O   UNL A   1      34.605  31.921  28.596  1.00  0.00    -0.269 OA
BRANCH  25  28
ATOM     28  C   UNL A   1      36.119  30.143  28.490  1.00  0.00     0.039 A 
ATOM     29  C   UNL A   1      36.371  29.547  29.729  1.00  0.00     0.014 A 
ATOM     30  C   UNL A   1      37.084  30.196  27.488  1.00  0.00     0.014 A 
ATOM     31  C   UNL A   1      37.628  29.012  29.961  1.00  0.00     0.010 A 
ATOM     32  C   UNL A   1      38.229  29.494  27.635  1.00  0.00     0.010 A 
ATOM     33  C   UNL A   1      38.538  29.012  28.904  1.00  0.00    -0.014 A 
BRANCH  33  34
ATOM     34  C   UNL A   1      39.908  28.572  28.985  1.00  0.00     0.031 A 
ATOM     35  C   UNL A   1      40.195  27.179  28.656  1.00  0.00     0.074 A 
ATOM     36  C   UNL A   1      40.798  29.577  29.142  1.00  0.00     0.049 A 
ATOM     37  N   UNL A   1      41.223  26.536  29.067  1.00  0.00    -0.248 NA
ATOM     38  C   UNL A   1      39.291  26.362  27.848  1.00  0.00     0.031 C 
ATOM     39  C   UNL A   1      42.233  29.624  28.944  1.00  0.00     0.029 A 
ATOM     40  N   UNL A   1      40.492  30.858  29.647  1.00  0.00    -0.354 N 
ATOM     41  C   UNL A   1      41.311  25.393  28.303  1.00  0.00     0.074 A 
ATOM     42  C   UNL A   1      40.014  25.247  27.692  1.00  0.00     0.031 C 
ATOM     43  C   UNL A   1      42.722  30.679  29.629  1.00  0.00     0.029 A 
ATOM     44  C   UNL A   1      41.616  31.266  30.375  1.00  0.00     0.049 A 
ATOM     45  H   UNL A   1      39.657  31.362  29.514  1.00  0.00     0.167 HD
ATOM     46  C   UNL A   1      42.549  24.844  28.128  1.00  0.00     0.037 A 
ATOM     47  C   UNL A   1      41.499  31.302  31.737  1.00  0.00     0.037 A 
ATOM     48  C   UNL A   1      43.531  25.654  28.856  1.00  0.00     0.049 A 
ATOM     49  C   UNL A   1      42.330  30.210  32.352  1.00  0.00     0.074 A 
ATOM     50  C   UNL A   1      44.341  26.699  28.437  1.00  0.00     0.029 A 
ATOM     51  N   UNL A   1      43.448  25.752  30.243  1.00  0.00    -0.354 N 
ATOM     52  N   UNL A   1      42.550  29.046  31.798  1.00  0.00    -0.248 NA
ATOM     53  C   UNL A   1      43.105  30.429  33.565  1.00  0.00     0.031 C 
ATOM     54  C   UNL A   1      44.670  27.478  29.578  1.00  0.00     0.029 A 
ATOM     55  C   UNL A   1      44.067  26.906  30.688  1.00  0.00     0.049 A 
ATOM     56  H   UNL A   1      43.009  25.090  30.825  1.00  0.00     0.167 HD
ATOM     57  C   UNL A   1      43.546  28.410  32.492  1.00  0.00     0.074 A 
ATOM     58  C   UNL A   1      43.845  29.311  33.595  1.00  0.00     0.031 C 
ATOM     59  C   UNL A   1      44.119  27.230  32.106  1.00  0.00     0.037 A 
BRANCH  46  60
ATOM     60  C   UNL A   1      42.934  23.829  27.070  1.00  0.00     0.064 A 
ATOM     61  C   UNL A   1      42.664  22.456  27.274  1.00  0.00     0.173 A 
ATOM     62  C   UNL A   1      43.584  24.118  25.855  1.00  0.00     0.173 A 
ATOM     63  F   UNL A   1      41.977  22.028  28.342  1.00  0.00    -0.203 F 
ATOM     64  C   UNL A   1      43.081  21.459  26.386  1.00  0.00     0.198 A 
ATOM     65  C   UNL A   1      44.030  23.118  24.979  1.00  0.00     0.198 A 
ATOM     66  F   UNL A   1      43.763  25.374  25.434  1.00  0.00    -0.203 F 
ATOM     67  F   UNL A   1      42.797  20.176  26.648  1.00  0.00    -0.200 F 
ATOM     68  C   UNL A   1      43.785  21.789  25.249  1.00  0.00     0.200 A 
ATOM     69  F   UNL A   1      44.693  23.459  23.865  1.00  0.00    -0.200 F 
ATOM     70  F   UNL A   1      44.199  20.834  24.404  1.00  0.00    -0.200 F 
ENDBRANCH  46  60
BRANCH  47  71
ATOM     71  C   UNL A   1      40.146  31.789  32.163  1.00  0.00     0.064 A 
ATOM     72  C   UNL A   1      39.332  30.840  32.821  1.00  0.00     0.173 A 
ATOM     73  C   UNL A   1      39.870  33.141  32.410  1.00  0.00     0.173 A 
ATOM     74  F   UNL A   1      39.518  29.529  32.588  1.00  0.00    -0.203 F 
ATOM     75  C   UNL A   1      38.453  31.212  33.835  1.00  0.00     0.198 A 
ATOM     76  C   UNL A   1      38.947  33.513  33.397  1.00  0.00     0.198 A 
ATOM     77  F   UNL A   1      40.575  34.103  31.797  1.00  0.00    -0.203 F 
ATOM     78  F   UNL A   1      37.839  30.269  34.566  1.00  0.00    -0.200 F 
ATOM     79  C   UNL A   1      38.294  32.548  34.154  1.00  0.00     0.200 A 
ATOM     80  F   UNL A   1      38.748  34.810  33.674  1.00  0.00    -0.200 F 
ATOM     81  F   UNL A   1      37.544  32.896  35.208  1.00  0.00    -0.200 F 
ENDBRANCH  47  71
BRANCH  59  82
ATOM     82  C   UNL A   1      44.929  26.341  33.017  1.00  0.00     0.064 A 
ATOM     83  C   UNL A   1      44.361  25.559  34.035  1.00  0.00     0.173 A 
ATOM     84  C   UNL A   1      46.313  26.132  32.795  1.00  0.00     0.173 A 
ATOM     85  F   UNL A   1      43.036  25.515  34.232  1.00  0.00    -0.203 F 
ATOM     86  C   UNL A   1      45.133  24.740  34.856  1.00  0.00     0.198 A 
ATOM     87  C   UNL A   1      47.064  25.244  33.559  1.00  0.00     0.198 A 
ATOM     88  F   UNL A   1      46.979  26.752  31.811  1.00  0.00    -0.203 F 
ATOM     89  F   UNL A   1      44.550  24.088  35.871  1.00  0.00    -0.200 F 
ATOM     90  C   UNL A   1      46.482  24.577  34.615  1.00  0.00     0.200 A 
ATOM     91  F   UNL A   1      48.351  25.031  33.254  1.00  0.00    -0.200 F 
ATOM     92  F   UNL A   1      47.212  23.756  35.379  1.00  0.00    -0.200 F 
ENDBRANCH  59  82
ENDBRANCH  33  34
ENDBRANCH  25  28
ENDBRANCH  23  24
ENDBRANCH   1  23
TORSDOF 11
ENDMDL
MODEL 3
REMARK VINA RESULT:     -13.6      3.419      9.374
REMARK SMILES Cc1ccc(-n2nc(C(=O)NCCCNC(=O)c3ccc(-c4c5nc(c(-c6c(F)c(F)c(F)c(F)c6F)c6ccc([nH]6)c(-c6c(F)c(F)c(F)c(F)c6F)c6nc(c(-c7c(F)c(F)c(F)c(F)c7F)c7ccc4[nH]7)C=C6)C=C5)cc3)c3c2CCC3)c(F)c1
REMARK SMILES IDX 13 1 12 2 11 3 9 4 10 5 8 7 6 8 7 9 82 10 81 11 83 12 85 13
REMARK SMILES IDX 84 14 5 15 1 16 2 17 3 18 88 19 4 20 86 21 87 22 14 23 15 24
REMARK SMILES IDX 16 25 17 27 18 28 19 29 80 30 20 31 79 32 21 33 22 34 23 35
REMARK SMILES IDX 73 36 24 37 78 38 72 39 74 40 25 41 77 42 71 43 70 44 26 46
REMARK SMILES IDX 58 47 38 48 57 49 39 50 42 51 56 52 75 53 40 54 41 55 55 57
REMARK SMILES IDX 76 58 43 59 27 60 28 61 36 62 29 63 30 64 34 65 37 66 31 67
REMARK SMILES IDX 32 68 35 69 33 70 59 71 60 72 68 73 61 74 62 75 66 76 69 77
REMARK SMILES IDX 63 78 64 79 67 80 65 81 44 82 45 83 53 84 46 85 47 86 51 87
REMARK SMILES IDX 54 88 48 89 49 90 52 91 50 92
REMARK H PARENT 11 6 15 26 74 45 42 56
REMARK Flexibility Score: inf
ROOT
ATOM      1  C   UNL A   1      36.769  23.333  24.209  1.00  0.00     0.042 C 
ENDROOT
BRANCH   1   2
ATOM      2  C   UNL A   1      35.297  22.924  24.171  1.00  0.00     0.118 C 
BRANCH   2   3
ATOM      3  N   UNL A   1      34.674  23.320  22.922  1.00  0.00    -0.351 N 
ATOM      4  C   UNL A   1      33.670  24.235  22.712  1.00  0.00     0.272 C 
ATOM      5  O   UNL A   1      33.266  24.390  21.558  1.00  0.00    -0.267 OA
ATOM      6  H   UNL A   1      35.016  22.872  22.115  1.00  0.00     0.163 HD
BRANCH   4   7
ATOM      7  C   UNL A   1      33.120  24.997  23.841  1.00  0.00     0.154 A 
ATOM      8  N   UNL A   1      32.749  26.633  25.219  1.00  0.00    -0.234 N 
ATOM      9  N   UNL A   1      33.564  26.214  24.225  1.00  0.00    -0.162 NA
ATOM     10  C   UNL A   1      31.866  25.653  25.537  1.00  0.00     0.048 A 
ATOM     11  C   UNL A   1      32.053  24.624  24.661  1.00  0.00     0.007 A 
ATOM     12  C   UNL A   1      30.664  25.526  26.371  1.00  0.00     0.057 C 
ATOM     13  C   UNL A   1      31.036  23.573  24.800  1.00  0.00     0.040 C 
ATOM     14  C   UNL A   1      30.318  24.014  26.123  1.00  0.00     0.011 C 
BRANCH   8  15
ATOM     15  C   UNL A   1      32.928  27.895  25.803  1.00  0.00     0.101 A 
ATOM     16  C   UNL A   1      33.414  31.760  27.622  1.00  0.00     0.044 C 
ATOM     17  C   UNL A   1      33.274  30.424  26.956  1.00  0.00    -0.048 A 
ATOM     18  C   UNL A   1      34.184  29.390  27.220  1.00  0.00     0.006 A 
ATOM     19  C   UNL A   1      32.196  30.181  26.095  1.00  0.00     0.045 A 
ATOM     20  C   UNL A   1      34.006  28.121  26.663  1.00  0.00     0.032 A 
ATOM     21  C   UNL A   1      32.042  28.931  25.501  1.00  0.00     0.149 A 
ATOM     22  F   UNL A   1      30.971  28.733  24.718  1.00  0.00    -0.205 F 
ENDBRANCH   8  15
ENDBRANCH   4   7
ENDBRANCH   2   3
ENDBRANCH   1   2
BRANCH   1  23
ATOM     23  C   UNL A   1      37.154  23.635  25.637  1.00  0.00     0.118 C 
BRANCH  23  24
ATOM     24  N   UNL A   1      38.247  22.752  26.062  1.00  0.00    -0.352 N 
ATOM     25  C   UNL A   1      39.498  23.087  26.510  1.00  0.00     0.251 C 
ATOM     26  H   UNL A   1      38.055  21.787  26.020  1.00  0.00     0.163 HD
ATOM     27  O   UNL A   1      40.409  22.281  26.519  1.00  0.00    -0.269 OA
BRANCH  25  28
ATOM     28  C   UNL A   1      39.678  24.441  27.033  1.00  0.00     0.039 A 
ATOM     29  C   UNL A   1      40.272  25.445  26.264  1.00  0.00     0.014 A 
ATOM     30  C   UNL A   1      39.277  24.660  28.348  1.00  0.00     0.014 A 
ATOM     31  C   UNL A   1      40.478  26.687  26.844  1.00  0.00     0.010 A 
ATOM     32  C   UNL A   1      39.284  25.919  28.840  1.00  0.00     0.010 A 
ATOM     33  C   UNL A   1      39.989  26.889  28.134  1.00  0.00    -0.014 A 
BRANCH  33  34
ATOM     34  C   UNL A   1      40.180  28.083  28.919  1.00  0.00     0.031 A 
ATOM     35  C   UNL A   1      39.160  29.124  28.832  1.00  0.00     0.074 A 
ATOM     36  C   UNL A   1      41.183  27.991  29.821  1.00  0.00     0.049 A 
ATOM     37  N   UNL A   1      39.363  30.358  29.102  1.00  0.00    -0.248 NA
ATOM     38  C   UNL A   1      37.799  28.851  28.375  1.00  0.00     0.031 C 
ATOM     39  C   UNL A   1      41.494  28.788  30.990  1.00  0.00     0.029 A 
ATOM     40  N   UNL A   1      42.255  27.077  29.748  1.00  0.00    -0.354 N 
ATOM     41  C   UNL A   1      38.124  30.951  29.220  1.00  0.00     0.074 A 
ATOM     42  C   UNL A   1      37.206  30.030  28.598  1.00  0.00     0.031 C 
ATOM     43  C   UNL A   1      42.792  28.592  31.304  1.00  0.00     0.029 A 
ATOM     44  C   UNL A   1      43.370  27.746  30.267  1.00  0.00     0.049 A 
ATOM     45  H   UNL A   1      42.225  26.156  29.403  1.00  0.00     0.167 HD
ATOM     46  C   UNL A   1      38.023  32.050  30.024  1.00  0.00     0.037 A 
ATOM     47  C   UNL A   1      44.345  28.116  29.384  1.00  0.00     0.037 A 
ATOM     48  C   UNL A   1      39.346  32.348  30.583  1.00  0.00     0.049 A 
ATOM     49  C   UNL A   1      44.357  29.613  29.232  1.00  0.00     0.074 A 
ATOM     50  C   UNL A   1      39.933  31.979  31.784  1.00  0.00     0.029 A 
ATOM     51  N   UNL A   1      40.388  32.705  29.729  1.00  0.00    -0.354 N 
ATOM     52  N   UNL A   1      43.297  30.374  29.312  1.00  0.00    -0.248 NA
ATOM     53  C   UNL A   1      45.602  30.362  29.144  1.00  0.00     0.031 C 
ATOM     54  C   UNL A   1      41.342  32.034  31.614  1.00  0.00     0.029 A 
ATOM     55  C   UNL A   1      41.612  32.438  30.316  1.00  0.00     0.049 A 
ATOM     56  H   UNL A   1      40.268  33.094  28.833  1.00  0.00     0.167 HD
ATOM     57  C   UNL A   1      43.700  31.681  29.392  1.00  0.00     0.074 A 
ATOM     58  C   UNL A   1      45.148  31.618  29.266  1.00  0.00     0.031 C 
ATOM     59  C   UNL A   1      42.856  32.732  29.621  1.00  0.00     0.037 A 
BRANCH  46  60
ATOM     60  C   UNL A   1      36.740  32.636  30.577  1.00  0.00     0.064 A 
ATOM     61  C   UNL A   1      35.980  33.538  29.796  1.00  0.00     0.173 A 
ATOM     62  C   UNL A   1      36.207  32.384  31.855  1.00  0.00     0.173 A 
ATOM     63  F   UNL A   1      36.308  33.816  28.527  1.00  0.00    -0.203 F 
ATOM     64  C   UNL A   1      34.842  34.191  30.281  1.00  0.00     0.198 A 
ATOM     65  C   UNL A   1      35.085  33.061  32.354  1.00  0.00     0.198 A 
ATOM     66  F   UNL A   1      36.709  31.436  32.653  1.00  0.00    -0.203 F 
ATOM     67  F   UNL A   1      34.175  35.041  29.488  1.00  0.00    -0.200 F 
ATOM     68  C   UNL A   1      34.408  33.970  31.570  1.00  0.00     0.200 A 
ATOM     69  F   UNL A   1      34.662  32.815  33.603  1.00  0.00    -0.200 F 
ATOM     70  F   UNL A   1      33.327  34.606  32.042  1.00  0.00    -0.200 F 
ENDBRANCH  46  60
BRANCH  47  71
ATOM     71  C   UNL A   1      44.554  27.075  28.324  1.00  0.00     0.064 A 
ATOM     72  C   UNL A   1      44.214  27.462  27.009  1.00  0.00     0.173 A 
ATOM     73  C   UNL A   1      45.483  26.033  28.459  1.00  0.00     0.173 A 
ATOM     74  F   UNL A   1      43.296  28.424  26.814  1.00  0.00    -0.203 F 
ATOM     75  C   UNL A   1      44.926  26.996  25.905  1.00  0.00     0.198 A 
ATOM     76  C   UNL A   1      46.161  25.530  27.340  1.00  0.00     0.198 A 
ATOM     77  F   UNL A   1      45.831  25.584  29.674  1.00  0.00    -0.203 F 
ATOM     78  F   UNL A   1      44.702  27.527  24.694  1.00  0.00    -0.200 F 
ATOM     79  C   UNL A   1      45.931  26.062  26.077  1.00  0.00     0.200 A 
ATOM     80  F   UNL A   1      47.099  24.585  27.494  1.00  0.00    -0.200 F 
ATOM     81  F   UNL A   1      46.695  25.707  25.036  1.00  0.00    -0.200 F 
ENDBRANCH  47  71
BRANCH  59  82
ATOM     82  C   UNL A   1      43.203  34.176  29.349  1.00  0.00     0.064 A 
ATOM     83  C   UNL A   1      43.410  35.123  30.365  1.00  0.00     0.173 A 
ATOM     84  C   UNL A   1      43.485  34.626  28.035  1.00  0.00     0.173 A 
ATOM     85  F   UNL A   1      43.362  34.787  31.660  1.00  0.00    -0.203 F 
ATOM     86  C   UNL A   1      43.738  36.448  30.083  1.00  0.00     0.198 A 
ATOM     87  C   UNL A   1      43.900  35.927  27.767  1.00  0.00     0.198 A 
ATOM     88  F   UNL A   1      43.404  33.815  26.971  1.00  0.00    -0.203 F 
ATOM     89  F   UNL A   1      43.832  37.330  31.088  1.00  0.00    -0.200 F 
ATOM     90  C   UNL A   1      43.990  36.848  28.787  1.00  0.00     0.200 A 
ATOM     91  F   UNL A   1      44.227  36.273  26.515  1.00  0.00    -0.200 F 
ATOM     92  F   UNL A   1      44.346  38.111  28.526  1.00  0.00    -0.200 F 
ENDBRANCH  59  82
ENDBRANCH  33  34
ENDBRANCH  25  28
ENDBRANCH  23  24
ENDBRANCH   1  23
TORSDOF 11
ENDMDL
