MODEL 1
REMARK VINA RESULT:     -12.0      0.000      0.000
REMARK SMILES Cc1cc(C(=O)NC2(CC(=O)NCCCNC(=O)c3ccc(-c4c5nc(c(-c6c(F)c(F)c(F)c(F)c6F)c6ccc([nH]6)c(-c6c(F)c(F)c(F)c(F)c6F)c6nc(c(-c7c(F)c(F)c(F)c(F)c7F)c7ccc4[nH]7)C=C6)C=C5)cc3)CCC2)sc1C
REMARK SMILES IDX 13 1 12 2 10 3 11 4 9 6 8 7 82 8 84 9 83 10 7 11 5 12 6 13
REMARK SMILES IDX 4 15 1 16 2 17 3 18 86 19 85 20 87 21 14 22 15 23 16 24
REMARK SMILES IDX 17 25 18 27 19 28 20 29 81 30 21 31 80 32 22 33 23 34 24 35
REMARK SMILES IDX 74 36 25 37 79 38 73 39 75 40 26 41 78 42 72 43 71 44 27 46
REMARK SMILES IDX 59 47 39 48 58 49 40 50 43 51 57 52 76 53 41 54 42 55 56 57
REMARK SMILES IDX 77 58 44 59 28 60 29 61 37 62 30 63 31 64 35 65 38 66 32 67
REMARK SMILES IDX 33 68 36 69 34 70 60 71 61 72 69 73 62 74 63 75 67 76 70 77
REMARK SMILES IDX 64 78 65 79 68 80 66 81 45 82 46 83 54 84 47 85 48 86 52 87
REMARK SMILES IDX 55 88 49 89 50 90 53 91 51 92
REMARK H PARENT 12 5 7 14 16 26 75 45 43 56
REMARK Flexibility Score: inf
ROOT
ATOM      1  C   UNL A   1      36.617  20.555  24.691  1.00  0.00     0.117 C 
ENDROOT
BRANCH   1   2
ATOM      2  N   UNL A   1      35.743  20.690  25.840  1.00  0.00    -0.356 N 
ATOM      3  C   UNL A   1      34.682  21.514  26.033  1.00  0.00     0.222 C 
ATOM      4  O   UNL A   1      34.265  21.663  27.184  1.00  0.00    -0.275 OA
ATOM      5  H   UNL A   1      35.951  20.093  26.595  1.00  0.00     0.163 HD
BRANCH   3   6
ATOM      6  C   UNL A   1      34.023  22.247  24.886  1.00  0.00     0.128 C 
BRANCH   6   7
ATOM      7  C   UNL A   1      32.524  21.940  24.649  1.00  0.00     0.049 C 
ATOM      8  C   UNL A   1      32.361  20.494  24.115  1.00  0.00     0.029 C 
ATOM      9  C   UNL A   1      32.017  22.468  23.287  1.00  0.00     0.029 C 
ATOM     10  C   UNL A   1      32.194  21.061  22.694  1.00  0.00     0.005 C 
BRANCH   7  11
ATOM     11  N   UNL A   1      31.728  22.317  25.844  1.00  0.00    -0.345 N 
ATOM     12  C   UNL A   1      31.278  23.466  26.470  1.00  0.00     0.261 C 
ATOM     13  O   UNL A   1      30.511  23.243  27.415  1.00  0.00    -0.268 OA
ATOM     14  H   UNL A   1      31.435  21.516  26.336  1.00  0.00     0.164 HD
BRANCH  12  15
ATOM     15  C   UNL A   1      31.575  24.835  26.080  1.00  0.00     0.092 A 
ATOM     16  C   UNL A   1      33.969  27.760  26.076  1.00  0.00     0.045 C 
ATOM     17  C   UNL A   1      32.802  26.851  25.885  1.00  0.00    -0.037 A 
ATOM     18  C   UNL A   1      32.762  25.498  26.362  1.00  0.00     0.029 A 
ATOM     19  C   UNL A   1      31.613  27.171  25.256  1.00  0.00     0.005 A 
ATOM     20  S   UNL A   1      30.645  25.788  25.027  1.00  0.00    -0.135 S 
ATOM     21  C   UNL A   1      31.143  28.488  24.734  1.00  0.00     0.056 C 
ENDBRANCH  12  15
ENDBRANCH   7  11
ENDBRANCH   6   7
ENDBRANCH   3   6
ENDBRANCH   1   2
BRANCH   1  22
ATOM     22  C   UNL A   1      37.744  19.563  24.981  1.00  0.00     0.042 C 
BRANCH  22  23
ATOM     23  C   UNL A   1      38.905  20.166  25.764  1.00  0.00     0.118 C 
BRANCH  23  24
ATOM     24  N   UNL A   1      40.017  19.240  25.890  1.00  0.00    -0.352 N 
ATOM     25  C   UNL A   1      41.358  19.469  26.076  1.00  0.00     0.251 C 
ATOM     26  H   UNL A   1      39.768  18.289  25.834  1.00  0.00     0.163 HD
ATOM     27  O   UNL A   1      42.150  18.546  25.909  1.00  0.00    -0.269 OA
BRANCH  25  28
ATOM     28  C   UNL A   1      41.869  20.805  26.467  1.00  0.00     0.039 A 
ATOM     29  C   UNL A   1      41.946  21.117  27.830  1.00  0.00     0.014 A 
ATOM     30  C   UNL A   1      42.193  21.777  25.520  1.00  0.00     0.014 A 
ATOM     31  C   UNL A   1      42.384  22.381  28.236  1.00  0.00     0.010 A 
ATOM     32  C   UNL A   1      42.713  23.006  25.925  1.00  0.00     0.010 A 
ATOM     33  C   UNL A   1      42.793  23.329  27.287  1.00  0.00    -0.014 A 
BRANCH  33  34
ATOM     34  C   UNL A   1      43.264  24.679  27.694  1.00  0.00     0.031 A 
ATOM     35  C   UNL A   1      42.267  25.744  28.066  1.00  0.00     0.074 A 
ATOM     36  C   UNL A   1      44.579  24.964  27.680  1.00  0.00     0.049 A 
ATOM     37  N   UNL A   1      42.471  27.002  28.370  1.00  0.00    -0.248 NA
ATOM     38  C   UNL A   1      40.850  25.349  28.067  1.00  0.00     0.031 C 
ATOM     39  C   UNL A   1      45.644  24.031  27.310  1.00  0.00     0.029 A 
ATOM     40  N   UNL A   1      45.245  26.126  27.983  1.00  0.00    -0.354 N 
ATOM     41  C   UNL A   1      41.211  27.549  28.576  1.00  0.00     0.074 A 
ATOM     42  C   UNL A   1      40.247  26.503  28.312  1.00  0.00     0.031 C 
ATOM     43  C   UNL A   1      46.831  24.647  27.435  1.00  0.00     0.029 A 
ATOM     44  C   UNL A   1      46.609  26.026  27.858  1.00  0.00     0.049 A 
ATOM     45  H   UNL A   1      44.789  26.951  28.263  1.00  0.00     0.167 HD
ATOM     46  C   UNL A   1      40.885  28.802  28.974  1.00  0.00     0.037 A 
ATOM     47  C   UNL A   1      47.571  26.947  28.059  1.00  0.00     0.037 A 
ATOM     48  C   UNL A   1      41.845  29.833  29.272  1.00  0.00     0.049 A 
ATOM     49  C   UNL A   1      47.185  28.334  28.495  1.00  0.00     0.074 A 
ATOM     50  C   UNL A   1      41.619  31.117  29.733  1.00  0.00     0.029 A 
ATOM     51  N   UNL A   1      43.218  29.690  29.139  1.00  0.00    -0.354 N 
ATOM     52  N   UNL A   1      45.994  28.825  28.733  1.00  0.00    -0.248 NA
ATOM     53  C   UNL A   1      48.281  29.293  28.691  1.00  0.00     0.031 C 
ATOM     54  C   UNL A   1      42.855  31.764  29.849  1.00  0.00     0.029 A 
ATOM     55  C   UNL A   1      43.852  30.869  29.497  1.00  0.00     0.049 A 
ATOM     56  H   UNL A   1      43.675  28.872  28.836  1.00  0.00     0.167 HD
ATOM     57  C   UNL A   1      46.196  30.138  29.133  1.00  0.00     0.074 A 
ATOM     58  C   UNL A   1      47.626  30.365  29.115  1.00  0.00     0.031 C 
ATOM     59  C   UNL A   1      45.279  31.073  29.484  1.00  0.00     0.037 A 
BRANCH  46  60
ATOM     60  C   UNL A   1      39.426  29.124  29.113  1.00  0.00     0.064 A 
ATOM     61  C   UNL A   1      38.647  29.498  28.006  1.00  0.00     0.173 A 
ATOM     62  C   UNL A   1      38.792  29.047  30.363  1.00  0.00     0.173 A 
ATOM     63  F   UNL A   1      39.207  29.599  26.791  1.00  0.00    -0.203 F 
ATOM     64  C   UNL A   1      37.300  29.816  28.151  1.00  0.00     0.198 A 
ATOM     65  C   UNL A   1      37.437  29.338  30.499  1.00  0.00     0.198 A 
ATOM     66  F   UNL A   1      39.487  28.689  31.452  1.00  0.00    -0.203 F 
ATOM     67  F   UNL A   1      36.592  30.225  27.089  1.00  0.00    -0.200 F 
ATOM     68  C   UNL A   1      36.695  29.732  29.395  1.00  0.00     0.200 A 
ATOM     69  F   UNL A   1      36.851  29.245  31.700  1.00  0.00    -0.200 F 
ATOM     70  F   UNL A   1      35.398  30.039  29.534  1.00  0.00    -0.200 F 
ENDBRANCH  46  60
BRANCH  47  71
ATOM     71  C   UNL A   1      48.998  26.573  27.893  1.00  0.00     0.064 A 
ATOM     72  C   UNL A   1      49.566  26.478  26.616  1.00  0.00     0.173 A 
ATOM     73  C   UNL A   1      49.822  26.310  28.996  1.00  0.00     0.173 A 
ATOM     74  F   UNL A   1      48.810  26.699  25.529  1.00  0.00    -0.203 F 
ATOM     75  C   UNL A   1      50.902  26.121  26.446  1.00  0.00     0.198 A 
ATOM     76  C   UNL A   1      51.165  25.978  28.827  1.00  0.00     0.198 A 
ATOM     77  F   UNL A   1      49.326  26.390  30.239  1.00  0.00    -0.203 F 
ATOM     78  F   UNL A   1      51.410  26.004  25.212  1.00  0.00    -0.200 F 
ATOM     79  C   UNL A   1      51.702  25.878  27.552  1.00  0.00     0.200 A 
ATOM     80  F   UNL A   1      51.938  25.754  29.899  1.00  0.00    -0.200 F 
ATOM     81  F   UNL A   1      52.988  25.541  27.389  1.00  0.00    -0.200 F 
ENDBRANCH  47  71
BRANCH  59  82
ATOM     82  C   UNL A   1      45.796  32.413  29.913  1.00  0.00     0.064 A 
ATOM     83  C   UNL A   1      46.120  32.681  31.251  1.00  0.00     0.173 A 
ATOM     84  C   UNL A   1      46.004  33.429  28.968  1.00  0.00     0.173 A 
ATOM     85  F   UNL A   1      45.922  31.748  32.194  1.00  0.00    -0.203 F 
ATOM     86  C   UNL A   1      46.614  33.926  31.630  1.00  0.00     0.198 A 
ATOM     87  C   UNL A   1      46.523  34.664  29.346  1.00  0.00     0.198 A 
ATOM     88  F   UNL A   1      45.716  33.219  27.675  1.00  0.00    -0.203 F 
ATOM     89  F   UNL A   1      46.876  34.177  32.921  1.00  0.00    -0.200 F 
ATOM     90  C   UNL A   1      46.820  34.913  30.678  1.00  0.00     0.200 A 
ATOM     91  F   UNL A   1      46.732  35.613  28.424  1.00  0.00    -0.200 F 
ATOM     92  F   UNL A   1      47.300  36.110  31.045  1.00  0.00    -0.200 F 
ENDBRANCH  59  82
ENDBRANCH  33  34
ENDBRANCH  25  28
ENDBRANCH  23  24
ENDBRANCH  22  23
ENDBRANCH   1  22
TORSDOF 13
ENDMDL
MODEL 2
REMARK VINA RESULT:     -12.0      5.485     10.531
REMARK SMILES Cc1cc(C(=O)NC2(CC(=O)NCCCNC(=O)c3ccc(-c4c5nc(c(-c6c(F)c(F)c(F)c(F)c6F)c6ccc([nH]6)c(-c6c(F)c(F)c(F)c(F)c6F)c6nc(c(-c7c(F)c(F)c(F)c(F)c7F)c7ccc4[nH]7)C=C6)C=C5)cc3)CCC2)sc1C
REMARK SMILES IDX 13 1 12 2 10 3 11 4 9 6 8 7 82 8 84 9 83 10 7 11 5 12 6 13
REMARK SMILES IDX 4 15 1 16 2 17 3 18 86 19 85 20 87 21 14 22 15 23 16 24
REMARK SMILES IDX 17 25 18 27 19 28 20 29 81 30 21 31 80 32 22 33 23 34 24 35
REMARK SMILES IDX 74 36 25 37 79 38 73 39 75 40 26 41 78 42 72 43 71 44 27 46
REMARK SMILES IDX 59 47 39 48 58 49 40 50 43 51 57 52 76 53 41 54 42 55 56 57
REMARK SMILES IDX 77 58 44 59 28 60 29 61 37 62 30 63 31 64 35 65 38 66 32 67
REMARK SMILES IDX 33 68 36 69 34 70 60 71 61 72 69 73 62 74 63 75 67 76 70 77
REMARK SMILES IDX 64 78 65 79 68 80 66 81 45 82 46 83 54 84 47 85 48 86 52 87
REMARK SMILES IDX 55 88 49 89 50 90 53 91 51 92
REMARK H PARENT 12 5 7 14 16 26 75 45 43 56
REMARK Flexibility Score: inf
ROOT
ATOM      1  C   UNL A   1      31.415  30.292  26.179  1.00  0.00     0.117 C 
ENDROOT
BRANCH   1   2
ATOM      2  N   UNL A   1      32.138  30.097  24.937  1.00  0.00    -0.356 N 
ATOM      3  C   UNL A   1      32.402  28.954  24.255  1.00  0.00     0.222 C 
ATOM      4  O   UNL A   1      33.272  28.987  23.381  1.00  0.00    -0.275 OA
ATOM      5  H   UNL A   1      32.491  30.919  24.526  1.00  0.00     0.163 HD
BRANCH   3   6
ATOM      6  C   UNL A   1      31.671  27.663  24.551  1.00  0.00     0.128 C 
BRANCH   6   7
ATOM      7  C   UNL A   1      30.897  27.029  23.369  1.00  0.00     0.049 C 
ATOM      8  C   UNL A   1      29.652  27.890  23.034  1.00  0.00     0.029 C 
ATOM      9  C   UNL A   1      29.952  25.892  23.820  1.00  0.00     0.029 C 
ATOM     10  C   UNL A   1      28.776  26.882  23.799  1.00  0.00     0.005 C 
BRANCH   7  11
ATOM     11  N   UNL A   1      31.827  26.716  22.255  1.00  0.00    -0.345 N 
ATOM     12  C   UNL A   1      32.832  25.811  21.967  1.00  0.00     0.261 C 
ATOM     13  O   UNL A   1      33.241  25.884  20.801  1.00  0.00    -0.268 OA
ATOM     14  H   UNL A   1      31.688  27.334  21.501  1.00  0.00     0.164 HD
BRANCH  12  15
ATOM     15  C   UNL A   1      33.367  24.800  22.864  1.00  0.00     0.092 A 
ATOM     16  C   UNL A   1      35.709  23.875  25.684  1.00  0.00     0.045 C 
ATOM     17  C   UNL A   1      34.698  23.867  24.586  1.00  0.00    -0.037 A 
ATOM     18  C   UNL A   1      34.321  25.037  23.844  1.00  0.00     0.029 A 
ATOM     19  C   UNL A   1      34.008  22.763  24.121  1.00  0.00     0.005 A 
ATOM     20  S   UNL A   1      32.773  23.219  23.040  1.00  0.00    -0.135 S 
ATOM     21  C   UNL A   1      34.170  21.324  24.482  1.00  0.00     0.056 C 
ENDBRANCH  12  15
ENDBRANCH   7  11
ENDBRANCH   6   7
ENDBRANCH   3   6
ENDBRANCH   1   2
BRANCH   1  22
ATOM     22  C   UNL A   1      31.314  31.779  26.519  1.00  0.00     0.042 C 
BRANCH  22  23
ATOM     23  C   UNL A   1      32.646  32.413  26.901  1.00  0.00     0.118 C 
BRANCH  23  24
ATOM     24  N   UNL A   1      32.487  33.782  27.361  1.00  0.00    -0.352 N 
ATOM     25  C   UNL A   1      33.063  34.446  28.417  1.00  0.00     0.251 C 
ATOM     26  H   UNL A   1      31.864  34.325  26.827  1.00  0.00     0.163 HD
ATOM     27  O   UNL A   1      32.598  35.526  28.766  1.00  0.00    -0.269 OA
BRANCH  25  28
ATOM     28  C   UNL A   1      34.225  33.883  29.144  1.00  0.00     0.039 A 
ATOM     29  C   UNL A   1      35.502  34.371  28.841  1.00  0.00     0.014 A 
ATOM     30  C   UNL A   1      34.089  32.833  30.054  1.00  0.00     0.014 A 
ATOM     31  C   UNL A   1      36.627  33.837  29.477  1.00  0.00     0.010 A 
ATOM     32  C   UNL A   1      35.200  32.361  30.752  1.00  0.00     0.010 A 
ATOM     33  C   UNL A   1      36.483  32.842  30.455  1.00  0.00    -0.014 A 
BRANCH  33  34
ATOM     34  C   UNL A   1      37.663  32.259  31.146  1.00  0.00     0.031 A 
ATOM     35  C   UNL A   1      38.483  31.194  30.469  1.00  0.00     0.074 A 
ATOM     36  C   UNL A   1      37.969  32.649  32.398  1.00  0.00     0.049 A 
ATOM     37  N   UNL A   1      39.497  30.506  30.932  1.00  0.00    -0.248 NA
ATOM     38  C   UNL A   1      38.091  30.833  29.097  1.00  0.00     0.031 C 
ATOM     39  C   UNL A   1      37.237  33.648  33.177  1.00  0.00     0.029 A 
ATOM     40  N   UNL A   1      38.976  32.244  33.239  1.00  0.00    -0.354 N 
ATOM     41  C   UNL A   1      39.846  29.621  29.920  1.00  0.00     0.074 A 
ATOM     42  C   UNL A   1      38.906  29.821  28.839  1.00  0.00     0.031 C 
ATOM     43  C   UNL A   1      37.835  33.801  34.369  1.00  0.00     0.029 A 
ATOM     44  C   UNL A   1      38.968  32.885  34.453  1.00  0.00     0.049 A 
ATOM     45  H   UNL A   1      39.639  31.560  32.995  1.00  0.00     0.167 HD
ATOM     46  C   UNL A   1      40.873  28.738  29.883  1.00  0.00     0.037 A 
ATOM     47  C   UNL A   1      39.784  32.746  35.516  1.00  0.00     0.037 A 
ATOM     48  C   UNL A   1      41.830  28.563  30.944  1.00  0.00     0.049 A 
ATOM     49  C   UNL A   1      40.913  31.755  35.454  1.00  0.00     0.074 A 
ATOM     50  C   UNL A   1      42.937  27.735  30.981  1.00  0.00     0.029 A 
ATOM     51  N   UNL A   1      41.793  29.238  32.155  1.00  0.00    -0.354 N 
ATOM     52  N   UNL A   1      41.263  30.958  34.474  1.00  0.00    -0.248 NA
ATOM     53  C   UNL A   1      41.763  31.646  36.649  1.00  0.00     0.031 C 
ATOM     54  C   UNL A   1      43.552  27.883  32.230  1.00  0.00     0.029 A 
ATOM     55  C   UNL A   1      42.849  28.832  32.954  1.00  0.00     0.049 A 
ATOM     56  H   UNL A   1      41.115  29.905  32.410  1.00  0.00     0.167 HD
ATOM     57  C   UNL A   1      42.386  30.275  34.919  1.00  0.00     0.074 A 
ATOM     58  C   UNL A   1      42.666  30.758  36.255  1.00  0.00     0.031 C 
ATOM     59  C   UNL A   1      43.119  29.333  34.278  1.00  0.00     0.037 A 
BRANCH  46  60
ATOM     60  C   UNL A   1      41.013  27.895  28.649  1.00  0.00     0.064 A 
ATOM     61  C   UNL A   1      40.278  26.711  28.481  1.00  0.00     0.173 A 
ATOM     62  C   UNL A   1      41.881  28.279  27.615  1.00  0.00     0.173 A 
ATOM     63  F   UNL A   1      39.443  26.293  29.445  1.00  0.00    -0.203 F 
ATOM     64  C   UNL A   1      40.433  25.925  27.343  1.00  0.00     0.198 A 
ATOM     65  C   UNL A   1      42.012  27.505  26.465  1.00  0.00     0.198 A 
ATOM     66  F   UNL A   1      42.602  29.404  27.721  1.00  0.00    -0.203 F 
ATOM     67  F   UNL A   1      39.762  24.770  27.231  1.00  0.00    -0.200 F 
ATOM     68  C   UNL A   1      41.295  26.325  26.333  1.00  0.00     0.200 A 
ATOM     69  F   UNL A   1      42.837  27.899  25.485  1.00  0.00    -0.200 F 
ATOM     70  F   UNL A   1      41.445  25.567  25.238  1.00  0.00    -0.200 F 
ENDBRANCH  46  60
BRANCH  47  71
ATOM     71  C   UNL A   1      39.587  33.599  36.715  1.00  0.00     0.064 A 
ATOM     72  C   UNL A   1      38.812  33.149  37.792  1.00  0.00     0.173 A 
ATOM     73  C   UNL A   1      40.169  34.871  36.815  1.00  0.00     0.173 A 
ATOM     74  F   UNL A   1      38.218  31.947  37.731  1.00  0.00    -0.203 F 
ATOM     75  C   UNL A   1      38.615  33.942  38.919  1.00  0.00     0.198 A 
ATOM     76  C   UNL A   1      39.992  35.654  37.953  1.00  0.00     0.198 A 
ATOM     77  F   UNL A   1      40.922  35.346  35.812  1.00  0.00    -0.203 F 
ATOM     78  F   UNL A   1      37.840  33.501  39.919  1.00  0.00    -0.200 F 
ATOM     79  C   UNL A   1      39.211  35.192  39.002  1.00  0.00     0.200 A 
ATOM     80  F   UNL A   1      40.578  36.857  38.035  1.00  0.00    -0.200 F 
ATOM     81  F   UNL A   1      39.026  35.953  40.089  1.00  0.00    -0.200 F 
ENDBRANCH  47  71
BRANCH  59  82
ATOM     82  C   UNL A   1      44.317  28.790  34.999  1.00  0.00     0.064 A 
ATOM     83  C   UNL A   1      45.572  29.408  34.907  1.00  0.00     0.173 A 
ATOM     84  C   UNL A   1      44.197  27.659  35.821  1.00  0.00     0.173 A 
ATOM     85  F   UNL A   1      45.740  30.481  34.120  1.00  0.00    -0.203 F 
ATOM     86  C   UNL A   1      46.670  28.899  35.595  1.00  0.00     0.198 A 
ATOM     87  C   UNL A   1      45.291  27.168  36.528  1.00  0.00     0.198 A 
ATOM     88  F   UNL A   1      43.015  27.036  35.946  1.00  0.00    -0.203 F 
ATOM     89  F   UNL A   1      47.872  29.478  35.458  1.00  0.00    -0.200 F 
ATOM     90  C   UNL A   1      46.528  27.784  36.409  1.00  0.00     0.200 A 
ATOM     91  F   UNL A   1      45.149  26.098  37.322  1.00  0.00    -0.200 F 
ATOM     92  F   UNL A   1      47.585  27.300  37.074  1.00  0.00    -0.200 F 
ENDBRANCH  59  82
ENDBRANCH  33  34
ENDBRANCH  25  28
ENDBRANCH  23  24
ENDBRANCH  22  23
ENDBRANCH   1  22
TORSDOF 13
ENDMDL
MODEL 3
REMARK VINA RESULT:     -12.0      5.497     10.611
REMARK SMILES Cc1cc(C(=O)NC2(CC(=O)NCCCNC(=O)c3ccc(-c4c5nc(c(-c6c(F)c(F)c(F)c(F)c6F)c6ccc([nH]6)c(-c6c(F)c(F)c(F)c(F)c6F)c6nc(c(-c7c(F)c(F)c(F)c(F)c7F)c7ccc4[nH]7)C=C6)C=C5)cc3)CCC2)sc1C
REMARK SMILES IDX 13 1 12 2 10 3 11 4 9 6 8 7 82 8 84 9 83 10 7 11 5 12 6 13
REMARK SMILES IDX 4 15 1 16 2 17 3 18 86 19 85 20 87 21 14 22 15 23 16 24
REMARK SMILES IDX 17 25 18 27 19 28 20 29 81 30 21 31 80 32 22 33 23 34 24 35
REMARK SMILES IDX 74 36 25 37 79 38 73 39 75 40 26 41 78 42 72 43 71 44 27 46
REMARK SMILES IDX 59 47 39 48 58 49 40 50 43 51 57 52 76 53 41 54 42 55 56 57
REMARK SMILES IDX 77 58 44 59 28 60 29 61 37 62 30 63 31 64 35 65 38 66 32 67
REMARK SMILES IDX 33 68 36 69 34 70 60 71 61 72 69 73 62 74 63 75 67 76 70 77
REMARK SMILES IDX 64 78 65 79 68 80 66 81 45 82 46 83 54 84 47 85 48 86 52 87
REMARK SMILES IDX 55 88 49 89 50 90 53 91 51 92
REMARK H PARENT 12 5 7 14 16 26 75 45 43 56
REMARK Flexibility Score: inf
ROOT
ATOM      1  C   UNL A   1      31.508  30.724  25.905  1.00  0.00     0.117 C 
ENDROOT
BRANCH   1   2
ATOM      2  N   UNL A   1      31.735  29.742  26.947  1.00  0.00    -0.356 N 
ATOM      3  C   UNL A   1      31.566  28.395  26.924  1.00  0.00     0.222 C 
ATOM      4  O   UNL A   1      31.544  27.795  28.002  1.00  0.00    -0.275 OA
ATOM      5  H   UNL A   1      32.060  30.107  27.801  1.00  0.00     0.163 HD
BRANCH   3   6
ATOM      6  C   UNL A   1      31.396  27.635  25.628  1.00  0.00     0.128 C 
BRANCH   6   7
ATOM      7  C   UNL A   1      32.087  26.252  25.550  1.00  0.00     0.049 C 
ATOM      8  C   UNL A   1      33.609  26.410  25.797  1.00  0.00     0.029 C 
ATOM      9  C   UNL A   1      32.398  25.824  24.098  1.00  0.00     0.029 C 
ATOM     10  C   UNL A   1      33.843  26.313  24.279  1.00  0.00     0.005 C 
BRANCH   7  11
ATOM     11  N   UNL A   1      31.360  25.267  26.391  1.00  0.00    -0.345 N 
ATOM     12  C   UNL A   1      31.359  23.905  26.626  1.00  0.00     0.261 C 
ATOM     13  O   UNL A   1      30.613  23.564  27.552  1.00  0.00    -0.268 OA
ATOM     14  H   UNL A   1      30.679  25.716  26.942  1.00  0.00     0.164 HD
BRANCH  12  15
ATOM     15  C   UNL A   1      32.171  22.910  25.943  1.00  0.00     0.092 A 
ATOM     16  C   UNL A   1      32.429  20.118  23.407  1.00  0.00     0.045 C 
ATOM     17  C   UNL A   1      32.699  21.143  24.457  1.00  0.00    -0.037 A 
ATOM     18  C   UNL A   1      31.703  22.043  24.964  1.00  0.00     0.029 A 
ATOM     19  C   UNL A   1      33.907  21.358  25.096  1.00  0.00     0.005 A 
ATOM     20  S   UNL A   1      33.861  22.775  26.039  1.00  0.00    -0.135 S 
ATOM     21  C   UNL A   1      35.176  20.579  25.006  1.00  0.00     0.056 C 
ENDBRANCH  12  15
ENDBRANCH   7  11
ENDBRANCH   6   7
ENDBRANCH   3   6
ENDBRANCH   1   2
BRANCH   1  22
ATOM     22  C   UNL A   1      31.377  32.126  26.500  1.00  0.00     0.042 C 
BRANCH  22  23
ATOM     23  C   UNL A   1      32.643  32.619  27.192  1.00  0.00     0.118 C 
BRANCH  23  24
ATOM     24  N   UNL A   1      32.534  34.008  27.603  1.00  0.00    -0.352 N 
ATOM     25  C   UNL A   1      33.133  34.688  28.635  1.00  0.00     0.251 C 
ATOM     26  H   UNL A   1      31.933  34.555  27.048  1.00  0.00     0.163 HD
ATOM     27  O   UNL A   1      32.709  35.797  28.944  1.00  0.00    -0.269 OA
BRANCH  25  28
ATOM     28  C   UNL A   1      34.273  34.109  29.385  1.00  0.00     0.039 A 
ATOM     29  C   UNL A   1      35.573  34.418  28.966  1.00  0.00     0.014 A 
ATOM     30  C   UNL A   1      34.085  33.208  30.435  1.00  0.00     0.014 A 
ATOM     31  C   UNL A   1      36.673  33.858  29.623  1.00  0.00     0.010 A 
ATOM     32  C   UNL A   1      35.181  32.719  31.145  1.00  0.00     0.010 A 
ATOM     33  C   UNL A   1      36.487  33.022  30.734  1.00  0.00    -0.014 A 
BRANCH  33  34
ATOM     34  C   UNL A   1      37.640  32.417  31.449  1.00  0.00     0.031 A 
ATOM     35  C   UNL A   1      38.408  31.284  30.821  1.00  0.00     0.074 A 
ATOM     36  C   UNL A   1      37.966  32.847  32.682  1.00  0.00     0.049 A 
ATOM     37  N   UNL A   1      39.389  30.572  31.314  1.00  0.00    -0.248 NA
ATOM     38  C   UNL A   1      37.996  30.881  29.467  1.00  0.00     0.031 C 
ATOM     39  C   UNL A   1      37.284  33.914  33.416  1.00  0.00     0.029 A 
ATOM     40  N   UNL A   1      38.956  32.434  33.540  1.00  0.00    -0.354 N 
ATOM     41  C   UNL A   1      39.694  29.626  30.343  1.00  0.00     0.074 A 
ATOM     42  C   UNL A   1      38.762  29.822  29.254  1.00  0.00     0.031 C 
ATOM     43  C   UNL A   1      37.891  34.092  34.599  1.00  0.00     0.029 A 
ATOM     44  C   UNL A   1      38.981  33.128  34.724  1.00  0.00     0.049 A 
ATOM     45  H   UNL A   1      39.586  31.709  33.327  1.00  0.00     0.167 HD
ATOM     46  C   UNL A   1      40.679  28.696  30.345  1.00  0.00     0.037 A 
ATOM     47  C   UNL A   1      39.792  33.000  35.792  1.00  0.00     0.037 A 
ATOM     48  C   UNL A   1      41.630  28.525  31.412  1.00  0.00     0.049 A 
ATOM     49  C   UNL A   1      40.874  31.955  35.775  1.00  0.00     0.074 A 
ATOM     50  C   UNL A   1      42.697  27.648  31.487  1.00  0.00     0.029 A 
ATOM     51  N   UNL A   1      41.627  29.254  32.592  1.00  0.00    -0.354 N 
ATOM     52  N   UNL A   1      41.184  31.100  34.831  1.00  0.00    -0.248 NA
ATOM     53  C   UNL A   1      41.720  31.860  36.972  1.00  0.00     0.031 C 
ATOM     54  C   UNL A   1      43.321  27.823  32.727  1.00  0.00     0.029 A 
ATOM     55  C   UNL A   1      42.665  28.836  33.408  1.00  0.00     0.049 A 
ATOM     56  H   UNL A   1      40.982  29.963  32.817  1.00  0.00     0.167 HD
ATOM     57  C   UNL A   1      42.275  30.386  35.306  1.00  0.00     0.074 A 
ATOM     58  C   UNL A   1      42.580  30.915  36.619  1.00  0.00     0.031 C 
ATOM     59  C   UNL A   1      42.962  29.382  34.708  1.00  0.00     0.037 A 
BRANCH  46  60
ATOM     60  C   UNL A   1      40.776  27.793  29.150  1.00  0.00     0.064 A 
ATOM     61  C   UNL A   1      39.931  26.682  28.998  1.00  0.00     0.173 A 
ATOM     62  C   UNL A   1      41.716  28.044  28.138  1.00  0.00     0.173 A 
ATOM     63  F   UNL A   1      39.025  26.390  29.943  1.00  0.00    -0.203 F 
ATOM     64  C   UNL A   1      40.046  25.838  27.897  1.00  0.00     0.198 A 
ATOM     65  C   UNL A   1      41.808  27.215  27.024  1.00  0.00     0.198 A 
ATOM     66  F   UNL A   1      42.543  29.096  28.230  1.00  0.00    -0.203 F 
ATOM     67  F   UNL A   1      39.266  24.753  27.802  1.00  0.00    -0.200 F 
ATOM     68  C   UNL A   1      40.980  26.107  26.908  1.00  0.00     0.200 A 
ATOM     69  F   UNL A   1      42.703  27.482  26.063  1.00  0.00    -0.200 F 
ATOM     70  F   UNL A   1      41.091  25.294  25.849  1.00  0.00    -0.200 F 
ENDBRANCH  46  60
BRANCH  47  71
ATOM     71  C   UNL A   1      39.638  33.914  36.951  1.00  0.00     0.064 A 
ATOM     72  C   UNL A   1      38.866  33.539  38.059  1.00  0.00     0.173 A 
ATOM     73  C   UNL A   1      40.259  35.171  36.983  1.00  0.00     0.173 A 
ATOM     74  F   UNL A   1      38.237  32.354  38.064  1.00  0.00    -0.203 F 
ATOM     75  C   UNL A   1      38.709  34.390  39.150  1.00  0.00     0.198 A 
ATOM     76  C   UNL A   1      40.121  36.012  38.085  1.00  0.00     0.198 A 
ATOM     77  F   UNL A   1      41.010  35.575  35.949  1.00  0.00    -0.203 F 
ATOM     78  F   UNL A   1      37.937  34.020  40.180  1.00  0.00    -0.200 F 
ATOM     79  C   UNL A   1      39.343  35.624  39.165  1.00  0.00     0.200 A 
ATOM     80  F   UNL A   1      40.743  37.200  38.101  1.00  0.00    -0.200 F 
ATOM     81  F   UNL A   1      39.196  36.441  40.217  1.00  0.00    -0.200 F 
ENDBRANCH  47  71
BRANCH  59  82
ATOM     82  C   UNL A   1      44.134  28.817  35.452  1.00  0.00     0.064 A 
ATOM     83  C   UNL A   1      43.995  27.730  36.327  1.00  0.00     0.173 A 
ATOM     84  C   UNL A   1      45.419  29.347  35.258  1.00  0.00     0.173 A 
ATOM     85  F   UNL A   1      42.784  27.201  36.558  1.00  0.00    -0.203 F 
ATOM     86  C   UNL A   1      45.097  27.209  36.999  1.00  0.00     0.198 A 
ATOM     87  C   UNL A   1      46.523  28.805  35.911  1.00  0.00     0.198 A 
ATOM     88  F   UNL A   1      45.605  30.382  34.426  1.00  0.00    -0.203 F 
ATOM     89  F   UNL A   1      44.935  26.198  37.865  1.00  0.00    -0.200 F 
ATOM     90  C   UNL A   1      46.359  27.742  36.786  1.00  0.00     0.200 A 
ATOM     91  F   UNL A   1      47.744  29.315  35.697  1.00  0.00    -0.200 F 
ATOM     92  F   UNL A   1      47.419  27.234  37.430  1.00  0.00    -0.200 F 
ENDBRANCH  59  82
ENDBRANCH  33  34
ENDBRANCH  25  28
ENDBRANCH  23  24
ENDBRANCH  22  23
ENDBRANCH   1  22
TORSDOF 13
ENDMDL
