MODEL 1
REMARK VINA RESULT:     -11.3      0.000      0.000
REMARK SMILES C[C@H](Cc1ccco1)[NH2+]Cc1cc(C(=O)NCCCNC(=O)c2ccc(-c3c4nc(c(-c5c(F)c(F)c(F)c(F)c5F)c5ccc([nH]5)c(-c5c(F)c(F)c(F)c(F)c5F)c5nc(c(-c6c(F)c(F)c(F)c(F)c6F)c6ccc3[nH]6)C=C5)C=C4)cc2)cs1
REMARK SMILES IDX 14 1 15 2 16 3 13 5 11 6 12 7 87 8 86 9 10 10 9 11 2 14 1 15
REMARK SMILES IDX 3 16 4 17 5 18 8 19 6 20 7 21 17 22 18 23 19 24 20 25 21 26
REMARK SMILES IDX 22 28 23 29 24 30 85 31 25 32 84 33 26 34 27 35 28 36 78 37
REMARK SMILES IDX 29 38 83 39 77 40 79 41 30 42 82 43 76 44 75 45 31 47 63 48
REMARK SMILES IDX 43 49 62 50 44 51 47 52 61 53 80 54 45 55 46 56 60 58 81 59
REMARK SMILES IDX 48 60 32 61 33 62 41 63 34 64 35 65 39 66 42 67 36 68 37 69
REMARK SMILES IDX 40 70 38 71 64 72 65 73 73 74 66 75 67 76 71 77 74 78 68 79
REMARK SMILES IDX 69 80 72 81 70 82 49 83 50 84 58 85 51 86 52 87 56 88 59 89
REMARK SMILES IDX 53 90 54 91 57 92 55 93
REMARK H PARENT 16 4 9 12 9 13 20 27 79 46 47 57
REMARK Flexibility Score: inf
ROOT
ATOM      1  C   UNL A   1      33.841  29.364  27.110  1.00  0.00     0.252 C 
ATOM      2  O   UNL A   1      34.946  29.395  27.646  1.00  0.00    -0.269 OA
ATOM      3  N   UNL A   1      32.920  30.322  27.469  1.00  0.00    -0.352 N 
ATOM      4  H   UNL A   1      33.159  30.850  28.265  1.00  0.00     0.163 HD
ENDROOT
BRANCH   1   5
ATOM      5  C   UNL A   1      33.506  28.390  26.078  1.00  0.00     0.051 A 
ATOM      6  C   UNL A   1      32.371  26.660  24.973  1.00  0.00     0.059 A 
ATOM      7  C   UNL A   1      32.681  27.225  26.196  1.00  0.00     0.035 A 
ATOM      8  S   UNL A   1      33.370  27.299  23.739  1.00  0.00    -0.142 S 
ATOM      9  C   UNL A   1      34.020  28.475  24.796  1.00  0.00     0.079 A 
BRANCH   6  10
ATOM     10  C   UNL A   1      31.329  25.621  24.658  1.00  0.00     0.308 C 
BRANCH  10  11
ATOM     11  N   UNL A   1      30.475  26.013  23.531  1.00  0.00    -0.339 N 
ATOM     12  H   UNL A   1      31.086  26.335  22.780  1.00  0.00     0.346 HD
ATOM     13  H   UNL A   1      29.926  25.182  23.313  1.00  0.00     0.346 HD
BRANCH  11  14
ATOM     14  C   UNL A   1      29.479  27.076  23.780  1.00  0.00     0.187 C 
ATOM     15  C   UNL A   1      28.022  26.607  23.878  1.00  0.00     0.075 C 
BRANCH  14  16
ATOM     16  C   UNL A   1      29.716  28.218  22.745  1.00  0.00     0.140 C 
BRANCH  16  17
ATOM     17  C   UNL A   1      29.027  29.510  23.011  1.00  0.00     0.109 A 
ATOM     18  C   UNL A   1      27.765  29.983  22.713  1.00  0.00     0.046 A 
ATOM     19  O   UNL A   1      29.720  30.448  23.719  1.00  0.00    -0.469 OA
ATOM     20  C   UNL A   1      27.682  31.281  23.266  1.00  0.00     0.042 A 
ATOM     21  C   UNL A   1      28.892  31.514  23.876  1.00  0.00     0.195 A 
ENDBRANCH  16  17
ENDBRANCH  14  16
ENDBRANCH  11  14
ENDBRANCH  10  11
ENDBRANCH   6  10
ENDBRANCH   1   5
BRANCH   3  22
ATOM     22  C   UNL A   1      31.648  30.678  26.858  1.00  0.00     0.118 C 
BRANCH  22  23
ATOM     23  C   UNL A   1      31.405  32.184  26.890  1.00  0.00     0.042 C 
BRANCH  23  24
ATOM     24  C   UNL A   1      32.694  33.000  26.941  1.00  0.00     0.118 C 
BRANCH  24  25
ATOM     25  N   UNL A   1      32.513  34.275  27.622  1.00  0.00    -0.352 N 
ATOM     26  C   UNL A   1      33.070  34.748  28.785  1.00  0.00     0.251 C 
ATOM     27  H   UNL A   1      31.894  34.898  27.178  1.00  0.00     0.163 HD
ATOM     28  O   UNL A   1      32.589  35.742  29.321  1.00  0.00    -0.269 OA
BRANCH  26  29
ATOM     29  C   UNL A   1      34.244  34.081  29.392  1.00  0.00     0.039 A 
ATOM     30  C   UNL A   1      35.529  34.450  28.977  1.00  0.00     0.014 A 
ATOM     31  C   UNL A   1      34.085  33.050  30.321  1.00  0.00     0.014 A 
ATOM     32  C   UNL A   1      36.649  33.823  29.533  1.00  0.00     0.010 A 
ATOM     33  C   UNL A   1      35.200  32.480  30.930  1.00  0.00     0.010 A 
ATOM     34  C   UNL A   1      36.494  32.853  30.536  1.00  0.00    -0.014 A 
BRANCH  34  35
ATOM     35  C   UNL A   1      37.663  32.206  31.184  1.00  0.00     0.031 A 
ATOM     36  C   UNL A   1      38.445  31.149  30.453  1.00  0.00     0.074 A 
ATOM     37  C   UNL A   1      37.969  32.504  32.461  1.00  0.00     0.049 A 
ATOM     38  N   UNL A   1      39.420  30.388  30.885  1.00  0.00    -0.248 NA
ATOM     39  C   UNL A   1      38.056  30.888  29.058  1.00  0.00     0.031 C 
ATOM     40  C   UNL A   1      37.255  33.469  33.298  1.00  0.00     0.029 A 
ATOM     41  N   UNL A   1      38.950  32.011  33.284  1.00  0.00    -0.354 N 
ATOM     42  C   UNL A   1      39.735  29.542  29.831  1.00  0.00     0.074 A 
ATOM     43  C   UNL A   1      38.823  29.851  28.753  1.00  0.00     0.031 C 
ATOM     44  C   UNL A   1      37.835  33.513  34.508  1.00  0.00     0.029 A 
ATOM     45  C   UNL A   1      38.936  32.557  34.544  1.00  0.00     0.049 A 
ATOM     46  H   UNL A   1      39.601  31.330  32.999  1.00  0.00     0.167 HD
ATOM     47  C   UNL A   1      40.710  28.602  29.762  1.00  0.00     0.037 A 
ATOM     48  C   UNL A   1      39.723  32.311  35.608  1.00  0.00     0.037 A 
ATOM     49  C   UNL A   1      41.647  28.326  30.820  1.00  0.00     0.049 A 
ATOM     50  C   UNL A   1      40.823  31.293  35.494  1.00  0.00     0.074 A 
ATOM     51  C   UNL A   1      42.718  27.449  30.819  1.00  0.00     0.029 A 
ATOM     52  N   UNL A   1      41.627  28.931  32.068  1.00  0.00    -0.354 N 
ATOM     53  N   UNL A   1      41.147  30.538  34.474  1.00  0.00    -0.248 NA
ATOM     54  C   UNL A   1      41.669  31.100  36.679  1.00  0.00     0.031 C 
ATOM     55  C   UNL A   1      43.328  27.501  32.077  1.00  0.00     0.029 A 
ATOM     56  C   UNL A   1      42.659  28.436  32.850  1.00  0.00     0.049 A 
ATOM     57  H   UNL A   1      40.975  29.609  32.356  1.00  0.00     0.167 HD
ATOM     58  C   UNL A   1      42.242  29.791  34.885  1.00  0.00     0.074 A 
ATOM     59  C   UNL A   1      42.539  30.200  36.242  1.00  0.00     0.031 C 
ATOM     60  C   UNL A   1      42.938  28.851  34.200  1.00  0.00     0.037 A 
BRANCH  47  61
ATOM     61  C   UNL A   1      40.813  27.806  28.493  1.00  0.00     0.064 A 
ATOM     62  C   UNL A   1      41.563  28.263  27.399  1.00  0.00     0.173 A 
ATOM     63  C   UNL A   1      40.175  26.562  28.379  1.00  0.00     0.173 A 
ATOM     64  F   UNL A   1      42.183  29.451  27.453  1.00  0.00    -0.203 F 
ATOM     65  C   UNL A   1      41.641  27.519  26.224  1.00  0.00     0.198 A 
ATOM     66  C   UNL A   1      40.279  25.808  27.213  1.00  0.00     0.198 A 
ATOM     67  F   UNL A   1      39.451  26.077  29.398  1.00  0.00    -0.203 F 
ATOM     68  F   UNL A   1      42.320  28.001  25.173  1.00  0.00    -0.200 F 
ATOM     69  C   UNL A   1      41.004  26.291  26.133  1.00  0.00     0.200 A 
ATOM     70  F   UNL A   1      39.671  24.617  27.130  1.00  0.00    -0.200 F 
ATOM     71  F   UNL A   1      41.082  25.576  25.002  1.00  0.00    -0.200 F 
ENDBRANCH  47  61
BRANCH  48  72
ATOM     72  C   UNL A   1      39.519  33.076  36.863  1.00  0.00     0.064 A 
ATOM     73  C   UNL A   1      40.276  34.227  37.127  1.00  0.00     0.173 A 
ATOM     74  C   UNL A   1      38.562  32.690  37.811  1.00  0.00     0.173 A 
ATOM     75  F   UNL A   1      41.218  34.621  36.258  1.00  0.00    -0.203 F 
ATOM     76  C   UNL A   1      40.089  34.956  38.298  1.00  0.00     0.198 A 
ATOM     77  C   UNL A   1      38.360  33.434  38.972  1.00  0.00     0.198 A 
ATOM     78  F   UNL A   1      37.811  31.599  37.600  1.00  0.00    -0.203 F 
ATOM     79  F   UNL A   1      40.848  36.034  38.541  1.00  0.00    -0.200 F 
ATOM     80  C   UNL A   1      39.127  34.563  39.216  1.00  0.00     0.200 A 
ATOM     81  F   UNL A   1      37.422  33.058  39.851  1.00  0.00    -0.200 F 
ATOM     82  F   UNL A   1      38.942  35.270  40.339  1.00  0.00    -0.200 F 
ENDBRANCH  48  72
BRANCH  60  83
ATOM     83  C   UNL A   1      44.098  28.216  34.906  1.00  0.00     0.064 A 
ATOM     84  C   UNL A   1      43.951  27.023  35.630  1.00  0.00     0.173 A 
ATOM     85  C   UNL A   1      45.375  28.794  34.839  1.00  0.00     0.173 A 
ATOM     86  F   UNL A   1      42.745  26.444  35.735  1.00  0.00    -0.203 F 
ATOM     87  C   UNL A   1      45.036  26.446  36.283  1.00  0.00     0.198 A 
ATOM     88  C   UNL A   1      46.462  28.199  35.473  1.00  0.00     0.198 A 
ATOM     89  F   UNL A   1      45.568  29.932  34.156  1.00  0.00    -0.203 F 
ATOM     90  F   UNL A   1      44.863  25.332  37.007  1.00  0.00    -0.200 F 
ATOM     91  C   UNL A   1      46.290  27.031  36.201  1.00  0.00     0.200 A 
ATOM     92  F   UNL A   1      47.675  28.761  35.386  1.00  0.00    -0.200 F 
ATOM     93  F   UNL A   1      47.333  26.473  36.831  1.00  0.00    -0.200 F 
ENDBRANCH  60  83
ENDBRANCH  34  35
ENDBRANCH  26  29
ENDBRANCH  24  25
ENDBRANCH  23  24
ENDBRANCH  22  23
ENDBRANCH   3  22
TORSDOF 15
ENDMDL
MODEL 2
REMARK VINA RESULT:     -11.1      6.232     11.535
REMARK SMILES C[C@H](Cc1ccco1)[NH2+]Cc1cc(C(=O)NCCCNC(=O)c2ccc(-c3c4nc(c(-c5c(F)c(F)c(F)c(F)c5F)c5ccc([nH]5)c(-c5c(F)c(F)c(F)c(F)c5F)c5nc(c(-c6c(F)c(F)c(F)c(F)c6F)c6ccc3[nH]6)C=C5)C=C4)cc2)cs1
REMARK SMILES IDX 14 1 15 2 16 3 13 5 11 6 12 7 87 8 86 9 10 10 9 11 2 14 1 15
REMARK SMILES IDX 3 16 4 17 5 18 8 19 6 20 7 21 17 22 18 23 19 24 20 25 21 26
REMARK SMILES IDX 22 28 23 29 24 30 85 31 25 32 84 33 26 34 27 35 28 36 78 37
REMARK SMILES IDX 29 38 83 39 77 40 79 41 30 42 82 43 76 44 75 45 31 47 63 48
REMARK SMILES IDX 43 49 62 50 44 51 47 52 61 53 80 54 45 55 46 56 60 58 81 59
REMARK SMILES IDX 48 60 32 61 33 62 41 63 34 64 35 65 39 66 42 67 36 68 37 69
REMARK SMILES IDX 40 70 38 71 64 72 65 73 73 74 66 75 67 76 71 77 74 78 68 79
REMARK SMILES IDX 69 80 72 81 70 82 49 83 50 84 58 85 51 86 52 87 56 88 59 89
REMARK SMILES IDX 53 90 54 91 57 92 55 93
REMARK H PARENT 16 4 9 12 9 13 20 27 79 46 47 57
REMARK Flexibility Score: inf
ROOT
ATOM      1  C   UNL A   1      37.450  23.254  25.588  1.00  0.00     0.252 C 
ATOM      2  O   UNL A   1      38.207  24.099  26.061  1.00  0.00    -0.269 OA
ATOM      3  N   UNL A   1      38.002  22.107  25.067  1.00  0.00    -0.352 N 
ATOM      4  H   UNL A   1      38.980  22.135  24.949  1.00  0.00     0.163 HD
ENDROOT
BRANCH   1   5
ATOM      5  C   UNL A   1      36.000  23.409  25.618  1.00  0.00     0.051 A 
ATOM      6  C   UNL A   1      33.799  23.657  24.845  1.00  0.00     0.059 A 
ATOM      7  C   UNL A   1      35.137  23.864  24.569  1.00  0.00     0.035 A 
ATOM      8  S   UNL A   1      33.574  23.274  26.498  1.00  0.00    -0.142 S 
ATOM      9  C   UNL A   1      35.259  23.152  26.758  1.00  0.00     0.079 A 
BRANCH   6  10
ATOM     10  C   UNL A   1      32.625  23.735  23.907  1.00  0.00     0.308 C 
BRANCH  10  11
ATOM     11  N   UNL A   1      31.831  22.501  23.905  1.00  0.00    -0.339 N 
ATOM     12  H   UNL A   1      31.484  22.358  24.853  1.00  0.00     0.346 HD
ATOM     13  H   UNL A   1      31.109  22.653  23.200  1.00  0.00     0.346 HD
BRANCH  11  14
ATOM     14  C   UNL A   1      32.517  21.260  23.491  1.00  0.00     0.187 C 
ATOM     15  C   UNL A   1      32.145  20.732  22.100  1.00  0.00     0.075 C 
BRANCH  14  16
ATOM     16  C   UNL A   1      32.365  20.214  24.635  1.00  0.00     0.140 C 
BRANCH  16  17
ATOM     17  C   UNL A   1      33.030  18.898  24.428  1.00  0.00     0.109 A 
ATOM     18  C   UNL A   1      32.554  17.640  24.121  1.00  0.00     0.046 A 
ATOM     19  O   UNL A   1      34.392  18.873  24.511  1.00  0.00    -0.469 OA
ATOM     20  C   UNL A   1      33.684  16.798  24.014  1.00  0.00     0.042 A 
ATOM     21  C   UNL A   1      34.778  17.597  24.249  1.00  0.00     0.195 A 
ENDBRANCH  16  17
ENDBRANCH  14  16
ENDBRANCH  11  14
ENDBRANCH  10  11
ENDBRANCH   6  10
ENDBRANCH   1   5
BRANCH   3  22
ATOM     22  C   UNL A   1      37.372  20.860  24.662  1.00  0.00     0.118 C 
BRANCH  22  23
ATOM     23  C   UNL A   1      38.268  19.656  24.936  1.00  0.00     0.042 C 
BRANCH  23  24
ATOM     24  C   UNL A   1      39.198  19.858  26.129  1.00  0.00     0.118 C 
BRANCH  24  25
ATOM     25  N   UNL A   1      40.348  18.964  26.090  1.00  0.00    -0.352 N 
ATOM     26  C   UNL A   1      41.691  19.244  26.037  1.00  0.00     0.251 C 
ATOM     27  H   UNL A   1      40.127  18.004  26.104  1.00  0.00     0.163 HD
ATOM     28  O   UNL A   1      42.482  18.350  25.750  1.00  0.00    -0.269 OA
BRANCH  26  29
ATOM     29  C   UNL A   1      42.196  20.606  26.329  1.00  0.00     0.039 A 
ATOM     30  C   UNL A   1      42.521  21.456  25.266  1.00  0.00     0.014 A 
ATOM     31  C   UNL A   1      42.410  21.027  27.643  1.00  0.00     0.014 A 
ATOM     32  C   UNL A   1      43.007  22.742  25.524  1.00  0.00     0.010 A 
ATOM     33  C   UNL A   1      42.821  22.332  27.901  1.00  0.00     0.010 A 
ATOM     34  C   UNL A   1      43.133  23.200  26.845  1.00  0.00    -0.014 A 
BRANCH  34  35
ATOM     35  C   UNL A   1      43.597  24.577  27.152  1.00  0.00     0.031 A 
ATOM     36  C   UNL A   1      42.635  25.596  27.702  1.00  0.00     0.074 A 
ATOM     37  C   UNL A   1      44.860  24.939  26.855  1.00  0.00     0.049 A 
ATOM     38  N   UNL A   1      42.816  26.874  27.925  1.00  0.00    -0.248 NA
ATOM     39  C   UNL A   1      41.278  25.120  28.009  1.00  0.00     0.031 C 
ATOM     40  C   UNL A   1      45.873  24.062  26.268  1.00  0.00     0.029 A 
ATOM     41  N   UNL A   1      45.500  26.145  26.991  1.00  0.00    -0.354 N 
ATOM     42  C   UNL A   1      41.591  27.358  28.365  1.00  0.00     0.074 A 
ATOM     43  C   UNL A   1      40.664  26.248  28.339  1.00  0.00     0.031 C 
ATOM     44  C   UNL A   1      47.015  24.754  26.113  1.00  0.00     0.029 A 
ATOM     45  C   UNL A   1      46.802  26.128  26.557  1.00  0.00     0.049 A 
ATOM     46  H   UNL A   1      45.066  26.947  27.363  1.00  0.00     0.167 HD
ATOM     47  C   UNL A   1      41.272  28.611  28.771  1.00  0.00     0.037 A 
ATOM     48  C   UNL A   1      47.721  27.111  26.519  1.00  0.00     0.037 A 
ATOM     49  C   UNL A   1      42.207  29.704  28.840  1.00  0.00     0.049 A 
ATOM     50  C   UNL A   1      47.355  28.482  27.014  1.00  0.00     0.074 A 
ATOM     51  C   UNL A   1      42.001  30.989  29.311  1.00  0.00     0.029 A 
ATOM     52  N   UNL A   1      43.530  29.635  28.431  1.00  0.00    -0.354 N 
ATOM     53  N   UNL A   1      46.210  28.915  27.480  1.00  0.00    -0.248 NA
ATOM     54  C   UNL A   1      48.415  29.500  26.981  1.00  0.00     0.031 C 
ATOM     55  C   UNL A   1      43.192  31.708  29.158  1.00  0.00     0.029 A 
ATOM     56  C   UNL A   1      44.150  30.860  28.625  1.00  0.00     0.049 A 
ATOM     57  H   UNL A   1      43.965  28.836  28.056  1.00  0.00     0.167 HD
ATOM     58  C   UNL A   1      46.411  30.247  27.811  1.00  0.00     0.074 A 
ATOM     59  C   UNL A   1      47.796  30.546  27.511  1.00  0.00     0.031 C 
ATOM     60  C   UNL A   1      45.528  31.142  28.318  1.00  0.00     0.037 A 
BRANCH  47  61
ATOM     61  C   UNL A   1      39.850  28.864  29.179  1.00  0.00     0.064 A 
ATOM     62  C   UNL A   1      39.424  28.693  30.504  1.00  0.00     0.173 A 
ATOM     63  C   UNL A   1      38.907  29.304  28.238  1.00  0.00     0.173 A 
ATOM     64  F   UNL A   1      40.284  28.261  31.440  1.00  0.00    -0.203 F 
ATOM     65  C   UNL A   1      38.098  28.920  30.866  1.00  0.00     0.198 A 
ATOM     66  C   UNL A   1      37.589  29.559  28.609  1.00  0.00     0.198 A 
ATOM     67  F   UNL A   1      39.264  29.490  26.958  1.00  0.00    -0.203 F 
ATOM     68  F   UNL A   1      37.703  28.699  32.128  1.00  0.00    -0.200 F 
ATOM     69  C   UNL A   1      37.184  29.358  29.921  1.00  0.00     0.200 A 
ATOM     70  F   UNL A   1      36.709  29.992  27.697  1.00  0.00    -0.200 F 
ATOM     71  F   UNL A   1      35.909  29.578  30.271  1.00  0.00    -0.200 F 
ENDBRANCH  47  61
BRANCH  48  72
ATOM     72  C   UNL A   1      49.091  26.817  26.030  1.00  0.00     0.064 A 
ATOM     73  C   UNL A   1      50.067  26.315  26.903  1.00  0.00     0.173 A 
ATOM     74  C   UNL A   1      49.448  27.011  24.689  1.00  0.00     0.173 A 
ATOM     75  F   UNL A   1      49.775  26.133  28.199  1.00  0.00    -0.203 F 
ATOM     76  C   UNL A   1      51.353  26.030  26.453  1.00  0.00     0.198 A 
ATOM     77  C   UNL A   1      50.730  26.703  24.236  1.00  0.00     0.198 A 
ATOM     78  F   UNL A   1      48.547  27.485  23.816  1.00  0.00    -0.203 F 
ATOM     79  F   UNL A   1      52.277  25.581  27.315  1.00  0.00    -0.200 F 
ATOM     80  C   UNL A   1      51.682  26.218  25.119  1.00  0.00     0.200 A 
ATOM     81  F   UNL A   1      51.040  26.875  22.944  1.00  0.00    -0.200 F 
ATOM     82  F   UNL A   1      52.918  25.935  24.686  1.00  0.00    -0.200 F 
ENDBRANCH  48  72
BRANCH  60  83
ATOM     83  C   UNL A   1      46.042  32.523  28.592  1.00  0.00     0.064 A 
ATOM     84  C   UNL A   1      46.631  32.854  29.821  1.00  0.00     0.173 A 
ATOM     85  C   UNL A   1      45.964  33.520  27.608  1.00  0.00     0.173 A 
ATOM     86  F   UNL A   1      46.712  31.938  30.799  1.00  0.00    -0.203 F 
ATOM     87  C   UNL A   1      47.101  34.141  30.064  1.00  0.00     0.198 A 
ATOM     88  C   UNL A   1      46.458  34.800  27.847  1.00  0.00     0.198 A 
ATOM     89  F   UNL A   1      45.413  33.252  26.415  1.00  0.00    -0.203 F 
ATOM     90  F   UNL A   1      47.618  34.449  31.262  1.00  0.00    -0.200 F 
ATOM     91  C   UNL A   1      47.018  35.111  29.077  1.00  0.00     0.200 A 
ATOM     92  F   UNL A   1      46.384  35.733  26.889  1.00  0.00    -0.200 F 
ATOM     93  F   UNL A   1      47.471  36.350  29.313  1.00  0.00    -0.200 F 
ENDBRANCH  60  83
ENDBRANCH  34  35
ENDBRANCH  26  29
ENDBRANCH  24  25
ENDBRANCH  23  24
ENDBRANCH  22  23
ENDBRANCH   3  22
TORSDOF 15
ENDMDL
MODEL 3
REMARK VINA RESULT:     -11.1      5.444     10.448
REMARK SMILES C[C@H](Cc1ccco1)[NH2+]Cc1cc(C(=O)NCCCNC(=O)c2ccc(-c3c4nc(c(-c5c(F)c(F)c(F)c(F)c5F)c5ccc([nH]5)c(-c5c(F)c(F)c(F)c(F)c5F)c5nc(c(-c6c(F)c(F)c(F)c(F)c6F)c6ccc3[nH]6)C=C5)C=C4)cc2)cs1
REMARK SMILES IDX 14 1 15 2 16 3 13 5 11 6 12 7 87 8 86 9 10 10 9 11 2 14 1 15
REMARK SMILES IDX 3 16 4 17 5 18 8 19 6 20 7 21 17 22 18 23 19 24 20 25 21 26
REMARK SMILES IDX 22 28 23 29 24 30 85 31 25 32 84 33 26 34 27 35 28 36 78 37
REMARK SMILES IDX 29 38 83 39 77 40 79 41 30 42 82 43 76 44 75 45 31 47 63 48
REMARK SMILES IDX 43 49 62 50 44 51 47 52 61 53 80 54 45 55 46 56 60 58 81 59
REMARK SMILES IDX 48 60 32 61 33 62 41 63 34 64 35 65 39 66 42 67 36 68 37 69
REMARK SMILES IDX 40 70 38 71 64 72 65 73 73 74 66 75 67 76 71 77 74 78 68 79
REMARK SMILES IDX 69 80 72 81 70 82 49 83 50 84 58 85 51 86 52 87 56 88 59 89
REMARK SMILES IDX 53 90 54 91 57 92 55 93
REMARK H PARENT 16 4 9 12 9 13 20 27 79 46 47 57
REMARK Flexibility Score: inf
ROOT
ATOM      1  C   UNL A   1      37.415  23.285  25.697  1.00  0.00     0.252 C 
ATOM      2  O   UNL A   1      38.138  24.095  26.272  1.00  0.00    -0.269 OA
ATOM      3  N   UNL A   1      38.002  22.175  25.136  1.00  0.00    -0.352 N 
ATOM      4  H   UNL A   1      38.985  22.209  25.082  1.00  0.00     0.163 HD
ENDROOT
BRANCH   1   5
ATOM      5  C   UNL A   1      35.966  23.440  25.645  1.00  0.00     0.051 A 
ATOM      6  C   UNL A   1      33.837  23.947  24.798  1.00  0.00     0.059 A 
ATOM      7  C   UNL A   1      35.191  24.215  24.722  1.00  0.00     0.035 A 
ATOM      8  S   UNL A   1      33.474  23.062  26.218  1.00  0.00    -0.142 S 
ATOM      9  C   UNL A   1      35.131  22.844  26.574  1.00  0.00     0.079 A 
BRANCH   6  10
ATOM     10  C   UNL A   1      32.749  24.333  23.834  1.00  0.00     0.308 C 
BRANCH  10  11
ATOM     11  N   UNL A   1      32.224  25.677  24.096  1.00  0.00    -0.339 N 
ATOM     12  H   UNL A   1      32.898  26.160  24.690  1.00  0.00     0.346 HD
ATOM     13  H   UNL A   1      32.086  26.092  23.175  1.00  0.00     0.346 HD
BRANCH  11  14
ATOM     14  C   UNL A   1      30.905  25.767  24.758  1.00  0.00     0.187 C 
ATOM     15  C   UNL A   1      29.900  26.721  24.101  1.00  0.00     0.075 C 
BRANCH  14  16
ATOM     16  C   UNL A   1      31.139  26.028  26.276  1.00  0.00     0.140 C 
BRANCH  16  17
ATOM     17  C   UNL A   1      31.970  27.212  26.628  1.00  0.00     0.109 A 
ATOM     18  C   UNL A   1      31.688  28.406  27.259  1.00  0.00     0.046 A 
ATOM     19  O   UNL A   1      33.298  27.151  26.319  1.00  0.00    -0.469 OA
ATOM     20  C   UNL A   1      32.908  29.116  27.338  1.00  0.00     0.042 A 
ATOM     21  C   UNL A   1      33.858  28.307  26.762  1.00  0.00     0.195 A 
ENDBRANCH  16  17
ENDBRANCH  14  16
ENDBRANCH  11  14
ENDBRANCH  10  11
ENDBRANCH   6  10
ENDBRANCH   1   5
BRANCH   3  22
ATOM     22  C   UNL A   1      37.402  20.959  24.609  1.00  0.00     0.118 C 
BRANCH  22  23
ATOM     23  C   UNL A   1      38.264  19.732  24.891  1.00  0.00     0.042 C 
BRANCH  23  24
ATOM     24  C   UNL A   1      39.206  19.918  26.078  1.00  0.00     0.118 C 
BRANCH  24  25
ATOM     25  N   UNL A   1      40.417  19.119  25.952  1.00  0.00    -0.352 N 
ATOM     26  C   UNL A   1      41.737  19.498  25.960  1.00  0.00     0.251 C 
ATOM     27  H   UNL A   1      40.266  18.152  25.843  1.00  0.00     0.163 HD
ATOM     28  O   UNL A   1      42.594  18.704  25.581  1.00  0.00    -0.269 OA
BRANCH  26  29
ATOM     29  C   UNL A   1      42.138  20.845  26.428  1.00  0.00     0.039 A 
ATOM     30  C   UNL A   1      42.230  21.090  27.803  1.00  0.00     0.014 A 
ATOM     31  C   UNL A   1      42.362  21.884  25.523  1.00  0.00     0.014 A 
ATOM     32  C   UNL A   1      42.598  22.359  28.263  1.00  0.00     0.010 A 
ATOM     33  C   UNL A   1      42.802  23.124  25.977  1.00  0.00     0.010 A 
ATOM     34  C   UNL A   1      42.916  23.378  27.352  1.00  0.00    -0.014 A 
BRANCH  34  35
ATOM     35  C   UNL A   1      43.361  24.721  27.806  1.00  0.00     0.031 A 
ATOM     36  C   UNL A   1      42.347  25.772  28.169  1.00  0.00     0.074 A 
ATOM     37  C   UNL A   1      44.673  25.025  27.809  1.00  0.00     0.049 A 
ATOM     38  N   UNL A   1      42.529  27.032  28.476  1.00  0.00    -0.248 NA
ATOM     39  C   UNL A   1      40.935  25.358  28.152  1.00  0.00     0.031 C 
ATOM     40  C   UNL A   1      45.751  24.114  27.426  1.00  0.00     0.029 A 
ATOM     41  N   UNL A   1      45.319  26.192  28.128  1.00  0.00    -0.354 N 
ATOM     42  C   UNL A   1      41.261  27.566  28.653  1.00  0.00     0.074 A 
ATOM     43  C   UNL A   1      40.314  26.506  28.381  1.00  0.00     0.031 C 
ATOM     44  C   UNL A   1      46.928  24.749  27.553  1.00  0.00     0.029 A 
ATOM     45  C   UNL A   1      46.683  26.119  27.991  1.00  0.00     0.049 A 
ATOM     46  H   UNL A   1      44.850  27.004  28.426  1.00  0.00     0.167 HD
ATOM     47  C   UNL A   1      40.915  28.822  29.027  1.00  0.00     0.037 A 
ATOM     48  C   UNL A   1      47.630  27.055  28.194  1.00  0.00     0.037 A 
ATOM     49  C   UNL A   1      41.859  29.863  29.342  1.00  0.00     0.049 A 
ATOM     50  C   UNL A   1      47.224  28.429  28.648  1.00  0.00     0.074 A 
ATOM     51  C   UNL A   1      41.611  31.144  29.805  1.00  0.00     0.029 A 
ATOM     52  N   UNL A   1      43.236  29.738  29.232  1.00  0.00    -0.354 N 
ATOM     53  N   UNL A   1      46.025  28.907  28.867  1.00  0.00    -0.248 NA
ATOM     54  C   UNL A   1      48.309  29.391  28.889  1.00  0.00     0.031 C 
ATOM     55  C   UNL A   1      42.837  31.804  29.946  1.00  0.00     0.029 A 
ATOM     56  C   UNL A   1      43.850  30.923  29.605  1.00  0.00     0.049 A 
ATOM     57  H   UNL A   1      43.707  28.928  28.931  1.00  0.00     0.167 HD
ATOM     58  C   UNL A   1      46.206  30.217  29.286  1.00  0.00     0.074 A 
ATOM     59  C   UNL A   1      47.635  30.453  29.309  1.00  0.00     0.031 C 
ATOM     60  C   UNL A   1      45.273  31.142  29.619  1.00  0.00     0.037 A 
BRANCH  47  61
ATOM     61  C   UNL A   1      39.450  29.137  29.122  1.00  0.00     0.064 A 
ATOM     62  C   UNL A   1      38.775  29.130  30.351  1.00  0.00     0.173 A 
ATOM     63  C   UNL A   1      38.719  29.471  27.972  1.00  0.00     0.173 A 
ATOM     64  F   UNL A   1      39.427  28.805  31.478  1.00  0.00    -0.203 F 
ATOM     65  C   UNL A   1      37.413  29.413  30.422  1.00  0.00     0.198 A 
ATOM     66  C   UNL A   1      37.363  29.782  28.051  1.00  0.00     0.198 A 
ATOM     67  F   UNL A   1      39.318  29.498  26.773  1.00  0.00    -0.203 F 
ATOM     68  F   UNL A   1      36.778  29.349  31.601  1.00  0.00    -0.200 F 
ATOM     69  C   UNL A   1      36.710  29.744  29.274  1.00  0.00     0.200 A 
ATOM     70  F   UNL A   1      36.687  30.111  26.942  1.00  0.00    -0.200 F 
ATOM     71  F   UNL A   1      35.400  30.017  29.344  1.00  0.00    -0.200 F 
ENDBRANCH  47  61
BRANCH  48  72
ATOM     72  C   UNL A   1      49.060  26.704  28.007  1.00  0.00     0.064 A 
ATOM     73  C   UNL A   1      49.863  26.374  29.109  1.00  0.00     0.173 A 
ATOM     74  C   UNL A   1      49.648  26.673  26.736  1.00  0.00     0.173 A 
ATOM     75  F   UNL A   1      49.347  26.410  30.346  1.00  0.00    -0.203 F 
ATOM     76  C   UNL A   1      51.203  26.037  28.945  1.00  0.00     0.198 A 
ATOM     77  C   UNL A   1      50.984  26.314  26.571  1.00  0.00     0.198 A 
ATOM     78  F   UNL A   1      48.919  26.977  25.652  1.00  0.00    -0.203 F 
ATOM     79  F   UNL A   1      51.957  25.756  30.017  1.00  0.00    -0.200 F 
ATOM     80  C   UNL A   1      51.761  26.001  27.676  1.00  0.00     0.200 A 
ATOM     81  F   UNL A   1      51.517  26.269  25.343  1.00  0.00    -0.200 F 
ATOM     82  F   UNL A   1      53.050  25.669  27.519  1.00  0.00    -0.200 F 
ENDBRANCH  48  72
BRANCH  60  83
ATOM     83  C   UNL A   1      45.774  32.486  30.054  1.00  0.00     0.064 A 
ATOM     84  C   UNL A   1      46.089  32.753  31.394  1.00  0.00     0.173 A 
ATOM     85  C   UNL A   1      45.962  33.513  29.115  1.00  0.00     0.173 A 
ATOM     86  F   UNL A   1      45.910  31.807  32.329  1.00  0.00    -0.203 F 
ATOM     87  C   UNL A   1      46.550  34.007  31.783  1.00  0.00     0.198 A 
ATOM     88  C   UNL A   1      46.446  34.758  29.505  1.00  0.00     0.198 A 
ATOM     89  F   UNL A   1      45.678  33.306  27.820  1.00  0.00    -0.203 F 
ATOM     90  F   UNL A   1      46.801  34.254  33.076  1.00  0.00    -0.200 F 
ATOM     91  C   UNL A   1      46.732  35.006  30.840  1.00  0.00     0.200 A 
ATOM     92  F   UNL A   1      46.629  35.720  28.591  1.00  0.00    -0.200 F 
ATOM     93  F   UNL A   1      47.175  36.213  31.217  1.00  0.00    -0.200 F 
ENDBRANCH  60  83
ENDBRANCH  34  35
ENDBRANCH  26  29
ENDBRANCH  24  25
ENDBRANCH  23  24
ENDBRANCH  22  23
ENDBRANCH   3  22
TORSDOF 15
ENDMDL
