MODEL 1
REMARK VINA RESULT:     -10.3      0.000      0.000
REMARK SMILES C[C@H](SCC[NH3+])c1ccc(C(=O)NCCCNC(=O)c2ccc(-c3c4nc(c(-c5c(F)c(F)c(F)c(F)c5F)c5ccc([nH]5)c(-c5c(F)c(F)c(F)c(F)c5F)c5nc(c(-c6c(F)c(F)c(F)c(F)c6F)c6ccc3[nH]6)C=C5)C=C4)cc2)o1
REMARK SMILES IDX 11 1 12 2 13 3 10 5 7 6 8 7 83 8 9 9 2 10 1 11 3 12 4 13
REMARK SMILES IDX 5 14 6 15 14 19 15 20 16 21 17 22 18 23 19 25 20 26 21 27
REMARK SMILES IDX 82 28 22 29 81 30 23 31 24 32 25 33 75 34 26 35 80 36 74 37
REMARK SMILES IDX 76 38 27 39 79 40 73 41 72 42 28 44 60 45 40 46 59 47 41 48
REMARK SMILES IDX 44 49 58 50 77 51 42 52 43 53 57 55 78 56 45 57 29 58 30 59
REMARK SMILES IDX 38 60 31 61 32 62 36 63 39 64 33 65 34 66 37 67 35 68 61 69
REMARK SMILES IDX 62 70 70 71 63 72 64 73 68 74 71 75 65 76 66 77 69 78 67 79
REMARK SMILES IDX 46 80 47 81 55 82 48 83 49 84 53 85 56 86 50 87 51 88 54 89
REMARK SMILES IDX 52 90
REMARK H PARENT 13 4 6 16 6 17 6 18 17 24 76 43 44 54
REMARK Flexibility Score: inf
ROOT
ATOM      1  C   UNL A   1      37.574  22.944  25.542  1.00  0.00     0.286 C 
ATOM      2  O   UNL A   1      38.248  23.788  26.136  1.00  0.00    -0.266 OA
ATOM      3  N   UNL A   1      38.191  21.729  25.337  1.00  0.00    -0.349 N 
ATOM      4  H   UNL A   1      39.144  21.707  25.579  1.00  0.00     0.163 HD
ENDROOT
BRANCH   1   5
ATOM      5  C   UNL A   1      36.218  23.186  25.087  1.00  0.00     0.191 A 
ATOM      6  C   UNL A   1      34.017  23.125  25.347  1.00  0.00     0.117 A 
ATOM      7  C   UNL A   1      34.248  23.699  24.116  1.00  0.00     0.047 A 
ATOM      8  O   UNL A   1      35.205  22.823  25.942  1.00  0.00    -0.455 OA
ATOM      9  C   UNL A   1      35.652  23.751  23.957  1.00  0.00     0.056 A 
BRANCH   6  10
ATOM     10  C   UNL A   1      32.764  22.821  26.096  1.00  0.00     0.110 C 
ATOM     11  C   UNL A   1      33.075  22.478  27.555  1.00  0.00     0.028 C 
BRANCH  10  12
ATOM     12  S   UNL A   1      31.777  21.454  25.378  1.00  0.00    -0.145 SA
BRANCH  12  13
ATOM     13  C   UNL A   1      33.064  20.349  24.695  1.00  0.00     0.131 C 
BRANCH  13  14
ATOM     14  C   UNL A   1      32.925  18.865  25.062  1.00  0.00     0.269 C 
BRANCH  14  15
ATOM     15  N   UNL A   1      32.903  18.587  26.500  1.00  0.00    -0.357 N 
ATOM     16  H   UNL A   1      32.988  19.462  27.016  1.00  0.00     0.344 HD
ATOM     17  H   UNL A   1      33.682  17.974  26.739  1.00  0.00     0.344 HD
ATOM     18  H   UNL A   1      32.024  18.132  26.744  1.00  0.00     0.344 HD
ENDBRANCH  14  15
ENDBRANCH  13  14
ENDBRANCH  12  13
ENDBRANCH  10  12
ENDBRANCH   6  10
ENDBRANCH   1   5
BRANCH   3  19
ATOM     19  C   UNL A   1      37.669  20.480  24.822  1.00  0.00     0.118 C 
BRANCH  19  20
ATOM     20  C   UNL A   1      38.589  19.301  25.132  1.00  0.00     0.042 C 
BRANCH  20  21
ATOM     21  C   UNL A   1      39.670  19.614  26.166  1.00  0.00     0.118 C 
BRANCH  21  22
ATOM     22  N   UNL A   1      40.877  18.826  25.960  1.00  0.00    -0.352 N 
ATOM     23  C   UNL A   1      42.186  19.212  25.832  1.00  0.00     0.251 C 
ATOM     24  H   UNL A   1      40.728  17.855  25.903  1.00  0.00     0.163 HD
ATOM     25  O   UNL A   1      43.018  18.387  25.463  1.00  0.00    -0.269 OA
BRANCH  23  26
ATOM     26  C   UNL A   1      42.618  20.598  26.124  1.00  0.00     0.039 A 
ATOM     27  C   UNL A   1      42.640  21.021  27.457  1.00  0.00     0.014 A 
ATOM     28  C   UNL A   1      42.923  21.505  25.106  1.00  0.00     0.014 A 
ATOM     29  C   UNL A   1      43.006  22.333  27.772  1.00  0.00     0.010 A 
ATOM     30  C   UNL A   1      43.348  22.796  25.422  1.00  0.00     0.010 A 
ATOM     31  C   UNL A   1      43.383  23.226  26.758  1.00  0.00    -0.014 A 
BRANCH  31  32
ATOM     32  C   UNL A   1      43.803  24.614  27.077  1.00  0.00     0.031 A 
ATOM     33  C   UNL A   1      42.795  25.620  27.560  1.00  0.00     0.074 A 
ATOM     34  C   UNL A   1      45.083  24.985  26.880  1.00  0.00     0.049 A 
ATOM     35  N   UNL A   1      42.954  26.893  27.822  1.00  0.00    -0.248 NA
ATOM     36  C   UNL A   1      41.419  25.136  27.751  1.00  0.00     0.031 C 
ATOM     37  C   UNL A   1      46.146  24.114  26.379  1.00  0.00     0.029 A 
ATOM     38  N   UNL A   1      45.702  26.194  27.068  1.00  0.00    -0.354 N 
ATOM     39  C   UNL A   1      41.700  27.364  28.187  1.00  0.00     0.074 A 
ATOM     40  C   UNL A   1      40.782  26.252  28.075  1.00  0.00     0.031 C 
ATOM     41  C   UNL A   1      47.290  24.813  26.313  1.00  0.00     0.029 A 
ATOM     42  C   UNL A   1      47.036  26.187  26.738  1.00  0.00     0.049 A 
ATOM     43  H   UNL A   1      45.237  26.992  27.407  1.00  0.00     0.167 HD
ATOM     44  C   UNL A   1      41.349  28.608  28.595  1.00  0.00     0.037 A 
ATOM     45  C   UNL A   1      47.947  27.176  26.768  1.00  0.00     0.037 A 
ATOM     46  C   UNL A   1      42.270  29.706  28.738  1.00  0.00     0.049 A 
ATOM     47  C   UNL A   1      47.537  28.542  27.244  1.00  0.00     0.074 A 
ATOM     48  C   UNL A   1      42.021  30.987  29.199  1.00  0.00     0.029 A 
ATOM     49  N   UNL A   1      43.619  29.649  28.423  1.00  0.00    -0.354 N 
ATOM     50  N   UNL A   1      46.359  28.961  27.638  1.00  0.00    -0.248 NA
ATOM     51  C   UNL A   1      48.585  29.571  27.286  1.00  0.00     0.031 C 
ATOM     52  C   UNL A   1      43.215  31.716  29.132  1.00  0.00     0.029 A 
ATOM     53  C   UNL A   1      44.214  30.878  28.668  1.00  0.00     0.049 A 
ATOM     54  H   UNL A   1      44.086  28.855  28.078  1.00  0.00     0.167 HD
ATOM     55  C   UNL A   1      46.529  30.290  27.999  1.00  0.00     0.074 A 
ATOM     56  C   UNL A   1      47.927  30.605  27.789  1.00  0.00     0.031 C 
ATOM     57  C   UNL A   1      45.609  31.170  28.463  1.00  0.00     0.037 A 
BRANCH  44  58
ATOM     58  C   UNL A   1      39.905  28.848  28.921  1.00  0.00     0.064 A 
ATOM     59  C   UNL A   1      39.399  28.642  30.214  1.00  0.00     0.173 A 
ATOM     60  C   UNL A   1      39.022  29.324  27.940  1.00  0.00     0.173 A 
ATOM     61  F   UNL A   1      40.200  28.177  31.185  1.00  0.00    -0.203 F 
ATOM     62  C   UNL A   1      38.058  28.877  30.504  1.00  0.00     0.198 A 
ATOM     63  C   UNL A   1      37.688  29.584  28.241  1.00  0.00     0.198 A 
ATOM     64  F   UNL A   1      39.456  29.545  26.689  1.00  0.00    -0.203 F 
ATOM     65  F   UNL A   1      37.588  28.629  31.735  1.00  0.00    -0.200 F 
ATOM     66  C   UNL A   1      37.205  29.353  29.521  1.00  0.00     0.200 A 
ATOM     67  F   UNL A   1      36.867  30.056  27.292  1.00  0.00    -0.200 F 
ATOM     68  F   UNL A   1      35.915  29.583  29.804  1.00  0.00    -0.200 F 
ENDBRANCH  44  58
BRANCH  45  69
ATOM     69  C   UNL A   1      49.349  26.901  26.364  1.00  0.00     0.064 A 
ATOM     70  C   UNL A   1      49.742  27.008  25.023  1.00  0.00     0.173 A 
ATOM     71  C   UNL A   1      50.321  26.529  27.303  1.00  0.00     0.173 A 
ATOM     72  F   UNL A   1      48.841  27.341  24.086  1.00  0.00    -0.203 F 
ATOM     73  C   UNL A   1      51.053  26.741  24.634  1.00  0.00     0.198 A 
ATOM     74  C   UNL A   1      51.637  26.285  26.918  1.00  0.00     0.198 A 
ATOM     75  F   UNL A   1      49.995  26.417  28.599  1.00  0.00    -0.203 F 
ATOM     76  F   UNL A   1      51.394  26.814  23.341  1.00  0.00    -0.200 F 
ATOM     77  C   UNL A   1      52.000  26.385  25.582  1.00  0.00     0.200 A 
ATOM     78  F   UNL A   1      52.553  25.954  27.837  1.00  0.00    -0.200 F 
ATOM     79  F   UNL A   1      53.262  26.132  25.208  1.00  0.00    -0.200 F 
ENDBRANCH  45  69
BRANCH  57  80
ATOM     80  C   UNL A   1      46.091  32.549  28.806  1.00  0.00     0.064 A 
ATOM     81  C   UNL A   1      46.587  32.857  30.081  1.00  0.00     0.173 A 
ATOM     82  C   UNL A   1      46.084  33.564  27.838  1.00  0.00     0.173 A 
ATOM     83  F   UNL A   1      46.596  31.924  31.044  1.00  0.00    -0.203 F 
ATOM     84  C   UNL A   1      47.037  34.139  30.381  1.00  0.00     0.198 A 
ATOM     85  C   UNL A   1      46.560  34.838  28.135  1.00  0.00     0.198 A 
ATOM     86  F   UNL A   1      45.624  33.317  26.603  1.00  0.00    -0.203 F 
ATOM     87  F   UNL A   1      47.466  34.424  31.619  1.00  0.00    -0.200 F 
ATOM     88  C   UNL A   1      47.029  35.126  29.407  1.00  0.00     0.200 A 
ATOM     89  F   UNL A   1      46.560  35.788  27.189  1.00  0.00    -0.200 F 
ATOM     90  F   UNL A   1      47.467  36.360  29.697  1.00  0.00    -0.200 F 
ENDBRANCH  57  80
ENDBRANCH  31  32
ENDBRANCH  23  26
ENDBRANCH  21  22
ENDBRANCH  20  21
ENDBRANCH  19  20
ENDBRANCH   3  19
TORSDOF 15
ENDMDL
MODEL 2
REMARK VINA RESULT:     -10.3      1.455      2.536
REMARK SMILES C[C@H](SCC[NH3+])c1ccc(C(=O)NCCCNC(=O)c2ccc(-c3c4nc(c(-c5c(F)c(F)c(F)c(F)c5F)c5ccc([nH]5)c(-c5c(F)c(F)c(F)c(F)c5F)c5nc(c(-c6c(F)c(F)c(F)c(F)c6F)c6ccc3[nH]6)C=C5)C=C4)cc2)o1
REMARK SMILES IDX 11 1 12 2 13 3 10 5 7 6 8 7 83 8 9 9 2 10 1 11 3 12 4 13
REMARK SMILES IDX 5 14 6 15 14 19 15 20 16 21 17 22 18 23 19 25 20 26 21 27
REMARK SMILES IDX 82 28 22 29 81 30 23 31 24 32 25 33 75 34 26 35 80 36 74 37
REMARK SMILES IDX 76 38 27 39 79 40 73 41 72 42 28 44 60 45 40 46 59 47 41 48
REMARK SMILES IDX 44 49 58 50 77 51 42 52 43 53 57 55 78 56 45 57 29 58 30 59
REMARK SMILES IDX 38 60 31 61 32 62 36 63 39 64 33 65 34 66 37 67 35 68 61 69
REMARK SMILES IDX 62 70 70 71 63 72 64 73 68 74 71 75 65 76 66 77 69 78 67 79
REMARK SMILES IDX 46 80 47 81 55 82 48 83 49 84 53 85 56 86 50 87 51 88 54 89
REMARK SMILES IDX 52 90
REMARK H PARENT 13 4 6 16 6 17 6 18 17 24 76 43 44 54
REMARK Flexibility Score: inf
ROOT
ATOM      1  C   UNL A   1      37.357  23.410  25.763  1.00  0.00     0.286 C 
ATOM      2  O   UNL A   1      38.161  24.202  26.259  1.00  0.00    -0.266 OA
ATOM      3  N   UNL A   1      37.913  22.361  25.063  1.00  0.00    -0.349 N 
ATOM      4  H   UNL A   1      38.886  22.424  24.933  1.00  0.00     0.163 HD
ENDROOT
BRANCH   1   5
ATOM      5  C   UNL A   1      35.919  23.547  25.898  1.00  0.00     0.191 A 
ATOM      6  C   UNL A   1      33.977  24.487  25.387  1.00  0.00     0.117 A 
ATOM      7  C   UNL A   1      33.702  23.504  26.311  1.00  0.00     0.047 A 
ATOM      8  O   UNL A   1      35.314  24.510  25.126  1.00  0.00    -0.455 OA
ATOM      9  C   UNL A   1      34.939  22.895  26.626  1.00  0.00     0.056 A 
BRANCH   6  10
ATOM     10  C   UNL A   1      33.106  25.451  24.656  1.00  0.00     0.110 C 
ATOM     11  C   UNL A   1      33.681  25.757  23.270  1.00  0.00     0.028 C 
BRANCH  10  12
ATOM     12  S   UNL A   1      32.843  27.038  25.535  1.00  0.00    -0.145 SA
BRANCH  12  13
ATOM     13  C   UNL A   1      31.255  26.757  26.397  1.00  0.00     0.131 C 
BRANCH  13  14
ATOM     14  C   UNL A   1      30.236  25.894  25.640  1.00  0.00     0.269 C 
BRANCH  14  15
ATOM     15  N   UNL A   1      29.414  25.027  26.489  1.00  0.00    -0.357 N 
ATOM     16  H   UNL A   1      28.723  25.591  26.982  1.00  0.00     0.344 HD
ATOM     17  H   UNL A   1      30.011  24.550  27.165  1.00  0.00     0.344 HD
ATOM     18  H   UNL A   1      28.939  24.336  25.909  1.00  0.00     0.344 HD
ENDBRANCH  14  15
ENDBRANCH  13  14
ENDBRANCH  12  13
ENDBRANCH  10  12
ENDBRANCH   6  10
ENDBRANCH   1   5
BRANCH   3  19
ATOM     19  C   UNL A   1      37.301  21.182  24.485  1.00  0.00     0.118 C 
BRANCH  19  20
ATOM     20  C   UNL A   1      38.083  19.911  24.809  1.00  0.00     0.042 C 
BRANCH  20  21
ATOM     21  C   UNL A   1      38.971  20.029  26.048  1.00  0.00     0.118 C 
BRANCH  21  22
ATOM     22  N   UNL A   1      40.144  19.172  25.970  1.00  0.00    -0.352 N 
ATOM     23  C   UNL A   1      41.480  19.476  26.028  1.00  0.00     0.251 C 
ATOM     24  H   UNL A   1      39.947  18.214  25.857  1.00  0.00     0.163 HD
ATOM     25  O   UNL A   1      42.303  18.610  25.738  1.00  0.00    -0.269 OA
BRANCH  23  26
ATOM     26  C   UNL A   1      41.952  20.822  26.425  1.00  0.00     0.039 A 
ATOM     27  C   UNL A   1      42.136  21.784  25.425  1.00  0.00     0.014 A 
ATOM     28  C   UNL A   1      42.291  21.124  27.746  1.00  0.00     0.014 A 
ATOM     29  C   UNL A   1      42.616  23.054  25.753  1.00  0.00     0.010 A 
ATOM     30  C   UNL A   1      42.712  22.411  28.084  1.00  0.00     0.010 A 
ATOM     31  C   UNL A   1      42.889  23.386  27.089  1.00  0.00    -0.014 A 
BRANCH  31  32
ATOM     32  C   UNL A   1      43.372  24.740  27.460  1.00  0.00     0.031 A 
ATOM     33  C   UNL A   1      42.426  25.748  28.051  1.00  0.00     0.074 A 
ATOM     34  C   UNL A   1      44.651  25.081  27.214  1.00  0.00     0.049 A 
ATOM     35  N   UNL A   1      42.642  26.999  28.373  1.00  0.00    -0.248 NA
ATOM     36  C   UNL A   1      41.046  25.298  28.290  1.00  0.00     0.031 C 
ATOM     37  C   UNL A   1      45.656  24.206  26.610  1.00  0.00     0.029 A 
ATOM     38  N   UNL A   1      45.322  26.257  27.434  1.00  0.00    -0.354 N 
ATOM     39  C   UNL A   1      41.426  27.488  28.831  1.00  0.00     0.074 A 
ATOM     40  C   UNL A   1      40.466  26.413  28.709  1.00  0.00     0.031 C 
ATOM     41  C   UNL A   1      46.819  24.872  26.520  1.00  0.00     0.029 A 
ATOM     42  C   UNL A   1      46.635  26.227  27.032  1.00  0.00     0.049 A 
ATOM     43  H   UNL A   1      44.902  27.050  27.842  1.00  0.00     0.167 HD
ATOM     44  C   UNL A   1      41.140  28.718  29.325  1.00  0.00     0.037 A 
ATOM     45  C   UNL A   1      47.580  27.183  27.068  1.00  0.00     0.037 A 
ATOM     46  C   UNL A   1      42.104  29.776  29.477  1.00  0.00     0.049 A 
ATOM     47  C   UNL A   1      47.243  28.533  27.639  1.00  0.00     0.074 A 
ATOM     48  C   UNL A   1      41.925  31.037  30.020  1.00  0.00     0.029 A 
ATOM     49  N   UNL A   1      43.432  29.694  29.087  1.00  0.00    -0.354 N 
ATOM     50  N   UNL A   1      46.102  28.966  28.118  1.00  0.00    -0.248 NA
ATOM     51  C   UNL A   1      48.326  29.524  27.680  1.00  0.00     0.031 C 
ATOM     52  C   UNL A   1      43.137  31.730  29.928  1.00  0.00     0.029 A 
ATOM     53  C   UNL A   1      44.081  30.888  29.366  1.00  0.00     0.049 A 
ATOM     54  H   UNL A   1      43.852  28.907  28.674  1.00  0.00     0.167 HD
ATOM     55  C   UNL A   1      46.337  30.266  28.542  1.00  0.00     0.074 A 
ATOM     56  C   UNL A   1      47.731  30.549  28.274  1.00  0.00     0.031 C 
ATOM     57  C   UNL A   1      45.473  31.148  29.102  1.00  0.00     0.037 A 
BRANCH  44  58
ATOM     58  C   UNL A   1      39.724  28.984  29.741  1.00  0.00     0.064 A 
ATOM     59  C   UNL A   1      39.287  28.745  31.053  1.00  0.00     0.173 A 
ATOM     60  C   UNL A   1      38.801  29.519  28.829  1.00  0.00     0.173 A 
ATOM     61  F   UNL A   1      40.127  28.225  31.960  1.00  0.00    -0.203 F 
ATOM     62  C   UNL A   1      37.971  29.005  31.428  1.00  0.00     0.198 A 
ATOM     63  C   UNL A   1      37.494  29.803  29.215  1.00  0.00     0.198 A 
ATOM     64  F   UNL A   1      39.170  29.772  27.564  1.00  0.00    -0.203 F 
ATOM     65  F   UNL A   1      37.564  28.726  32.674  1.00  0.00    -0.200 F 
ATOM     66  C   UNL A   1      37.078  29.540  30.512  1.00  0.00     0.200 A 
ATOM     67  F   UNL A   1      36.635  30.330  28.331  1.00  0.00    -0.200 F 
ATOM     68  F   UNL A   1      35.813  29.794  30.876  1.00  0.00    -0.200 F 
ENDBRANCH  44  58
BRANCH  45  69
ATOM     69  C   UNL A   1      48.948  26.887  26.573  1.00  0.00     0.064 A 
ATOM     70  C   UNL A   1      49.940  26.418  27.446  1.00  0.00     0.173 A 
ATOM     71  C   UNL A   1      49.293  27.063  25.226  1.00  0.00     0.173 A 
ATOM     72  F   UNL A   1      49.662  26.254  28.748  1.00  0.00    -0.203 F 
ATOM     73  C   UNL A   1      51.229  26.149  26.992  1.00  0.00     0.198 A 
ATOM     74  C   UNL A   1      50.575  26.771  24.768  1.00  0.00     0.198 A 
ATOM     75  F   UNL A   1      48.378  27.506  24.351  1.00  0.00    -0.203 F 
ATOM     76  F   UNL A   1      52.168  25.738  27.854  1.00  0.00    -0.200 F 
ATOM     77  C   UNL A   1      51.544  26.321  25.652  1.00  0.00     0.200 A 
ATOM     78  F   UNL A   1      50.873  26.925  23.471  1.00  0.00    -0.200 F 
ATOM     79  F   UNL A   1      52.783  26.057  25.215  1.00  0.00    -0.200 F 
ENDBRANCH  45  69
BRANCH  57  80
ATOM     80  C   UNL A   1      46.019  32.489  29.493  1.00  0.00     0.064 A 
ATOM     81  C   UNL A   1      45.991  33.579  28.612  1.00  0.00     0.173 A 
ATOM     82  C   UNL A   1      46.549  32.692  30.776  1.00  0.00     0.173 A 
ATOM     83  F   UNL A   1      45.510  33.429  27.369  1.00  0.00    -0.203 F 
ATOM     84  C   UNL A   1      46.495  34.819  28.993  1.00  0.00     0.198 A 
ATOM     85  C   UNL A   1      47.029  33.940  31.163  1.00  0.00     0.198 A 
ATOM     86  F   UNL A   1      46.594  31.680  31.656  1.00  0.00    -0.203 F 
ATOM     87  F   UNL A   1      46.498  35.836  28.121  1.00  0.00    -0.200 F 
ATOM     88  C   UNL A   1      47.007  35.000  30.270  1.00  0.00     0.200 A 
ATOM     89  F   UNL A   1      47.516  34.115  32.400  1.00  0.00    -0.200 F 
ATOM     90  F   UNL A   1      47.489  36.195  30.637  1.00  0.00    -0.200 F 
ENDBRANCH  57  80
ENDBRANCH  31  32
ENDBRANCH  23  26
ENDBRANCH  21  22
ENDBRANCH  20  21
ENDBRANCH  19  20
ENDBRANCH   3  19
TORSDOF 15
ENDMDL
MODEL 3
REMARK VINA RESULT:     -10.2      1.254      7.604
REMARK SMILES C[C@H](SCC[NH3+])c1ccc(C(=O)NCCCNC(=O)c2ccc(-c3c4nc(c(-c5c(F)c(F)c(F)c(F)c5F)c5ccc([nH]5)c(-c5c(F)c(F)c(F)c(F)c5F)c5nc(c(-c6c(F)c(F)c(F)c(F)c6F)c6ccc3[nH]6)C=C5)C=C4)cc2)o1
REMARK SMILES IDX 11 1 12 2 13 3 10 5 7 6 8 7 83 8 9 9 2 10 1 11 3 12 4 13
REMARK SMILES IDX 5 14 6 15 14 19 15 20 16 21 17 22 18 23 19 25 20 26 21 27
REMARK SMILES IDX 82 28 22 29 81 30 23 31 24 32 25 33 75 34 26 35 80 36 74 37
REMARK SMILES IDX 76 38 27 39 79 40 73 41 72 42 28 44 60 45 40 46 59 47 41 48
REMARK SMILES IDX 44 49 58 50 77 51 42 52 43 53 57 55 78 56 45 57 29 58 30 59
REMARK SMILES IDX 38 60 31 61 32 62 36 63 39 64 33 65 34 66 37 67 35 68 61 69
REMARK SMILES IDX 62 70 70 71 63 72 64 73 68 74 71 75 65 76 66 77 69 78 67 79
REMARK SMILES IDX 46 80 47 81 55 82 48 83 49 84 53 85 56 86 50 87 51 88 54 89
REMARK SMILES IDX 52 90
REMARK H PARENT 13 4 6 16 6 17 6 18 17 24 76 43 44 54
REMARK Flexibility Score: inf
ROOT
ATOM      1  C   UNL A   1      37.399  23.309  25.770  1.00  0.00     0.286 C 
ATOM      2  O   UNL A   1      38.191  24.123  26.250  1.00  0.00    -0.266 OA
ATOM      3  N   UNL A   1      37.971  22.230  25.132  1.00  0.00    -0.349 N 
ATOM      4  H   UNL A   1      38.947  22.287  25.023  1.00  0.00     0.163 HD
ENDROOT
BRANCH   1   5
ATOM      5  C   UNL A   1      35.958  23.450  25.864  1.00  0.00     0.191 A 
ATOM      6  C   UNL A   1      34.014  24.266  25.178  1.00  0.00     0.117 A 
ATOM      7  C   UNL A   1      33.737  23.454  26.256  1.00  0.00     0.047 A 
ATOM      8  O   UNL A   1      35.354  24.258  24.931  1.00  0.00    -0.455 OA
ATOM      9  C   UNL A   1      34.975  22.923  26.684  1.00  0.00     0.056 A 
BRANCH   6  10
ATOM     10  C   UNL A   1      33.143  25.079  24.282  1.00  0.00     0.110 C 
ATOM     11  C   UNL A   1      31.726  25.182  24.852  1.00  0.00     0.028 C 
BRANCH  10  12
ATOM     12  S   UNL A   1      33.031  24.440  22.567  1.00  0.00    -0.145 SA
BRANCH  12  13
ATOM     13  C   UNL A   1      33.341  22.652  22.787  1.00  0.00     0.131 C 
BRANCH  13  14
ATOM     14  C   UNL A   1      32.089  21.767  22.854  1.00  0.00     0.269 C 
BRANCH  14  15
ATOM     15  N   UNL A   1      31.719  21.129  21.588  1.00  0.00    -0.357 N 
ATOM     16  H   UNL A   1      31.919  20.131  21.640  1.00  0.00     0.344 HD
ATOM     17  H   UNL A   1      32.257  21.545  20.828  1.00  0.00     0.344 HD
ATOM     18  H   UNL A   1      30.724  21.268  21.416  1.00  0.00     0.344 HD
ENDBRANCH  14  15
ENDBRANCH  13  14
ENDBRANCH  12  13
ENDBRANCH  10  12
ENDBRANCH   6  10
ENDBRANCH   1   5
BRANCH   3  19
ATOM     19  C   UNL A   1      37.373  21.025  24.594  1.00  0.00     0.118 C 
BRANCH  19  20
ATOM     20  C   UNL A   1      38.228  19.788  24.862  1.00  0.00     0.042 C 
BRANCH  20  21
ATOM     21  C   UNL A   1      39.070  19.883  26.134  1.00  0.00     0.118 C 
BRANCH  21  22
ATOM     22  N   UNL A   1      40.298  19.105  26.043  1.00  0.00    -0.352 N 
ATOM     23  C   UNL A   1      41.610  19.501  26.052  1.00  0.00     0.251 C 
ATOM     24  H   UNL A   1      40.163  18.134  25.962  1.00  0.00     0.163 HD
ATOM     25  O   UNL A   1      42.482  18.686  25.760  1.00  0.00    -0.269 OA
BRANCH  23  26
ATOM     26  C   UNL A   1      42.000  20.887  26.400  1.00  0.00     0.039 A 
ATOM     27  C   UNL A   1      42.115  21.824  25.367  1.00  0.00     0.014 A 
ATOM     28  C   UNL A   1      42.330  21.254  27.707  1.00  0.00     0.014 A 
ATOM     29  C   UNL A   1      42.517  23.133  25.648  1.00  0.00     0.010 A 
ATOM     30  C   UNL A   1      42.671  22.575  27.997  1.00  0.00     0.010 A 
ATOM     31  C   UNL A   1      42.778  23.525  26.969  1.00  0.00    -0.014 A 
BRANCH  31  32
ATOM     32  C   UNL A   1      43.178  24.919  27.290  1.00  0.00     0.031 A 
ATOM     33  C   UNL A   1      44.585  25.384  27.033  1.00  0.00     0.074 A 
ATOM     34  C   UNL A   1      42.288  25.752  27.862  1.00  0.00     0.049 A 
ATOM     35  N   UNL A   1      45.141  26.537  27.309  1.00  0.00    -0.248 NA
ATOM     36  C   UNL A   1      45.495  24.414  26.403  1.00  0.00     0.031 C 
ATOM     37  C   UNL A   1      40.906  25.410  28.197  1.00  0.00     0.029 A 
ATOM     38  N   UNL A   1      42.418  27.055  28.273  1.00  0.00    -0.354 N 
ATOM     39  C   UNL A   1      46.466  26.424  26.908  1.00  0.00     0.074 A 
ATOM     40  C   UNL A   1      46.642  25.079  26.406  1.00  0.00     0.031 C 
ATOM     41  C   UNL A   1      40.311  26.480  28.748  1.00  0.00     0.029 A 
ATOM     42  C   UNL A   1      41.276  27.572  28.834  1.00  0.00     0.049 A 
ATOM     43  H   UNL A   1      43.251  27.571  28.175  1.00  0.00     0.167 HD
ATOM     44  C   UNL A   1      47.442  27.364  26.940  1.00  0.00     0.037 A 
ATOM     45  C   UNL A   1      41.037  28.786  29.361  1.00  0.00     0.037 A 
ATOM     46  C   UNL A   1      47.257  28.712  27.408  1.00  0.00     0.049 A 
ATOM     47  C   UNL A   1      42.131  29.818  29.366  1.00  0.00     0.074 A 
ATOM     48  C   UNL A   1      48.169  29.753  27.427  1.00  0.00     0.029 A 
ATOM     49  N   UNL A   1      46.075  29.206  27.940  1.00  0.00    -0.354 N 
ATOM     50  N   UNL A   1      43.365  29.716  28.934  1.00  0.00    -0.248 NA
ATOM     51  C   UNL A   1      41.797  31.134  29.926  1.00  0.00     0.031 C 
ATOM     52  C   UNL A   1      47.548  30.869  28.000  1.00  0.00     0.029 A 
ATOM     53  C   UNL A   1      46.239  30.535  28.301  1.00  0.00     0.049 A 
ATOM     54  H   UNL A   1      45.244  28.691  28.045  1.00  0.00     0.167 HD
ATOM     55  C   UNL A   1      43.945  30.959  29.144  1.00  0.00     0.074 A 
ATOM     56  C   UNL A   1      42.925  31.803  29.731  1.00  0.00     0.031 C 
ATOM     57  C   UNL A   1      45.210  31.363  28.875  1.00  0.00     0.037 A 
BRANCH  44  58
ATOM     58  C   UNL A   1      48.802  26.965  26.449  1.00  0.00     0.064 A 
ATOM     59  C   UNL A   1      49.757  26.399  27.308  1.00  0.00     0.173 A 
ATOM     60  C   UNL A   1      49.144  27.116  25.096  1.00  0.00     0.173 A 
ATOM     61  F   UNL A   1      49.483  26.244  28.612  1.00  0.00    -0.203 F 
ATOM     62  C   UNL A   1      51.013  26.026  26.836  1.00  0.00     0.198 A 
ATOM     63  C   UNL A   1      50.391  26.716  24.623  1.00  0.00     0.198 A 
ATOM     64  F   UNL A   1      48.265  27.645  24.231  1.00  0.00    -0.203 F 
ATOM     65  F   UNL A   1      51.924  25.530  27.684  1.00  0.00    -0.200 F 
ATOM     66  C   UNL A   1      51.327  26.178  25.494  1.00  0.00     0.200 A 
ATOM     67  F   UNL A   1      50.689  26.854  23.323  1.00  0.00    -0.200 F 
ATOM     68  F   UNL A   1      52.535  25.814  25.042  1.00  0.00    -0.200 F 
ENDBRANCH  44  58
BRANCH  45  69
ATOM     69  C   UNL A   1      39.691  29.104  29.901  1.00  0.00     0.064 A 
ATOM     70  C   UNL A   1      38.687  29.620  29.069  1.00  0.00     0.173 A 
ATOM     71  C   UNL A   1      39.378  28.897  31.252  1.00  0.00     0.173 A 
ATOM     72  F   UNL A   1      38.947  29.853  27.774  1.00  0.00    -0.203 F 
ATOM     73  C   UNL A   1      37.426  29.930  29.571  1.00  0.00     0.198 A 
ATOM     74  C   UNL A   1      38.109  29.185  31.748  1.00  0.00     0.198 A 
ATOM     75  F   UNL A   1      40.302  28.401  32.087  1.00  0.00    -0.203 F 
ATOM     76  F   UNL A   1      36.497  30.458  28.763  1.00  0.00    -0.200 F 
ATOM     77  C   UNL A   1      37.136  29.708  30.909  1.00  0.00     0.200 A 
ATOM     78  F   UNL A   1      37.827  28.958  33.038  1.00  0.00    -0.200 F 
ATOM     79  F   UNL A   1      35.920  30.003  31.390  1.00  0.00    -0.200 F 
ENDBRANCH  45  69
BRANCH  57  80
ATOM     80  C   UNL A   1      45.553  32.792  29.181  1.00  0.00     0.064 A 
ATOM     81  C   UNL A   1      46.087  33.168  30.422  1.00  0.00     0.173 A 
ATOM     82  C   UNL A   1      45.372  33.788  28.211  1.00  0.00     0.173 A 
ATOM     83  F   UNL A   1      46.261  32.253  31.387  1.00  0.00    -0.203 F 
ATOM     84  C   UNL A   1      46.407  34.496  30.688  1.00  0.00     0.198 A 
ATOM     85  C   UNL A   1      45.717  35.111  28.472  1.00  0.00     0.198 A 
ATOM     86  F   UNL A   1      44.868  33.476  27.007  1.00  0.00    -0.203 F 
ATOM     87  F   UNL A   1      46.876  34.842  31.895  1.00  0.00    -0.200 F 
ATOM     88  C   UNL A   1      46.228  35.465  29.711  1.00  0.00     0.200 A 
ATOM     89  F   UNL A   1      45.552  36.044  27.523  1.00  0.00    -0.200 F 
ATOM     90  F   UNL A   1      46.540  36.743  29.967  1.00  0.00    -0.200 F 
ENDBRANCH  57  80
ENDBRANCH  31  32
ENDBRANCH  23  26
ENDBRANCH  21  22
ENDBRANCH  20  21
ENDBRANCH  19  20
ENDBRANCH   3  19
TORSDOF 15
ENDMDL
