MODEL 1
REMARK VINA RESULT:     -11.1      0.000      0.000
REMARK SMILES CC(C)(C[C@@H](O)C(F)(F)F)C(=O)NCCCNC(=O)c1ccc(-c2c3nc(c(-c4c(F)c(F)c(F)c(F)c4F)c4ccc([nH]4)c(-c4c(F)c(F)c(F)c(F)c4F)c4nc(c(-c5c(F)c(F)c(F)c(F)c5F)c5ccc2[nH]5)C=C4)C=C3)cc1
REMARK SMILES IDX 14 1 13 2 11 3 12 4 2 6 1 7 3 8 4 9 5 10 6 11 7 13 8 14 9 15
REMARK SMILES IDX 10 16 15 17 16 18 17 19 18 20 19 22 20 23 21 24 82 25 22 26
REMARK SMILES IDX 81 27 23 28 24 29 25 30 75 31 26 32 80 33 74 34 76 35 27 36
REMARK SMILES IDX 79 37 73 38 72 39 28 41 60 42 40 43 59 44 41 45 44 46 58 47
REMARK SMILES IDX 77 48 42 49 43 50 57 52 78 53 45 54 29 55 30 56 38 57 31 58
REMARK SMILES IDX 32 59 36 60 39 61 33 62 34 63 37 64 35 65 61 66 62 67 70 68
REMARK SMILES IDX 63 69 64 70 68 71 71 72 65 73 66 74 69 75 67 76 46 77 47 78
REMARK SMILES IDX 55 79 48 80 49 81 53 82 56 83 50 84 51 85 54 86 52 87
REMARK H PARENT 13 5 6 12 17 21 76 40 44 51
REMARK Flexibility Score: inf
ROOT
ATOM      1  C   UNL A   1      31.390  30.689  26.310  1.00  0.00     0.117 C 
ENDROOT
BRANCH   1   2
ATOM      2  N   UNL A   1      32.439  30.248  25.407  1.00  0.00    -0.356 N 
ATOM      3  C   UNL A   1      32.735  29.051  24.841  1.00  0.00     0.225 C 
ATOM      4  O   UNL A   1      33.826  28.986  24.261  1.00  0.00    -0.275 OA
ATOM      5  H   UNL A   1      33.063  30.965  25.152  1.00  0.00     0.163 HD
BRANCH   3   6
ATOM      6  C   UNL A   1      31.836  27.803  24.951  1.00  0.00     0.046 C 
ATOM      7  C   UNL A   1      31.482  27.583  26.444  1.00  0.00     0.021 C 
ATOM      8  C   UNL A   1      32.613  26.542  24.523  1.00  0.00     0.021 C 
BRANCH   6   9
ATOM      9  C   UNL A   1      30.525  27.951  24.136  1.00  0.00     0.057 C 
BRANCH   9  10
ATOM     10  C   UNL A   1      30.638  28.665  22.769  1.00  0.00     0.220 C 
BRANCH  10  11
ATOM     11  O   UNL A   1      30.708  27.703  21.705  1.00  0.00    -0.384 OA
ATOM     12  H   UNL A   1      29.924  27.133  21.733  1.00  0.00     0.211 HD
ENDBRANCH  10  11
BRANCH  10  13
ATOM     13  C   UNL A   1      29.445  29.623  22.575  1.00  0.00     0.414 C 
ATOM     14  F   UNL A   1      29.426  30.566  23.548  1.00  0.00    -0.168 F 
ATOM     15  F   UNL A   1      29.518  30.271  21.391  1.00  0.00    -0.168 F 
ATOM     16  F   UNL A   1      28.261  28.971  22.622  1.00  0.00    -0.168 F 
ENDBRANCH  10  13
ENDBRANCH   9  10
ENDBRANCH   6   9
ENDBRANCH   3   6
ENDBRANCH   1   2
BRANCH   1  17
ATOM     17  C   UNL A   1      31.366  32.205  26.489  1.00  0.00     0.042 C 
BRANCH  17  18
ATOM     18  C   UNL A   1      32.617  32.788  27.137  1.00  0.00     0.118 C 
BRANCH  18  19
ATOM     19  N   UNL A   1      32.424  34.155  27.604  1.00  0.00    -0.352 N 
ATOM     20  C   UNL A   1      33.020  34.846  28.628  1.00  0.00     0.251 C 
ATOM     21  H   UNL A   1      31.754  34.669  27.098  1.00  0.00     0.163 HD
ATOM     22  O   UNL A   1      32.559  35.937  28.963  1.00  0.00    -0.269 OA
BRANCH  20  23
ATOM     23  C   UNL A   1      34.193  34.302  29.347  1.00  0.00     0.039 A 
ATOM     24  C   UNL A   1      33.983  33.596  30.537  1.00  0.00     0.014 A 
ATOM     25  C   UNL A   1      35.496  34.524  28.897  1.00  0.00     0.014 A 
ATOM     26  C   UNL A   1      35.069  33.060  31.235  1.00  0.00     0.010 A 
ATOM     27  C   UNL A   1      36.572  33.926  29.550  1.00  0.00     0.010 A 
ATOM     28  C   UNL A   1      36.371  33.192  30.728  1.00  0.00    -0.014 A 
BRANCH  28  29
ATOM     29  C   UNL A   1      37.535  32.574  31.415  1.00  0.00     0.031 A 
ATOM     30  C   UNL A   1      38.266  31.425  30.778  1.00  0.00     0.074 A 
ATOM     31  C   UNL A   1      37.889  33.001  32.642  1.00  0.00     0.049 A 
ATOM     32  N   UNL A   1      39.241  30.693  31.258  1.00  0.00    -0.248 NA
ATOM     33  C   UNL A   1      37.824  31.024  29.434  1.00  0.00     0.031 C 
ATOM     34  C   UNL A   1      37.233  34.076  33.385  1.00  0.00     0.029 A 
ATOM     35  N   UNL A   1      38.880  32.569  33.488  1.00  0.00    -0.354 N 
ATOM     36  C   UNL A   1      39.510  29.736  30.289  1.00  0.00     0.074 A 
ATOM     37  C   UNL A   1      38.570  29.952  29.210  1.00  0.00     0.031 C 
ATOM     38  C   UNL A   1      37.848  34.232  34.568  1.00  0.00     0.029 A 
ATOM     39  C   UNL A   1      38.917  33.245  34.682  1.00  0.00     0.049 A 
ATOM     40  H   UNL A   1      39.506  31.844  33.259  1.00  0.00     0.167 HD
ATOM     41  C   UNL A   1      40.467  28.778  30.290  1.00  0.00     0.037 A 
ATOM     42  C   UNL A   1      39.717  33.081  35.752  1.00  0.00     0.037 A 
ATOM     43  C   UNL A   1      41.424  28.588  31.348  1.00  0.00     0.049 A 
ATOM     44  C   UNL A   1      40.780  32.018  35.723  1.00  0.00     0.074 A 
ATOM     45  C   UNL A   1      42.475  27.688  31.410  1.00  0.00     0.029 A 
ATOM     46  N   UNL A   1      41.448  29.313  32.530  1.00  0.00    -0.354 N 
ATOM     47  N   UNL A   1      41.065  31.160  34.774  1.00  0.00    -0.248 NA
ATOM     48  C   UNL A   1      41.637  31.905  36.912  1.00  0.00     0.031 C 
ATOM     49  C   UNL A   1      43.112  27.845  32.645  1.00  0.00     0.029 A 
ATOM     50  C   UNL A   1      42.485  28.870  33.334  1.00  0.00     0.049 A 
ATOM     51  H   UNL A   1      40.821  30.036  32.762  1.00  0.00     0.167 HD
ATOM     52  C   UNL A   1      42.145  30.423  35.238  1.00  0.00     0.074 A 
ATOM     53  C   UNL A   1      42.476  30.945  36.549  1.00  0.00     0.031 C 
ATOM     54  C   UNL A   1      42.805  29.406  34.633  1.00  0.00     0.037 A 
BRANCH  41  55
ATOM     55  C   UNL A   1      40.530  27.861  29.103  1.00  0.00     0.064 A 
ATOM     56  C   UNL A   1      41.393  28.114  28.024  1.00  0.00     0.173 A 
ATOM     57  C   UNL A   1      39.746  26.700  29.058  1.00  0.00     0.173 A 
ATOM     58  F   UNL A   1      42.154  29.218  28.015  1.00  0.00    -0.203 F 
ATOM     59  C   UNL A   1      41.445  27.252  26.933  1.00  0.00     0.198 A 
ATOM     60  C   UNL A   1      39.822  25.825  27.977  1.00  0.00     0.198 A 
ATOM     61  F   UNL A   1      38.910  26.408  30.066  1.00  0.00    -0.203 F 
ATOM     62  F   UNL A   1      42.242  27.538  25.893  1.00  0.00    -0.200 F 
ATOM     63  C   UNL A   1      40.666  26.106  26.912  1.00  0.00     0.200 A 
ATOM     64  F   UNL A   1      39.078  24.711  27.964  1.00  0.00    -0.200 F 
ATOM     65  F   UNL A   1      40.722  25.274  25.863  1.00  0.00    -0.200 F 
ENDBRANCH  41  55
BRANCH  42  66
ATOM     66  C   UNL A   1      39.560  33.967  36.935  1.00  0.00     0.064 A 
ATOM     67  C   UNL A   1      38.786  33.565  38.032  1.00  0.00     0.173 A 
ATOM     68  C   UNL A   1      40.179  35.223  36.995  1.00  0.00     0.173 A 
ATOM     69  F   UNL A   1      38.158  32.380  38.010  1.00  0.00    -0.203 F 
ATOM     70  C   UNL A   1      38.624  34.393  39.140  1.00  0.00     0.198 A 
ATOM     71  C   UNL A   1      40.038  36.040  38.115  1.00  0.00     0.198 A 
ATOM     72  F   UNL A   1      40.933  35.650  35.972  1.00  0.00    -0.203 F 
ATOM     73  F   UNL A   1      37.847  34.002  40.160  1.00  0.00    -0.200 F 
ATOM     74  C   UNL A   1      39.255  35.628  39.183  1.00  0.00     0.200 A 
ATOM     75  F   UNL A   1      40.657  37.228  38.159  1.00  0.00    -0.200 F 
ATOM     76  F   UNL A   1      39.102  36.422  40.251  1.00  0.00    -0.200 F 
ENDBRANCH  42  66
BRANCH  54  77
ATOM     77  C   UNL A   1      43.970  28.811  35.366  1.00  0.00     0.064 A 
ATOM     78  C   UNL A   1      45.276  29.288  35.179  1.00  0.00     0.173 A 
ATOM     79  C   UNL A   1      43.773  27.777  36.292  1.00  0.00     0.173 A 
ATOM     80  F   UNL A   1      45.518  30.265  34.291  1.00  0.00    -0.203 F 
ATOM     81  C   UNL A   1      46.346  28.737  35.880  1.00  0.00     0.198 A 
ATOM     82  C   UNL A   1      44.840  27.246  37.011  1.00  0.00     0.198 A 
ATOM     83  F   UNL A   1      42.542  27.289  36.509  1.00  0.00    -0.203 F 
ATOM     84  F   UNL A   1      47.590  29.180  35.657  1.00  0.00    -0.200 F 
ATOM     85  C   UNL A   1      46.125  27.722  36.800  1.00  0.00     0.200 A 
ATOM     86  F   UNL A   1      44.625  26.273  37.907  1.00  0.00    -0.200 F 
ATOM     87  F   UNL A   1      47.155  27.196  37.479  1.00  0.00    -0.200 F 
ENDBRANCH  54  77
ENDBRANCH  28  29
ENDBRANCH  20  23
ENDBRANCH  18  19
ENDBRANCH  17  18
ENDBRANCH   1  17
TORSDOF 14
ENDMDL
MODEL 2
REMARK VINA RESULT:     -11.0      4.691     10.196
REMARK SMILES CC(C)(C[C@@H](O)C(F)(F)F)C(=O)NCCCNC(=O)c1ccc(-c2c3nc(c(-c4c(F)c(F)c(F)c(F)c4F)c4ccc([nH]4)c(-c4c(F)c(F)c(F)c(F)c4F)c4nc(c(-c5c(F)c(F)c(F)c(F)c5F)c5ccc2[nH]5)C=C4)C=C3)cc1
REMARK SMILES IDX 14 1 13 2 11 3 12 4 2 6 1 7 3 8 4 9 5 10 6 11 7 13 8 14 9 15
REMARK SMILES IDX 10 16 15 17 16 18 17 19 18 20 19 22 20 23 21 24 82 25 22 26
REMARK SMILES IDX 81 27 23 28 24 29 25 30 75 31 26 32 80 33 74 34 76 35 27 36
REMARK SMILES IDX 79 37 73 38 72 39 28 41 60 42 40 43 59 44 41 45 44 46 58 47
REMARK SMILES IDX 77 48 42 49 43 50 57 52 78 53 45 54 29 55 30 56 38 57 31 58
REMARK SMILES IDX 32 59 36 60 39 61 33 62 34 63 37 64 35 65 61 66 62 67 70 68
REMARK SMILES IDX 63 69 64 70 68 71 71 72 65 73 66 74 69 75 67 76 46 77 47 78
REMARK SMILES IDX 55 79 48 80 49 81 53 82 56 83 50 84 51 85 54 86 52 87
REMARK H PARENT 13 5 6 12 17 21 76 40 44 51
REMARK Flexibility Score: inf
ROOT
ATOM      1  C   UNL A   1      34.759  34.186  30.114  1.00  0.00     0.117 C 
ENDROOT
BRANCH   1   2
ATOM      2  N   UNL A   1      33.994  33.938  31.324  1.00  0.00    -0.356 N 
ATOM      3  C   UNL A   1      34.341  33.590  32.588  1.00  0.00     0.225 C 
ATOM      4  O   UNL A   1      33.406  33.275  33.334  1.00  0.00    -0.275 OA
ATOM      5  H   UNL A   1      33.022  34.047  31.201  1.00  0.00     0.163 HD
BRANCH   3   6
ATOM      6  C   UNL A   1      35.797  33.506  33.086  1.00  0.00     0.046 C 
ATOM      7  C   UNL A   1      36.374  32.123  32.688  1.00  0.00     0.021 C 
ATOM      8  C   UNL A   1      35.841  33.539  34.628  1.00  0.00     0.021 C 
BRANCH   6   9
ATOM      9  C   UNL A   1      36.690  34.620  32.481  1.00  0.00     0.057 C 
BRANCH   9  10
ATOM     10  C   UNL A   1      38.075  34.185  31.952  1.00  0.00     0.220 C 
BRANCH  10  11
ATOM     11  O   UNL A   1      38.413  34.920  30.766  1.00  0.00    -0.384 OA
ATOM     12  H   UNL A   1      39.099  35.572  30.975  1.00  0.00     0.211 HD
ENDBRANCH  10  11
BRANCH  10  13
ATOM     13  C   UNL A   1      39.143  34.378  33.048  1.00  0.00     0.414 C 
ATOM     14  F   UNL A   1      39.400  33.205  33.676  1.00  0.00    -0.168 F 
ATOM     15  F   UNL A   1      40.311  34.818  32.530  1.00  0.00    -0.168 F 
ATOM     16  F   UNL A   1      38.745  35.261  33.991  1.00  0.00    -0.168 F 
ENDBRANCH  10  13
ENDBRANCH   9  10
ENDBRANCH   6   9
ENDBRANCH   3   6
ENDBRANCH   1   2
BRANCH   1  17
ATOM     17  C   UNL A   1      35.141  32.900  29.385  1.00  0.00     0.042 C 
BRANCH  17  18
ATOM     18  C   UNL A   1      34.547  32.761  27.988  1.00  0.00     0.118 C 
BRANCH  18  19
ATOM     19  N   UNL A   1      33.897  31.474  27.778  1.00  0.00    -0.352 N 
ATOM     20  C   UNL A   1      34.413  30.204  27.740  1.00  0.00     0.251 C 
ATOM     21  H   UNL A   1      32.923  31.524  27.642  1.00  0.00     0.163 HD
ATOM     22  O   UNL A   1      33.700  29.278  27.355  1.00  0.00    -0.269 OA
BRANCH  20  23
ATOM     23  C   UNL A   1      35.812  29.926  28.137  1.00  0.00     0.039 A 
ATOM     24  C   UNL A   1      36.062  29.461  29.433  1.00  0.00     0.014 A 
ATOM     25  C   UNL A   1      36.880  30.170  27.272  1.00  0.00     0.014 A 
ATOM     26  C   UNL A   1      37.370  29.180  29.836  1.00  0.00     0.010 A 
ATOM     27  C   UNL A   1      38.176  29.818  27.647  1.00  0.00     0.010 A 
ATOM     28  C   UNL A   1      38.435  29.324  28.933  1.00  0.00    -0.014 A 
BRANCH  28  29
ATOM     29  C   UNL A   1      39.826  28.967  29.315  1.00  0.00     0.031 A 
ATOM     30  C   UNL A   1      40.650  29.914  30.143  1.00  0.00     0.074 A 
ATOM     31  C   UNL A   1      40.371  27.824  28.857  1.00  0.00     0.049 A 
ATOM     32  N   UNL A   1      41.908  29.827  30.498  1.00  0.00    -0.248 NA
ATOM     33  C   UNL A   1      39.980  31.137  30.611  1.00  0.00     0.031 C 
ATOM     34  C   UNL A   1      39.692  26.844  28.010  1.00  0.00     0.029 A 
ATOM     35  N   UNL A   1      41.629  27.302  29.027  1.00  0.00    -0.354 N 
ATOM     36  C   UNL A   1      42.184  30.989  31.206  1.00  0.00     0.074 A 
ATOM     37  C   UNL A   1      40.976  31.786  31.197  1.00  0.00     0.031 C 
ATOM     38  C   UNL A   1      40.534  25.831  27.748  1.00  0.00     0.029 A 
ATOM     39  C   UNL A   1      41.822  26.108  28.377  1.00  0.00     0.049 A 
ATOM     40  H   UNL A   1      42.327  27.741  29.566  1.00  0.00     0.167 HD
ATOM     41  C   UNL A   1      43.333  31.349  31.826  1.00  0.00     0.037 A 
ATOM     42  C   UNL A   1      42.915  25.328  28.291  1.00  0.00     0.037 A 
ATOM     43  C   UNL A   1      44.523  30.539  31.864  1.00  0.00     0.049 A 
ATOM     44  C   UNL A   1      44.175  25.745  28.997  1.00  0.00     0.074 A 
ATOM     45  C   UNL A   1      45.715  30.788  32.522  1.00  0.00     0.029 A 
ATOM     46  N   UNL A   1      44.669  29.321  31.217  1.00  0.00    -0.354 N 
ATOM     47  N   UNL A   1      44.405  26.817  29.716  1.00  0.00    -0.248 NA
ATOM     48  C   UNL A   1      45.328  24.840  28.885  1.00  0.00     0.031 C 
ATOM     49  C   UNL A   1      46.595  29.736  32.244  1.00  0.00     0.029 A 
ATOM     50  C   UNL A   1      45.937  28.814  31.447  1.00  0.00     0.049 A 
ATOM     51  H   UNL A   1      43.974  28.882  30.675  1.00  0.00     0.167 HD
ATOM     52  C   UNL A   1      45.714  26.704  30.162  1.00  0.00     0.074 A 
ATOM     53  C   UNL A   1      46.226  25.452  29.644  1.00  0.00     0.031 C 
ATOM     54  C   UNL A   1      46.428  27.561  30.931  1.00  0.00     0.037 A 
BRANCH  41  55
ATOM     55  C   UNL A   1      43.359  32.680  32.519  1.00  0.00     0.064 A 
ATOM     56  C   UNL A   1      43.772  33.846  31.856  1.00  0.00     0.173 A 
ATOM     57  C   UNL A   1      42.933  32.797  33.850  1.00  0.00     0.173 A 
ATOM     58  F   UNL A   1      44.199  33.784  30.586  1.00  0.00    -0.203 F 
ATOM     59  C   UNL A   1      43.784  35.075  32.510  1.00  0.00     0.198 A 
ATOM     60  C   UNL A   1      42.920  34.033  34.492  1.00  0.00     0.198 A 
ATOM     61  F   UNL A   1      42.522  31.715  34.528  1.00  0.00    -0.203 F 
ATOM     62  F   UNL A   1      44.227  36.167  31.871  1.00  0.00    -0.200 F 
ATOM     63  C   UNL A   1      43.353  35.170  33.824  1.00  0.00     0.200 A 
ATOM     64  F   UNL A   1      42.492  34.126  35.758  1.00  0.00    -0.200 F 
ATOM     65  F   UNL A   1      43.361  36.354  34.450  1.00  0.00    -0.200 F 
ENDBRANCH  41  55
BRANCH  42  66
ATOM     66  C   UNL A   1      42.858  24.057  27.524  1.00  0.00     0.064 A 
ATOM     67  C   UNL A   1      43.186  24.027  26.162  1.00  0.00     0.173 A 
ATOM     68  C   UNL A   1      42.483  22.852  28.133  1.00  0.00     0.173 A 
ATOM     69  F   UNL A   1      43.531  25.160  25.532  1.00  0.00    -0.203 F 
ATOM     70  C   UNL A   1      43.124  22.842  25.432  1.00  0.00     0.198 A 
ATOM     71  C   UNL A   1      42.446  21.662  27.409  1.00  0.00     0.198 A 
ATOM     72  F   UNL A   1      42.164  22.828  29.435  1.00  0.00    -0.203 F 
ATOM     73  F   UNL A   1      43.404  22.848  24.122  1.00  0.00    -0.200 F 
ATOM     74  C   UNL A   1      42.760  21.659  26.058  1.00  0.00     0.200 A 
ATOM     75  F   UNL A   1      42.104  20.518  28.019  1.00  0.00    -0.200 F 
ATOM     76  F   UNL A   1      42.705  20.519  25.358  1.00  0.00    -0.200 F 
ENDBRANCH  42  66
BRANCH  54  77
ATOM     77  C   UNL A   1      47.829  27.160  31.287  1.00  0.00     0.064 A 
ATOM     78  C   UNL A   1      48.928  27.575  30.522  1.00  0.00     0.173 A 
ATOM     79  C   UNL A   1      48.076  26.384  32.428  1.00  0.00     0.173 A 
ATOM     80  F   UNL A   1      48.742  28.306  29.412  1.00  0.00    -0.203 F 
ATOM     81  C   UNL A   1      50.224  27.209  30.876  1.00  0.00     0.198 A 
ATOM     82  C   UNL A   1      49.374  26.041  32.795  1.00  0.00     0.198 A 
ATOM     83  F   UNL A   1      47.057  25.966  33.195  1.00  0.00    -0.203 F 
ATOM     84  F   UNL A   1      51.257  27.581  30.109  1.00  0.00    -0.200 F 
ATOM     85  C   UNL A   1      50.446  26.449  32.015  1.00  0.00     0.200 A 
ATOM     86  F   UNL A   1      49.588  25.316  33.901  1.00  0.00    -0.200 F 
ATOM     87  F   UNL A   1      51.695  26.102  32.358  1.00  0.00    -0.200 F 
ENDBRANCH  54  77
ENDBRANCH  28  29
ENDBRANCH  20  23
ENDBRANCH  18  19
ENDBRANCH  17  18
ENDBRANCH   1  17
TORSDOF 14
ENDMDL
MODEL 3
REMARK VINA RESULT:     -11.0      4.657     10.274
REMARK SMILES CC(C)(C[C@@H](O)C(F)(F)F)C(=O)NCCCNC(=O)c1ccc(-c2c3nc(c(-c4c(F)c(F)c(F)c(F)c4F)c4ccc([nH]4)c(-c4c(F)c(F)c(F)c(F)c4F)c4nc(c(-c5c(F)c(F)c(F)c(F)c5F)c5ccc2[nH]5)C=C4)C=C3)cc1
REMARK SMILES IDX 14 1 13 2 11 3 12 4 2 6 1 7 3 8 4 9 5 10 6 11 7 13 8 14 9 15
REMARK SMILES IDX 10 16 15 17 16 18 17 19 18 20 19 22 20 23 21 24 82 25 22 26
REMARK SMILES IDX 81 27 23 28 24 29 25 30 75 31 26 32 80 33 74 34 76 35 27 36
REMARK SMILES IDX 79 37 73 38 72 39 28 41 60 42 40 43 59 44 41 45 44 46 58 47
REMARK SMILES IDX 77 48 42 49 43 50 57 52 78 53 45 54 29 55 30 56 38 57 31 58
REMARK SMILES IDX 32 59 36 60 39 61 33 62 34 63 37 64 35 65 61 66 62 67 70 68
REMARK SMILES IDX 63 69 64 70 68 71 71 72 65 73 66 74 69 75 67 76 46 77 47 78
REMARK SMILES IDX 55 79 48 80 49 81 53 82 56 83 50 84 51 85 54 86 52 87
REMARK H PARENT 13 5 6 12 17 21 76 40 44 51
REMARK Flexibility Score: inf
ROOT
ATOM      1  C   UNL A   1      33.191  34.695  29.075  1.00  0.00     0.117 C 
ENDROOT
BRANCH   1   2
ATOM      2  N   UNL A   1      33.165  36.112  29.398  1.00  0.00    -0.356 N 
ATOM      3  C   UNL A   1      33.204  36.799  30.567  1.00  0.00     0.225 C 
ATOM      4  O   UNL A   1      32.972  38.011  30.485  1.00  0.00    -0.275 OA
ATOM      5  H   UNL A   1      33.108  36.693  28.605  1.00  0.00     0.163 HD
BRANCH   3   6
ATOM      6  C   UNL A   1      33.446  36.144  31.941  1.00  0.00     0.046 C 
ATOM      7  C   UNL A   1      32.081  35.677  32.510  1.00  0.00     0.021 C 
ATOM      8  C   UNL A   1      33.976  37.185  32.948  1.00  0.00     0.021 C 
BRANCH   6   9
ATOM      9  C   UNL A   1      34.400  34.925  31.850  1.00  0.00     0.057 C 
BRANCH   9  10
ATOM     10  C   UNL A   1      34.228  33.830  32.928  1.00  0.00     0.220 C 
BRANCH  10  11
ATOM     11  O   UNL A   1      34.027  32.548  32.314  1.00  0.00    -0.384 OA
ATOM     12  H   UNL A   1      33.079  32.406  32.166  1.00  0.00     0.211 HD
ENDBRANCH  10  11
BRANCH  10  13
ATOM     13  C   UNL A   1      35.455  33.812  33.862  1.00  0.00     0.414 C 
ATOM     14  F   UNL A   1      36.417  34.648  33.402  1.00  0.00    -0.168 F 
ATOM     15  F   UNL A   1      35.134  34.220  35.110  1.00  0.00    -0.168 F 
ATOM     16  F   UNL A   1      36.002  32.579  33.953  1.00  0.00    -0.168 F 
ENDBRANCH  10  13
ENDBRANCH   9  10
ENDBRANCH   6   9
ENDBRANCH   3   6
ENDBRANCH   1   2
BRANCH   1  17
ATOM     17  C   UNL A   1      34.330  34.328  28.128  1.00  0.00     0.042 C 
BRANCH  17  18
ATOM     18  C   UNL A   1      35.047  33.027  28.472  1.00  0.00     0.118 C 
BRANCH  18  19
ATOM     19  N   UNL A   1      34.265  31.846  28.129  1.00  0.00    -0.352 N 
ATOM     20  C   UNL A   1      34.644  30.540  27.947  1.00  0.00     0.251 C 
ATOM     21  H   UNL A   1      33.302  32.013  28.007  1.00  0.00     0.163 HD
ATOM     22  O   UNL A   1      33.837  29.742  27.470  1.00  0.00    -0.269 OA
BRANCH  20  23
ATOM     23  C   UNL A   1      36.004  30.075  28.299  1.00  0.00     0.039 A 
ATOM     24  C   UNL A   1      37.007  30.137  27.324  1.00  0.00     0.014 A 
ATOM     25  C   UNL A   1      36.290  29.529  29.551  1.00  0.00     0.014 A 
ATOM     26  C   UNL A   1      38.304  29.715  27.627  1.00  0.00     0.010 A 
ATOM     27  C   UNL A   1      37.599  29.179  29.877  1.00  0.00     0.010 A 
ATOM     28  C   UNL A   1      38.619  29.264  28.918  1.00  0.00    -0.014 A 
BRANCH  28  29
ATOM     29  C   UNL A   1      40.005  28.874  29.285  1.00  0.00     0.031 A 
ATOM     30  C   UNL A   1      40.859  29.800  30.105  1.00  0.00     0.074 A 
ATOM     31  C   UNL A   1      40.518  27.719  28.820  1.00  0.00     0.049 A 
ATOM     32  N   UNL A   1      42.118  29.683  30.447  1.00  0.00    -0.248 NA
ATOM     33  C   UNL A   1      40.223  31.038  30.582  1.00  0.00     0.031 C 
ATOM     34  C   UNL A   1      39.807  26.756  27.979  1.00  0.00     0.029 A 
ATOM     35  N   UNL A   1      41.765  27.167  28.977  1.00  0.00    -0.354 N 
ATOM     36  C   UNL A   1      42.428  30.837  31.155  1.00  0.00     0.074 A 
ATOM     37  C   UNL A   1      41.239  31.662  31.159  1.00  0.00     0.031 C 
ATOM     38  C   UNL A   1      40.622  25.724  27.707  1.00  0.00     0.029 A 
ATOM     39  C   UNL A   1      41.923  25.970  28.324  1.00  0.00     0.049 A 
ATOM     40  H   UNL A   1      42.478  27.589  29.509  1.00  0.00     0.167 HD
ATOM     41  C   UNL A   1      43.592  31.169  31.762  1.00  0.00     0.037 A 
ATOM     42  C   UNL A   1      42.997  25.165  28.225  1.00  0.00     0.037 A 
ATOM     43  C   UNL A   1      44.763  30.332  31.787  1.00  0.00     0.049 A 
ATOM     44  C   UNL A   1      44.273  25.551  28.919  1.00  0.00     0.074 A 
ATOM     45  C   UNL A   1      45.967  30.551  32.434  1.00  0.00     0.029 A 
ATOM     46  N   UNL A   1      44.874  29.111  31.138  1.00  0.00    -0.354 N 
ATOM     47  N   UNL A   1      44.535  26.616  29.637  1.00  0.00    -0.248 NA
ATOM     48  C   UNL A   1      45.404  24.619  28.794  1.00  0.00     0.031 C 
ATOM     49  C   UNL A   1      46.820  29.480  32.145  1.00  0.00     0.029 A 
ATOM     50  C   UNL A   1      46.132  28.574  31.354  1.00  0.00     0.049 A 
ATOM     51  H   UNL A   1      44.163  28.690  30.602  1.00  0.00     0.167 HD
ATOM     52  C   UNL A   1      45.846  26.472  30.069  1.00  0.00     0.074 A 
ATOM     53  C   UNL A   1      46.324  25.209  29.544  1.00  0.00     0.031 C 
ATOM     54  C   UNL A   1      46.588  27.311  30.832  1.00  0.00     0.037 A 
BRANCH  41  55
ATOM     55  C   UNL A   1      43.656  32.498  32.457  1.00  0.00     0.064 A 
ATOM     56  C   UNL A   1      43.310  32.637  33.811  1.00  0.00     0.173 A 
ATOM     57  C   UNL A   1      44.101  33.639  31.774  1.00  0.00     0.173 A 
ATOM     58  F   UNL A   1      42.868  31.578  34.505  1.00  0.00    -0.203 F 
ATOM     59  C   UNL A   1      43.380  33.874  34.444  1.00  0.00     0.198 A 
ATOM     60  C   UNL A   1      44.196  34.869  32.418  1.00  0.00     0.198 A 
ATOM     61  F   UNL A   1      44.450  33.560  30.480  1.00  0.00    -0.203 F 
ATOM     62  F   UNL A   1      42.999  33.992  35.724  1.00  0.00    -0.200 F 
ATOM     63  C   UNL A   1      43.828  34.988  33.751  1.00  0.00     0.200 A 
ATOM     64  F   UNL A   1      44.641  35.942  31.751  1.00  0.00    -0.200 F 
ATOM     65  F   UNL A   1      43.900  36.177  34.364  1.00  0.00    -0.200 F 
ENDBRANCH  41  55
BRANCH  42  66
ATOM     66  C   UNL A   1      42.902  23.896  27.458  1.00  0.00     0.064 A 
ATOM     67  C   UNL A   1      43.282  23.845  26.109  1.00  0.00     0.173 A 
ATOM     68  C   UNL A   1      42.438  22.715  28.052  1.00  0.00     0.173 A 
ATOM     69  F   UNL A   1      43.712  24.956  25.493  1.00  0.00    -0.203 F 
ATOM     70  C   UNL A   1      43.185  22.663  25.379  1.00  0.00     0.198 A 
ATOM     71  C   UNL A   1      42.366  21.526  27.328  1.00  0.00     0.198 A 
ATOM     72  F   UNL A   1      42.067  22.712  29.340  1.00  0.00    -0.203 F 
ATOM     73  F   UNL A   1      43.518  22.650  24.081  1.00  0.00    -0.200 F 
ATOM     74  C   UNL A   1      42.733  21.503  25.991  1.00  0.00     0.200 A 
ATOM     75  F   UNL A   1      41.939  20.405  27.924  1.00  0.00    -0.200 F 
ATOM     76  F   UNL A   1      42.645  20.365  25.289  1.00  0.00    -0.200 F 
ENDBRANCH  42  66
BRANCH  54  77
ATOM     77  C   UNL A   1      47.982  26.877  31.173  1.00  0.00     0.064 A 
ATOM     78  C   UNL A   1      48.247  26.072  32.290  1.00  0.00     0.173 A 
ATOM     79  C   UNL A   1      49.060  27.240  30.352  1.00  0.00     0.173 A 
ATOM     80  F   UNL A   1      47.252  25.712  33.115  1.00  0.00    -0.203 F 
ATOM     81  C   UNL A   1      49.546  25.662  32.584  1.00  0.00     0.198 A 
ATOM     82  C   UNL A   1      50.352  26.807  30.633  1.00  0.00     0.198 A 
ATOM     83  F   UNL A   1      48.857  28.006  29.269  1.00  0.00    -0.203 F 
ATOM     84  F   UNL A   1      49.783  24.928  33.678  1.00  0.00    -0.200 F 
ATOM     85  C   UNL A   1      50.595  26.025  31.751  1.00  0.00     0.200 A 
ATOM     86  F   UNL A   1      51.363  27.149  29.823  1.00  0.00    -0.200 F 
ATOM     87  F   UNL A   1      51.843  25.625  32.032  1.00  0.00    -0.200 F 
ENDBRANCH  54  77
ENDBRANCH  28  29
ENDBRANCH  20  23
ENDBRANCH  18  19
ENDBRANCH  17  18
ENDBRANCH   1  17
TORSDOF 14
ENDMDL
