MODEL 1
REMARK VINA RESULT:     -11.9      0.000      0.000
REMARK SMILES CC(C)(O)CC[C@]1(C(=O)NCCCNC(=O)c2ccc(-c3c4nc(c(-c5c(F)c(F)c(F)c(F)c5F)c5ccc([nH]5)c(-c5c(F)c(F)c(F)c(F)c5F)c5nc(c(-c6c(F)c(F)c(F)c(F)c6F)c6ccc3[nH]6)C=C5)C=C4)cc2)CCOc2ccccc21
REMARK SMILES IDX 11 1 10 2 8 3 9 4 7 6 80 7 88 8 81 9 83 10 87 11 82 12 84 13
REMARK SMILES IDX 86 14 85 15 6 16 5 17 2 18 1 19 3 20 4 21 12 23 13 24 14 25
REMARK SMILES IDX 15 26 16 28 17 29 18 30 79 31 19 32 78 33 20 34 21 35 22 36
REMARK SMILES IDX 72 37 23 38 77 39 71 40 73 41 24 42 76 43 70 44 69 45 25 47
REMARK SMILES IDX 57 48 37 49 56 50 38 51 41 52 55 53 74 54 39 55 40 56 54 58
REMARK SMILES IDX 75 59 42 60 26 61 27 62 35 63 28 64 29 65 33 66 36 67 30 68
REMARK SMILES IDX 31 69 34 70 32 71 58 72 59 73 67 74 60 75 61 76 65 77 68 78
REMARK SMILES IDX 62 79 63 80 66 81 64 82 43 83 44 84 52 85 45 86 46 87 50 88
REMARK SMILES IDX 53 89 47 90 48 91 51 92 49 93
REMARK H PARENT 10 5 4 22 14 27 73 46 41 57
REMARK Flexibility Score: inf
ROOT
ATOM      1  C   UNL A   1      34.373  24.558  25.364  1.00  0.00     0.117 C 
ENDROOT
BRANCH   1   2
ATOM      2  N   UNL A   1      34.286  24.845  23.952  1.00  0.00    -0.355 N 
ATOM      3  C   UNL A   1      33.453  25.576  23.181  1.00  0.00     0.230 C 
ATOM      4  O   UNL A   1      33.874  25.675  22.019  1.00  0.00    -0.274 OA
ATOM      5  H   UNL A   1      34.998  24.407  23.431  1.00  0.00     0.163 HD
BRANCH   3   6
ATOM      6  C   UNL A   1      32.151  26.312  23.648  1.00  0.00     0.081 C 
ATOM      7  C   UNL A   1      30.927  25.466  24.059  1.00  0.00     0.063 C 
ATOM      8  C   UNL A   1      32.531  27.210  24.840  1.00  0.00     0.010 A 
ATOM      9  C   UNL A   1      30.839  25.028  25.501  1.00  0.00     0.231 C 
ATOM     10  C   UNL A   1      32.022  26.980  26.127  1.00  0.00     0.123 A 
ATOM     11  C   UNL A   1      33.491  28.233  24.695  1.00  0.00     0.008 A 
ATOM     12  O   UNL A   1      31.084  26.046  26.451  1.00  0.00    -0.493 OA
ATOM     13  C   UNL A   1      32.472  27.727  27.222  1.00  0.00     0.047 A 
ATOM     14  C   UNL A   1      33.928  28.986  25.789  1.00  0.00     0.001 A 
ATOM     15  C   UNL A   1      33.428  28.724  27.058  1.00  0.00     0.004 A 
BRANCH   6  16
ATOM     16  C   UNL A   1      31.666  27.186  22.407  1.00  0.00     0.025 C 
BRANCH  16  17
ATOM     17  C   UNL A   1      30.270  27.891  22.376  1.00  0.00     0.036 C 
BRANCH  17  18
ATOM     18  C   UNL A   1      30.101  29.421  22.509  1.00  0.00     0.059 C 
ATOM     19  C   UNL A   1      30.277  29.961  23.935  1.00  0.00     0.042 C 
ATOM     20  C   UNL A   1      28.678  29.815  22.070  1.00  0.00     0.042 C 
BRANCH  18  21
ATOM     21  O   UNL A   1      31.023  30.060  21.630  1.00  0.00    -0.390 OA
ATOM     22  H   UNL A   1      30.549  30.394  20.853  1.00  0.00     0.211 HD
ENDBRANCH  18  21
ENDBRANCH  17  18
ENDBRANCH  16  17
ENDBRANCH   6  16
ENDBRANCH   3   6
ENDBRANCH   1   2
BRANCH   1  23
ATOM     23  C   UNL A   1      35.332  23.402  25.619  1.00  0.00     0.042 C 
BRANCH  23  24
ATOM     24  C   UNL A   1      36.746  23.675  25.115  1.00  0.00     0.118 C 
BRANCH  24  25
ATOM     25  N   UNL A   1      37.698  22.674  25.576  1.00  0.00    -0.352 N 
ATOM     26  C   UNL A   1      38.905  22.827  26.203  1.00  0.00     0.251 C 
ATOM     27  H   UNL A   1      37.433  21.741  25.411  1.00  0.00     0.163 HD
ATOM     28  O   UNL A   1      39.674  21.865  26.290  1.00  0.00    -0.269 OA
BRANCH  26  29
ATOM     29  C   UNL A   1      39.307  24.130  26.772  1.00  0.00     0.039 A 
ATOM     30  C   UNL A   1      38.936  24.441  28.083  1.00  0.00     0.014 A 
ATOM     31  C   UNL A   1      40.004  25.067  26.005  1.00  0.00     0.014 A 
ATOM     32  C   UNL A   1      39.310  25.665  28.641  1.00  0.00     0.010 A 
ATOM     33  C   UNL A   1      40.449  26.250  26.587  1.00  0.00     0.010 A 
ATOM     34  C   UNL A   1      40.096  26.567  27.907  1.00  0.00    -0.014 A 
BRANCH  34  35
ATOM     35  C   UNL A   1      40.543  27.858  28.491  1.00  0.00     0.031 A 
ATOM     36  C   UNL A   1      41.981  28.044  28.893  1.00  0.00     0.074 A 
ATOM     37  C   UNL A   1      39.643  28.833  28.722  1.00  0.00     0.049 A 
ATOM     38  N   UNL A   1      42.546  29.055  29.504  1.00  0.00    -0.248 NA
ATOM     39  C   UNL A   1      42.898  26.932  28.597  1.00  0.00     0.031 C 
ATOM     40  C   UNL A   1      38.214  28.754  28.419  1.00  0.00     0.029 A 
ATOM     41  N   UNL A   1      39.797  30.077  29.281  1.00  0.00    -0.354 N 
ATOM     42  C   UNL A   1      43.875  28.692  29.683  1.00  0.00     0.074 A 
ATOM     43  C   UNL A   1      44.021  27.349  29.163  1.00  0.00     0.031 C 
ATOM     44  C   UNL A   1      37.625  29.906  28.776  1.00  0.00     0.029 A 
ATOM     45  C   UNL A   1      38.626  30.789  29.368  1.00  0.00     0.049 A 
ATOM     46  H   UNL A   1      40.665  30.426  29.590  1.00  0.00     0.167 HD
ATOM     47  C   UNL A   1      44.886  29.421  30.211  1.00  0.00     0.037 A 
ATOM     48  C   UNL A   1      38.386  32.013  29.877  1.00  0.00     0.037 A 
ATOM     49  C   UNL A   1      44.745  30.769  30.693  1.00  0.00     0.049 A 
ATOM     50  C   UNL A   1      39.528  32.805  30.451  1.00  0.00     0.074 A 
ATOM     51  C   UNL A   1      45.721  31.619  31.184  1.00  0.00     0.029 A 
ATOM     52  N   UNL A   1      43.546  31.467  30.742  1.00  0.00    -0.354 N 
ATOM     53  N   UNL A   1      40.792  32.475  30.559  1.00  0.00    -0.248 NA
ATOM     54  C   UNL A   1      39.211  34.141  30.972  1.00  0.00     0.031 C 
ATOM     55  C   UNL A   1      45.106  32.815  31.568  1.00  0.00     0.029 A 
ATOM     56  C   UNL A   1      43.755  32.728  31.274  1.00  0.00     0.049 A 
ATOM     57  H   UNL A   1      42.676  31.117  30.443  1.00  0.00     0.167 HD
ATOM     58  C   UNL A   1      41.425  33.568  31.134  1.00  0.00     0.074 A 
ATOM     59  C   UNL A   1      40.407  34.578  31.339  1.00  0.00     0.031 C 
ATOM     60  C   UNL A   1      42.730  33.722  31.466  1.00  0.00     0.037 A 
BRANCH  47  61
ATOM     61  C   UNL A   1      46.240  28.776  30.291  1.00  0.00     0.064 A 
ATOM     62  C   UNL A   1      47.172  28.887  29.248  1.00  0.00     0.173 A 
ATOM     63  C   UNL A   1      46.624  28.064  31.438  1.00  0.00     0.173 A 
ATOM     64  F   UNL A   1      46.851  29.546  28.124  1.00  0.00    -0.203 F 
ATOM     65  C   UNL A   1      48.424  28.287  29.337  1.00  0.00     0.198 A 
ATOM     66  C   UNL A   1      47.889  27.491  31.537  1.00  0.00     0.198 A 
ATOM     67  F   UNL A   1      45.774  27.932  32.468  1.00  0.00    -0.203 F 
ATOM     68  F   UNL A   1      49.278  28.365  28.307  1.00  0.00    -0.200 F 
ATOM     69  C   UNL A   1      48.785  27.595  30.483  1.00  0.00     0.200 A 
ATOM     70  F   UNL A   1      48.240  26.833  32.650  1.00  0.00    -0.200 F 
ATOM     71  F   UNL A   1      49.994  27.023  30.571  1.00  0.00    -0.200 F 
ENDBRANCH  47  61
BRANCH  48  72
ATOM     72  C   UNL A   1      37.010  32.572  29.843  1.00  0.00     0.064 A 
ATOM     73  C   UNL A   1      36.555  33.291  28.729  1.00  0.00     0.173 A 
ATOM     74  C   UNL A   1      36.124  32.399  30.915  1.00  0.00     0.173 A 
ATOM     75  F   UNL A   1      37.374  33.500  27.687  1.00  0.00    -0.203 F 
ATOM     76  C   UNL A   1      35.273  33.834  28.698  1.00  0.00     0.198 A 
ATOM     77  C   UNL A   1      34.831  32.918  30.872  1.00  0.00     0.198 A 
ATOM     78  F   UNL A   1      36.509  31.713  32.002  1.00  0.00    -0.203 F 
ATOM     79  F   UNL A   1      34.879  34.555  27.638  1.00  0.00    -0.200 F 
ATOM     80  C   UNL A   1      34.409  33.643  29.766  1.00  0.00     0.200 A 
ATOM     81  F   UNL A   1      33.996  32.719  31.900  1.00  0.00    -0.200 F 
ATOM     82  F   UNL A   1      33.174  34.161  29.733  1.00  0.00    -0.200 F 
ENDBRANCH  48  72
BRANCH  60  83
ATOM     83  C   UNL A   1      43.136  35.039  32.058  1.00  0.00     0.064 A 
ATOM     84  C   UNL A   1      43.593  36.096  31.257  1.00  0.00     0.173 A 
ATOM     85  C   UNL A   1      43.029  35.260  33.440  1.00  0.00     0.173 A 
ATOM     86  F   UNL A   1      43.728  35.928  29.932  1.00  0.00    -0.203 F 
ATOM     87  C   UNL A   1      43.950  37.317  31.820  1.00  0.00     0.198 A 
ATOM     88  C   UNL A   1      43.360  36.492  33.996  1.00  0.00     0.198 A 
ATOM     89  F   UNL A   1      42.592  34.284  34.249  1.00  0.00    -0.203 F 
ATOM     90  F   UNL A   1      44.428  38.297  31.040  1.00  0.00    -0.200 F 
ATOM     91  C   UNL A   1      43.827  37.517  33.187  1.00  0.00     0.200 A 
ATOM     92  F   UNL A   1      43.228  36.688  35.315  1.00  0.00    -0.200 F 
ATOM     93  F   UNL A   1      44.166  38.696  33.726  1.00  0.00    -0.200 F 
ENDBRANCH  60  83
ENDBRANCH  34  35
ENDBRANCH  26  29
ENDBRANCH  24  25
ENDBRANCH  23  24
ENDBRANCH   1  23
TORSDOF 14
ENDMDL
MODEL 2
REMARK VINA RESULT:     -11.8      0.208      1.615
REMARK SMILES CC(C)(O)CC[C@]1(C(=O)NCCCNC(=O)c2ccc(-c3c4nc(c(-c5c(F)c(F)c(F)c(F)c5F)c5ccc([nH]5)c(-c5c(F)c(F)c(F)c(F)c5F)c5nc(c(-c6c(F)c(F)c(F)c(F)c6F)c6ccc3[nH]6)C=C5)C=C4)cc2)CCOc2ccccc21
REMARK SMILES IDX 11 1 10 2 8 3 9 4 7 6 80 7 88 8 81 9 83 10 87 11 82 12 84 13
REMARK SMILES IDX 86 14 85 15 6 16 5 17 2 18 1 19 3 20 4 21 12 23 13 24 14 25
REMARK SMILES IDX 15 26 16 28 17 29 18 30 79 31 19 32 78 33 20 34 21 35 22 36
REMARK SMILES IDX 72 37 23 38 77 39 71 40 73 41 24 42 76 43 70 44 69 45 25 47
REMARK SMILES IDX 57 48 37 49 56 50 38 51 41 52 55 53 74 54 39 55 40 56 54 58
REMARK SMILES IDX 75 59 42 60 26 61 27 62 35 63 28 64 29 65 33 66 36 67 30 68
REMARK SMILES IDX 31 69 34 70 32 71 58 72 59 73 67 74 60 75 61 76 65 77 68 78
REMARK SMILES IDX 62 79 63 80 66 81 64 82 43 83 44 84 52 85 45 86 46 87 50 88
REMARK SMILES IDX 53 89 47 90 48 91 51 92 49 93
REMARK H PARENT 10 5 4 22 14 27 73 46 41 57
REMARK Flexibility Score: inf
ROOT
ATOM      1  C   UNL A   1      34.171  24.075  25.546  1.00  0.00     0.117 C 
ENDROOT
BRANCH   1   2
ATOM      2  N   UNL A   1      34.239  24.461  24.157  1.00  0.00    -0.355 N 
ATOM      3  C   UNL A   1      33.529  25.295  23.369  1.00  0.00     0.230 C 
ATOM      4  O   UNL A   1      34.065  25.444  22.260  1.00  0.00    -0.274 OA
ATOM      5  H   UNL A   1      34.970  24.013  23.674  1.00  0.00     0.163 HD
BRANCH   3   6
ATOM      6  C   UNL A   1      32.234  26.083  23.766  1.00  0.00     0.081 C 
ATOM      7  C   UNL A   1      30.987  25.287  24.208  1.00  0.00     0.063 C 
ATOM      8  C   UNL A   1      32.611  27.046  24.907  1.00  0.00     0.010 A 
ATOM      9  C   UNL A   1      30.867  24.942  25.672  1.00  0.00     0.231 C 
ATOM     10  C   UNL A   1      32.078  26.907  26.197  1.00  0.00     0.123 A 
ATOM     11  C   UNL A   1      33.593  28.041  24.715  1.00  0.00     0.008 A 
ATOM     12  O   UNL A   1      31.116  26.013  26.561  1.00  0.00    -0.493 OA
ATOM     13  C   UNL A   1      32.524  27.712  27.251  1.00  0.00     0.047 A 
ATOM     14  C   UNL A   1      34.027  28.852  25.768  1.00  0.00     0.001 A 
ATOM     15  C   UNL A   1      33.502  28.679  27.041  1.00  0.00     0.004 A 
BRANCH   6  16
ATOM     16  C   UNL A   1      31.786  26.886  22.465  1.00  0.00     0.025 C 
BRANCH  16  17
ATOM     17  C   UNL A   1      30.417  27.637  22.376  1.00  0.00     0.036 C 
BRANCH  17  18
ATOM     18  C   UNL A   1      30.293  29.172  22.496  1.00  0.00     0.059 C 
ATOM     19  C   UNL A   1      30.433  29.713  23.926  1.00  0.00     0.042 C 
ATOM     20  C   UNL A   1      28.901  29.610  22.001  1.00  0.00     0.042 C 
BRANCH  18  21
ATOM     21  O   UNL A   1      31.268  29.776  21.651  1.00  0.00    -0.390 OA
ATOM     22  H   UNL A   1      31.550  30.621  22.035  1.00  0.00     0.211 HD
ENDBRANCH  18  21
ENDBRANCH  17  18
ENDBRANCH  16  17
ENDBRANCH   6  16
ENDBRANCH   3   6
ENDBRANCH   1   2
BRANCH   1  23
ATOM     23  C   UNL A   1      35.570  23.958  26.139  1.00  0.00     0.042 C 
BRANCH  23  24
ATOM     24  C   UNL A   1      36.645  23.698  25.089  1.00  0.00     0.118 C 
BRANCH  24  25
ATOM     25  N   UNL A   1      37.609  22.696  25.523  1.00  0.00    -0.352 N 
ATOM     26  C   UNL A   1      38.829  22.847  26.124  1.00  0.00     0.251 C 
ATOM     27  H   UNL A   1      37.342  21.763  25.358  1.00  0.00     0.163 HD
ATOM     28  O   UNL A   1      39.601  21.886  26.189  1.00  0.00    -0.269 OA
BRANCH  26  29
ATOM     29  C   UNL A   1      39.241  24.147  26.692  1.00  0.00     0.039 A 
ATOM     30  C   UNL A   1      38.883  24.457  28.007  1.00  0.00     0.014 A 
ATOM     31  C   UNL A   1      39.935  25.084  25.920  1.00  0.00     0.014 A 
ATOM     32  C   UNL A   1      39.267  25.679  28.564  1.00  0.00     0.010 A 
ATOM     33  C   UNL A   1      40.390  26.264  26.501  1.00  0.00     0.010 A 
ATOM     34  C   UNL A   1      40.050  26.579  27.825  1.00  0.00    -0.014 A 
BRANCH  34  35
ATOM     35  C   UNL A   1      40.507  27.867  28.408  1.00  0.00     0.031 A 
ATOM     36  C   UNL A   1      41.950  28.049  28.791  1.00  0.00     0.074 A 
ATOM     37  C   UNL A   1      39.613  28.843  28.654  1.00  0.00     0.049 A 
ATOM     38  N   UNL A   1      42.526  29.056  29.398  1.00  0.00    -0.248 NA
ATOM     39  C   UNL A   1      42.862  26.936  28.479  1.00  0.00     0.031 C 
ATOM     40  C   UNL A   1      38.179  28.768  28.369  1.00  0.00     0.029 A 
ATOM     41  N   UNL A   1      39.776  30.085  29.214  1.00  0.00    -0.354 N 
ATOM     42  C   UNL A   1      43.857  28.690  29.558  1.00  0.00     0.074 A 
ATOM     43  C   UNL A   1      43.993  27.349  29.032  1.00  0.00     0.031 C 
ATOM     44  C   UNL A   1      37.598  29.920  28.738  1.00  0.00     0.029 A 
ATOM     45  C   UNL A   1      38.607  30.799  29.319  1.00  0.00     0.049 A 
ATOM     46  H   UNL A   1      40.649  30.431  29.514  1.00  0.00     0.167 HD
ATOM     47  C   UNL A   1      44.876  29.415  30.075  1.00  0.00     0.037 A 
ATOM     48  C   UNL A   1      38.377  32.021  29.836  1.00  0.00     0.037 A 
ATOM     49  C   UNL A   1      44.743  30.762  30.564  1.00  0.00     0.049 A 
ATOM     50  C   UNL A   1      39.528  32.809  30.398  1.00  0.00     0.074 A 
ATOM     51  C   UNL A   1      45.727  31.609  31.044  1.00  0.00     0.029 A 
ATOM     52  N   UNL A   1      43.547  31.462  30.631  1.00  0.00    -0.354 N 
ATOM     53  N   UNL A   1      40.793  32.477  30.487  1.00  0.00    -0.248 NA
ATOM     54  C   UNL A   1      39.220  34.144  30.927  1.00  0.00     0.031 C 
ATOM     55  C   UNL A   1      45.120  32.805  31.441  1.00  0.00     0.029 A 
ATOM     56  C   UNL A   1      43.765  32.722  31.164  1.00  0.00     0.049 A 
ATOM     57  H   UNL A   1      42.672  31.115  30.342  1.00  0.00     0.167 HD
ATOM     58  C   UNL A   1      41.435  33.567  31.058  1.00  0.00     0.074 A 
ATOM     59  C   UNL A   1      40.422  34.578  31.280  1.00  0.00     0.031 C 
ATOM     60  C   UNL A   1      42.745  33.717  31.374  1.00  0.00     0.037 A 
BRANCH  47  61
ATOM     61  C   UNL A   1      46.229  28.768  30.135  1.00  0.00     0.064 A 
ATOM     62  C   UNL A   1      46.653  28.051  31.265  1.00  0.00     0.173 A 
ATOM     63  C   UNL A   1      47.102  28.837  29.039  1.00  0.00     0.173 A 
ATOM     64  F   UNL A   1      45.863  27.964  32.345  1.00  0.00    -0.203 F 
ATOM     65  C   UNL A   1      47.910  27.454  31.306  1.00  0.00     0.198 A 
ATOM     66  C   UNL A   1      48.347  28.213  29.071  1.00  0.00     0.198 A 
ATOM     67  F   UNL A   1      46.744  29.506  27.932  1.00  0.00    -0.203 F 
ATOM     68  F   UNL A   1      48.312  26.817  32.414  1.00  0.00    -0.200 F 
ATOM     69  C   UNL A   1      48.753  27.529  30.207  1.00  0.00     0.200 A 
ATOM     70  F   UNL A   1      49.154  28.276  28.004  1.00  0.00    -0.200 F 
ATOM     71  F   UNL A   1      49.960  26.948  30.245  1.00  0.00    -0.200 F 
ENDBRANCH  47  61
BRANCH  48  72
ATOM     72  C   UNL A   1      37.001  32.583  29.822  1.00  0.00     0.064 A 
ATOM     73  C   UNL A   1      36.523  33.280  28.705  1.00  0.00     0.173 A 
ATOM     74  C   UNL A   1      36.141  32.436  30.918  1.00  0.00     0.173 A 
ATOM     75  F   UNL A   1      37.318  33.465  27.639  1.00  0.00    -0.203 F 
ATOM     76  C   UNL A   1      35.241  33.825  28.691  1.00  0.00     0.198 A 
ATOM     77  C   UNL A   1      34.848  32.957  30.894  1.00  0.00     0.198 A 
ATOM     78  F   UNL A   1      36.549  31.771  32.010  1.00  0.00    -0.203 F 
ATOM     79  F   UNL A   1      34.824  34.525  27.626  1.00  0.00    -0.200 F 
ATOM     80  C   UNL A   1      34.402  33.659  29.783  1.00  0.00     0.200 A 
ATOM     81  F   UNL A   1      34.036  32.781  31.945  1.00  0.00    -0.200 F 
ATOM     82  F   UNL A   1      33.168  34.179  29.768  1.00  0.00    -0.200 F 
ENDBRANCH  48  72
BRANCH  60  83
ATOM     83  C   UNL A   1      43.161  35.031  31.965  1.00  0.00     0.064 A 
ATOM     84  C   UNL A   1      43.080  35.275  33.343  1.00  0.00     0.173 A 
ATOM     85  C   UNL A   1      43.685  36.044  31.147  1.00  0.00     0.173 A 
ATOM     86  F   UNL A   1      42.571  34.343  34.165  1.00  0.00    -0.203 F 
ATOM     87  C   UNL A   1      43.485  36.495  33.879  1.00  0.00     0.198 A 
ATOM     88  C   UNL A   1      44.116  37.251  31.689  1.00  0.00     0.198 A 
ATOM     89  F   UNL A   1      43.790  35.857  29.823  1.00  0.00    -0.203 F 
ATOM     90  F   UNL A   1      43.354  36.723  35.193  1.00  0.00    -0.200 F 
ATOM     91  C   UNL A   1      44.009  37.478  33.053  1.00  0.00     0.200 A 
ATOM     92  F   UNL A   1      44.634  38.195  30.892  1.00  0.00    -0.200 F 
ATOM     93  F   UNL A   1      44.404  38.649  33.571  1.00  0.00    -0.200 F 
ENDBRANCH  60  83
ENDBRANCH  34  35
ENDBRANCH  26  29
ENDBRANCH  24  25
ENDBRANCH  23  24
ENDBRANCH   1  23
TORSDOF 14
ENDMDL
MODEL 3
REMARK VINA RESULT:     -11.7      3.304      8.772
REMARK SMILES CC(C)(O)CC[C@]1(C(=O)NCCCNC(=O)c2ccc(-c3c4nc(c(-c5c(F)c(F)c(F)c(F)c5F)c5ccc([nH]5)c(-c5c(F)c(F)c(F)c(F)c5F)c5nc(c(-c6c(F)c(F)c(F)c(F)c6F)c6ccc3[nH]6)C=C5)C=C4)cc2)CCOc2ccccc21
REMARK SMILES IDX 11 1 10 2 8 3 9 4 7 6 80 7 88 8 81 9 83 10 87 11 82 12 84 13
REMARK SMILES IDX 86 14 85 15 6 16 5 17 2 18 1 19 3 20 4 21 12 23 13 24 14 25
REMARK SMILES IDX 15 26 16 28 17 29 18 30 79 31 19 32 78 33 20 34 21 35 22 36
REMARK SMILES IDX 72 37 23 38 77 39 71 40 73 41 24 42 76 43 70 44 69 45 25 47
REMARK SMILES IDX 57 48 37 49 56 50 38 51 41 52 55 53 74 54 39 55 40 56 54 58
REMARK SMILES IDX 75 59 42 60 26 61 27 62 35 63 28 64 29 65 33 66 36 67 30 68
REMARK SMILES IDX 31 69 34 70 32 71 58 72 59 73 67 74 60 75 61 76 65 77 68 78
REMARK SMILES IDX 62 79 63 80 66 81 64 82 43 83 44 84 52 85 45 86 46 87 50 88
REMARK SMILES IDX 53 89 47 90 48 91 51 92 49 93
REMARK H PARENT 10 5 4 22 14 27 73 46 41 57
REMARK Flexibility Score: inf
ROOT
ATOM      1  C   UNL A   1      33.686  25.949  25.139  1.00  0.00     0.117 C 
ENDROOT
BRANCH   1   2
ATOM      2  N   UNL A   1      32.925  25.131  26.052  1.00  0.00    -0.355 N 
ATOM      3  C   UNL A   1      32.553  23.834  26.079  1.00  0.00     0.230 C 
ATOM      4  O   UNL A   1      32.043  23.526  27.167  1.00  0.00    -0.274 OA
ATOM      5  H   UNL A   1      32.605  25.634  26.835  1.00  0.00     0.163 HD
BRANCH   3   6
ATOM      6  C   UNL A   1      32.785  22.770  24.953  1.00  0.00     0.081 C 
ATOM      7  C   UNL A   1      32.173  23.020  23.558  1.00  0.00     0.063 C 
ATOM      8  C   UNL A   1      34.307  22.605  24.780  1.00  0.00     0.010 A 
ATOM      9  C   UNL A   1      32.996  23.809  22.569  1.00  0.00     0.231 C 
ATOM     10  C   UNL A   1      34.959  22.975  23.594  1.00  0.00     0.123 A 
ATOM     11  C   UNL A   1      35.111  22.172  25.855  1.00  0.00     0.008 A 
ATOM     12  O   UNL A   1      34.345  23.403  22.456  1.00  0.00    -0.493 OA
ATOM     13  C   UNL A   1      36.355  22.935  23.499  1.00  0.00     0.047 A 
ATOM     14  C   UNL A   1      36.504  22.121  25.751  1.00  0.00     0.001 A 
ATOM     15  C   UNL A   1      37.129  22.516  24.575  1.00  0.00     0.004 A 
BRANCH   6  16
ATOM     16  C   UNL A   1      32.120  21.419  25.473  1.00  0.00     0.025 C 
BRANCH  16  17
ATOM     17  C   UNL A   1      32.157  20.094  24.642  1.00  0.00     0.036 C 
BRANCH  17  18
ATOM     18  C   UNL A   1      32.983  18.860  25.069  1.00  0.00     0.059 C 
ATOM     19  C   UNL A   1      34.453  18.893  24.629  1.00  0.00     0.042 C 
ATOM     20  C   UNL A   1      32.370  17.595  24.438  1.00  0.00     0.042 C 
BRANCH  18  21
ATOM     21  O   UNL A   1      32.903  18.726  26.485  1.00  0.00    -0.390 OA
ATOM     22  H   UNL A   1      32.600  17.832  26.708  1.00  0.00     0.211 HD
ENDBRANCH  18  21
ENDBRANCH  17  18
ENDBRANCH  16  17
ENDBRANCH   6  16
ENDBRANCH   3   6
ENDBRANCH   1   2
BRANCH   1  23
ATOM     23  C   UNL A   1      33.436  27.428  25.408  1.00  0.00     0.042 C 
BRANCH  23  24
ATOM     24  C   UNL A   1      33.889  27.868  26.797  1.00  0.00     0.118 C 
BRANCH  24  25
ATOM     25  N   UNL A   1      33.693  29.295  27.014  1.00  0.00    -0.352 N 
ATOM     26  C   UNL A   1      34.466  30.199  27.691  1.00  0.00     0.251 C 
ATOM     27  H   UNL A   1      32.876  29.668  26.611  1.00  0.00     0.163 HD
ATOM     28  O   UNL A   1      34.003  31.310  27.970  1.00  0.00    -0.269 OA
BRANCH  26  29
ATOM     29  C   UNL A   1      35.845  29.864  28.101  1.00  0.00     0.039 A 
ATOM     30  C   UNL A   1      36.065  29.341  29.378  1.00  0.00     0.014 A 
ATOM     31  C   UNL A   1      36.928  30.108  27.251  1.00  0.00     0.014 A 
ATOM     32  C   UNL A   1      37.362  29.014  29.782  1.00  0.00     0.010 A 
ATOM     33  C   UNL A   1      38.207  29.704  27.621  1.00  0.00     0.010 A 
ATOM     34  C   UNL A   1      38.439  29.163  28.895  1.00  0.00    -0.014 A 
BRANCH  34  35
ATOM     35  C   UNL A   1      39.821  28.783  29.285  1.00  0.00     0.031 A 
ATOM     36  C   UNL A   1      40.653  29.720  30.117  1.00  0.00     0.074 A 
ATOM     37  C   UNL A   1      40.348  27.629  28.833  1.00  0.00     0.049 A 
ATOM     38  N   UNL A   1      41.907  29.616  30.479  1.00  0.00    -0.248 NA
ATOM     39  C   UNL A   1      39.997  30.955  30.575  1.00  0.00     0.031 C 
ATOM     40  C   UNL A   1      39.658  26.659  27.982  1.00  0.00     0.029 A 
ATOM     41  N   UNL A   1      41.594  27.084  29.015  1.00  0.00    -0.354 N 
ATOM     42  C   UNL A   1      42.193  30.777  31.187  1.00  0.00     0.074 A 
ATOM     43  C   UNL A   1      40.999  31.594  31.160  1.00  0.00     0.031 C 
ATOM     44  C   UNL A   1      40.481  25.630  27.732  1.00  0.00     0.029 A 
ATOM     45  C   UNL A   1      41.769  25.883  28.371  1.00  0.00     0.049 A 
ATOM     46  H   UNL A   1      42.297  27.513  29.555  1.00  0.00     0.167 HD
ATOM     47  C   UNL A   1      43.339  31.118  31.821  1.00  0.00     0.037 A 
ATOM     48  C   UNL A   1      42.849  25.082  28.299  1.00  0.00     0.037 A 
ATOM     49  C   UNL A   1      44.511  30.286  31.877  1.00  0.00     0.049 A 
ATOM     50  C   UNL A   1      44.108  25.482  29.018  1.00  0.00     0.074 A 
ATOM     51  C   UNL A   1      45.699  30.510  32.550  1.00  0.00     0.029 A 
ATOM     52  N   UNL A   1      44.641  29.064  31.233  1.00  0.00    -0.354 N 
ATOM     53  N   UNL A   1      44.346  26.552  29.736  1.00  0.00    -0.248 NA
ATOM     54  C   UNL A   1      45.247  24.559  28.921  1.00  0.00     0.031 C 
ATOM     55  C   UNL A   1      46.563  29.443  32.280  1.00  0.00     0.029 A 
ATOM     56  C   UNL A   1      45.897  28.533  31.476  1.00  0.00     0.049 A 
ATOM     57  H   UNL A   1      43.944  28.637  30.684  1.00  0.00     0.167 HD
ATOM     58  C   UNL A   1      45.649  26.422  30.196  1.00  0.00     0.074 A 
ATOM     59  C   UNL A   1      46.146  25.160  29.688  1.00  0.00     0.031 C 
ATOM     60  C   UNL A   1      46.372  27.272  30.966  1.00  0.00     0.037 A 
BRANCH  47  61
ATOM     61  C   UNL A   1      43.380  32.451  32.513  1.00  0.00     0.064 A 
ATOM     62  C   UNL A   1      43.740  33.624  31.832  1.00  0.00     0.173 A 
ATOM     63  C   UNL A   1      43.025  32.563  33.866  1.00  0.00     0.173 A 
ATOM     64  F   UNL A   1      44.100  33.571  30.541  1.00  0.00    -0.203 F 
ATOM     65  C   UNL A   1      43.771  34.852  32.485  1.00  0.00     0.198 A 
ATOM     66  C   UNL A   1      43.028  33.798  34.510  1.00  0.00     0.198 A 
ATOM     67  F   UNL A   1      42.668  31.473  34.563  1.00  0.00    -0.203 F 
ATOM     68  F   UNL A   1      44.167  35.950  31.827  1.00  0.00    -0.200 F 
ATOM     69  C   UNL A   1      43.409  34.940  33.822  1.00  0.00     0.200 A 
ATOM     70  F   UNL A   1      42.666  33.882  35.796  1.00  0.00    -0.200 F 
ATOM     71  F   UNL A   1      43.433  36.124  34.448  1.00  0.00    -0.200 F 
ENDBRANCH  47  61
BRANCH  48  72
ATOM     72  C   UNL A   1      42.778  23.811  27.533  1.00  0.00     0.064 A 
ATOM     73  C   UNL A   1      43.168  23.760  26.189  1.00  0.00     0.173 A 
ATOM     74  C   UNL A   1      42.320  22.626  28.126  1.00  0.00     0.173 A 
ATOM     75  F   UNL A   1      43.593  24.874  25.572  1.00  0.00    -0.203 F 
ATOM     76  C   UNL A   1      43.087  22.576  25.460  1.00  0.00     0.198 A 
ATOM     77  C   UNL A   1      42.265  21.435  27.404  1.00  0.00     0.198 A 
ATOM     78  F   UNL A   1      41.940  22.620  29.412  1.00  0.00    -0.203 F 
ATOM     79  F   UNL A   1      43.427  22.566  24.163  1.00  0.00    -0.200 F 
ATOM     80  C   UNL A   1      42.641  21.413  26.069  1.00  0.00     0.200 A 
ATOM     81  F   UNL A   1      41.847  20.310  28.001  1.00  0.00    -0.200 F 
ATOM     82  F   UNL A   1      42.567  20.273  25.369  1.00  0.00    -0.200 F 
ENDBRANCH  48  72
BRANCH  60  83
ATOM     83  C   UNL A   1      47.764  26.851  31.330  1.00  0.00     0.064 A 
ATOM     84  C   UNL A   1      48.013  25.989  32.409  1.00  0.00     0.173 A 
ATOM     85  C   UNL A   1      48.860  27.282  30.567  1.00  0.00     0.173 A 
ATOM     86  F   UNL A   1      47.000  25.562  33.178  1.00  0.00    -0.203 F 
ATOM     87  C   UNL A   1      49.310  25.594  32.724  1.00  0.00     0.198 A 
ATOM     88  C   UNL A   1      50.152  26.863  30.867  1.00  0.00     0.198 A 
ATOM     89  F   UNL A   1      48.675  28.102  29.522  1.00  0.00    -0.203 F 
ATOM     90  F   UNL A   1      49.529  24.808  33.787  1.00  0.00    -0.200 F 
ATOM     91  C   UNL A   1      50.377  26.025  31.950  1.00  0.00     0.200 A 
ATOM     92  F   UNL A   1      51.181  27.269  30.111  1.00  0.00    -0.200 F 
ATOM     93  F   UNL A   1      51.624  25.639  32.252  1.00  0.00    -0.200 F 
ENDBRANCH  60  83
ENDBRANCH  34  35
ENDBRANCH  26  29
ENDBRANCH  24  25
ENDBRANCH  23  24
ENDBRANCH   1  23
TORSDOF 14
ENDMDL
