MODEL 1
REMARK VINA RESULT:     -11.3      0.000      0.000
REMARK SMILES CC(C)(C[NH+]1CCC(C(N)=S)CC1)C(=O)NCCCNC(=O)c1ccc(-c2c3nc(c(-c4c(F)c(F)c(F)c(F)c4F)c4ccc([nH]4)c(-c4c(F)c(F)c(F)c(F)c4F)c4nc(c(-c5c(F)c(F)c(F)c(F)c5F)c5ccc2[nH]5)C=C4)C=C3)cc1
REMARK SMILES IDX 17 1 16 2 14 3 15 4 2 6 1 7 3 8 4 9 5 10 6 11 13 12 7 14
REMARK SMILES IDX 12 15 8 16 9 17 11 18 10 19 18 22 19 23 20 24 21 25 22 27
REMARK SMILES IDX 23 28 24 29 85 30 25 31 84 32 26 33 27 34 28 35 78 36 29 37
REMARK SMILES IDX 83 38 77 39 79 40 30 41 82 42 76 43 75 44 31 46 63 47 43 48
REMARK SMILES IDX 62 49 44 50 47 51 61 52 80 53 45 54 46 55 60 57 81 58 48 59
REMARK SMILES IDX 32 60 33 61 41 62 34 63 35 64 39 65 42 66 36 67 37 68 40 69
REMARK SMILES IDX 38 70 64 71 65 72 73 73 66 74 67 75 71 76 74 77 68 78 69 79
REMARK SMILES IDX 72 80 70 81 49 82 50 83 58 84 51 85 52 86 56 87 59 88 53 89
REMARK SMILES IDX 54 90 57 91 55 92
REMARK H PARENT 16 5 5 13 10 20 10 21 20 26 79 45 47 56
REMARK Flexibility Score: inf
ROOT
ATOM      1  C   UNL A   1      36.779  20.331  25.005  1.00  0.00     0.117 C 
ENDROOT
BRANCH   1   2
ATOM      2  N   UNL A   1      36.838  21.489  24.133  1.00  0.00    -0.355 N 
ATOM      3  C   UNL A   1      35.992  22.519  23.867  1.00  0.00     0.231 C 
ATOM      4  O   UNL A   1      36.432  23.352  23.066  1.00  0.00    -0.274 OA
ATOM      5  H   UNL A   1      37.677  21.540  23.620  1.00  0.00     0.163 HD
BRANCH   3   6
ATOM      6  C   UNL A   1      34.604  22.680  24.514  1.00  0.00     0.092 C 
ATOM      7  C   UNL A   1      34.797  22.983  26.025  1.00  0.00     0.027 C 
ATOM      8  C   UNL A   1      33.859  21.329  24.457  1.00  0.00     0.027 C 
BRANCH   6   9
ATOM      9  C   UNL A   1      33.742  23.810  23.881  1.00  0.00     0.278 C 
BRANCH   9  10
ATOM     10  N   UNL A   1      33.363  24.894  24.809  1.00  0.00    -0.334 N 
ATOM     11  C   UNL A   1      33.909  26.202  24.432  1.00  0.00     0.262 C 
ATOM     12  C   UNL A   1      31.909  24.976  25.004  1.00  0.00     0.262 C 
ATOM     13  H   UNL A   1      33.789  24.642  25.701  1.00  0.00     0.348 HD
ATOM     14  C   UNL A   1      33.656  27.239  25.526  1.00  0.00     0.072 C 
ATOM     15  C   UNL A   1      31.569  25.964  26.123  1.00  0.00     0.072 C 
ATOM     16  C   UNL A   1      32.162  27.350  25.847  1.00  0.00     0.058 C 
BRANCH  16  17
ATOM     17  C   UNL A   1      31.907  28.352  26.970  1.00  0.00     0.076 C 
ATOM     18  S   UNL A   1      32.153  30.000  26.876  1.00  0.00    -0.066 S 
BRANCH  17  19
ATOM     19  N   UNL A   1      31.402  27.830  28.127  1.00  0.00    -0.393 N 
ATOM     20  H   UNL A   1      30.755  28.347  28.658  1.00  0.00     0.157 HD
ATOM     21  H   UNL A   1      31.685  26.937  28.428  1.00  0.00     0.157 HD
ENDBRANCH  17  19
ENDBRANCH  16  17
ENDBRANCH   9  10
ENDBRANCH   6   9
ENDBRANCH   3   6
ENDBRANCH   1   2
BRANCH   1  22
ATOM     22  C   UNL A   1      38.056  19.496  24.987  1.00  0.00     0.042 C 
BRANCH  22  23
ATOM     23  C   UNL A   1      39.168  20.002  25.898  1.00  0.00     0.118 C 
BRANCH  23  24
ATOM     24  N   UNL A   1      40.286  19.074  25.985  1.00  0.00    -0.352 N 
ATOM     25  C   UNL A   1      41.630  19.309  26.125  1.00  0.00     0.251 C 
ATOM     26  H   UNL A   1      40.036  18.123  25.935  1.00  0.00     0.163 HD
ATOM     27  O   UNL A   1      42.423  18.379  25.973  1.00  0.00    -0.269 OA
BRANCH  25  28
ATOM     28  C   UNL A   1      42.148  20.660  26.436  1.00  0.00     0.039 A 
ATOM     29  C   UNL A   1      42.448  21.522  25.376  1.00  0.00     0.014 A 
ATOM     30  C   UNL A   1      42.399  21.066  27.749  1.00  0.00     0.014 A 
ATOM     31  C   UNL A   1      42.939  22.806  25.635  1.00  0.00     0.010 A 
ATOM     32  C   UNL A   1      42.820  22.370  28.010  1.00  0.00     0.010 A 
ATOM     33  C   UNL A   1      43.100  23.252  26.955  1.00  0.00    -0.014 A 
BRANCH  33  34
ATOM     34  C   UNL A   1      43.563  24.632  27.251  1.00  0.00     0.031 A 
ATOM     35  C   UNL A   1      42.603  25.658  27.786  1.00  0.00     0.074 A 
ATOM     36  C   UNL A   1      44.831  24.985  26.968  1.00  0.00     0.049 A 
ATOM     37  N   UNL A   1      42.799  26.931  28.026  1.00  0.00    -0.248 NA
ATOM     38  C   UNL A   1      41.232  25.202  28.058  1.00  0.00     0.031 C 
ATOM     39  C   UNL A   1      45.846  24.100  26.394  1.00  0.00     0.029 A 
ATOM     40  N   UNL A   1      45.480  26.188  27.108  1.00  0.00    -0.354 N 
ATOM     41  C   UNL A   1      41.575  27.430  28.449  1.00  0.00     0.074 A 
ATOM     42  C   UNL A   1      40.632  26.334  28.397  1.00  0.00     0.031 C 
ATOM     43  C   UNL A   1      46.990  24.785  26.239  1.00  0.00     0.029 A 
ATOM     44  C   UNL A   1      46.782  26.163  26.675  1.00  0.00     0.049 A 
ATOM     45  H   UNL A   1      45.052  26.989  27.483  1.00  0.00     0.167 HD
ATOM     46  C   UNL A   1      41.269  28.684  28.862  1.00  0.00     0.037 A 
ATOM     47  C   UNL A   1      47.704  27.143  26.626  1.00  0.00     0.037 A 
ATOM     48  C   UNL A   1      42.217  29.762  28.958  1.00  0.00     0.049 A 
ATOM     49  C   UNL A   1      47.352  28.516  27.127  1.00  0.00     0.074 A 
ATOM     50  C   UNL A   1      42.023  31.040  29.453  1.00  0.00     0.029 A 
ATOM     51  N   UNL A   1      43.541  29.688  28.551  1.00  0.00    -0.354 N 
ATOM     52  N   UNL A   1      46.211  28.956  27.596  1.00  0.00    -0.248 NA
ATOM     53  C   UNL A   1      48.419  29.527  27.098  1.00  0.00     0.031 C 
ATOM     54  C   UNL A   1      43.220  31.752  29.309  1.00  0.00     0.029 A 
ATOM     55  C   UNL A   1      44.170  30.904  28.761  1.00  0.00     0.049 A 
ATOM     56  H   UNL A   1      43.970  28.889  28.168  1.00  0.00     0.167 HD
ATOM     57  C   UNL A   1      46.424  30.284  27.936  1.00  0.00     0.074 A 
ATOM     58  C   UNL A   1      47.810  30.577  27.633  1.00  0.00     0.031 C 
ATOM     59  C   UNL A   1      45.549  31.181  28.452  1.00  0.00     0.037 A 
BRANCH  46  60
ATOM     60  C   UNL A   1      39.844  28.959  29.244  1.00  0.00     0.064 A 
ATOM     61  C   UNL A   1      38.905  29.417  28.308  1.00  0.00     0.173 A 
ATOM     62  C   UNL A   1      39.405  28.731  30.557  1.00  0.00     0.173 A 
ATOM     63  F   UNL A   1      39.278  29.661  27.042  1.00  0.00    -0.203 F 
ATOM     64  C   UNL A   1      37.587  29.666  28.679  1.00  0.00     0.198 A 
ATOM     65  C   UNL A   1      38.079  28.955  30.918  1.00  0.00     0.198 A 
ATOM     66  F   UNL A   1      40.262  28.287  31.489  1.00  0.00    -0.203 F 
ATOM     67  F   UNL A   1      36.719  30.149  27.779  1.00  0.00    -0.200 F 
ATOM     68  C   UNL A   1      37.173  29.429  29.981  1.00  0.00     0.200 A 
ATOM     69  F   UNL A   1      37.678  28.715  32.174  1.00  0.00    -0.200 F 
ATOM     70  F   UNL A   1      35.903  29.665  30.336  1.00  0.00    -0.200 F 
ENDBRANCH  46  60
BRANCH  47  71
ATOM     71  C   UNL A   1      49.061  26.847  26.099  1.00  0.00     0.064 A 
ATOM     72  C   UNL A   1      49.367  27.046  24.747  1.00  0.00     0.173 A 
ATOM     73  C   UNL A   1      50.080  26.378  26.940  1.00  0.00     0.173 A 
ATOM     74  F   UNL A   1      48.417  27.474  23.902  1.00  0.00    -0.203 F 
ATOM     75  C   UNL A   1      50.640  26.776  24.251  1.00  0.00     0.198 A 
ATOM     76  C   UNL A   1      51.360  26.131  26.447  1.00  0.00     0.198 A 
ATOM     77  F   UNL A   1      49.838  26.178  28.243  1.00  0.00    -0.203 F 
ATOM     78  F   UNL A   1      50.898  26.944  22.946  1.00  0.00    -0.200 F 
ATOM     79  C   UNL A   1      51.637  26.325  25.102  1.00  0.00     0.200 A 
ATOM     80  F   UNL A   1      52.324  25.708  27.277  1.00  0.00    -0.200 F 
ATOM     81  F   UNL A   1      52.864  26.075  24.627  1.00  0.00    -0.200 F 
ENDBRANCH  47  71
BRANCH  59  82
ATOM     82  C   UNL A   1      46.067  32.560  28.737  1.00  0.00     0.064 A 
ATOM     83  C   UNL A   1      46.648  32.882  29.972  1.00  0.00     0.173 A 
ATOM     84  C   UNL A   1      46.013  33.557  27.752  1.00  0.00     0.173 A 
ATOM     85  F   UNL A   1      46.706  31.967  30.950  1.00  0.00    -0.203 F 
ATOM     86  C   UNL A   1      47.142  34.161  30.217  1.00  0.00     0.198 A 
ATOM     87  C   UNL A   1      46.530  34.828  27.992  1.00  0.00     0.198 A 
ATOM     88  F   UNL A   1      45.470  33.296  26.554  1.00  0.00    -0.203 F 
ATOM     89  F   UNL A   1      47.658  34.459  31.417  1.00  0.00    -0.200 F 
ATOM     90  C   UNL A   1      47.089  35.129  29.225  1.00  0.00     0.200 A 
ATOM     91  F   UNL A   1      46.486  35.760  27.030  1.00  0.00    -0.200 F 
ATOM     92  F   UNL A   1      47.569  36.358  29.461  1.00  0.00    -0.200 F 
ENDBRANCH  59  82
ENDBRANCH  33  34
ENDBRANCH  25  28
ENDBRANCH  23  24
ENDBRANCH  22  23
ENDBRANCH   1  22
TORSDOF 14
ENDMDL
MODEL 2
REMARK VINA RESULT:     -11.3      4.780      9.558
REMARK SMILES CC(C)(C[NH+]1CCC(C(N)=S)CC1)C(=O)NCCCNC(=O)c1ccc(-c2c3nc(c(-c4c(F)c(F)c(F)c(F)c4F)c4ccc([nH]4)c(-c4c(F)c(F)c(F)c(F)c4F)c4nc(c(-c5c(F)c(F)c(F)c(F)c5F)c5ccc2[nH]5)C=C4)C=C3)cc1
REMARK SMILES IDX 17 1 16 2 14 3 15 4 2 6 1 7 3 8 4 9 5 10 6 11 13 12 7 14
REMARK SMILES IDX 12 15 8 16 9 17 11 18 10 19 18 22 19 23 20 24 21 25 22 27
REMARK SMILES IDX 23 28 24 29 85 30 25 31 84 32 26 33 27 34 28 35 78 36 29 37
REMARK SMILES IDX 83 38 77 39 79 40 30 41 82 42 76 43 75 44 31 46 63 47 43 48
REMARK SMILES IDX 62 49 44 50 47 51 61 52 80 53 45 54 46 55 60 57 81 58 48 59
REMARK SMILES IDX 32 60 33 61 41 62 34 63 35 64 39 65 42 66 36 67 37 68 40 69
REMARK SMILES IDX 38 70 64 71 65 72 73 73 66 74 67 75 71 76 74 77 68 78 69 79
REMARK SMILES IDX 72 80 70 81 49 82 50 83 58 84 51 85 52 86 56 87 59 88 53 89
REMARK SMILES IDX 54 90 57 91 55 92
REMARK H PARENT 16 5 5 13 10 20 10 21 20 26 79 45 47 56
REMARK Flexibility Score: inf
ROOT
ATOM      1  C   UNL A   1      34.758  34.073  30.103  1.00  0.00     0.117 C 
ENDROOT
BRANCH   1   2
ATOM      2  N   UNL A   1      34.074  33.511  31.252  1.00  0.00    -0.355 N 
ATOM      3  C   UNL A   1      34.198  33.663  32.597  1.00  0.00     0.231 C 
ATOM      4  O   UNL A   1      33.380  33.021  33.265  1.00  0.00    -0.274 OA
ATOM      5  H   UNL A   1      33.360  32.881  31.003  1.00  0.00     0.163 HD
BRANCH   3   6
ATOM      6  C   UNL A   1      35.245  34.575  33.265  1.00  0.00     0.092 C 
ATOM      7  C   UNL A   1      35.239  34.294  34.792  1.00  0.00     0.027 C 
ATOM      8  C   UNL A   1      34.804  36.046  33.114  1.00  0.00     0.027 C 
BRANCH   6   9
ATOM      9  C   UNL A   1      36.690  34.375  32.723  1.00  0.00     0.278 C 
BRANCH   9  10
ATOM     10  N   UNL A   1      37.436  33.261  33.342  1.00  0.00    -0.334 N 
ATOM     11  C   UNL A   1      37.553  32.084  32.475  1.00  0.00     0.262 C 
ATOM     12  C   UNL A   1      38.757  33.679  33.829  1.00  0.00     0.262 C 
ATOM     13  H   UNL A   1      36.875  32.981  34.147  1.00  0.00     0.348 HD
ATOM     14  C   UNL A   1      38.152  30.900  33.233  1.00  0.00     0.072 C 
ATOM     15  C   UNL A   1      39.412  32.561  34.645  1.00  0.00     0.072 C 
ATOM     16  C   UNL A   1      39.513  31.262  33.837  1.00  0.00     0.058 C 
BRANCH  16  17
ATOM     17  C   UNL A   1      40.096  30.099  34.633  1.00  0.00     0.076 C 
ATOM     18  S   UNL A   1      41.136  28.938  34.035  1.00  0.00    -0.066 S 
BRANCH  17  19
ATOM     19  N   UNL A   1      39.746  30.048  35.952  1.00  0.00    -0.393 N 
ATOM     20  H   UNL A   1      38.875  30.402  36.243  1.00  0.00     0.157 HD
ATOM     21  H   UNL A   1      40.364  29.656  36.611  1.00  0.00     0.157 HD
ENDBRANCH  17  19
ENDBRANCH  16  17
ENDBRANCH   9  10
ENDBRANCH   6   9
ENDBRANCH   3   6
ENDBRANCH   1   2
BRANCH   1  22
ATOM     22  C   UNL A   1      35.557  33.040  29.313  1.00  0.00     0.042 C 
BRANCH  22  23
ATOM     23  C   UNL A   1      35.022  32.744  27.917  1.00  0.00     0.118 C 
BRANCH  23  24
ATOM     24  N   UNL A   1      34.291  31.487  27.853  1.00  0.00    -0.352 N 
ATOM     25  C   UNL A   1      34.741  30.192  27.877  1.00  0.00     0.251 C 
ATOM     26  H   UNL A   1      33.314  31.583  27.779  1.00  0.00     0.163 HD
ATOM     27  O   UNL A   1      33.963  29.278  27.606  1.00  0.00    -0.269 OA
BRANCH  25  28
ATOM     28  C   UNL A   1      36.149  29.871  28.206  1.00  0.00     0.039 A 
ATOM     29  C   UNL A   1      36.446  29.399  29.489  1.00  0.00     0.014 A 
ATOM     30  C   UNL A   1      37.183  30.086  27.292  1.00  0.00     0.014 A 
ATOM     31  C   UNL A   1      37.765  29.086  29.832  1.00  0.00     0.010 A 
ATOM     32  C   UNL A   1      38.487  29.707  27.610  1.00  0.00     0.010 A 
ATOM     33  C   UNL A   1      38.793  29.208  28.885  1.00  0.00    -0.014 A 
BRANCH  33  34
ATOM     34  C   UNL A   1      40.190  28.825  29.212  1.00  0.00     0.031 A 
ATOM     35  C   UNL A   1      41.082  29.771  29.967  1.00  0.00     0.074 A 
ATOM     36  C   UNL A   1      40.683  27.655  28.764  1.00  0.00     0.049 A 
ATOM     37  N   UNL A   1      42.350  29.650  30.273  1.00  0.00    -0.248 NA
ATOM     38  C   UNL A   1      40.477  31.035  30.412  1.00  0.00     0.031 C 
ATOM     39  C   UNL A   1      39.940  26.673  27.973  1.00  0.00     0.029 A 
ATOM     40  N   UNL A   1      41.932  27.099  28.895  1.00  0.00    -0.354 N 
ATOM     41  C   UNL A   1      42.699  30.828  30.918  1.00  0.00     0.074 A 
ATOM     42  C   UNL A   1      41.521  31.668  30.928  1.00  0.00     0.031 C 
ATOM     43  C   UNL A   1      40.742  25.633  27.696  1.00  0.00     0.029 A 
ATOM     44  C   UNL A   1      42.063  25.886  28.265  1.00  0.00     0.049 A 
ATOM     45  H   UNL A   1      42.663  27.528  29.394  1.00  0.00     0.167 HD
ATOM     46  C   UNL A   1      43.888  31.171  31.470  1.00  0.00     0.037 A 
ATOM     47  C   UNL A   1      43.130  25.073  28.150  1.00  0.00     0.037 A 
ATOM     48  C   UNL A   1      45.046  30.317  31.502  1.00  0.00     0.049 A 
ATOM     49  C   UNL A   1      44.427  25.457  28.805  1.00  0.00     0.074 A 
ATOM     50  C   UNL A   1      46.265  30.538  32.119  1.00  0.00     0.029 A 
ATOM     51  N   UNL A   1      45.127  29.075  30.890  1.00  0.00    -0.354 N 
ATOM     52  N   UNL A   1      44.723  26.541  29.478  1.00  0.00    -0.248 NA
ATOM     53  C   UNL A   1      45.537  24.500  28.689  1.00  0.00     0.031 C 
ATOM     54  C   UNL A   1      47.098  29.447  31.847  1.00  0.00     0.029 A 
ATOM     55  C   UNL A   1      46.384  28.528  31.094  1.00  0.00     0.049 A 
ATOM     56  H   UNL A   1      44.400  28.646  30.383  1.00  0.00     0.167 HD
ATOM     57  C   UNL A   1      46.041  26.392  29.883  1.00  0.00     0.074 A 
ATOM     58  C   UNL A   1      46.487  25.104  29.393  1.00  0.00     0.031 C 
ATOM     59  C   UNL A   1      46.813  27.246  30.597  1.00  0.00     0.037 A 
BRANCH  46  60
ATOM     60  C   UNL A   1      43.998  32.534  32.088  1.00  0.00     0.064 A 
ATOM     61  C   UNL A   1      44.454  33.641  31.357  1.00  0.00     0.173 A 
ATOM     62  C   UNL A   1      43.611  32.741  33.421  1.00  0.00     0.173 A 
ATOM     63  F   UNL A   1      44.846  33.492  30.083  1.00  0.00    -0.203 F 
ATOM     64  C   UNL A   1      44.548  34.898  31.946  1.00  0.00     0.198 A 
ATOM     65  C   UNL A   1      43.680  34.006  33.998  1.00  0.00     0.198 A 
ATOM     66  F   UNL A   1      43.162  31.717  34.162  1.00  0.00    -0.203 F 
ATOM     67  F   UNL A   1      45.033  35.931  31.243  1.00  0.00    -0.200 F 
ATOM     68  C   UNL A   1      44.156  35.082  33.264  1.00  0.00     0.200 A 
ATOM     69  F   UNL A   1      43.290  34.184  35.268  1.00  0.00    -0.200 F 
ATOM     70  F   UNL A   1      44.243  36.294  33.828  1.00  0.00    -0.200 F 
ENDBRANCH  46  60
BRANCH  47  71
ATOM     71  C   UNL A   1      43.002  23.799  27.397  1.00  0.00     0.064 A 
ATOM     72  C   UNL A   1      43.391  23.714  26.054  1.00  0.00     0.173 A 
ATOM     73  C   UNL A   1      42.506  22.639  28.011  1.00  0.00     0.173 A 
ATOM     74  F   UNL A   1      43.850  24.803  25.421  1.00  0.00    -0.203 F 
ATOM     75  C   UNL A   1      43.278  22.519  25.348  1.00  0.00     0.198 A 
ATOM     76  C   UNL A   1      42.417  21.439  27.310  1.00  0.00     0.198 A 
ATOM     77  F   UNL A   1      42.128  22.668  29.297  1.00  0.00    -0.203 F 
ATOM     78  F   UNL A   1      43.627  22.472  24.055  1.00  0.00    -0.200 F 
ATOM     79  C   UNL A   1      42.798  21.380  25.978  1.00  0.00     0.200 A 
ATOM     80  F   UNL A   1      41.966  20.338  27.927  1.00  0.00    -0.200 F 
ATOM     81  F   UNL A   1      42.700  20.229  25.301  1.00  0.00    -0.200 F 
ENDBRANCH  47  71
BRANCH  59  82
ATOM     82  C   UNL A   1      48.215  26.811  30.905  1.00  0.00     0.064 A 
ATOM     83  C   UNL A   1      49.292  27.181  30.086  1.00  0.00     0.173 A 
ATOM     84  C   UNL A   1      48.489  26.047  32.049  1.00  0.00     0.173 A 
ATOM     85  F   UNL A   1      49.078  27.896  28.972  1.00  0.00    -0.203 F 
ATOM     86  C   UNL A   1      50.591  26.787  30.393  1.00  0.00     0.198 A 
ATOM     87  C   UNL A   1      49.793  25.675  32.367  1.00  0.00     0.198 A 
ATOM     88  F   UNL A   1      47.493  25.672  32.865  1.00  0.00    -0.203 F 
ATOM     89  F   UNL A   1      51.601  27.118  29.577  1.00  0.00    -0.200 F 
ATOM     90  C   UNL A   1      50.841  26.041  31.536  1.00  0.00     0.200 A 
ATOM     91  F   UNL A   1      50.033  24.962  33.475  1.00  0.00    -0.200 F 
ATOM     92  F   UNL A   1      52.093  25.666  31.832  1.00  0.00    -0.200 F 
ENDBRANCH  59  82
ENDBRANCH  33  34
ENDBRANCH  25  28
ENDBRANCH  23  24
ENDBRANCH  22  23
ENDBRANCH   1  22
TORSDOF 14
ENDMDL
MODEL 3
REMARK VINA RESULT:     -11.2      1.107      2.049
REMARK SMILES CC(C)(C[NH+]1CCC(C(N)=S)CC1)C(=O)NCCCNC(=O)c1ccc(-c2c3nc(c(-c4c(F)c(F)c(F)c(F)c4F)c4ccc([nH]4)c(-c4c(F)c(F)c(F)c(F)c4F)c4nc(c(-c5c(F)c(F)c(F)c(F)c5F)c5ccc2[nH]5)C=C4)C=C3)cc1
REMARK SMILES IDX 17 1 16 2 14 3 15 4 2 6 1 7 3 8 4 9 5 10 6 11 13 12 7 14
REMARK SMILES IDX 12 15 8 16 9 17 11 18 10 19 18 22 19 23 20 24 21 25 22 27
REMARK SMILES IDX 23 28 24 29 85 30 25 31 84 32 26 33 27 34 28 35 78 36 29 37
REMARK SMILES IDX 83 38 77 39 79 40 30 41 82 42 76 43 75 44 31 46 63 47 43 48
REMARK SMILES IDX 62 49 44 50 47 51 61 52 80 53 45 54 46 55 60 57 81 58 48 59
REMARK SMILES IDX 32 60 33 61 41 62 34 63 35 64 39 65 42 66 36 67 37 68 40 69
REMARK SMILES IDX 38 70 64 71 65 72 73 73 66 74 67 75 71 76 74 77 68 78 69 79
REMARK SMILES IDX 72 80 70 81 49 82 50 83 58 84 51 85 52 86 56 87 59 88 53 89
REMARK SMILES IDX 54 90 57 91 55 92
REMARK H PARENT 16 5 5 13 10 20 10 21 20 26 79 45 47 56
REMARK Flexibility Score: inf
ROOT
ATOM      1  C   UNL A   1      36.641  20.382  24.959  1.00  0.00     0.117 C 
ENDROOT
BRANCH   1   2
ATOM      2  N   UNL A   1      35.393  19.648  24.867  1.00  0.00    -0.355 N 
ATOM      3  C   UNL A   1      34.081  19.997  24.936  1.00  0.00     0.231 C 
ATOM      4  O   UNL A   1      33.291  19.061  24.769  1.00  0.00    -0.274 OA
ATOM      5  H   UNL A   1      35.525  18.683  24.722  1.00  0.00     0.163 HD
BRANCH   3   6
ATOM      6  C   UNL A   1      33.586  21.436  25.174  1.00  0.00     0.092 C 
ATOM      7  C   UNL A   1      33.614  21.720  26.701  1.00  0.00     0.027 C 
ATOM      8  C   UNL A   1      32.102  21.535  24.762  1.00  0.00     0.027 C 
BRANCH   6   9
ATOM      9  C   UNL A   1      34.432  22.519  24.445  1.00  0.00     0.278 C 
BRANCH   9  10
ATOM     10  N   UNL A   1      33.876  23.886  24.508  1.00  0.00    -0.334 N 
ATOM     11  C   UNL A   1      34.660  24.798  25.348  1.00  0.00     0.262 C 
ATOM     12  C   UNL A   1      33.665  24.463  23.174  1.00  0.00     0.262 C 
ATOM     13  H   UNL A   1      32.965  23.782  24.956  1.00  0.00     0.348 HD
ATOM     14  C   UNL A   1      33.935  26.129  25.540  1.00  0.00     0.072 C 
ATOM     15  C   UNL A   1      32.899  25.785  23.271  1.00  0.00     0.072 C 
ATOM     16  C   UNL A   1      33.613  26.782  24.191  1.00  0.00     0.058 C 
BRANCH  16  17
ATOM     17  C   UNL A   1      32.850  28.090  24.373  1.00  0.00     0.076 C 
ATOM     18  S   UNL A   1      31.200  28.284  24.213  1.00  0.00    -0.066 S 
BRANCH  17  19
ATOM     19  N   UNL A   1      33.605  29.171  24.730  1.00  0.00    -0.393 N 
ATOM     20  H   UNL A   1      33.293  30.080  24.518  1.00  0.00     0.157 HD
ATOM     21  H   UNL A   1      34.460  29.041  25.200  1.00  0.00     0.157 HD
ENDBRANCH  17  19
ENDBRANCH  16  17
ENDBRANCH   9  10
ENDBRANCH   6   9
ENDBRANCH   3   6
ENDBRANCH   1   2
BRANCH   1  22
ATOM     22  C   UNL A   1      37.871  19.479  24.995  1.00  0.00     0.042 C 
BRANCH  22  23
ATOM     23  C   UNL A   1      39.075  20.060  25.727  1.00  0.00     0.118 C 
BRANCH  23  24
ATOM     24  N   UNL A   1      40.166  19.107  25.854  1.00  0.00    -0.352 N 
ATOM     25  C   UNL A   1      41.507  19.310  26.063  1.00  0.00     0.251 C 
ATOM     26  H   UNL A   1      39.899  18.162  25.777  1.00  0.00     0.163 HD
ATOM     27  O   UNL A   1      42.286  18.365  25.935  1.00  0.00    -0.269 OA
BRANCH  25  28
ATOM     28  C   UNL A   1      42.038  20.644  26.420  1.00  0.00     0.039 A 
ATOM     29  C   UNL A   1      42.337  21.544  25.391  1.00  0.00     0.014 A 
ATOM     30  C   UNL A   1      42.301  20.998  27.746  1.00  0.00     0.014 A 
ATOM     31  C   UNL A   1      42.839  22.813  25.694  1.00  0.00     0.010 A 
ATOM     32  C   UNL A   1      42.734  22.288  28.052  1.00  0.00     0.010 A 
ATOM     33  C   UNL A   1      43.014  23.207  27.029  1.00  0.00    -0.014 A 
BRANCH  33  34
ATOM     34  C   UNL A   1      43.490  24.572  27.373  1.00  0.00     0.031 A 
ATOM     35  C   UNL A   1      42.537  25.591  27.934  1.00  0.00     0.074 A 
ATOM     36  C   UNL A   1      44.764  24.920  27.111  1.00  0.00     0.049 A 
ATOM     37  N   UNL A   1      42.745  26.854  28.217  1.00  0.00    -0.248 NA
ATOM     38  C   UNL A   1      41.159  25.142  28.181  1.00  0.00     0.031 C 
ATOM     39  C   UNL A   1      45.773  24.043  26.516  1.00  0.00     0.029 A 
ATOM     40  N   UNL A   1      45.424  26.110  27.295  1.00  0.00    -0.354 N 
ATOM     41  C   UNL A   1      41.523  27.352  28.647  1.00  0.00     0.074 A 
ATOM     42  C   UNL A   1      40.569  26.269  28.553  1.00  0.00     0.031 C 
ATOM     43  C   UNL A   1      46.925  24.720  26.392  1.00  0.00     0.029 A 
ATOM     44  C   UNL A   1      46.729  26.085  26.870  1.00  0.00     0.049 A 
ATOM     45  H   UNL A   1      45.002  26.904  27.693  1.00  0.00     0.167 HD
ATOM     46  C   UNL A   1      41.228  28.595  29.098  1.00  0.00     0.037 A 
ATOM     47  C   UNL A   1      47.662  27.056  26.860  1.00  0.00     0.037 A 
ATOM     48  C   UNL A   1      42.187  29.659  29.236  1.00  0.00     0.049 A 
ATOM     49  C   UNL A   1      47.321  28.416  27.403  1.00  0.00     0.074 A 
ATOM     50  C   UNL A   1      42.003  30.923  29.771  1.00  0.00     0.029 A 
ATOM     51  N   UNL A   1      43.513  29.583  28.836  1.00  0.00    -0.354 N 
ATOM     52  N   UNL A   1      46.182  28.853  27.877  1.00  0.00    -0.248 NA
ATOM     53  C   UNL A   1      48.400  29.415  27.414  1.00  0.00     0.031 C 
ATOM     54  C   UNL A   1      43.209  31.625  29.659  1.00  0.00     0.029 A 
ATOM     55  C   UNL A   1      44.153  30.785  29.091  1.00  0.00     0.049 A 
ATOM     56  H   UNL A   1      43.936  28.792  28.430  1.00  0.00     0.167 HD
ATOM     57  C   UNL A   1      46.407  30.166  28.262  1.00  0.00     0.074 A 
ATOM     58  C   UNL A   1      47.798  30.453  27.979  1.00  0.00     0.031 C 
ATOM     59  C   UNL A   1      45.538  31.056  28.801  1.00  0.00     0.037 A 
BRANCH  46  60
ATOM     60  C   UNL A   1      39.803  28.874  29.478  1.00  0.00     0.064 A 
ATOM     61  C   UNL A   1      39.327  28.637  30.777  1.00  0.00     0.173 A 
ATOM     62  C   UNL A   1      38.912  29.416  28.541  1.00  0.00     0.173 A 
ATOM     63  F   UNL A   1      40.137  28.110  31.706  1.00  0.00    -0.203 F 
ATOM     64  C   UNL A   1      38.003  28.904  31.113  1.00  0.00     0.198 A 
ATOM     65  C   UNL A   1      37.595  29.708  28.889  1.00  0.00     0.198 A 
ATOM     66  F   UNL A   1      39.319  29.668  27.287  1.00  0.00    -0.203 F 
ATOM     67  F   UNL A   1      37.557  28.624  32.346  1.00  0.00    -0.200 F 
ATOM     68  C   UNL A   1      37.140  29.444  30.171  1.00  0.00     0.200 A 
ATOM     69  F   UNL A   1      36.766  30.240  27.980  1.00  0.00    -0.200 F 
ATOM     70  F   UNL A   1      35.866  29.704  30.497  1.00  0.00    -0.200 F 
ENDBRANCH  46  60
BRANCH  47  71
ATOM     71  C   UNL A   1      49.020  26.762  26.334  1.00  0.00     0.064 A 
ATOM     72  C   UNL A   1      50.021  26.252  27.170  1.00  0.00     0.173 A 
ATOM     73  C   UNL A   1      49.336  26.967  24.983  1.00  0.00     0.173 A 
ATOM     74  F   UNL A   1      49.769  26.059  28.473  1.00  0.00    -0.203 F 
ATOM     75  C   UNL A   1      51.293  25.969  26.678  1.00  0.00     0.198 A 
ATOM     76  C   UNL A   1      50.601  26.661  24.487  1.00  0.00     0.198 A 
ATOM     77  F   UNL A   1      48.409  27.447  24.141  1.00  0.00    -0.203 F 
ATOM     78  F   UNL A   1      52.243  25.512  27.506  1.00  0.00    -0.200 F 
ATOM     79  C   UNL A   1      51.580  26.167  25.336  1.00  0.00     0.200 A 
ATOM     80  F   UNL A   1      50.870  26.841  23.186  1.00  0.00    -0.200 F 
ATOM     81  F   UNL A   1      52.801  25.884  24.861  1.00  0.00    -0.200 F 
ENDBRANCH  47  71
BRANCH  59  82
ATOM     82  C   UNL A   1      46.068  32.419  29.134  1.00  0.00     0.064 A 
ATOM     83  C   UNL A   1      46.666  32.688  30.374  1.00  0.00     0.173 A 
ATOM     84  C   UNL A   1      46.011  33.455  28.190  1.00  0.00     0.173 A 
ATOM     85  F   UNL A   1      46.728  31.734  31.314  1.00  0.00    -0.203 F 
ATOM     86  C   UNL A   1      47.171  33.953  30.663  1.00  0.00     0.198 A 
ATOM     87  C   UNL A   1      46.540  34.712  28.474  1.00  0.00     0.198 A 
ATOM     88  F   UNL A   1      45.453  33.245  26.989  1.00  0.00    -0.203 F 
ATOM     89  F   UNL A   1      47.703  34.200  31.869  1.00  0.00    -0.200 F 
ATOM     90  C   UNL A   1      47.114  34.961  29.711  1.00  0.00     0.200 A 
ATOM     91  F   UNL A   1      46.491  35.681  27.550  1.00  0.00    -0.200 F 
ATOM     92  F   UNL A   1      47.605  36.176  29.991  1.00  0.00    -0.200 F 
ENDBRANCH  59  82
ENDBRANCH  33  34
ENDBRANCH  25  28
ENDBRANCH  23  24
ENDBRANCH  22  23
ENDBRANCH   1  22
TORSDOF 14
ENDMDL
