MODEL 1
REMARK VINA RESULT:     -13.4      0.000      0.000
REMARK SMILES Cc1ccc2c(c1)C=C(C(=O)NCCCNC(=O)c1ccc(-c3c4nc(c(-c5c(F)c(F)c(F)c(F)c5F)c5ccc([nH]5)c(-c5c(F)c(F)c(F)c(F)c5F)c5nc(c(-c6c(F)c(F)c(F)c(F)c6F)c6ccc3[nH]6)C=C5)C=C4)cc1)[C@@H](C(F)(F)F)O2
REMARK SMILES IDX 14 1 13 2 12 3 10 4 11 5 9 7 1 8 2 9 3 10 7 11 4 12 6 13
REMARK SMILES IDX 5 14 8 15 87 16 82 17 83 18 84 19 85 20 86 21 15 22 16 23
REMARK SMILES IDX 17 24 18 26 19 27 20 28 81 29 21 30 80 31 22 32 23 33 24 34
REMARK SMILES IDX 74 35 25 36 79 37 73 38 75 39 26 40 78 41 72 42 71 43 27 45
REMARK SMILES IDX 59 46 39 47 58 48 40 49 43 50 57 51 76 52 41 53 42 54 56 56
REMARK SMILES IDX 77 57 44 58 28 59 29 60 37 61 30 62 31 63 35 64 38 65 32 66
REMARK SMILES IDX 33 67 36 68 34 69 60 70 61 71 69 72 62 73 63 74 67 75 70 76
REMARK SMILES IDX 64 77 65 78 68 79 66 80 45 81 46 82 54 83 47 84 48 85 52 86
REMARK SMILES IDX 55 87 49 88 50 89 53 90 51 91
REMARK H PARENT 12 6 16 25 75 44 43 55
REMARK Flexibility Score: inf
ROOT
ATOM      1  C   UNL A   1      31.440  32.135  26.679  1.00  0.00     0.042 C 
ENDROOT
BRANCH   1   2
ATOM      2  C   UNL A   1      31.577  30.625  26.553  1.00  0.00     0.118 C 
BRANCH   2   3
ATOM      3  N   UNL A   1      32.263  30.244  25.330  1.00  0.00    -0.352 N 
ATOM      4  C   UNL A   1      32.631  29.099  24.710  1.00  0.00     0.251 C 
ATOM      5  O   UNL A   1      33.231  29.255  23.642  1.00  0.00    -0.270 OA
ATOM      6  H   UNL A   1      32.535  31.035  24.809  1.00  0.00     0.163 HD
BRANCH   4   7
ATOM      7  C   UNL A   1      32.369  27.721  25.219  1.00  0.00     0.067 C 
ATOM      8  C   UNL A   1      35.233  22.315  26.184  1.00  0.00     0.044 C 
ATOM      9  C   UNL A   1      34.130  23.329  26.250  1.00  0.00    -0.050 A 
ATOM     10  C   UNL A   1      32.895  22.978  26.810  1.00  0.00     0.007 A 
ATOM     11  C   UNL A   1      34.311  24.626  25.748  1.00  0.00     0.015 A 
ATOM     12  C   UNL A   1      31.860  23.909  26.876  1.00  0.00     0.047 A 
ATOM     13  C   UNL A   1      33.271  25.561  25.806  1.00  0.00     0.017 A 
ATOM     14  C   UNL A   1      32.049  25.191  26.368  1.00  0.00     0.128 A 
ATOM     15  C   UNL A   1      33.451  26.926  25.328  1.00  0.00     0.025 C 
ATOM     16  O   UNL A   1      31.003  26.061  26.490  1.00  0.00    -0.475 OA
ATOM     17  C   UNL A   1      31.009  27.190  25.573  1.00  0.00     0.314 C 
BRANCH  17  18
ATOM     18  C   UNL A   1      30.163  26.840  24.333  1.00  0.00     0.429 C 
ATOM     19  F   UNL A   1      30.936  26.244  23.390  1.00  0.00    -0.167 F 
ATOM     20  F   UNL A   1      29.166  25.967  24.615  1.00  0.00    -0.167 F 
ATOM     21  F   UNL A   1      29.587  27.921  23.765  1.00  0.00    -0.167 F 
ENDBRANCH  17  18
ENDBRANCH   4   7
ENDBRANCH   2   3
ENDBRANCH   1   2
BRANCH   1  22
ATOM     22  C   UNL A   1      32.702  32.789  27.226  1.00  0.00     0.118 C 
BRANCH  22  23
ATOM     23  N   UNL A   1      32.475  34.175  27.633  1.00  0.00    -0.352 N 
ATOM     24  C   UNL A   1      33.027  34.912  28.652  1.00  0.00     0.251 C 
ATOM     25  H   UNL A   1      31.816  34.660  27.085  1.00  0.00     0.163 HD
ATOM     26  O   UNL A   1      32.528  35.991  28.963  1.00  0.00    -0.269 OA
BRANCH  24  27
ATOM     27  C   UNL A   1      34.204  34.408  29.386  1.00  0.00     0.039 A 
ATOM     28  C   UNL A   1      35.486  34.579  28.867  1.00  0.00     0.014 A 
ATOM     29  C   UNL A   1      34.029  33.762  30.614  1.00  0.00     0.014 A 
ATOM     30  C   UNL A   1      36.560  33.931  29.459  1.00  0.00     0.010 A 
ATOM     31  C   UNL A   1      35.132  33.211  31.273  1.00  0.00     0.010 A 
ATOM     32  C   UNL A   1      36.399  33.244  30.673  1.00  0.00    -0.014 A 
BRANCH  32  33
ATOM     33  C   UNL A   1      37.580  32.577  31.280  1.00  0.00     0.031 A 
ATOM     34  C   UNL A   1      38.019  32.910  32.679  1.00  0.00     0.074 A 
ATOM     35  C   UNL A   1      38.205  31.605  30.587  1.00  0.00     0.049 A 
ATOM     36  N   UNL A   1      38.998  32.393  33.380  1.00  0.00    -0.248 NA
ATOM     37  C   UNL A   1      37.269  33.959  33.387  1.00  0.00     0.031 C 
ATOM     38  C   UNL A   1      37.859  31.190  29.226  1.00  0.00     0.029 A 
ATOM     39  N   UNL A   1      39.227  30.762  30.939  1.00  0.00    -0.354 N 
ATOM     40  C   UNL A   1      38.995  33.068  34.593  1.00  0.00     0.074 A 
ATOM     41  C   UNL A   1      37.937  34.051  34.528  1.00  0.00     0.031 C 
ATOM     42  C   UNL A   1      38.598  30.124  28.889  1.00  0.00     0.029 A 
ATOM     43  C   UNL A   1      39.523  29.828  29.976  1.00  0.00     0.049 A 
ATOM     44  H   UNL A   1      39.703  30.820  31.800  1.00  0.00     0.167 HD
ATOM     45  C   UNL A   1      39.795  32.872  35.668  1.00  0.00     0.037 A 
ATOM     46  C   UNL A   1      40.444  28.847  29.963  1.00  0.00     0.037 A 
ATOM     47  C   UNL A   1      40.825  31.868  35.739  1.00  0.00     0.049 A 
ATOM     48  C   UNL A   1      41.341  28.676  31.154  1.00  0.00     0.074 A 
ATOM     49  C   UNL A   1      41.674  31.577  36.792  1.00  0.00     0.029 A 
ATOM     50  N   UNL A   1      41.142  30.988  34.713  1.00  0.00    -0.354 N 
ATOM     51  N   UNL A   1      41.330  29.324  32.293  1.00  0.00    -0.248 NA
ATOM     52  C   UNL A   1      42.387  27.652  31.053  1.00  0.00     0.031 C 
ATOM     53  C   UNL A   1      42.534  30.550  36.389  1.00  0.00     0.029 A 
ATOM     54  C   UNL A   1      42.190  30.169  35.102  1.00  0.00     0.049 A 
ATOM     55  H   UNL A   1      40.690  30.951  33.840  1.00  0.00     0.167 HD
ATOM     56  C   UNL A   1      42.362  28.787  33.047  1.00  0.00     0.074 A 
ATOM     57  C   UNL A   1      42.963  27.741  32.244  1.00  0.00     0.031 C 
ATOM     58  C   UNL A   1      42.779  29.136  34.288  1.00  0.00     0.037 A 
BRANCH  45  59
ATOM     59  C   UNL A   1      39.601  33.763  36.861  1.00  0.00     0.064 A 
ATOM     60  C   UNL A   1      40.176  35.041  36.926  1.00  0.00     0.173 A 
ATOM     61  C   UNL A   1      38.778  33.359  37.924  1.00  0.00     0.173 A 
ATOM     62  F   UNL A   1      40.981  35.470  35.942  1.00  0.00    -0.203 F 
ATOM     63  C   UNL A   1      39.948  35.874  38.019  1.00  0.00     0.198 A 
ATOM     64  C   UNL A   1      38.531  34.205  39.001  1.00  0.00     0.198 A 
ATOM     65  F   UNL A   1      38.200  32.149  37.908  1.00  0.00    -0.203 F 
ATOM     66  F   UNL A   1      40.535  37.078  38.076  1.00  0.00    -0.200 F 
ATOM     67  C   UNL A   1      39.119  35.460  39.051  1.00  0.00     0.200 A 
ATOM     68  F   UNL A   1      37.720  33.807  39.991  1.00  0.00    -0.200 F 
ATOM     69  F   UNL A   1      38.890  36.268  40.095  1.00  0.00    -0.200 F 
ENDBRANCH  45  59
BRANCH  46  70
ATOM     70  C   UNL A   1      40.550  27.961  28.776  1.00  0.00     0.064 A 
ATOM     71  C   UNL A   1      39.845  26.752  28.716  1.00  0.00     0.173 A 
ATOM     72  C   UNL A   1      41.314  28.329  27.658  1.00  0.00     0.173 A 
ATOM     73  F   UNL A   1      39.117  26.349  29.767  1.00  0.00    -0.203 F 
ATOM     74  C   UNL A   1      39.898  25.946  27.581  1.00  0.00     0.198 A 
ATOM     75  C   UNL A   1      41.342  27.537  26.513  1.00  0.00     0.198 A 
ATOM     76  F   UNL A   1      42.002  29.480  27.665  1.00  0.00    -0.203 F 
ATOM     77  F   UNL A   1      39.232  24.783  27.556  1.00  0.00    -0.200 F 
ATOM     78  C   UNL A   1      40.636  26.344  26.476  1.00  0.00     0.200 A 
ATOM     79  F   UNL A   1      42.041  27.937  25.442  1.00  0.00    -0.200 F 
ATOM     80  F   UNL A   1      40.669  25.579  25.377  1.00  0.00    -0.200 F 
ENDBRANCH  46  70
BRANCH  58  81
ATOM     81  C   UNL A   1      43.940  28.382  34.861  1.00  0.00     0.064 A 
ATOM     82  C   UNL A   1      43.756  27.165  35.533  1.00  0.00     0.173 A 
ATOM     83  C   UNL A   1      45.252  28.842  34.676  1.00  0.00     0.173 A 
ATOM     84  F   UNL A   1      42.519  26.693  35.748  1.00  0.00    -0.203 F 
ATOM     85  C   UNL A   1      44.845  26.440  36.010  1.00  0.00     0.198 A 
ATOM     86  C   UNL A   1      46.340  28.101  35.130  1.00  0.00     0.198 A 
ATOM     87  F   UNL A   1      45.479  29.997  34.033  1.00  0.00    -0.203 F 
ATOM     88  F   UNL A   1      44.646  25.296  36.677  1.00  0.00    -0.200 F 
ATOM     89  C   UNL A   1      46.136  26.904  35.798  1.00  0.00     0.200 A 
ATOM     90  F   UNL A   1      47.586  28.544  34.913  1.00  0.00    -0.200 F 
ATOM     91  F   UNL A   1      47.183  26.197  36.244  1.00  0.00    -0.200 F 
ENDBRANCH  58  81
ENDBRANCH  32  33
ENDBRANCH  24  27
ENDBRANCH  22  23
ENDBRANCH   1  22
TORSDOF 11
ENDMDL
MODEL 2
REMARK VINA RESULT:     -13.4      1.986      3.247
REMARK SMILES Cc1ccc2c(c1)C=C(C(=O)NCCCNC(=O)c1ccc(-c3c4nc(c(-c5c(F)c(F)c(F)c(F)c5F)c5ccc([nH]5)c(-c5c(F)c(F)c(F)c(F)c5F)c5nc(c(-c6c(F)c(F)c(F)c(F)c6F)c6ccc3[nH]6)C=C5)C=C4)cc1)[C@@H](C(F)(F)F)O2
REMARK SMILES IDX 14 1 13 2 12 3 10 4 11 5 9 7 1 8 2 9 3 10 7 11 4 12 6 13
REMARK SMILES IDX 5 14 8 15 87 16 82 17 83 18 84 19 85 20 86 21 15 22 16 23
REMARK SMILES IDX 17 24 18 26 19 27 20 28 81 29 21 30 80 31 22 32 23 33 24 34
REMARK SMILES IDX 74 35 25 36 79 37 73 38 75 39 26 40 78 41 72 42 71 43 27 45
REMARK SMILES IDX 59 46 39 47 58 48 40 49 43 50 57 51 76 52 41 53 42 54 56 56
REMARK SMILES IDX 77 57 44 58 28 59 29 60 37 61 30 62 31 63 35 64 38 65 32 66
REMARK SMILES IDX 33 67 36 68 34 69 60 70 61 71 69 72 62 73 63 74 67 75 70 76
REMARK SMILES IDX 64 77 65 78 68 79 66 80 45 81 46 82 54 83 47 84 48 85 52 86
REMARK SMILES IDX 55 87 49 88 50 89 53 90 51 91
REMARK H PARENT 12 6 16 25 75 44 43 55
REMARK Flexibility Score: inf
ROOT
ATOM      1  C   UNL A   1      32.991  29.160  24.847  1.00  0.00     0.042 C 
ENDROOT
BRANCH   1   2
ATOM      2  C   UNL A   1      31.786  28.866  23.966  1.00  0.00     0.118 C 
BRANCH   2   3
ATOM      3  N   UNL A   1      30.947  27.820  24.528  1.00  0.00    -0.352 N 
ATOM      4  C   UNL A   1      30.989  26.474  24.660  1.00  0.00     0.251 C 
ATOM      5  O   UNL A   1      30.008  25.977  25.222  1.00  0.00    -0.270 OA
ATOM      6  H   UNL A   1      30.124  28.193  24.919  1.00  0.00     0.163 HD
BRANCH   4   7
ATOM      7  C   UNL A   1      32.097  25.595  24.186  1.00  0.00     0.067 C 
ATOM      8  C   UNL A   1      37.744  23.649  25.825  1.00  0.00     0.044 C 
ATOM      9  C   UNL A   1      36.474  23.703  25.027  1.00  0.00    -0.050 A 
ATOM     10  C   UNL A   1      36.341  22.912  23.878  1.00  0.00     0.007 A 
ATOM     11  C   UNL A   1      35.418  24.544  25.407  1.00  0.00     0.015 A 
ATOM     12  C   UNL A   1      35.168  22.953  23.126  1.00  0.00     0.047 A 
ATOM     13  C   UNL A   1      34.243  24.593  24.650  1.00  0.00     0.017 A 
ATOM     14  C   UNL A   1      34.130  23.797  23.509  1.00  0.00     0.128 A 
ATOM     15  C   UNL A   1      33.117  25.428  25.049  1.00  0.00     0.025 C 
ATOM     16  O   UNL A   1      32.999  23.767  22.744  1.00  0.00    -0.475 OA
ATOM     17  C   UNL A   1      32.142  24.938  22.836  1.00  0.00     0.314 C 
BRANCH  17  18
ATOM     18  C   UNL A   1      32.503  25.921  21.705  1.00  0.00     0.429 C 
ATOM     19  F   UNL A   1      31.430  26.692  21.392  1.00  0.00    -0.167 F 
ATOM     20  F   UNL A   1      33.495  26.775  22.056  1.00  0.00    -0.167 F 
ATOM     21  F   UNL A   1      32.903  25.301  20.574  1.00  0.00    -0.167 F 
ENDBRANCH  17  18
ENDBRANCH   4   7
ENDBRANCH   2   3
ENDBRANCH   1   2
BRANCH   1  22
ATOM     22  C   UNL A   1      32.594  29.492  26.280  1.00  0.00     0.118 C 
BRANCH  22  23
ATOM     23  N   UNL A   1      32.445  30.930  26.495  1.00  0.00    -0.352 N 
ATOM     24  C   UNL A   1      33.185  31.807  27.251  1.00  0.00     0.251 C 
ATOM     25  H   UNL A   1      31.687  31.339  26.017  1.00  0.00     0.163 HD
ATOM     26  O   UNL A   1      32.751  32.934  27.476  1.00  0.00    -0.269 OA
BRANCH  24  27
ATOM     27  C   UNL A   1      34.488  31.395  27.809  1.00  0.00     0.039 A 
ATOM     28  C   UNL A   1      34.725  30.061  28.137  1.00  0.00     0.014 A 
ATOM     29  C   UNL A   1      35.491  32.350  28.001  1.00  0.00     0.014 A 
ATOM     30  C   UNL A   1      35.870  29.719  28.841  1.00  0.00     0.010 A 
ATOM     31  C   UNL A   1      36.697  31.980  28.604  1.00  0.00     0.010 A 
ATOM     32  C   UNL A   1      36.874  30.672  29.079  1.00  0.00    -0.014 A 
BRANCH  32  33
ATOM     33  C   UNL A   1      38.091  30.258  29.824  1.00  0.00     0.031 A 
ATOM     34  C   UNL A   1      38.300  30.678  31.252  1.00  0.00     0.074 A 
ATOM     35  C   UNL A   1      38.969  29.429  29.226  1.00  0.00     0.049 A 
ATOM     36  N   UNL A   1      39.280  30.371  32.066  1.00  0.00    -0.248 NA
ATOM     37  C   UNL A   1      37.284  31.558  31.851  1.00  0.00     0.031 C 
ATOM     38  C   UNL A   1      38.862  28.948  27.846  1.00  0.00     0.029 A 
ATOM     39  N   UNL A   1      40.093  28.809  29.705  1.00  0.00    -0.354 N 
ATOM     40  C   UNL A   1      39.012  31.035  33.255  1.00  0.00     0.074 A 
ATOM     41  C   UNL A   1      37.792  31.786  33.053  1.00  0.00     0.031 C 
ATOM     42  C   UNL A   1      39.830  28.051  27.617  1.00  0.00     0.029 A 
ATOM     43  C   UNL A   1      40.672  27.951  28.803  1.00  0.00     0.049 A 
ATOM     44  H   UNL A   1      40.452  28.965  30.609  1.00  0.00     0.167 HD
ATOM     45  C   UNL A   1      39.714  31.008  34.413  1.00  0.00     0.037 A 
ATOM     46  C   UNL A   1      41.766  27.175  28.912  1.00  0.00     0.037 A 
ATOM     47  C   UNL A   1      40.909  30.232  34.617  1.00  0.00     0.049 A 
ATOM     48  C   UNL A   1      42.544  27.192  30.195  1.00  0.00     0.074 A 
ATOM     49  C   UNL A   1      41.680  30.121  35.761  1.00  0.00     0.029 A 
ATOM     50  N   UNL A   1      41.504  29.430  33.653  1.00  0.00    -0.354 N 
ATOM     51  N   UNL A   1      42.281  27.828  31.309  1.00  0.00    -0.248 NA
ATOM     52  C   UNL A   1      43.778  26.397  30.230  1.00  0.00     0.031 C 
ATOM     53  C   UNL A   1      42.765  29.286  35.477  1.00  0.00     0.029 A 
ATOM     54  C   UNL A   1      42.645  28.839  34.171  1.00  0.00     0.049 A 
ATOM     55  H   UNL A   1      41.166  29.299  32.738  1.00  0.00     0.167 HD
ATOM     56  C   UNL A   1      43.312  27.512  32.181  1.00  0.00     0.074 A 
ATOM     57  C   UNL A   1      44.193  26.605  31.473  1.00  0.00     0.031 C 
ATOM     58  C   UNL A   1      43.514  27.942  33.450  1.00  0.00     0.037 A 
BRANCH  45  59
ATOM     59  C   UNL A   1      39.217  31.847  35.555  1.00  0.00     0.064 A 
ATOM     60  C   UNL A   1      38.346  31.329  36.525  1.00  0.00     0.173 A 
ATOM     61  C   UNL A   1      39.668  33.166  35.715  1.00  0.00     0.173 A 
ATOM     62  F   UNL A   1      37.875  30.078  36.410  1.00  0.00    -0.203 F 
ATOM     63  C   UNL A   1      37.932  32.107  37.604  1.00  0.00     0.198 A 
ATOM     64  C   UNL A   1      39.273  33.931  36.809  1.00  0.00     0.198 A 
ATOM     65  F   UNL A   1      40.507  33.707  34.820  1.00  0.00    -0.203 F 
ATOM     66  F   UNL A   1      37.072  31.602  38.500  1.00  0.00    -0.200 F 
ATOM     67  C   UNL A   1      38.403  33.403  37.751  1.00  0.00     0.200 A 
ATOM     68  F   UNL A   1      39.739  35.179  36.956  1.00  0.00    -0.200 F 
ATOM     69  F   UNL A   1      38.013  34.145  38.797  1.00  0.00    -0.200 F 
ENDBRANCH  45  59
BRANCH  46  70
ATOM     70  C   UNL A   1      42.174  26.323  27.765  1.00  0.00     0.064 A 
ATOM     71  C   UNL A   1      43.183  26.736  26.885  1.00  0.00     0.173 A 
ATOM     72  C   UNL A   1      41.601  25.059  27.558  1.00  0.00     0.173 A 
ATOM     73  F   UNL A   1      43.746  27.944  27.032  1.00  0.00    -0.203 F 
ATOM     74  C   UNL A   1      43.606  25.915  25.842  1.00  0.00     0.198 A 
ATOM     75  C   UNL A   1      42.046  24.227  26.533  1.00  0.00     0.198 A 
ATOM     76  F   UNL A   1      40.636  24.617  28.376  1.00  0.00    -0.203 F 
ATOM     77  F   UNL A   1      44.558  26.341  25.001  1.00  0.00    -0.200 F 
ATOM     78  C   UNL A   1      43.046  24.657  25.674  1.00  0.00     0.200 A 
ATOM     79  F   UNL A   1      41.515  23.006  26.387  1.00  0.00    -0.200 F 
ATOM     80  F   UNL A   1      43.469  23.859  24.684  1.00  0.00    -0.200 F 
ENDBRANCH  46  70
BRANCH  58  81
ATOM     81  C   UNL A   1      44.732  27.438  34.162  1.00  0.00     0.064 A 
ATOM     82  C   UNL A   1      44.711  26.230  34.873  1.00  0.00     0.173 A 
ATOM     83  C   UNL A   1      45.948  28.131  34.073  1.00  0.00     0.173 A 
ATOM     84  F   UNL A   1      43.568  25.541  34.998  1.00  0.00    -0.203 F 
ATOM     85  C   UNL A   1      45.864  25.739  35.480  1.00  0.00     0.198 A 
ATOM     86  C   UNL A   1      47.105  27.623  34.658  1.00  0.00     0.198 A 
ATOM     87  F   UNL A   1      46.020  29.288  33.397  1.00  0.00    -0.203 F 
ATOM     88  F   UNL A   1      45.815  24.599  36.182  1.00  0.00    -0.200 F 
ATOM     89  C   UNL A   1      47.061  26.431  35.364  1.00  0.00     0.200 A 
ATOM     90  F   UNL A   1      48.263  28.286  34.533  1.00  0.00    -0.200 F 
ATOM     91  F   UNL A   1      48.172  25.948  35.935  1.00  0.00    -0.200 F 
ENDBRANCH  58  81
ENDBRANCH  32  33
ENDBRANCH  24  27
ENDBRANCH  22  23
ENDBRANCH   1  22
TORSDOF 11
ENDMDL
MODEL 3
REMARK VINA RESULT:     -13.4      1.964      3.206
REMARK SMILES Cc1ccc2c(c1)C=C(C(=O)NCCCNC(=O)c1ccc(-c3c4nc(c(-c5c(F)c(F)c(F)c(F)c5F)c5ccc([nH]5)c(-c5c(F)c(F)c(F)c(F)c5F)c5nc(c(-c6c(F)c(F)c(F)c(F)c6F)c6ccc3[nH]6)C=C5)C=C4)cc1)[C@@H](C(F)(F)F)O2
REMARK SMILES IDX 14 1 13 2 12 3 10 4 11 5 9 7 1 8 2 9 3 10 7 11 4 12 6 13
REMARK SMILES IDX 5 14 8 15 87 16 82 17 83 18 84 19 85 20 86 21 15 22 16 23
REMARK SMILES IDX 17 24 18 26 19 27 20 28 81 29 21 30 80 31 22 32 23 33 24 34
REMARK SMILES IDX 74 35 25 36 79 37 73 38 75 39 26 40 78 41 72 42 71 43 27 45
REMARK SMILES IDX 59 46 39 47 58 48 40 49 43 50 57 51 76 52 41 53 42 54 56 56
REMARK SMILES IDX 77 57 44 58 28 59 29 60 37 61 30 62 31 63 35 64 38 65 32 66
REMARK SMILES IDX 33 67 36 68 34 69 60 70 61 71 69 72 62 73 63 74 67 75 70 76
REMARK SMILES IDX 64 77 65 78 68 79 66 80 45 81 46 82 54 83 47 84 48 85 52 86
REMARK SMILES IDX 55 87 49 88 50 89 53 90 51 91
REMARK H PARENT 12 6 16 25 75 44 43 55
REMARK Flexibility Score: inf
ROOT
ATOM      1  C   UNL A   1      33.008  29.120  24.851  1.00  0.00     0.042 C 
ENDROOT
BRANCH   1   2
ATOM      2  C   UNL A   1      31.777  28.843  24.002  1.00  0.00     0.118 C 
BRANCH   2   3
ATOM      3  N   UNL A   1      30.951  27.792  24.574  1.00  0.00    -0.352 N 
ATOM      4  C   UNL A   1      31.003  26.446  24.706  1.00  0.00     0.251 C 
ATOM      5  O   UNL A   1      30.031  25.942  25.279  1.00  0.00    -0.270 OA
ATOM      6  H   UNL A   1      30.129  28.159  24.974  1.00  0.00     0.163 HD
BRANCH   4   7
ATOM      7  C   UNL A   1      32.111  25.574  24.219  1.00  0.00     0.067 C 
ATOM      8  C   UNL A   1      37.781  23.651  25.803  1.00  0.00     0.044 C 
ATOM      9  C   UNL A   1      36.505  23.701  25.016  1.00  0.00    -0.050 A 
ATOM     10  C   UNL A   1      36.365  22.913  23.866  1.00  0.00     0.007 A 
ATOM     11  C   UNL A   1      35.448  24.535  25.408  1.00  0.00     0.015 A 
ATOM     12  C   UNL A   1      35.186  22.950  23.124  1.00  0.00     0.047 A 
ATOM     13  C   UNL A   1      34.266  24.581  24.661  1.00  0.00     0.017 A 
ATOM     14  C   UNL A   1      34.147  23.788  23.519  1.00  0.00     0.128 A 
ATOM     15  C   UNL A   1      33.139  25.409  25.073  1.00  0.00     0.025 C 
ATOM     16  O   UNL A   1      33.009  23.755  22.763  1.00  0.00    -0.475 OA
ATOM     17  C   UNL A   1      32.147  24.921  22.867  1.00  0.00     0.314 C 
BRANCH  17  18
ATOM     18  C   UNL A   1      32.493  25.909  21.736  1.00  0.00     0.429 C 
ATOM     19  F   UNL A   1      33.515  26.718  22.115  1.00  0.00    -0.167 F 
ATOM     20  F   UNL A   1      32.903  25.283  20.606  1.00  0.00    -0.167 F 
ATOM     21  F   UNL A   1      31.455  26.700  21.389  1.00  0.00    -0.167 F 
ENDBRANCH  17  18
ENDBRANCH   4   7
ENDBRANCH   2   3
ENDBRANCH   1   2
BRANCH   1  22
ATOM     22  C   UNL A   1      32.655  29.463  26.292  1.00  0.00     0.118 C 
BRANCH  22  23
ATOM     23  N   UNL A   1      32.506  30.903  26.497  1.00  0.00    -0.352 N 
ATOM     24  C   UNL A   1      33.240  31.782  27.257  1.00  0.00     0.251 C 
ATOM     25  H   UNL A   1      31.755  31.311  26.008  1.00  0.00     0.163 HD
ATOM     26  O   UNL A   1      32.807  32.911  27.472  1.00  0.00    -0.269 OA
BRANCH  24  27
ATOM     27  C   UNL A   1      34.535  31.370  27.833  1.00  0.00     0.039 A 
ATOM     28  C   UNL A   1      34.755  30.043  28.198  1.00  0.00     0.014 A 
ATOM     29  C   UNL A   1      35.549  32.317  28.003  1.00  0.00     0.014 A 
ATOM     30  C   UNL A   1      35.893  29.707  28.916  1.00  0.00     0.010 A 
ATOM     31  C   UNL A   1      36.748  31.950  28.621  1.00  0.00     0.010 A 
ATOM     32  C   UNL A   1      36.907  30.654  29.132  1.00  0.00    -0.014 A 
BRANCH  32  33
ATOM     33  C   UNL A   1      38.116  30.246  29.894  1.00  0.00     0.031 A 
ATOM     34  C   UNL A   1      38.309  30.676  31.322  1.00  0.00     0.074 A 
ATOM     35  C   UNL A   1      39.001  29.412  29.312  1.00  0.00     0.049 A 
ATOM     36  N   UNL A   1      39.280  30.375  32.148  1.00  0.00    -0.248 NA
ATOM     37  C   UNL A   1      37.286  31.560  31.902  1.00  0.00     0.031 C 
ATOM     38  C   UNL A   1      38.909  28.921  27.935  1.00  0.00     0.029 A 
ATOM     39  N   UNL A   1      40.120  28.797  29.808  1.00  0.00    -0.354 N 
ATOM     40  C   UNL A   1      38.999  31.049  33.329  1.00  0.00     0.074 A 
ATOM     41  C   UNL A   1      37.781  31.798  33.109  1.00  0.00     0.031 C 
ATOM     42  C   UNL A   1      39.880  28.023  27.723  1.00  0.00     0.029 A 
ATOM     43  C   UNL A   1      40.709  27.931  28.919  1.00  0.00     0.049 A 
ATOM     44  H   UNL A   1      40.468  28.959  30.715  1.00  0.00     0.167 HD
ATOM     45  C   UNL A   1      39.687  31.030  34.495  1.00  0.00     0.037 A 
ATOM     46  C   UNL A   1      41.802  27.157  29.046  1.00  0.00     0.037 A 
ATOM     47  C   UNL A   1      40.881  30.256  34.718  1.00  0.00     0.049 A 
ATOM     48  C   UNL A   1      42.566  27.183  30.338  1.00  0.00     0.074 A 
ATOM     49  C   UNL A   1      41.639  30.154  35.871  1.00  0.00     0.029 A 
ATOM     50  N   UNL A   1      41.487  29.447  33.767  1.00  0.00    -0.354 N 
ATOM     51  N   UNL A   1      42.290  27.828  31.444  1.00  0.00    -0.248 NA
ATOM     52  C   UNL A   1      43.799  26.390  30.393  1.00  0.00     0.031 C 
ATOM     53  C   UNL A   1      42.727  29.317  35.606  1.00  0.00     0.029 A 
ATOM     54  C   UNL A   1      42.622  28.860  34.302  1.00  0.00     0.049 A 
ATOM     55  H   UNL A   1      41.159  29.310  32.849  1.00  0.00     0.167 HD
ATOM     56  C   UNL A   1      43.311  27.518  32.330  1.00  0.00     0.074 A 
ATOM     57  C   UNL A   1      44.200  26.606  31.639  1.00  0.00     0.031 C 
ATOM     58  C   UNL A   1      43.499  27.958  33.597  1.00  0.00     0.037 A 
BRANCH  45  59
ATOM     59  C   UNL A   1      39.178  31.877  35.625  1.00  0.00     0.064 A 
ATOM     60  C   UNL A   1      38.308  31.362  36.597  1.00  0.00     0.173 A 
ATOM     61  C   UNL A   1      39.615  33.203  35.772  1.00  0.00     0.173 A 
ATOM     62  F   UNL A   1      37.850  30.105  36.496  1.00  0.00    -0.203 F 
ATOM     63  C   UNL A   1      37.882  32.148  37.666  1.00  0.00     0.198 A 
ATOM     64  C   UNL A   1      39.208  33.976  36.855  1.00  0.00     0.198 A 
ATOM     65  F   UNL A   1      40.452  33.742  34.873  1.00  0.00    -0.203 F 
ATOM     66  F   UNL A   1      37.023  31.646  38.564  1.00  0.00    -0.200 F 
ATOM     67  C   UNL A   1      38.339  33.451  37.799  1.00  0.00     0.200 A 
ATOM     68  F   UNL A   1      39.662  35.231  36.989  1.00  0.00    -0.200 F 
ATOM     69  F   UNL A   1      37.938  34.201  38.835  1.00  0.00    -0.200 F 
ENDBRANCH  45  59
BRANCH  46  70
ATOM     70  C   UNL A   1      42.223  26.297  27.910  1.00  0.00     0.064 A 
ATOM     71  C   UNL A   1      41.618  25.054  27.686  1.00  0.00     0.173 A 
ATOM     72  C   UNL A   1      43.200  26.723  26.997  1.00  0.00     0.173 A 
ATOM     73  F   UNL A   1      40.693  24.596  28.542  1.00  0.00    -0.203 F 
ATOM     74  C   UNL A   1      41.971  24.270  26.590  1.00  0.00     0.198 A 
ATOM     75  C   UNL A   1      43.531  25.952  25.885  1.00  0.00     0.198 A 
ATOM     76  F   UNL A   1      43.804  27.908  27.165  1.00  0.00    -0.203 F 
ATOM     77  F   UNL A   1      41.393  23.074  26.410  1.00  0.00    -0.200 F 
ATOM     78  C   UNL A   1      42.919  24.725  25.684  1.00  0.00     0.200 A 
ATOM     79  F   UNL A   1      44.432  26.406  25.004  1.00  0.00    -0.200 F 
ATOM     80  F   UNL A   1      43.242  23.980  24.618  1.00  0.00    -0.200 F 
ENDBRANCH  46  70
BRANCH  58  81
ATOM     81  C   UNL A   1      44.709  27.460  34.327  1.00  0.00     0.064 A 
ATOM     82  C   UNL A   1      45.916  28.175  34.307  1.00  0.00     0.173 A 
ATOM     83  C   UNL A   1      44.643  26.298  35.109  1.00  0.00     0.173 A 
ATOM     84  F   UNL A   1      46.031  29.284  33.561  1.00  0.00    -0.203 F 
ATOM     85  C   UNL A   1      47.017  27.737  35.037  1.00  0.00     0.198 A 
ATOM     86  C   UNL A   1      45.738  25.878  35.859  1.00  0.00     0.198 A 
ATOM     87  F   UNL A   1      43.509  25.585  35.165  1.00  0.00    -0.203 F 
ATOM     88  F   UNL A   1      48.170  28.418  34.980  1.00  0.00    -0.200 F 
ATOM     89  C   UNL A   1      46.924  26.595  35.820  1.00  0.00     0.200 A 
ATOM     90  F   UNL A   1      45.642  24.783  36.624  1.00  0.00    -0.200 F 
ATOM     91  F   UNL A   1      47.980  26.185  36.534  1.00  0.00    -0.200 F 
ENDBRANCH  58  81
ENDBRANCH  32  33
ENDBRANCH  24  27
ENDBRANCH  22  23
ENDBRANCH   1  22
TORSDOF 11
ENDMDL
