MODEL 1
REMARK VINA RESULT:     -12.6      0.000      0.000
REMARK SMILES O=C(NCCCNC(=O)[C@H](NC(=O)[C@H]1CC[C@@H](CNC(=O)[C@@H]2Cc3ccccc3C[NH2+]2)CC1)c1ccccc1)c1ccc(-c2c3nc(c(-c4c(F)c(F)c(F)c(F)c4F)c4ccc([nH]4)c(-c4c(F)c(F)c(F)c(F)c4F)c4nc(c(-c5c(F)c(F)c(F)c(F)c5F)c5ccc2[nH]5)C=C4)C=C3)cc1
REMARK SMILES IDX 7 1 8 2 9 3 6 5 5 6 4 7 3 8 1 9 2 10 40 12 41 13 102 14
REMARK SMILES IDX 42 15 101 16 43 17 44 18 45 19 95 20 46 21 100 22 94 23
REMARK SMILES IDX 96 24 47 25 99 26 93 27 92 28 48 30 80 31 60 32 79 33 61 34
REMARK SMILES IDX 64 35 78 36 97 37 62 38 63 39 77 41 98 42 65 43 49 44 50 45
REMARK SMILES IDX 58 46 51 47 52 48 56 49 59 50 53 51 54 52 57 53 55 54 81 55
REMARK SMILES IDX 82 56 90 57 83 58 84 59 88 60 91 61 85 62 86 63 89 64 87 65
REMARK SMILES IDX 66 66 67 67 75 68 68 69 69 70 73 71 76 72 70 73 71 74 74 75
REMARK SMILES IDX 72 76 10 77 34 78 35 79 39 80 36 81 38 82 37 83 11 84 12 85
REMARK SMILES IDX 13 87 14 88 33 89 15 90 32 91 16 92 17 93 18 94 19 95 20 96
REMARK SMILES IDX 21 98 22 99 23 100 31 101 24 102 30 103 25 106 29 107 26 108
REMARK SMILES IDX 28 109 27 110
REMARK H PARENT 7 4 3 11 96 29 64 40 11 86 19 97 31 104 31 105
REMARK Flexibility Score: inf
ROOT
ATOM      1  N   UNL A   1      37.011  21.870  24.519  1.00  0.00    -0.354 N 
ATOM      2  C   UNL A   1      35.688  21.981  24.227  1.00  0.00     0.247 C 
ATOM      3  O   UNL A   1      35.461  22.477  23.111  1.00  0.00    -0.272 OA
ATOM      4  H   UNL A   1      37.598  22.255  23.828  1.00  0.00     0.163 HD
ENDROOT
BRANCH   1   5
ATOM      5  C   UNL A   1      37.735  21.302  25.636  1.00  0.00     0.117 C 
BRANCH   5   6
ATOM      6  C   UNL A   1      38.227  19.893  25.328  1.00  0.00     0.042 C 
BRANCH   6   7
ATOM      7  C   UNL A   1      39.718  19.737  25.111  1.00  0.00     0.118 C 
BRANCH   7   8
ATOM      8  N   UNL A   1      40.387  19.203  26.293  1.00  0.00    -0.352 N 
ATOM      9  O   UNL A   1      41.847  19.045  27.985  1.00  0.00    -0.269 OA
ATOM     10  C   UNL A   1      41.245  19.779  27.206  1.00  0.00     0.251 C 
ATOM     11  H   UNL A   1      40.189  18.256  26.473  1.00  0.00     0.163 HD
BRANCH  10  12
ATOM     12  C   UNL A   1      41.472  21.249  27.276  1.00  0.00     0.039 A 
ATOM     13  C   UNL A   1      42.201  21.829  28.308  1.00  0.00     0.014 A 
ATOM     14  C   UNL A   1      41.016  22.073  26.235  1.00  0.00     0.014 A 
ATOM     15  C   UNL A   1      42.309  23.209  28.410  1.00  0.00     0.010 A 
ATOM     16  C   UNL A   1      41.271  23.454  26.251  1.00  0.00     0.010 A 
ATOM     17  C   UNL A   1      41.908  24.039  27.353  1.00  0.00    -0.014 A 
BRANCH  17  18
ATOM     18  C   UNL A   1      42.304  25.474  27.411  1.00  0.00     0.031 A 
ATOM     19  C   UNL A   1      41.509  26.493  28.174  1.00  0.00     0.074 A 
ATOM     20  C   UNL A   1      43.464  25.830  26.817  1.00  0.00     0.049 A 
ATOM     21  N   UNL A   1      41.786  27.755  28.392  1.00  0.00    -0.248 NA
ATOM     22  C   UNL A   1      40.235  26.050  28.760  1.00  0.00     0.031 C 
ATOM     23  C   UNL A   1      44.307  24.936  26.017  1.00  0.00     0.029 A 
ATOM     24  N   UNL A   1      44.164  27.011  26.827  1.00  0.00    -0.354 N 
ATOM     25  C   UNL A   1      40.726  28.258  29.134  1.00  0.00     0.074 A 
ATOM     26  C   UNL A   1      39.778  27.174  29.296  1.00  0.00     0.031 C 
ATOM     27  C   UNL A   1      45.440  25.568  25.687  1.00  0.00     0.029 A 
ATOM     28  C   UNL A   1      45.369  26.941  26.170  1.00  0.00     0.049 A 
ATOM     29  H   UNL A   1      43.834  27.830  27.264  1.00  0.00     0.167 HD
ATOM     30  C   UNL A   1      40.568  29.504  29.646  1.00  0.00     0.037 A 
ATOM     31  C   UNL A   1      46.308  27.879  25.954  1.00  0.00     0.037 A 
ATOM     32  C   UNL A   1      41.517  30.578  29.477  1.00  0.00     0.049 A 
ATOM     33  C   UNL A   1      46.093  29.253  26.516  1.00  0.00     0.074 A 
ATOM     34  C   UNL A   1      41.449  31.874  29.956  1.00  0.00     0.029 A 
ATOM     35  N   UNL A   1      42.709  30.479  28.770  1.00  0.00    -0.354 N 
ATOM     36  N   UNL A   1      45.096  29.704  27.239  1.00  0.00    -0.248 NA
ATOM     37  C   UNL A   1      47.129  30.252  26.230  1.00  0.00     0.031 C 
ATOM     38  C   UNL A   1      42.572  32.573  29.501  1.00  0.00     0.029 A 
ATOM     39  C   UNL A   1      43.374  31.697  28.788  1.00  0.00     0.049 A 
ATOM     40  H   UNL A   1      43.034  29.665  28.322  1.00  0.00     0.167 HD
ATOM     41  C   UNL A   1      45.389  31.033  27.502  1.00  0.00     0.074 A 
ATOM     42  C   UNL A   1      46.677  31.303  26.897  1.00  0.00     0.031 C 
ATOM     43  C   UNL A   1      44.653  31.951  28.174  1.00  0.00     0.037 A 
BRANCH  30  44
ATOM     44  C   UNL A   1      39.318  29.784  30.433  1.00  0.00     0.064 A 
ATOM     45  C   UNL A   1      39.277  29.627  31.827  1.00  0.00     0.173 A 
ATOM     46  C   UNL A   1      38.167  30.274  29.797  1.00  0.00     0.173 A 
ATOM     47  F   UNL A   1      40.346  29.152  32.484  1.00  0.00    -0.203 F 
ATOM     48  C   UNL A   1      38.125  29.929  32.550  1.00  0.00     0.198 A 
ATOM     49  C   UNL A   1      37.027  30.605  30.527  1.00  0.00     0.198 A 
ATOM     50  F   UNL A   1      38.152  30.451  28.467  1.00  0.00    -0.203 F 
ATOM     51  F   UNL A   1      38.097  29.733  33.876  1.00  0.00    -0.200 F 
ATOM     52  C   UNL A   1      37.005  30.426  31.902  1.00  0.00     0.200 A 
ATOM     53  F   UNL A   1      35.952  31.100  29.899  1.00  0.00    -0.200 F 
ATOM     54  F   UNL A   1      35.903  30.731  32.600  1.00  0.00    -0.200 F 
ENDBRANCH  30  44
BRANCH  31  55
ATOM     55  C   UNL A   1      47.514  27.555  25.145  1.00  0.00     0.064 A 
ATOM     56  C   UNL A   1      48.685  27.062  25.738  1.00  0.00     0.173 A 
ATOM     57  C   UNL A   1      47.521  27.743  23.754  1.00  0.00     0.173 A 
ATOM     58  F   UNL A   1      48.736  26.878  27.066  1.00  0.00    -0.203 F 
ATOM     59  C   UNL A   1      49.822  26.801  24.978  1.00  0.00     0.198 A 
ATOM     60  C   UNL A   1      48.645  27.442  22.989  1.00  0.00     0.198 A 
ATOM     61  F   UNL A   1      46.425  28.204  23.133  1.00  0.00    -0.203 F 
ATOM     62  F   UNL A   1      50.946  26.387  25.578  1.00  0.00    -0.200 F 
ATOM     63  C   UNL A   1      49.799  26.984  23.603  1.00  0.00     0.200 A 
ATOM     64  F   UNL A   1      48.607  27.597  21.659  1.00  0.00    -0.200 F 
ATOM     65  F   UNL A   1      50.891  26.727  22.871  1.00  0.00    -0.200 F 
ENDBRANCH  31  55
BRANCH  43  66
ATOM     66  C   UNL A   1      45.244  33.326  28.304  1.00  0.00     0.064 A 
ATOM     67  C   UNL A   1      44.960  34.342  27.377  1.00  0.00     0.173 A 
ATOM     68  C   UNL A   1      46.112  33.629  29.364  1.00  0.00     0.173 A 
ATOM     69  F   UNL A   1      44.150  34.098  26.335  1.00  0.00    -0.203 F 
ATOM     70  C   UNL A   1      45.557  35.594  27.483  1.00  0.00     0.198 A 
ATOM     71  C   UNL A   1      46.678  34.895  29.487  1.00  0.00     0.198 A 
ATOM     72  F   UNL A   1      46.413  32.697  30.280  1.00  0.00    -0.203 F 
ATOM     73  F   UNL A   1      45.328  36.524  26.544  1.00  0.00    -0.200 F 
ATOM     74  C   UNL A   1      46.412  35.871  28.539  1.00  0.00     0.200 A 
ATOM     75  F   UNL A   1      47.493  35.166  30.516  1.00  0.00    -0.200 F 
ATOM     76  F   UNL A   1      46.990  37.077  28.637  1.00  0.00    -0.200 F 
ENDBRANCH  43  66
ENDBRANCH  17  18
ENDBRANCH  10  12
ENDBRANCH   7   8
ENDBRANCH   6   7
ENDBRANCH   5   6
ENDBRANCH   1   5
BRANCH   2  77
ATOM     77  C   UNL A   1      34.492  21.408  25.065  1.00  0.00     0.202 C 
BRANCH  77  78
ATOM     78  C   UNL A   1      33.959  20.048  24.586  1.00  0.00    -0.016 A 
ATOM     79  C   UNL A   1      34.784  18.908  24.627  1.00  0.00     0.006 A 
ATOM     80  C   UNL A   1      32.681  19.911  24.004  1.00  0.00     0.006 A 
ATOM     81  C   UNL A   1      34.403  17.722  23.985  1.00  0.00     0.000 A 
ATOM     82  C   UNL A   1      32.306  18.728  23.358  1.00  0.00     0.000 A 
ATOM     83  C   UNL A   1      33.178  17.644  23.326  1.00  0.00     0.000 A 
ENDBRANCH  77  78
BRANCH  77  84
ATOM     84  N   UNL A   1      34.377  21.661  26.531  1.00  0.00    -0.340 N 
ATOM     85  C   UNL A   1      33.694  22.410  27.433  1.00  0.00     0.224 C 
ATOM     86  H   UNL A   1      35.018  21.086  27.010  1.00  0.00     0.164 HD
ATOM     87  O   UNL A   1      34.085  22.292  28.602  1.00  0.00    -0.275 OA
BRANCH  85  88
ATOM     88  C   UNL A   1      32.452  23.262  27.140  1.00  0.00     0.078 C 
ATOM     89  C   UNL A   1      32.793  24.637  26.535  1.00  0.00     0.014 C 
ATOM     90  C   UNL A   1      31.424  22.530  26.304  1.00  0.00     0.014 C 
ATOM     91  C   UNL A   1      31.535  25.397  26.077  1.00  0.00     0.006 C 
ATOM     92  C   UNL A   1      30.214  23.315  25.846  1.00  0.00     0.006 C 
ATOM     93  C   UNL A   1      30.654  24.567  25.121  1.00  0.00     0.008 C 
BRANCH  93  94
ATOM     94  C   UNL A   1      31.436  24.272  23.839  1.00  0.00     0.119 C 
BRANCH  94  95
ATOM     95  N   UNL A   1      31.028  25.014  22.663  1.00  0.00    -0.351 N 
ATOM     96  C   UNL A   1      31.468  26.273  22.318  1.00  0.00     0.278 C 
ATOM     97  H   UNL A   1      30.382  24.582  22.058  1.00  0.00     0.163 HD
ATOM     98  O   UNL A   1      31.260  26.689  21.179  1.00  0.00    -0.268 OA
BRANCH  96  99
ATOM     99  C   UNL A   1      32.077  27.137  23.430  1.00  0.00     0.277 C 
ATOM    100  C   UNL A   1      31.517  28.561  23.500  1.00  0.00     0.111 C 
ATOM    101  N   UNL A   1      33.557  27.262  23.293  1.00  0.00    -0.332 N 
ATOM    102  C   UNL A   1      32.088  29.216  24.741  1.00  0.00    -0.033 A 
ATOM    103  C   UNL A   1      34.099  27.652  24.600  1.00  0.00     0.298 C 
ATOM    104  H   UNL A   1      33.782  27.973  22.598  1.00  0.00     0.347 HD
ATOM    105  H   UNL A   1      33.961  26.376  22.991  1.00  0.00     0.347 HD
ATOM    106  C   UNL A   1      31.403  30.254  25.375  1.00  0.00     0.004 A 
ATOM    107  C   UNL A   1      33.299  28.735  25.289  1.00  0.00     0.010 A 
ATOM    108  C   UNL A   1      31.863  30.747  26.595  1.00  0.00     0.000 A 
ATOM    109  C   UNL A   1      33.732  29.217  26.530  1.00  0.00     0.010 A 
ATOM    110  C   UNL A   1      33.007  30.209  27.186  1.00  0.00     0.001 A 
ENDBRANCH  96  99
ENDBRANCH  94  95
ENDBRANCH  93  94
ENDBRANCH  85  88
ENDBRANCH  77  84
ENDBRANCH   2  77
TORSDOF 16
ENDMDL
MODEL 2
REMARK VINA RESULT:     -12.6      1.135      2.071
REMARK SMILES O=C(NCCCNC(=O)[C@H](NC(=O)[C@H]1CC[C@@H](CNC(=O)[C@@H]2Cc3ccccc3C[NH2+]2)CC1)c1ccccc1)c1ccc(-c2c3nc(c(-c4c(F)c(F)c(F)c(F)c4F)c4ccc([nH]4)c(-c4c(F)c(F)c(F)c(F)c4F)c4nc(c(-c5c(F)c(F)c(F)c(F)c5F)c5ccc2[nH]5)C=C4)C=C3)cc1
REMARK SMILES IDX 7 1 8 2 9 3 6 5 5 6 4 7 3 8 1 9 2 10 40 12 41 13 102 14
REMARK SMILES IDX 42 15 101 16 43 17 44 18 45 19 95 20 46 21 100 22 94 23
REMARK SMILES IDX 96 24 47 25 99 26 93 27 92 28 48 30 80 31 60 32 79 33 61 34
REMARK SMILES IDX 64 35 78 36 97 37 62 38 63 39 77 41 98 42 65 43 49 44 50 45
REMARK SMILES IDX 58 46 51 47 52 48 56 49 59 50 53 51 54 52 57 53 55 54 81 55
REMARK SMILES IDX 82 56 90 57 83 58 84 59 88 60 91 61 85 62 86 63 89 64 87 65
REMARK SMILES IDX 66 66 67 67 75 68 68 69 69 70 73 71 76 72 70 73 71 74 74 75
REMARK SMILES IDX 72 76 10 77 34 78 35 79 39 80 36 81 38 82 37 83 11 84 12 85
REMARK SMILES IDX 13 87 14 88 33 89 15 90 32 91 16 92 17 93 18 94 19 95 20 96
REMARK SMILES IDX 21 98 22 99 23 100 31 101 24 102 30 103 25 106 29 107 26 108
REMARK SMILES IDX 28 109 27 110
REMARK H PARENT 7 4 3 11 96 29 64 40 11 86 19 97 31 104 31 105
REMARK Flexibility Score: inf
ROOT
ATOM      1  N   UNL A   1      37.510  22.515  24.583  1.00  0.00    -0.354 N 
ATOM      2  C   UNL A   1      36.222  22.419  24.159  1.00  0.00     0.247 C 
ATOM      3  O   UNL A   1      36.069  22.684  22.955  1.00  0.00    -0.272 OA
ATOM      4  H   UNL A   1      38.127  22.840  23.887  1.00  0.00     0.163 HD
ENDROOT
BRANCH   1   5
ATOM      5  C   UNL A   1      38.161  22.237  25.844  1.00  0.00     0.117 C 
BRANCH   5   6
ATOM      6  C   UNL A   1      38.310  20.739  26.081  1.00  0.00     0.042 C 
BRANCH   6   7
ATOM      7  C   UNL A   1      39.162  19.984  25.083  1.00  0.00     0.118 C 
BRANCH   7   8
ATOM      8  N   UNL A   1      40.113  19.095  25.742  1.00  0.00    -0.352 N 
ATOM      9  O   UNL A   1      42.051  18.347  26.584  1.00  0.00    -0.269 OA
ATOM     10  C   UNL A   1      41.360  19.319  26.289  1.00  0.00     0.251 C 
ATOM     11  H   UNL A   1      39.809  18.161  25.810  1.00  0.00     0.163 HD
BRANCH  10  12
ATOM     12  C   UNL A   1      41.896  20.687  26.528  1.00  0.00     0.039 A 
ATOM     13  C   UNL A   1      41.998  21.622  25.503  1.00  0.00     0.014 A 
ATOM     14  C   UNL A   1      42.230  21.085  27.831  1.00  0.00     0.014 A 
ATOM     15  C   UNL A   1      42.597  22.853  25.725  1.00  0.00     0.010 A 
ATOM     16  C   UNL A   1      42.681  22.391  28.087  1.00  0.00     0.010 A 
ATOM     17  C   UNL A   1      42.886  23.285  27.028  1.00  0.00    -0.014 A 
BRANCH  17  18
ATOM     18  C   UNL A   1      43.266  24.713  27.216  1.00  0.00     0.031 A 
ATOM     19  C   UNL A   1      42.319  25.722  27.796  1.00  0.00     0.074 A 
ATOM     20  C   UNL A   1      44.535  25.069  26.922  1.00  0.00     0.049 A 
ATOM     21  N   UNL A   1      42.545  26.976  28.106  1.00  0.00    -0.248 NA
ATOM     22  C   UNL A   1      40.940  25.281  28.054  1.00  0.00     0.031 C 
ATOM     23  C   UNL A   1      45.537  24.184  26.319  1.00  0.00     0.029 A 
ATOM     24  N   UNL A   1      45.220  26.241  27.127  1.00  0.00    -0.354 N 
ATOM     25  C   UNL A   1      41.342  27.473  28.591  1.00  0.00     0.074 A 
ATOM     26  C   UNL A   1      40.376  26.398  28.497  1.00  0.00     0.031 C 
ATOM     27  C   UNL A   1      46.720  24.810  26.283  1.00  0.00     0.029 A 
ATOM     28  C   UNL A   1      46.545  26.172  26.771  1.00  0.00     0.049 A 
ATOM     29  H   UNL A   1      44.801  27.053  27.495  1.00  0.00     0.167 HD
ATOM     30  C   UNL A   1      41.076  28.708  29.083  1.00  0.00     0.037 A 
ATOM     31  C   UNL A   1      47.515  27.103  26.808  1.00  0.00     0.037 A 
ATOM     32  C   UNL A   1      42.045  29.775  29.171  1.00  0.00     0.049 A 
ATOM     33  C   UNL A   1      47.182  28.466  27.338  1.00  0.00     0.074 A 
ATOM     34  C   UNL A   1      41.873  31.060  29.655  1.00  0.00     0.029 A 
ATOM     35  N   UNL A   1      43.369  29.679  28.763  1.00  0.00    -0.354 N 
ATOM     36  N   UNL A   1      46.046  28.911  27.817  1.00  0.00    -0.248 NA
ATOM     37  C   UNL A   1      48.263  29.459  27.332  1.00  0.00     0.031 C 
ATOM     38  C   UNL A   1      43.077  31.756  29.496  1.00  0.00     0.029 A 
ATOM     39  C   UNL A   1      44.018  30.888  28.969  1.00  0.00     0.049 A 
ATOM     40  H   UNL A   1      43.786  28.871  28.383  1.00  0.00     0.167 HD
ATOM     41  C   UNL A   1      46.276  30.230  28.178  1.00  0.00     0.074 A 
ATOM     42  C   UNL A   1      47.672  30.499  27.900  1.00  0.00     0.031 C 
ATOM     43  C   UNL A   1      45.408  31.141  28.681  1.00  0.00     0.037 A 
BRANCH  30  44
ATOM     44  C   UNL A   1      39.677  28.985  29.561  1.00  0.00     0.064 A 
ATOM     45  C   UNL A   1      38.681  29.450  28.687  1.00  0.00     0.173 A 
ATOM     46  C   UNL A   1      39.311  28.726  30.891  1.00  0.00     0.173 A 
ATOM     47  F   UNL A   1      38.979  29.723  27.409  1.00  0.00    -0.203 F 
ATOM     48  C   UNL A   1      37.379  29.663  29.133  1.00  0.00     0.198 A 
ATOM     49  C   UNL A   1      38.001  28.912  31.326  1.00  0.00     0.198 A 
ATOM     50  F   UNL A   1      40.221  28.274  31.767  1.00  0.00    -0.203 F 
ATOM     51  F   UNL A   1      36.454  30.145  28.291  1.00  0.00    -0.200 F 
ATOM     52  C   UNL A   1      37.037  29.386  30.448  1.00  0.00     0.200 A 
ATOM     53  F   UNL A   1      37.670  28.628  32.593  1.00  0.00    -0.200 F 
ATOM     54  F   UNL A   1      35.780  29.578  30.871  1.00  0.00    -0.200 F 
ENDBRANCH  30  44
BRANCH  31  55
ATOM     55  C   UNL A   1      48.876  26.784  26.297  1.00  0.00     0.064 A 
ATOM     56  C   UNL A   1      49.857  26.222  27.126  1.00  0.00     0.173 A 
ATOM     57  C   UNL A   1      49.225  27.047  24.963  1.00  0.00     0.173 A 
ATOM     58  F   UNL A   1      49.579  25.965  28.413  1.00  0.00    -0.203 F 
ATOM     59  C   UNL A   1      51.141  25.965  26.649  1.00  0.00     0.198 A 
ATOM     60  C   UNL A   1      50.496  26.751  24.476  1.00  0.00     0.198 A 
ATOM     61  F   UNL A   1      48.323  27.576  24.123  1.00  0.00    -0.203 F 
ATOM     62  F   UNL A   1      52.076  25.484  27.478  1.00  0.00    -0.200 F 
ATOM     63  C   UNL A   1      51.457  26.223  25.323  1.00  0.00     0.200 A 
ATOM     64  F   UNL A   1      50.788  26.979  23.189  1.00  0.00    -0.200 F 
ATOM     65  F   UNL A   1      52.690  25.970  24.865  1.00  0.00    -0.200 F 
ENDBRANCH  31  55
BRANCH  43  66
ATOM     66  C   UNL A   1      45.961  32.505  28.983  1.00  0.00     0.064 A 
ATOM     67  C   UNL A   1      46.531  32.810  30.229  1.00  0.00     0.173 A 
ATOM     68  C   UNL A   1      45.914  33.520  28.015  1.00  0.00     0.173 A 
ATOM     69  F   UNL A   1      46.584  31.880  31.194  1.00  0.00    -0.203 F 
ATOM     70  C   UNL A   1      46.992  34.093  30.509  1.00  0.00     0.198 A 
ATOM     71  C   UNL A   1      46.410  34.792  28.288  1.00  0.00     0.198 A 
ATOM     72  F   UNL A   1      45.385  33.280  26.807  1.00  0.00    -0.203 F 
ATOM     73  F   UNL A   1      47.464  34.381  31.731  1.00  0.00    -0.200 F 
ATOM     74  C   UNL A   1      46.935  35.081  29.538  1.00  0.00     0.200 A 
ATOM     75  F   UNL A   1      46.368  35.742  27.343  1.00  0.00    -0.200 F 
ATOM     76  F   UNL A   1      47.376  36.317  29.811  1.00  0.00    -0.200 F 
ENDBRANCH  43  66
ENDBRANCH  17  18
ENDBRANCH  10  12
ENDBRANCH   7   8
ENDBRANCH   6   7
ENDBRANCH   5   6
ENDBRANCH   1   5
BRANCH   2  77
ATOM     77  C   UNL A   1      35.005  21.865  24.979  1.00  0.00     0.202 C 
BRANCH  77  78
ATOM     78  C   UNL A   1      34.444  20.522  24.479  1.00  0.00    -0.016 A 
ATOM     79  C   UNL A   1      33.166  20.463  23.890  1.00  0.00     0.006 A 
ATOM     80  C   UNL A   1      35.132  19.306  24.677  1.00  0.00     0.006 A 
ATOM     81  C   UNL A   1      32.547  19.230  23.645  1.00  0.00     0.000 A 
ATOM     82  C   UNL A   1      34.508  18.078  24.437  1.00  0.00     0.000 A 
ATOM     83  C   UNL A   1      33.206  18.041  23.947  1.00  0.00     0.000 A 
ENDBRANCH  77  78
BRANCH  77  84
ATOM     84  N   UNL A   1      34.880  22.104  26.446  1.00  0.00    -0.340 N 
ATOM     85  C   UNL A   1      34.099  22.731  27.361  1.00  0.00     0.224 C 
ATOM     86  H   UNL A   1      35.620  21.651  26.911  1.00  0.00     0.164 HD
ATOM     87  O   UNL A   1      34.530  22.689  28.521  1.00  0.00    -0.275 OA
BRANCH  85  88
ATOM     88  C   UNL A   1      32.724  23.356  27.095  1.00  0.00     0.078 C 
ATOM     89  C   UNL A   1      32.810  24.764  26.476  1.00  0.00     0.014 C 
ATOM     90  C   UNL A   1      31.817  22.453  26.286  1.00  0.00     0.014 C 
ATOM     91  C   UNL A   1      31.431  25.294  26.045  1.00  0.00     0.006 C 
ATOM     92  C   UNL A   1      30.480  23.016  25.854  1.00  0.00     0.006 C 
ATOM     93  C   UNL A   1      30.683  24.318  25.114  1.00  0.00     0.008 C 
BRANCH  93  94
ATOM     94  C   UNL A   1      31.475  24.150  23.815  1.00  0.00     0.119 C 
BRANCH  94  95
ATOM     95  N   UNL A   1      30.994  24.909  22.677  1.00  0.00    -0.351 N 
ATOM     96  C   UNL A   1      31.393  26.184  22.340  1.00  0.00     0.278 C 
ATOM     97  H   UNL A   1      30.326  24.478  22.096  1.00  0.00     0.163 HD
ATOM     98  O   UNL A   1      31.120  26.620  21.222  1.00  0.00    -0.268 OA
BRANCH  96  99
ATOM     99  C   UNL A   1      32.041  27.035  23.438  1.00  0.00     0.277 C 
ATOM    100  C   UNL A   1      31.503  28.466  23.527  1.00  0.00     0.111 C 
ATOM    101  N   UNL A   1      33.519  27.140  23.264  1.00  0.00    -0.332 N 
ATOM    102  C   UNL A   1      32.114  29.109  24.755  1.00  0.00    -0.033 A 
ATOM    103  C   UNL A   1      34.099  27.519  24.558  1.00  0.00     0.298 C 
ATOM    104  H   UNL A   1      33.737  27.851  22.566  1.00  0.00     0.347 HD
ATOM    105  H   UNL A   1      33.903  26.250  22.949  1.00  0.00     0.347 HD
ATOM    106  C   UNL A   1      31.460  30.154  25.409  1.00  0.00     0.004 A 
ATOM    107  C   UNL A   1      33.332  28.610  25.271  1.00  0.00     0.010 A 
ATOM    108  C   UNL A   1      31.957  30.636  26.619  1.00  0.00     0.000 A 
ATOM    109  C   UNL A   1      33.802  29.082  26.502  1.00  0.00     0.010 A 
ATOM    110  C   UNL A   1      33.108  30.081  27.179  1.00  0.00     0.001 A 
ENDBRANCH  96  99
ENDBRANCH  94  95
ENDBRANCH  93  94
ENDBRANCH  85  88
ENDBRANCH  77  84
ENDBRANCH   2  77
TORSDOF 16
ENDMDL
MODEL 3
REMARK VINA RESULT:     -12.5      0.911      6.862
REMARK SMILES O=C(NCCCNC(=O)[C@H](NC(=O)[C@H]1CC[C@@H](CNC(=O)[C@@H]2Cc3ccccc3C[NH2+]2)CC1)c1ccccc1)c1ccc(-c2c3nc(c(-c4c(F)c(F)c(F)c(F)c4F)c4ccc([nH]4)c(-c4c(F)c(F)c(F)c(F)c4F)c4nc(c(-c5c(F)c(F)c(F)c(F)c5F)c5ccc2[nH]5)C=C4)C=C3)cc1
REMARK SMILES IDX 7 1 8 2 9 3 6 5 5 6 4 7 3 8 1 9 2 10 40 12 41 13 102 14
REMARK SMILES IDX 42 15 101 16 43 17 44 18 45 19 95 20 46 21 100 22 94 23
REMARK SMILES IDX 96 24 47 25 99 26 93 27 92 28 48 30 80 31 60 32 79 33 61 34
REMARK SMILES IDX 64 35 78 36 97 37 62 38 63 39 77 41 98 42 65 43 49 44 50 45
REMARK SMILES IDX 58 46 51 47 52 48 56 49 59 50 53 51 54 52 57 53 55 54 81 55
REMARK SMILES IDX 82 56 90 57 83 58 84 59 88 60 91 61 85 62 86 63 89 64 87 65
REMARK SMILES IDX 66 66 67 67 75 68 68 69 69 70 73 71 76 72 70 73 71 74 74 75
REMARK SMILES IDX 72 76 10 77 34 78 35 79 39 80 36 81 38 82 37 83 11 84 12 85
REMARK SMILES IDX 13 87 14 88 33 89 15 90 32 91 16 92 17 93 18 94 19 95 20 96
REMARK SMILES IDX 21 98 22 99 23 100 31 101 24 102 30 103 25 106 29 107 26 108
REMARK SMILES IDX 28 109 27 110
REMARK H PARENT 7 4 3 11 96 29 64 40 11 86 19 97 31 104 31 105
REMARK Flexibility Score: inf
ROOT
ATOM      1  N   UNL A   1      37.477  22.553  24.590  1.00  0.00    -0.354 N 
ATOM      2  C   UNL A   1      36.188  22.389  24.192  1.00  0.00     0.247 C 
ATOM      3  O   UNL A   1      35.996  22.650  22.993  1.00  0.00    -0.272 OA
ATOM      4  H   UNL A   1      38.061  22.914  23.884  1.00  0.00     0.163 HD
ENDROOT
BRANCH   1   5
ATOM      5  C   UNL A   1      38.168  22.305  25.837  1.00  0.00     0.117 C 
BRANCH   5   6
ATOM      6  C   UNL A   1      38.291  20.814  26.125  1.00  0.00     0.042 C 
BRANCH   6   7
ATOM      7  C   UNL A   1      39.074  20.000  25.116  1.00  0.00     0.118 C 
BRANCH   7   8
ATOM      8  N   UNL A   1      40.122  19.208  25.752  1.00  0.00    -0.352 N 
ATOM      9  O   UNL A   1      42.129  18.672  26.592  1.00  0.00    -0.269 OA
ATOM     10  C   UNL A   1      41.324  19.561  26.329  1.00  0.00     0.251 C 
ATOM     11  H   UNL A   1      39.937  18.241  25.774  1.00  0.00     0.163 HD
BRANCH  10  12
ATOM     12  C   UNL A   1      41.681  20.974  26.636  1.00  0.00     0.039 A 
ATOM     13  C   UNL A   1      41.918  21.403  27.937  1.00  0.00     0.014 A 
ATOM     14  C   UNL A   1      41.870  21.886  25.586  1.00  0.00     0.014 A 
ATOM     15  C   UNL A   1      42.145  22.745  28.210  1.00  0.00     0.010 A 
ATOM     16  C   UNL A   1      42.265  23.208  25.851  1.00  0.00     0.010 A 
ATOM     17  C   UNL A   1      42.389  23.655  27.172  1.00  0.00    -0.014 A 
BRANCH  17  18
ATOM     18  C   UNL A   1      42.896  25.006  27.542  1.00  0.00     0.031 A 
ATOM     19  C   UNL A   1      44.298  25.446  27.235  1.00  0.00     0.074 A 
ATOM     20  C   UNL A   1      42.023  25.874  28.099  1.00  0.00     0.049 A 
ATOM     21  N   UNL A   1      44.845  26.624  27.410  1.00  0.00    -0.248 NA
ATOM     22  C   UNL A   1      45.209  24.441  26.668  1.00  0.00     0.031 C 
ATOM     23  C   UNL A   1      40.644  25.551  28.477  1.00  0.00     0.029 A 
ATOM     24  N   UNL A   1      42.138  27.208  28.401  1.00  0.00    -0.354 N 
ATOM     25  C   UNL A   1      46.160  26.503  26.981  1.00  0.00     0.074 A 
ATOM     26  C   UNL A   1      46.342  25.125  26.574  1.00  0.00     0.031 C 
ATOM     27  C   UNL A   1      40.019  26.665  28.878  1.00  0.00     0.029 A 
ATOM     28  C   UNL A   1      40.974  27.765  28.876  1.00  0.00     0.049 A 
ATOM     29  H   UNL A   1      42.973  27.717  28.289  1.00  0.00     0.167 HD
ATOM     30  C   UNL A   1      47.120  27.459  26.920  1.00  0.00     0.037 A 
ATOM     31  C   UNL A   1      40.703  29.017  29.287  1.00  0.00     0.037 A 
ATOM     32  C   UNL A   1      46.930  28.830  27.331  1.00  0.00     0.049 A 
ATOM     33  C   UNL A   1      41.793  30.045  29.226  1.00  0.00     0.074 A 
ATOM     34  C   UNL A   1      47.840  29.872  27.306  1.00  0.00     0.029 A 
ATOM     35  N   UNL A   1      45.748  29.347  27.843  1.00  0.00    -0.354 N 
ATOM     36  N   UNL A   1      43.024  29.919  28.792  1.00  0.00    -0.248 NA
ATOM     37  C   UNL A   1      41.461  31.388  29.713  1.00  0.00     0.031 C 
ATOM     38  C   UNL A   1      47.225  31.007  27.848  1.00  0.00     0.029 A 
ATOM     39  C   UNL A   1      45.912  30.689  28.154  1.00  0.00     0.049 A 
ATOM     40  H   UNL A   1      44.915  28.836  27.968  1.00  0.00     0.167 HD
ATOM     41  C   UNL A   1      43.610  31.166  28.945  1.00  0.00     0.074 A 
ATOM     42  C   UNL A   1      42.586  32.045  29.473  1.00  0.00     0.031 C 
ATOM     43  C   UNL A   1      44.884  31.548  28.684  1.00  0.00     0.037 A 
BRANCH  30  44
ATOM     44  C   UNL A   1      48.473  27.060  26.396  1.00  0.00     0.064 A 
ATOM     45  C   UNL A   1      49.466  26.546  27.244  1.00  0.00     0.173 A 
ATOM     46  C   UNL A   1      48.759  27.135  25.024  1.00  0.00     0.173 A 
ATOM     47  F   UNL A   1      49.249  26.462  28.565  1.00  0.00    -0.203 F 
ATOM     48  C   UNL A   1      50.701  26.142  26.740  1.00  0.00     0.198 A 
ATOM     49  C   UNL A   1      49.983  26.702  24.520  1.00  0.00     0.198 A 
ATOM     50  F   UNL A   1      47.843  27.612  24.167  1.00  0.00    -0.203 F 
ATOM     51  F   UNL A   1      51.649  25.691  27.574  1.00  0.00    -0.200 F 
ATOM     52  C   UNL A   1      50.955  26.212  25.379  1.00  0.00     0.200 A 
ATOM     53  F   UNL A   1      50.220  26.755  23.202  1.00  0.00    -0.200 F 
ATOM     54  F   UNL A   1      52.138  25.809  24.894  1.00  0.00    -0.200 F 
ENDBRANCH  30  44
BRANCH  31  55
ATOM     55  C   UNL A   1      39.355  29.350  29.822  1.00  0.00     0.064 A 
ATOM     56  C   UNL A   1      38.321  29.789  28.983  1.00  0.00     0.173 A 
ATOM     57  C   UNL A   1      39.077  29.245  31.194  1.00  0.00     0.173 A 
ATOM     58  F   UNL A   1      38.538  29.921  27.666  1.00  0.00    -0.203 F 
ATOM     59  C   UNL A   1      37.075  30.139  29.499  1.00  0.00     0.198 A 
ATOM     60  C   UNL A   1      37.819  29.555  31.703  1.00  0.00     0.198 A 
ATOM     61  F   UNL A   1      40.027  28.822  32.042  1.00  0.00    -0.203 F 
ATOM     62  F   UNL A   1      36.124  30.612  28.683  1.00  0.00    -0.200 F 
ATOM     63  C   UNL A   1      36.823  30.014  30.857  1.00  0.00     0.200 A 
ATOM     64  F   UNL A   1      37.574  29.409  33.012  1.00  0.00    -0.200 F 
ATOM     65  F   UNL A   1      35.622  30.345  31.351  1.00  0.00    -0.200 F 
ENDBRANCH  31  55
BRANCH  43  66
ATOM     66  C   UNL A   1      45.224  32.988  28.948  1.00  0.00     0.064 A 
ATOM     67  C   UNL A   1      45.040  33.980  27.971  1.00  0.00     0.173 A 
ATOM     68  C   UNL A   1      45.745  33.379  30.191  1.00  0.00     0.173 A 
ATOM     69  F   UNL A   1      44.561  33.655  26.760  1.00  0.00    -0.203 F 
ATOM     70  C   UNL A   1      45.408  35.300  28.214  1.00  0.00     0.198 A 
ATOM     71  C   UNL A   1      46.077  34.707  30.442  1.00  0.00     0.198 A 
ATOM     72  F   UNL A   1      45.935  32.472  31.160  1.00  0.00    -0.203 F 
ATOM     73  F   UNL A   1      45.292  36.215  27.241  1.00  0.00    -0.200 F 
ATOM     74  C   UNL A   1      45.922  35.663  29.450  1.00  0.00     0.200 A 
ATOM     75  F   UNL A   1      46.561  35.059  31.642  1.00  0.00    -0.200 F 
ATOM     76  F   UNL A   1      46.280  36.934  29.681  1.00  0.00    -0.200 F 
ENDBRANCH  43  66
ENDBRANCH  17  18
ENDBRANCH  10  12
ENDBRANCH   7   8
ENDBRANCH   6   7
ENDBRANCH   5   6
ENDBRANCH   1   5
BRANCH   2  77
ATOM     77  C   UNL A   1      35.019  21.766  25.034  1.00  0.00     0.202 C 
BRANCH  77  78
ATOM     78  C   UNL A   1      34.555  20.376  24.567  1.00  0.00    -0.016 A 
ATOM     79  C   UNL A   1      33.223  20.175  24.156  1.00  0.00     0.006 A 
ATOM     80  C   UNL A   1      35.400  19.248  24.626  1.00  0.00     0.006 A 
ATOM     81  C   UNL A   1      32.723  18.882  23.953  1.00  0.00     0.000 A 
ATOM     82  C   UNL A   1      34.896  17.958  24.431  1.00  0.00     0.000 A 
ATOM     83  C   UNL A   1      33.552  17.775  24.120  1.00  0.00     0.000 A 
ENDBRANCH  77  78
BRANCH  77  84
ATOM     84  N   UNL A   1      34.888  22.028  26.497  1.00  0.00    -0.340 N 
ATOM     85  C   UNL A   1      34.090  22.651  27.400  1.00  0.00     0.224 C 
ATOM     86  H   UNL A   1      35.638  21.601  26.970  1.00  0.00     0.164 HD
ATOM     87  O   UNL A   1      34.521  22.640  28.561  1.00  0.00    -0.275 OA
BRANCH  85  88
ATOM     88  C   UNL A   1      32.700  23.237  27.122  1.00  0.00     0.078 C 
ATOM     89  C   UNL A   1      32.751  24.662  26.541  1.00  0.00     0.014 C 
ATOM     90  C   UNL A   1      31.840  22.325  26.273  1.00  0.00     0.014 C 
ATOM     91  C   UNL A   1      31.364  25.158  26.096  1.00  0.00     0.006 C 
ATOM     92  C   UNL A   1      30.493  22.855  25.828  1.00  0.00     0.006 C 
ATOM     93  C   UNL A   1      30.667  24.182  25.126  1.00  0.00     0.008 C 
BRANCH  93  94
ATOM     94  C   UNL A   1      31.488  24.074  23.839  1.00  0.00     0.119 C 
BRANCH  94  95
ATOM     95  N   UNL A   1      30.989  24.824  22.704  1.00  0.00    -0.351 N 
ATOM     96  C   UNL A   1      31.360  26.108  22.367  1.00  0.00     0.278 C 
ATOM     97  H   UNL A   1      30.330  24.380  22.123  1.00  0.00     0.163 HD
ATOM     98  O   UNL A   1      31.075  26.540  21.251  1.00  0.00    -0.268 OA
BRANCH  96  99
ATOM     99  C   UNL A   1      31.992  26.971  23.466  1.00  0.00     0.277 C 
ATOM    100  C   UNL A   1      31.472  28.411  23.514  1.00  0.00     0.111 C 
ATOM    101  N   UNL A   1      33.475  27.053  23.328  1.00  0.00    -0.332 N 
ATOM    102  C   UNL A   1      32.061  29.069  24.746  1.00  0.00    -0.033 A 
ATOM    103  C   UNL A   1      34.027  27.448  24.629  1.00  0.00     0.298 C 
ATOM    104  H   UNL A   1      33.720  27.747  22.622  1.00  0.00     0.347 HD
ATOM    105  H   UNL A   1      33.854  26.152  23.040  1.00  0.00     0.347 HD
ATOM    106  C   UNL A   1      31.404  30.135  25.363  1.00  0.00     0.004 A 
ATOM    107  C   UNL A   1      33.258  28.563  25.302  1.00  0.00     0.010 A 
ATOM    108  C   UNL A   1      31.877  30.633  26.576  1.00  0.00     0.000 A 
ATOM    109  C   UNL A   1      33.703  29.052  26.536  1.00  0.00     0.010 A 
ATOM    110  C   UNL A   1      33.006  30.073  27.176  1.00  0.00     0.001 A 
ENDBRANCH  96  99
ENDBRANCH  94  95
ENDBRANCH  93  94
ENDBRANCH  85  88
ENDBRANCH  77  84
ENDBRANCH   2  77
TORSDOF 16
ENDMDL
