MODEL 1
REMARK VINA RESULT:     -13.6      0.000      0.000
REMARK SMILES Cc1ccccc1N[C@H](C(=O)NCCCNC(=O)c1ccc(-c2c3nc(c(-c4c(F)c(F)c(F)c(F)c4F)c4ccc([nH]4)c(-c4c(F)c(F)c(F)c(F)c4F)c4nc(c(-c5c(F)c(F)c(F)c(F)c5F)c5ccc2[nH]5)C=C4)C=C3)cc1)c1ccccc1
REMARK SMILES IDX 14 1 13 2 12 3 10 4 11 5 9 7 8 8 7 10 1 11 2 12 3 13 4 14
REMARK SMILES IDX 6 15 5 16 82 17 83 18 87 19 84 20 86 21 85 22 15 23 16 24
REMARK SMILES IDX 17 25 18 27 19 28 20 29 81 30 21 31 80 32 22 33 23 34 24 35
REMARK SMILES IDX 74 36 25 37 79 38 73 39 75 40 26 41 78 42 72 43 71 44 27 46
REMARK SMILES IDX 59 47 39 48 58 49 40 50 43 51 57 52 76 53 41 54 42 55 56 57
REMARK SMILES IDX 77 58 44 59 28 60 29 61 37 62 30 63 31 64 35 65 38 66 32 67
REMARK SMILES IDX 33 68 36 69 34 70 60 71 61 72 69 73 62 74 63 75 67 76 70 77
REMARK SMILES IDX 64 78 65 79 68 80 66 81 45 82 46 83 54 84 47 85 48 86 52 87
REMARK SMILES IDX 55 88 49 89 50 90 53 91 51 92
REMARK H PARENT 12 6 8 9 16 26 75 45 43 56
REMARK Flexibility Score: inf
ROOT
ATOM      1  C   UNL A   1      32.374  30.875  26.750  1.00  0.00     0.042 C 
ENDROOT
BRANCH   1   2
ATOM      2  C   UNL A   1      32.047  29.891  25.645  1.00  0.00     0.117 C 
BRANCH   2   3
ATOM      3  N   UNL A   1      33.145  29.701  24.711  1.00  0.00    -0.354 N 
ATOM      4  C   UNL A   1      33.317  28.651  23.840  1.00  0.00     0.247 C 
ATOM      5  O   UNL A   1      34.255  28.713  23.039  1.00  0.00    -0.272 OA
ATOM      6  H   UNL A   1      33.839  30.398  24.701  1.00  0.00     0.163 HD
BRANCH   4   7
ATOM      7  C   UNL A   1      32.385  27.400  23.919  1.00  0.00     0.200 C 
BRANCH   7   8
ATOM      8  N   UNL A   1      31.302  27.627  22.922  1.00  0.00    -0.370 N 
ATOM      9  H   UNL A   1      31.413  27.029  22.147  1.00  0.00     0.161 HD
BRANCH   8  10
ATOM     10  C   UNL A   1      30.195  28.426  22.761  1.00  0.00     0.038 A 
ATOM     11  C   UNL A   1      28.677  26.710  23.952  1.00  0.00     0.046 C 
ATOM     12  C   UNL A   1      28.908  27.951  23.124  1.00  0.00    -0.028 A 
ATOM     13  C   UNL A   1      27.743  28.660  22.752  1.00  0.00     0.005 A 
ATOM     14  C   UNL A   1      27.827  29.880  22.098  1.00  0.00     0.000 A 
ATOM     15  C   UNL A   1      30.230  29.720  22.235  1.00  0.00     0.026 A 
ATOM     16  C   UNL A   1      29.076  30.429  21.876  1.00  0.00     0.002 A 
ENDBRANCH   8  10
ENDBRANCH   7   8
BRANCH   7  17
ATOM     17  C   UNL A   1      33.122  26.062  23.982  1.00  0.00    -0.016 A 
ATOM     18  C   UNL A   1      33.030  25.128  22.944  1.00  0.00     0.006 A 
ATOM     19  C   UNL A   1      33.913  25.705  25.095  1.00  0.00     0.006 A 
ATOM     20  C   UNL A   1      33.901  24.033  22.893  1.00  0.00     0.000 A 
ATOM     21  C   UNL A   1      34.780  24.613  25.052  1.00  0.00     0.000 A 
ATOM     22  C   UNL A   1      34.807  23.803  23.926  1.00  0.00     0.000 A 
ENDBRANCH   7  17
ENDBRANCH   4   7
ENDBRANCH   2   3
ENDBRANCH   1   2
BRANCH   1  23
ATOM     23  C   UNL A   1      33.530  30.364  27.585  1.00  0.00     0.118 C 
BRANCH  23  24
ATOM     24  N   UNL A   1      34.264  31.394  28.318  1.00  0.00    -0.352 N 
ATOM     25  C   UNL A   1      35.490  31.318  28.970  1.00  0.00     0.251 C 
ATOM     26  H   UNL A   1      33.826  32.275  28.354  1.00  0.00     0.163 HD
ATOM     27  O   UNL A   1      35.925  32.281  29.578  1.00  0.00    -0.269 OA
BRANCH  25  28
ATOM     28  C   UNL A   1      36.329  30.104  28.797  1.00  0.00     0.039 A 
ATOM     29  C   UNL A   1      36.619  29.329  29.928  1.00  0.00     0.014 A 
ATOM     30  C   UNL A   1      37.032  29.903  27.619  1.00  0.00     0.014 A 
ATOM     31  C   UNL A   1      37.793  28.579  29.953  1.00  0.00     0.010 A 
ATOM     32  C   UNL A   1      38.273  29.314  27.700  1.00  0.00     0.010 A 
ATOM     33  C   UNL A   1      38.680  28.697  28.886  1.00  0.00    -0.014 A 
BRANCH  33  34
ATOM     34  C   UNL A   1      40.085  28.310  28.942  1.00  0.00     0.031 A 
ATOM     35  C   UNL A   1      40.497  26.961  28.490  1.00  0.00     0.074 A 
ATOM     36  C   UNL A   1      41.012  29.249  29.242  1.00  0.00     0.049 A 
ATOM     37  N   UNL A   1      41.624  26.404  28.777  1.00  0.00    -0.248 NA
ATOM     38  C   UNL A   1      39.632  26.108  27.684  1.00  0.00     0.031 C 
ATOM     39  C   UNL A   1      42.454  29.175  29.013  1.00  0.00     0.029 A 
ATOM     40  N   UNL A   1      40.839  30.431  29.986  1.00  0.00    -0.354 N 
ATOM     41  C   UNL A   1      41.746  25.267  28.006  1.00  0.00     0.074 A 
ATOM     42  C   UNL A   1      40.459  25.109  27.373  1.00  0.00     0.031 C 
ATOM     43  C   UNL A   1      43.066  30.061  29.814  1.00  0.00     0.029 A 
ATOM     44  C   UNL A   1      42.052  30.615  30.693  1.00  0.00     0.049 A 
ATOM     45  H   UNL A   1      40.042  31.008  30.010  1.00  0.00     0.167 HD
ATOM     46  C   UNL A   1      42.964  24.659  27.905  1.00  0.00     0.037 A 
ATOM     47  C   UNL A   1      42.093  30.548  32.056  1.00  0.00     0.037 A 
ATOM     48  C   UNL A   1      43.937  25.309  28.784  1.00  0.00     0.049 A 
ATOM     49  C   UNL A   1      42.974  29.444  32.592  1.00  0.00     0.074 A 
ATOM     50  C   UNL A   1      44.903  26.275  28.554  1.00  0.00     0.029 A 
ATOM     51  N   UNL A   1      43.773  25.234  30.163  1.00  0.00    -0.354 N 
ATOM     52  N   UNL A   1      43.367  28.419  31.886  1.00  0.00    -0.248 NA
ATOM     53  C   UNL A   1      43.436  29.383  33.976  1.00  0.00     0.031 C 
ATOM     54  C   UNL A   1      45.268  26.834  29.803  1.00  0.00     0.029 A 
ATOM     55  C   UNL A   1      44.543  26.193  30.794  1.00  0.00     0.049 A 
ATOM     56  H   UNL A   1      43.191  24.589  30.625  1.00  0.00     0.167 HD
ATOM     57  C   UNL A   1      44.058  27.555  32.692  1.00  0.00     0.074 A 
ATOM     58  C   UNL A   1      44.102  28.215  33.983  1.00  0.00     0.031 C 
ATOM     59  C   UNL A   1      44.513  26.351  32.239  1.00  0.00     0.037 A 
BRANCH  46  60
ATOM     60  C   UNL A   1      43.349  23.682  26.809  1.00  0.00     0.064 A 
ATOM     61  C   UNL A   1      42.927  22.334  26.868  1.00  0.00     0.173 A 
ATOM     62  C   UNL A   1      44.181  23.979  25.715  1.00  0.00     0.173 A 
ATOM     63  F   UNL A   1      42.034  21.917  27.775  1.00  0.00    -0.203 F 
ATOM     64  C   UNL A   1      43.404  21.353  25.992  1.00  0.00     0.198 A 
ATOM     65  C   UNL A   1      44.706  22.992  24.873  1.00  0.00     0.198 A 
ATOM     66  F   UNL A   1      44.460  25.241  25.372  1.00  0.00    -0.203 F 
ATOM     67  F   UNL A   1      42.973  20.090  26.107  1.00  0.00    -0.200 F 
ATOM     68  C   UNL A   1      44.328  21.674  25.021  1.00  0.00     0.200 A 
ATOM     69  F   UNL A   1      45.579  23.333  23.913  1.00  0.00    -0.200 F 
ATOM     70  F   UNL A   1      44.824  20.730  24.211  1.00  0.00    -0.200 F 
ENDBRANCH  46  60
BRANCH  47  71
ATOM     71  C   UNL A   1      40.841  31.016  32.704  1.00  0.00     0.064 A 
ATOM     72  C   UNL A   1      40.609  32.401  32.790  1.00  0.00     0.173 A 
ATOM     73  C   UNL A   1      39.744  30.162  32.876  1.00  0.00     0.173 A 
ATOM     74  F   UNL A   1      41.627  33.262  32.633  1.00  0.00    -0.203 F 
ATOM     75  C   UNL A   1      39.319  32.912  32.920  1.00  0.00     0.198 A 
ATOM     76  C   UNL A   1      38.454  30.679  33.017  1.00  0.00     0.198 A 
ATOM     77  F   UNL A   1      39.897  28.834  32.780  1.00  0.00    -0.203 F 
ATOM     78  F   UNL A   1      39.119  34.238  32.887  1.00  0.00    -0.200 F 
ATOM     79  C   UNL A   1      38.239  32.050  33.005  1.00  0.00     0.200 A 
ATOM     80  F   UNL A   1      37.405  29.845  33.063  1.00  0.00    -0.200 F 
ATOM     81  F   UNL A   1      36.991  32.536  33.030  1.00  0.00    -0.200 F 
ENDBRANCH  47  71
BRANCH  59  82
ATOM     82  C   UNL A   1      45.044  25.247  33.115  1.00  0.00     0.064 A 
ATOM     83  C   UNL A   1      46.411  24.951  33.244  1.00  0.00     0.173 A 
ATOM     84  C   UNL A   1      44.177  24.538  33.978  1.00  0.00     0.173 A 
ATOM     85  F   UNL A   1      47.339  25.640  32.564  1.00  0.00    -0.203 F 
ATOM     86  C   UNL A   1      46.873  23.969  34.123  1.00  0.00     0.198 A 
ATOM     87  C   UNL A   1      44.646  23.598  34.894  1.00  0.00     0.198 A 
ATOM     88  F   UNL A   1      42.854  24.760  33.973  1.00  0.00    -0.203 F 
ATOM     89  F   UNL A   1      48.183  23.692  34.179  1.00  0.00    -0.200 F 
ATOM     90  C   UNL A   1      45.993  23.301  34.953  1.00  0.00     0.200 A 
ATOM     91  F   UNL A   1      43.789  22.997  35.730  1.00  0.00    -0.200 F 
ATOM     92  F   UNL A   1      46.445  22.388  35.824  1.00  0.00    -0.200 F 
ENDBRANCH  59  82
ENDBRANCH  33  34
ENDBRANCH  25  28
ENDBRANCH  23  24
ENDBRANCH   1  23
TORSDOF 13
ENDMDL
MODEL 2
REMARK VINA RESULT:     -13.4      0.522      1.765
REMARK SMILES Cc1ccccc1N[C@H](C(=O)NCCCNC(=O)c1ccc(-c2c3nc(c(-c4c(F)c(F)c(F)c(F)c4F)c4ccc([nH]4)c(-c4c(F)c(F)c(F)c(F)c4F)c4nc(c(-c5c(F)c(F)c(F)c(F)c5F)c5ccc2[nH]5)C=C4)C=C3)cc1)c1ccccc1
REMARK SMILES IDX 14 1 13 2 12 3 10 4 11 5 9 7 8 8 7 10 1 11 2 12 3 13 4 14
REMARK SMILES IDX 6 15 5 16 82 17 83 18 87 19 84 20 86 21 85 22 15 23 16 24
REMARK SMILES IDX 17 25 18 27 19 28 20 29 81 30 21 31 80 32 22 33 23 34 24 35
REMARK SMILES IDX 74 36 25 37 79 38 73 39 75 40 26 41 78 42 72 43 71 44 27 46
REMARK SMILES IDX 59 47 39 48 58 49 40 50 43 51 57 52 76 53 41 54 42 55 56 57
REMARK SMILES IDX 77 58 44 59 28 60 29 61 37 62 30 63 31 64 35 65 38 66 32 67
REMARK SMILES IDX 33 68 36 69 34 70 60 71 61 72 69 73 62 74 63 75 67 76 70 77
REMARK SMILES IDX 64 78 65 79 68 80 66 81 45 82 46 83 54 84 47 85 48 86 52 87
REMARK SMILES IDX 55 88 49 89 50 90 53 91 51 92
REMARK H PARENT 12 6 8 9 16 26 75 45 43 56
REMARK Flexibility Score: inf
ROOT
ATOM      1  C   UNL A   1      32.240  30.703  26.666  1.00  0.00     0.042 C 
ENDROOT
BRANCH   1   2
ATOM      2  C   UNL A   1      32.005  29.721  25.535  1.00  0.00     0.117 C 
BRANCH   2   3
ATOM      3  N   UNL A   1      33.132  29.627  24.622  1.00  0.00    -0.354 N 
ATOM      4  C   UNL A   1      33.359  28.645  23.686  1.00  0.00     0.247 C 
ATOM      5  O   UNL A   1      34.314  28.789  22.918  1.00  0.00    -0.272 OA
ATOM      6  H   UNL A   1      33.805  30.343  24.679  1.00  0.00     0.163 HD
BRANCH   4   7
ATOM      7  C   UNL A   1      32.463  27.365  23.654  1.00  0.00     0.200 C 
BRANCH   7   8
ATOM      8  N   UNL A   1      31.354  27.660  22.705  1.00  0.00    -0.370 N 
ATOM      9  H   UNL A   1      31.483  27.173  21.859  1.00  0.00     0.161 HD
BRANCH   8  10
ATOM     10  C   UNL A   1      30.204  28.412  22.660  1.00  0.00     0.038 A 
ATOM     11  C   UNL A   1      28.886  26.634  23.989  1.00  0.00     0.046 C 
ATOM     12  C   UNL A   1      28.981  27.884  23.148  1.00  0.00    -0.028 A 
ATOM     13  C   UNL A   1      27.757  28.544  22.898  1.00  0.00     0.005 A 
ATOM     14  C   UNL A   1      27.723  29.767  22.244  1.00  0.00     0.000 A 
ATOM     15  C   UNL A   1      30.133  29.707  22.139  1.00  0.00     0.026 A 
ATOM     16  C   UNL A   1      28.920  30.367  21.901  1.00  0.00     0.002 A 
ENDBRANCH   8  10
ENDBRANCH   7   8
BRANCH   7  17
ATOM     17  C   UNL A   1      33.238  26.050  23.567  1.00  0.00    -0.016 A 
ATOM     18  C   UNL A   1      34.171  25.686  24.545  1.00  0.00     0.006 A 
ATOM     19  C   UNL A   1      33.057  25.154  22.491  1.00  0.00     0.006 A 
ATOM     20  C   UNL A   1      34.678  24.382  24.594  1.00  0.00     0.000 A 
ATOM     21  C   UNL A   1      33.563  23.855  22.532  1.00  0.00     0.000 A 
ATOM     22  C   UNL A   1      34.336  23.455  23.612  1.00  0.00     0.000 A 
ENDBRANCH   7  17
ENDBRANCH   4   7
ENDBRANCH   2   3
ENDBRANCH   1   2
BRANCH   1  23
ATOM     23  C   UNL A   1      33.435  30.278  27.493  1.00  0.00     0.118 C 
BRANCH  23  24
ATOM     24  N   UNL A   1      34.115  31.363  28.198  1.00  0.00    -0.352 N 
ATOM     25  C   UNL A   1      35.341  31.367  28.854  1.00  0.00     0.251 C 
ATOM     26  H   UNL A   1      33.632  32.221  28.210  1.00  0.00     0.163 HD
ATOM     27  O   UNL A   1      35.726  32.366  29.435  1.00  0.00    -0.269 OA
BRANCH  25  28
ATOM     28  C   UNL A   1      36.241  30.193  28.715  1.00  0.00     0.039 A 
ATOM     29  C   UNL A   1      36.499  29.414  29.850  1.00  0.00     0.014 A 
ATOM     30  C   UNL A   1      37.018  30.040  27.576  1.00  0.00     0.014 A 
ATOM     31  C   UNL A   1      37.701  28.714  29.934  1.00  0.00     0.010 A 
ATOM     32  C   UNL A   1      38.277  29.503  27.722  1.00  0.00     0.010 A 
ATOM     33  C   UNL A   1      38.642  28.887  28.922  1.00  0.00    -0.014 A 
BRANCH  33  34
ATOM     34  C   UNL A   1      40.057  28.559  29.055  1.00  0.00     0.031 A 
ATOM     35  C   UNL A   1      40.536  27.203  28.703  1.00  0.00     0.074 A 
ATOM     36  C   UNL A   1      40.936  29.550  29.330  1.00  0.00     0.049 A 
ATOM     37  N   UNL A   1      41.670  26.708  29.066  1.00  0.00    -0.248 NA
ATOM     38  C   UNL A   1      39.736  26.269  27.919  1.00  0.00     0.031 C 
ATOM     39  C   UNL A   1      42.387  29.519  29.161  1.00  0.00     0.029 A 
ATOM     40  N   UNL A   1      40.690  30.768  29.993  1.00  0.00    -0.354 N 
ATOM     41  C   UNL A   1      41.865  25.533  28.372  1.00  0.00     0.074 A 
ATOM     42  C   UNL A   1      40.612  25.287  27.702  1.00  0.00     0.031 C 
ATOM     43  C   UNL A   1      42.934  30.476  29.927  1.00  0.00     0.029 A 
ATOM     44  C   UNL A   1      41.866  31.041  30.732  1.00  0.00     0.049 A 
ATOM     45  H   UNL A   1      39.872  31.313  29.951  1.00  0.00     0.167 HD
ATOM     46  C   UNL A   1      43.108  24.969  28.355  1.00  0.00     0.037 A 
ATOM     47  C   UNL A   1      41.855  31.059  32.096  1.00  0.00     0.037 A 
ATOM     48  C   UNL A   1      44.021  25.708  29.227  1.00  0.00     0.049 A 
ATOM     49  C   UNL A   1      42.755  30.024  32.732  1.00  0.00     0.074 A 
ATOM     50  C   UNL A   1      44.959  26.696  28.974  1.00  0.00     0.029 A 
ATOM     51  N   UNL A   1      43.805  25.710  30.601  1.00  0.00    -0.354 N 
ATOM     52  N   UNL A   1      43.212  28.975  32.107  1.00  0.00    -0.248 NA
ATOM     53  C   UNL A   1      43.163  30.066  34.134  1.00  0.00     0.031 C 
ATOM     54  C   UNL A   1      45.252  27.343  30.199  1.00  0.00     0.029 A 
ATOM     55  C   UNL A   1      44.513  26.735  31.200  1.00  0.00     0.049 A 
ATOM     56  H   UNL A   1      43.229  25.072  31.080  1.00  0.00     0.167 HD
ATOM     57  C   UNL A   1      43.903  28.190  32.990  1.00  0.00     0.074 A 
ATOM     58  C   UNL A   1      43.871  28.928  34.238  1.00  0.00     0.031 C 
ATOM     59  C   UNL A   1      44.419  26.979  32.631  1.00  0.00     0.037 A 
BRANCH  46  60
ATOM     60  C   UNL A   1      43.572  23.942  27.337  1.00  0.00     0.064 A 
ATOM     61  C   UNL A   1      44.358  24.334  26.229  1.00  0.00     0.173 A 
ATOM     62  C   UNL A   1      43.228  22.578  27.347  1.00  0.00     0.173 A 
ATOM     63  F   UNL A   1      44.872  25.567  26.134  1.00  0.00    -0.203 F 
ATOM     64  C   UNL A   1      44.653  23.470  25.168  1.00  0.00     0.198 A 
ATOM     65  C   UNL A   1      43.470  21.728  26.262  1.00  0.00     0.198 A 
ATOM     66  F   UNL A   1      42.710  21.997  28.434  1.00  0.00    -0.203 F 
ATOM     67  F   UNL A   1      45.395  23.906  24.141  1.00  0.00    -0.200 F 
ATOM     68  C   UNL A   1      44.171  22.179  25.164  1.00  0.00     0.200 A 
ATOM     69  F   UNL A   1      43.020  20.465  26.295  1.00  0.00    -0.200 F 
ATOM     70  F   UNL A   1      44.411  21.364  24.129  1.00  0.00    -0.200 F 
ENDBRANCH  46  60
BRANCH  47  71
ATOM     71  C   UNL A   1      40.562  31.516  32.667  1.00  0.00     0.064 A 
ATOM     72  C   UNL A   1      40.286  32.895  32.681  1.00  0.00     0.173 A 
ATOM     73  C   UNL A   1      39.484  30.637  32.827  1.00  0.00     0.173 A 
ATOM     74  F   UNL A   1      41.286  33.779  32.532  1.00  0.00    -0.203 F 
ATOM     75  C   UNL A   1      38.978  33.372  32.732  1.00  0.00     0.198 A 
ATOM     76  C   UNL A   1      38.174  31.119  32.888  1.00  0.00     0.198 A 
ATOM     77  F   UNL A   1      39.679  29.311  32.797  1.00  0.00    -0.203 F 
ATOM     78  F   UNL A   1      38.742  34.688  32.631  1.00  0.00    -0.200 F 
ATOM     79  C   UNL A   1      37.921  32.481  32.806  1.00  0.00     0.200 A 
ATOM     80  F   UNL A   1      37.148  30.256  32.924  1.00  0.00    -0.200 F 
ATOM     81  F   UNL A   1      36.659  32.930  32.754  1.00  0.00    -0.200 F 
ENDBRANCH  47  71
BRANCH  59  82
ATOM     82  C   UNL A   1      44.955  25.951  33.592  1.00  0.00     0.064 A 
ATOM     83  C   UNL A   1      44.144  25.224  34.479  1.00  0.00     0.173 A 
ATOM     84  C   UNL A   1      46.313  25.562  33.540  1.00  0.00     0.173 A 
ATOM     85  F   UNL A   1      42.819  25.423  34.531  1.00  0.00    -0.203 F 
ATOM     86  C   UNL A   1      44.665  24.225  35.304  1.00  0.00     0.198 A 
ATOM     87  C   UNL A   1      46.819  24.527  34.325  1.00  0.00     0.198 A 
ATOM     88  F   UNL A   1      47.178  26.158  32.706  1.00  0.00    -0.203 F 
ATOM     89  F   UNL A   1      43.859  23.589  36.165  1.00  0.00    -0.200 F 
ATOM     90  C   UNL A   1      45.998  23.871  35.220  1.00  0.00     0.200 A 
ATOM     91  F   UNL A   1      48.100  24.157  34.194  1.00  0.00    -0.200 F 
ATOM     92  F   UNL A   1      46.486  22.884  35.984  1.00  0.00    -0.200 F 
ENDBRANCH  59  82
ENDBRANCH  33  34
ENDBRANCH  25  28
ENDBRANCH  23  24
ENDBRANCH   1  23
TORSDOF 13
ENDMDL
MODEL 3
REMARK VINA RESULT:     -13.4      0.728      2.682
REMARK SMILES Cc1ccccc1N[C@H](C(=O)NCCCNC(=O)c1ccc(-c2c3nc(c(-c4c(F)c(F)c(F)c(F)c4F)c4ccc([nH]4)c(-c4c(F)c(F)c(F)c(F)c4F)c4nc(c(-c5c(F)c(F)c(F)c(F)c5F)c5ccc2[nH]5)C=C4)C=C3)cc1)c1ccccc1
REMARK SMILES IDX 14 1 13 2 12 3 10 4 11 5 9 7 8 8 7 10 1 11 2 12 3 13 4 14
REMARK SMILES IDX 6 15 5 16 82 17 83 18 87 19 84 20 86 21 85 22 15 23 16 24
REMARK SMILES IDX 17 25 18 27 19 28 20 29 81 30 21 31 80 32 22 33 23 34 24 35
REMARK SMILES IDX 74 36 25 37 79 38 73 39 75 40 26 41 78 42 72 43 71 44 27 46
REMARK SMILES IDX 59 47 39 48 58 49 40 50 43 51 57 52 76 53 41 54 42 55 56 57
REMARK SMILES IDX 77 58 44 59 28 60 29 61 37 62 30 63 31 64 35 65 38 66 32 67
REMARK SMILES IDX 33 68 36 69 34 70 60 71 61 72 69 73 62 74 63 75 67 76 70 77
REMARK SMILES IDX 64 78 65 79 68 80 66 81 45 82 46 83 54 84 47 85 48 86 52 87
REMARK SMILES IDX 55 88 49 89 50 90 53 91 51 92
REMARK H PARENT 12 6 8 9 16 26 75 45 43 56
REMARK Flexibility Score: inf
ROOT
ATOM      1  C   UNL A   1      32.111  30.915  26.538  1.00  0.00     0.042 C 
ENDROOT
BRANCH   1   2
ATOM      2  C   UNL A   1      31.837  29.832  25.514  1.00  0.00     0.117 C 
BRANCH   2   3
ATOM      3  N   UNL A   1      32.911  29.682  24.545  1.00  0.00    -0.354 N 
ATOM      4  C   UNL A   1      32.910  28.884  23.426  1.00  0.00     0.247 C 
ATOM      5  O   UNL A   1      33.870  28.968  22.655  1.00  0.00    -0.272 OA
ATOM      6  H   UNL A   1      33.727  30.208  24.709  1.00  0.00     0.163 HD
BRANCH   4   7
ATOM      7  C   UNL A   1      31.752  27.863  23.187  1.00  0.00     0.200 C 
BRANCH   7   8
ATOM      8  N   UNL A   1      31.823  26.885  24.308  1.00  0.00    -0.370 N 
ATOM      9  H   UNL A   1      31.198  27.136  25.027  1.00  0.00     0.161 HD
BRANCH   8  10
ATOM     10  C   UNL A   1      32.504  25.738  24.638  1.00  0.00     0.038 A 
ATOM     11  C   UNL A   1      30.698  24.249  23.548  1.00  0.00     0.046 C 
ATOM     12  C   UNL A   1      31.922  24.465  24.405  1.00  0.00    -0.028 A 
ATOM     13  C   UNL A   1      32.500  23.294  24.946  1.00  0.00     0.005 A 
ATOM     14  C   UNL A   1      33.695  23.345  25.647  1.00  0.00     0.000 A 
ATOM     15  C   UNL A   1      33.774  25.718  25.221  1.00  0.00     0.026 A 
ATOM     16  C   UNL A   1      34.354  24.557  25.748  1.00  0.00     0.002 A 
ENDBRANCH   8  10
ENDBRANCH   7   8
BRANCH   7  17
ATOM     17  C   UNL A   1      30.419  28.497  22.785  1.00  0.00    -0.016 A 
ATOM     18  C   UNL A   1      29.197  27.930  23.166  1.00  0.00     0.006 A 
ATOM     19  C   UNL A   1      30.364  29.670  22.003  1.00  0.00     0.006 A 
ATOM     20  C   UNL A   1      28.004  28.648  23.018  1.00  0.00     0.000 A 
ATOM     21  C   UNL A   1      29.178  30.387  21.849  1.00  0.00     0.000 A 
ATOM     22  C   UNL A   1      28.003  29.896  22.400  1.00  0.00     0.000 A 
ENDBRANCH   7  17
ENDBRANCH   4   7
ENDBRANCH   2   3
ENDBRANCH   1   2
BRANCH   1  23
ATOM     23  C   UNL A   1      33.190  30.467  27.503  1.00  0.00     0.118 C 
BRANCH  23  24
ATOM     24  N   UNL A   1      33.924  31.551  28.152  1.00  0.00    -0.352 N 
ATOM     25  C   UNL A   1      35.154  31.528  28.800  1.00  0.00     0.251 C 
ATOM     26  H   UNL A   1      33.483  32.431  28.125  1.00  0.00     0.163 HD
ATOM     27  O   UNL A   1      35.590  32.534  29.332  1.00  0.00    -0.269 OA
BRANCH  25  28
ATOM     28  C   UNL A   1      35.997  30.307  28.712  1.00  0.00     0.039 A 
ATOM     29  C   UNL A   1      36.335  29.645  29.900  1.00  0.00     0.014 A 
ATOM     30  C   UNL A   1      36.657  29.998  27.533  1.00  0.00     0.014 A 
ATOM     31  C   UNL A   1      37.515  28.906  29.952  1.00  0.00     0.010 A 
ATOM     32  C   UNL A   1      37.905  29.426  27.623  1.00  0.00     0.010 A 
ATOM     33  C   UNL A   1      38.362  28.927  28.846  1.00  0.00    -0.014 A 
BRANCH  33  34
ATOM     34  C   UNL A   1      39.771  28.554  28.887  1.00  0.00     0.031 A 
ATOM     35  C   UNL A   1      40.181  27.182  28.507  1.00  0.00     0.074 A 
ATOM     36  C   UNL A   1      40.698  29.516  29.101  1.00  0.00     0.049 A 
ATOM     37  N   UNL A   1      41.321  26.651  28.795  1.00  0.00    -0.248 NA
ATOM     38  C   UNL A   1      39.302  26.275  27.780  1.00  0.00     0.031 C 
ATOM     39  C   UNL A   1      42.133  29.438  28.837  1.00  0.00     0.029 A 
ATOM     40  N   UNL A   1      40.535  30.741  29.776  1.00  0.00    -0.354 N 
ATOM     41  C   UNL A   1      41.431  25.470  28.093  1.00  0.00     0.074 A 
ATOM     42  C   UNL A   1      40.129  25.265  27.507  1.00  0.00     0.031 C 
ATOM     43  C   UNL A   1      42.760  30.376  29.564  1.00  0.00     0.029 A 
ATOM     44  C   UNL A   1      41.765  30.976  30.436  1.00  0.00     0.049 A 
ATOM     45  H   UNL A   1      39.734  31.312  29.787  1.00  0.00     0.167 HD
ATOM     46  C   UNL A   1      42.651  24.866  27.995  1.00  0.00     0.037 A 
ATOM     47  C   UNL A   1      41.845  30.994  31.798  1.00  0.00     0.037 A 
ATOM     48  C   UNL A   1      43.643  25.576  28.804  1.00  0.00     0.049 A 
ATOM     49  C   UNL A   1      42.750  29.931  32.376  1.00  0.00     0.074 A 
ATOM     50  C   UNL A   1      44.594  26.533  28.488  1.00  0.00     0.029 A 
ATOM     51  N   UNL A   1      43.518  25.585  30.189  1.00  0.00    -0.354 N 
ATOM     52  N   UNL A   1      43.132  28.867  31.724  1.00  0.00    -0.248 NA
ATOM     53  C   UNL A   1      43.251  29.959  33.748  1.00  0.00     0.031 C 
ATOM     54  C   UNL A   1      44.988  27.170  29.689  1.00  0.00     0.029 A 
ATOM     55  C   UNL A   1      44.297  26.586  30.738  1.00  0.00     0.049 A 
ATOM     56  H   UNL A   1      42.955  24.966  30.706  1.00  0.00     0.167 HD
ATOM     57  C   UNL A   1      43.853  28.060  32.561  1.00  0.00     0.074 A 
ATOM     58  C   UNL A   1      43.928  28.799  33.807  1.00  0.00     0.031 C 
ATOM     59  C   UNL A   1      44.306  26.833  32.171  1.00  0.00     0.037 A 
BRANCH  46  60
ATOM     60  C   UNL A   1      43.014  23.826  26.951  1.00  0.00     0.064 A 
ATOM     61  C   UNL A   1      42.666  22.468  27.138  1.00  0.00     0.173 A 
ATOM     62  C   UNL A   1      43.758  24.075  25.783  1.00  0.00     0.173 A 
ATOM     63  F   UNL A   1      41.856  22.083  28.132  1.00  0.00    -0.203 F 
ATOM     64  C   UNL A   1      43.136  21.446  26.306  1.00  0.00     0.198 A 
ATOM     65  C   UNL A   1      44.278  23.051  24.983  1.00  0.00     0.198 A 
ATOM     66  F   UNL A   1      43.950  25.318  25.329  1.00  0.00    -0.203 F 
ATOM     67  F   UNL A   1      42.777  20.177  26.544  1.00  0.00    -0.200 F 
ATOM     68  C   UNL A   1      43.978  21.733  25.253  1.00  0.00     0.200 A 
ATOM     69  F   UNL A   1      45.068  23.357  23.943  1.00  0.00    -0.200 F 
ATOM     70  F   UNL A   1      44.467  20.752  24.484  1.00  0.00    -0.200 F 
ENDBRANCH  46  60
BRANCH  47  71
ATOM     71  C   UNL A   1      40.607  31.492  32.452  1.00  0.00     0.064 A 
ATOM     72  C   UNL A   1      40.358  32.877  32.446  1.00  0.00     0.173 A 
ATOM     73  C   UNL A   1      39.529  30.640  32.719  1.00  0.00     0.173 A 
ATOM     74  F   UNL A   1      41.359  33.736  32.196  1.00  0.00    -0.203 F 
ATOM     75  C   UNL A   1      39.067  33.381  32.582  1.00  0.00     0.198 A 
ATOM     76  C   UNL A   1      38.237  31.150  32.864  1.00  0.00     0.198 A 
ATOM     77  F   UNL A   1      39.697  29.310  32.712  1.00  0.00    -0.203 F 
ATOM     78  F   UNL A   1      38.847  34.699  32.462  1.00  0.00    -0.200 F 
ATOM     79  C   UNL A   1      38.002  32.514  32.762  1.00  0.00     0.200 A 
ATOM     80  F   UNL A   1      37.200  30.309  33.003  1.00  0.00    -0.200 F 
ATOM     81  F   UNL A   1      36.749  32.987  32.793  1.00  0.00    -0.200 F 
ENDBRANCH  47  71
BRANCH  59  82
ATOM     82  C   UNL A   1      44.870  25.789  33.097  1.00  0.00     0.064 A 
ATOM     83  C   UNL A   1      46.215  25.382  33.077  1.00  0.00     0.173 A 
ATOM     84  C   UNL A   1      44.085  25.266  34.150  1.00  0.00     0.173 A 
ATOM     85  F   UNL A   1      47.085  25.901  32.199  1.00  0.00    -0.203 F 
ATOM     86  C   UNL A   1      46.722  24.465  34.001  1.00  0.00     0.198 A 
ATOM     87  C   UNL A   1      44.608  24.394  35.104  1.00  0.00     0.198 A 
ATOM     88  F   UNL A   1      42.796  25.609  34.295  1.00  0.00    -0.203 F 
ATOM     89  F   UNL A   1      48.001  24.075  33.915  1.00  0.00    -0.200 F 
ATOM     90  C   UNL A   1      45.922  23.980  35.018  1.00  0.00     0.200 A 
ATOM     91  F   UNL A   1      43.837  23.974  36.116  1.00  0.00    -0.200 F 
ATOM     92  F   UNL A   1      46.423  23.133  35.927  1.00  0.00    -0.200 F 
ENDBRANCH  59  82
ENDBRANCH  33  34
ENDBRANCH  25  28
ENDBRANCH  23  24
ENDBRANCH   1  23
TORSDOF 13
ENDMDL
