MODEL 1
REMARK VINA RESULT:      -9.9      0.000      0.000
REMARK SMILES CC[C@@H](C)[NH2+][C@H](CN=[N+]=[N-])C(=O)NCCCNC(=O)c1ccc(-c2c3nc(c(-c4c(F)c(F)c(F)c(F)c4F)c4ccc([nH]4)c(-c4c(F)c(F)c(F)c(F)c4F)c4nc(c(-c5c(F)c(F)c(F)c(F)c5F)c5ccc2[nH]5)C=C4)C=C3)cc1
REMARK SMILES IDX 14 1 13 2 11 3 12 4 6 6 5 7 3 10 4 11 2 12 1 13 7 14 8 15
REMARK SMILES IDX 9 16 10 17 15 18 16 19 17 20 18 21 19 23 20 24 21 25 82 26
REMARK SMILES IDX 22 27 81 28 23 29 24 30 25 31 75 32 26 33 80 34 74 35 76 36
REMARK SMILES IDX 27 37 79 38 73 39 72 40 28 42 60 43 40 44 59 45 41 46 44 47
REMARK SMILES IDX 58 48 77 49 42 50 43 51 57 53 78 54 45 55 29 56 30 57 38 58
REMARK SMILES IDX 31 59 32 60 36 61 39 62 33 63 34 64 37 65 35 66 61 67 62 68
REMARK SMILES IDX 70 69 63 70 64 71 68 72 71 73 65 74 66 75 69 76 67 77 46 78
REMARK SMILES IDX 47 79 55 80 48 81 49 82 53 83 56 84 50 85 51 86 54 87 52 88
REMARK H PARENT 13 5 5 8 5 9 17 22 76 41 44 52
REMARK Flexibility Score: inf
ROOT
ATOM      1  C   UNL A   1      35.270  32.987  30.529  1.00  0.00     0.118 C 
ENDROOT
BRANCH   1   2
ATOM      2  N   UNL A   1      34.268  32.786  31.558  1.00  0.00    -0.351 N 
ATOM      3  C   UNL A   1      34.067  33.462  32.724  1.00  0.00     0.278 C 
ATOM      4  O   UNL A   1      33.146  33.078  33.451  1.00  0.00    -0.268 OA
ATOM      5  H   UNL A   1      33.637  32.051  31.388  1.00  0.00     0.163 HD
BRANCH   3   6
ATOM      6  C   UNL A   1      34.930  34.684  33.110  1.00  0.00     0.278 C 
BRANCH   6   7
ATOM      7  N   UNL A   1      35.619  34.372  34.390  1.00  0.00    -0.334 N 
ATOM      8  H   UNL A   1      35.574  35.203  34.980  1.00  0.00     0.347 HD
ATOM      9  H   UNL A   1      35.133  33.563  34.777  1.00  0.00     0.347 HD
BRANCH   7  10
ATOM     10  C   UNL A   1      37.027  33.975  34.276  1.00  0.00     0.179 C 
ATOM     11  C   UNL A   1      37.695  34.578  33.038  1.00  0.00     0.075 C 
BRANCH  10  12
ATOM     12  C   UNL A   1      37.074  32.433  34.254  1.00  0.00     0.061 C 
ATOM     13  C   UNL A   1      37.971  31.848  35.337  1.00  0.00     0.010 C 
ENDBRANCH  10  12
ENDBRANCH   7  10
ENDBRANCH   6   7
BRANCH   6  14
ATOM     14  C   UNL A   1      34.074  35.969  33.099  1.00  0.00     0.166 C 
BRANCH  14  15
ATOM     15  N   UNL A   1      32.918  35.817  32.192  1.00  0.00    -0.087 NA
ATOM     16  N   UNL A   1      32.904  36.544  31.186  1.00  0.00     0.001 N 
ATOM     17  N   UNL A   1      32.904  37.204  30.254  1.00  0.00    -0.003 NA
ENDBRANCH  14  15
ENDBRANCH   6  14
ENDBRANCH   3   6
ENDBRANCH   1   2
BRANCH   1  18
ATOM     18  C   UNL A   1      34.714  33.795  29.364  1.00  0.00     0.042 C 
BRANCH  18  19
ATOM     19  C   UNL A   1      35.034  33.193  28.002  1.00  0.00     0.118 C 
BRANCH  19  20
ATOM     20  N   UNL A   1      34.181  32.057  27.685  1.00  0.00    -0.352 N 
ATOM     21  C   UNL A   1      34.484  30.722  27.608  1.00  0.00     0.251 C 
ATOM     22  H   UNL A   1      33.242  32.282  27.496  1.00  0.00     0.163 HD
ATOM     23  O   UNL A   1      33.675  29.943  27.114  1.00  0.00    -0.269 OA
BRANCH  21  24
ATOM     24  C   UNL A   1      35.779  30.217  28.112  1.00  0.00     0.039 A 
ATOM     25  C   UNL A   1      35.839  29.699  29.408  1.00  0.00     0.014 A 
ATOM     26  C   UNL A   1      36.940  30.298  27.338  1.00  0.00     0.014 A 
ATOM     27  C   UNL A   1      37.056  29.242  29.915  1.00  0.00     0.010 A 
ATOM     28  C   UNL A   1      38.128  29.749  27.805  1.00  0.00     0.010 A 
ATOM     29  C   UNL A   1      38.208  29.248  29.112  1.00  0.00    -0.014 A 
BRANCH  29  30
ATOM     30  C   UNL A   1      39.517  28.800  29.649  1.00  0.00     0.031 A 
ATOM     31  C   UNL A   1      40.169  29.564  30.770  1.00  0.00     0.074 A 
ATOM     32  C   UNL A   1      40.131  27.729  29.112  1.00  0.00     0.049 A 
ATOM     33  N   UNL A   1      41.320  29.352  31.360  1.00  0.00    -0.248 NA
ATOM     34  C   UNL A   1      39.448  30.742  31.277  1.00  0.00     0.031 C 
ATOM     35  C   UNL A   1      39.624  26.937  27.992  1.00  0.00     0.029 A 
ATOM     36  N   UNL A   1      41.319  27.123  29.438  1.00  0.00    -0.354 N 
ATOM     37  C   UNL A   1      41.458  30.370  32.295  1.00  0.00     0.074 A 
ATOM     38  C   UNL A   1      40.317  31.245  32.140  1.00  0.00     0.031 C 
ATOM     39  C   UNL A   1      40.479  25.933  27.741  1.00  0.00     0.029 A 
ATOM     40  C   UNL A   1      41.612  26.033  28.656  1.00  0.00     0.049 A 
ATOM     41  H   UNL A   1      41.904  27.440  30.163  1.00  0.00     0.167 HD
ATOM     42  C   UNL A   1      42.429  30.544  33.223  1.00  0.00     0.037 A 
ATOM     43  C   UNL A   1      42.677  25.211  28.675  1.00  0.00     0.037 A 
ATOM     44  C   UNL A   1      43.557  29.664  33.380  1.00  0.00     0.049 A 
ATOM     45  C   UNL A   1      43.751  25.428  29.709  1.00  0.00     0.074 A 
ATOM     46  C   UNL A   1      44.581  29.728  34.308  1.00  0.00     0.029 A 
ATOM     47  N   UNL A   1      43.810  28.559  32.580  1.00  0.00    -0.354 N 
ATOM     48  N   UNL A   1      43.841  26.359  30.628  1.00  0.00    -0.248 NA
ATOM     49  C   UNL A   1      44.861  24.468  29.717  1.00  0.00     0.031 C 
ATOM     50  C   UNL A   1      45.484  28.696  34.034  1.00  0.00     0.029 A 
ATOM     51  C   UNL A   1      44.984  27.941  32.984  1.00  0.00     0.049 A 
ATOM     52  H   UNL A   1      43.241  28.257  31.836  1.00  0.00     0.167 HD
ATOM     53  C   UNL A   1      44.993  26.075  31.350  1.00  0.00     0.074 A 
ATOM     54  C   UNL A   1      45.561  24.876  30.766  1.00  0.00     0.031 C 
ATOM     55  C   UNL A   1      45.531  26.742  32.402  1.00  0.00     0.037 A 
BRANCH  42  56
ATOM     56  C   UNL A   1      42.306  31.731  34.139  1.00  0.00     0.064 A 
ATOM     57  C   UNL A   1      41.651  31.643  35.378  1.00  0.00     0.173 A 
ATOM     58  C   UNL A   1      42.860  32.969  33.781  1.00  0.00     0.173 A 
ATOM     59  F   UNL A   1      41.091  30.488  35.766  1.00  0.00    -0.203 F 
ATOM     60  C   UNL A   1      41.519  32.758  36.203  1.00  0.00     0.198 A 
ATOM     61  C   UNL A   1      42.761  34.072  34.626  1.00  0.00     0.198 A 
ATOM     62  F   UNL A   1      43.503  33.111  32.612  1.00  0.00    -0.203 F 
ATOM     63  F   UNL A   1      40.830  32.664  37.348  1.00  0.00    -0.200 F 
ATOM     64  C   UNL A   1      42.081  33.970  35.829  1.00  0.00     0.200 A 
ATOM     65  F   UNL A   1      43.319  35.238  34.272  1.00  0.00    -0.200 F 
ATOM     66  F   UNL A   1      41.957  35.040  36.626  1.00  0.00    -0.200 F 
ENDBRANCH  42  56
BRANCH  43  67
ATOM     67  C   UNL A   1      42.766  24.090  27.702  1.00  0.00     0.064 A 
ATOM     68  C   UNL A   1      42.359  22.793  28.049  1.00  0.00     0.173 A 
ATOM     69  C   UNL A   1      43.262  24.290  26.406  1.00  0.00     0.173 A 
ATOM     70  F   UNL A   1      41.892  22.546  29.282  1.00  0.00    -0.203 F 
ATOM     71  C   UNL A   1      42.471  21.737  27.147  1.00  0.00     0.198 A 
ATOM     72  C   UNL A   1      43.341  23.240  25.493  1.00  0.00     0.198 A 
ATOM     73  F   UNL A   1      43.656  25.512  26.018  1.00  0.00    -0.203 F 
ATOM     74  F   UNL A   1      42.125  20.498  27.524  1.00  0.00    -0.200 F 
ATOM     75  C   UNL A   1      42.956  21.962  25.869  1.00  0.00     0.200 A 
ATOM     76  F   UNL A   1      43.792  23.467  24.252  1.00  0.00    -0.200 F 
ATOM     77  F   UNL A   1      43.059  20.948  25.000  1.00  0.00    -0.200 F 
ENDBRANCH  43  67
BRANCH  55  78
ATOM     78  C   UNL A   1      46.761  26.153  33.034  1.00  0.00     0.064 A 
ATOM     79  C   UNL A   1      48.055  26.528  32.643  1.00  0.00     0.173 A 
ATOM     80  C   UNL A   1      46.638  25.214  34.070  1.00  0.00     0.173 A 
ATOM     81  F   UNL A   1      48.231  27.414  31.651  1.00  0.00    -0.203 F 
ATOM     82  C   UNL A   1      49.177  25.950  33.231  1.00  0.00     0.198 A 
ATOM     83  C   UNL A   1      47.762  24.669  34.685  1.00  0.00     0.198 A 
ATOM     84  F   UNL A   1      45.425  24.828  34.494  1.00  0.00    -0.203 F 
ATOM     85  F   UNL A   1      50.402  26.272  32.793  1.00  0.00    -0.200 F 
ATOM     86  C   UNL A   1      49.029  25.027  34.256  1.00  0.00     0.200 A 
ATOM     87  F   UNL A   1      47.615  23.793  35.689  1.00  0.00    -0.200 F 
ATOM     88  F   UNL A   1      50.111  24.475  34.824  1.00  0.00    -0.200 F 
ENDBRANCH  55  78
ENDBRANCH  29  30
ENDBRANCH  21  24
ENDBRANCH  19  20
ENDBRANCH  18  19
ENDBRANCH   1  18
TORSDOF 15
ENDMDL
MODEL 2
REMARK VINA RESULT:      -9.7      4.371     11.455
REMARK SMILES CC[C@@H](C)[NH2+][C@H](CN=[N+]=[N-])C(=O)NCCCNC(=O)c1ccc(-c2c3nc(c(-c4c(F)c(F)c(F)c(F)c4F)c4ccc([nH]4)c(-c4c(F)c(F)c(F)c(F)c4F)c4nc(c(-c5c(F)c(F)c(F)c(F)c5F)c5ccc2[nH]5)C=C4)C=C3)cc1
REMARK SMILES IDX 14 1 13 2 11 3 12 4 6 6 5 7 3 10 4 11 2 12 1 13 7 14 8 15
REMARK SMILES IDX 9 16 10 17 15 18 16 19 17 20 18 21 19 23 20 24 21 25 82 26
REMARK SMILES IDX 22 27 81 28 23 29 24 30 25 31 75 32 26 33 80 34 74 35 76 36
REMARK SMILES IDX 27 37 79 38 73 39 72 40 28 42 60 43 40 44 59 45 41 46 44 47
REMARK SMILES IDX 58 48 77 49 42 50 43 51 57 53 78 54 45 55 29 56 30 57 38 58
REMARK SMILES IDX 31 59 32 60 36 61 39 62 33 63 34 64 37 65 35 66 61 67 62 68
REMARK SMILES IDX 70 69 63 70 64 71 68 72 71 73 65 74 66 75 69 76 67 77 46 78
REMARK SMILES IDX 47 79 55 80 48 81 49 82 53 83 56 84 50 85 51 86 54 87 52 88
REMARK H PARENT 13 5 5 8 5 9 17 22 76 41 44 52
REMARK Flexibility Score: inf
ROOT
ATOM      1  C   UNL A   1      42.565  20.149  26.473  1.00  0.00     0.118 C 
ENDROOT
BRANCH   1   2
ATOM      2  N   UNL A   1      42.595  21.184  25.459  1.00  0.00    -0.351 N 
ATOM      3  C   UNL A   1      43.607  22.022  25.096  1.00  0.00     0.278 C 
ATOM      4  O   UNL A   1      43.372  22.844  24.206  1.00  0.00    -0.268 OA
ATOM      5  H   UNL A   1      41.758  21.299  24.954  1.00  0.00     0.163 HD
BRANCH   3   6
ATOM      6  C   UNL A   1      45.006  21.929  25.745  1.00  0.00     0.278 C 
BRANCH   6   7
ATOM      7  N   UNL A   1      45.134  23.044  26.720  1.00  0.00    -0.334 N 
ATOM      8  H   UNL A   1      44.210  23.456  26.848  1.00  0.00     0.347 HD
ATOM      9  H   UNL A   1      45.522  22.627  27.568  1.00  0.00     0.347 HD
BRANCH   7  10
ATOM     10  C   UNL A   1      46.060  24.118  26.344  1.00  0.00     0.179 C 
ATOM     11  C   UNL A   1      46.976  24.518  27.503  1.00  0.00     0.075 C 
BRANCH  10  12
ATOM     12  C   UNL A   1      45.212  25.309  25.853  1.00  0.00     0.061 C 
ATOM     13  C   UNL A   1      45.906  26.653  26.040  1.00  0.00     0.010 C 
ENDBRANCH  10  12
ENDBRANCH   7  10
ENDBRANCH   6   7
BRANCH   6  14
ATOM     14  C   UNL A   1      46.097  21.856  24.655  1.00  0.00     0.166 C 
BRANCH  14  15
ATOM     15  N   UNL A   1      46.817  20.568  24.724  1.00  0.00    -0.087 NA
ATOM     16  N   UNL A   1      46.134  19.543  24.561  1.00  0.00     0.001 N 
ATOM     17  N   UNL A   1      45.505  18.605  24.395  1.00  0.00    -0.003 NA
ENDBRANCH  14  15
ENDBRANCH   6  14
ENDBRANCH   3   6
ENDBRANCH   1   2
BRANCH   1  18
ATOM     18  C   UNL A   1      41.193  20.056  27.129  1.00  0.00     0.042 C 
BRANCH  18  19
ATOM     19  C   UNL A   1      40.553  21.413  27.391  1.00  0.00     0.118 C 
BRANCH  19  20
ATOM     20  N   UNL A   1      39.481  21.710  26.453  1.00  0.00    -0.352 N 
ATOM     21  C   UNL A   1      38.808  22.882  26.226  1.00  0.00     0.251 C 
ATOM     22  H   UNL A   1      39.196  20.951  25.894  1.00  0.00     0.163 HD
ATOM     23  O   UNL A   1      37.789  22.875  25.544  1.00  0.00    -0.269 OA
BRANCH  21  24
ATOM     24  C   UNL A   1      39.299  24.152  26.801  1.00  0.00     0.039 A 
ATOM     25  C   UNL A   1      39.179  24.357  28.177  1.00  0.00     0.014 A 
ATOM     26  C   UNL A   1      39.828  25.159  25.989  1.00  0.00     0.014 A 
ATOM     27  C   UNL A   1      39.610  25.560  28.738  1.00  0.00     0.010 A 
ATOM     28  C   UNL A   1      40.350  26.313  26.560  1.00  0.00     0.010 A 
ATOM     29  C   UNL A   1      40.214  26.542  27.937  1.00  0.00    -0.014 A 
BRANCH  29  30
ATOM     30  C   UNL A   1      40.644  27.841  28.513  1.00  0.00     0.031 A 
ATOM     31  C   UNL A   1      42.087  28.058  28.880  1.00  0.00     0.074 A 
ATOM     32  C   UNL A   1      39.735  28.810  28.734  1.00  0.00     0.049 A 
ATOM     33  N   UNL A   1      42.658  29.107  29.419  1.00  0.00    -0.248 NA
ATOM     34  C   UNL A   1      43.008  26.937  28.638  1.00  0.00     0.031 C 
ATOM     35  C   UNL A   1      38.301  28.701  28.466  1.00  0.00     0.029 A 
ATOM     36  N   UNL A   1      39.886  30.078  29.237  1.00  0.00    -0.354 N 
ATOM     37  C   UNL A   1      43.994  28.766  29.585  1.00  0.00     0.074 A 
ATOM     38  C   UNL A   1      44.135  27.389  29.167  1.00  0.00     0.031 C 
ATOM     39  C   UNL A   1      37.707  29.863  28.780  1.00  0.00     0.029 A 
ATOM     40  C   UNL A   1      38.710  30.783  29.306  1.00  0.00     0.049 A 
ATOM     41  H   UNL A   1      40.754  30.446  29.520  1.00  0.00     0.167 HD
ATOM     42  C   UNL A   1      45.020  29.539  30.013  1.00  0.00     0.037 A 
ATOM     43  C   UNL A   1      38.470  32.032  29.749  1.00  0.00     0.037 A 
ATOM     44  C   UNL A   1      44.877  30.913  30.419  1.00  0.00     0.049 A 
ATOM     45  C   UNL A   1      39.624  32.871  30.231  1.00  0.00     0.074 A 
ATOM     46  C   UNL A   1      45.854  31.797  30.838  1.00  0.00     0.029 A 
ATOM     47  N   UNL A   1      43.672  31.600  30.458  1.00  0.00    -0.354 N 
ATOM     48  N   UNL A   1      40.894  32.559  30.326  1.00  0.00    -0.248 NA
ATOM     49  C   UNL A   1      39.312  34.243  30.651  1.00  0.00     0.031 C 
ATOM     50  C   UNL A   1      45.233  33.001  31.186  1.00  0.00     0.029 A 
ATOM     51  C   UNL A   1      43.879  32.894  30.911  1.00  0.00     0.049 A 
ATOM     52  H   UNL A   1      42.798  31.225  30.202  1.00  0.00     0.167 HD
ATOM     53  C   UNL A   1      41.538  33.705  30.776  1.00  0.00     0.074 A 
ATOM     54  C   UNL A   1      40.517  34.722  30.924  1.00  0.00     0.031 C 
ATOM     55  C   UNL A   1      42.855  33.899  31.040  1.00  0.00     0.037 A 
BRANCH  42  56
ATOM     56  C   UNL A   1      46.386  28.911  30.061  1.00  0.00     0.064 A 
ATOM     57  C   UNL A   1      46.849  28.235  31.202  1.00  0.00     0.173 A 
ATOM     58  C   UNL A   1      47.241  28.975  28.951  1.00  0.00     0.173 A 
ATOM     59  F   UNL A   1      46.079  28.153  32.298  1.00  0.00    -0.203 F 
ATOM     60  C   UNL A   1      48.127  27.684  31.243  1.00  0.00     0.198 A 
ATOM     61  C   UNL A   1      48.505  28.389  28.982  1.00  0.00     0.198 A 
ATOM     62  F   UNL A   1      46.851  29.603  27.831  1.00  0.00    -0.203 F 
ATOM     63  F   UNL A   1      48.569  27.104  32.367  1.00  0.00    -0.200 F 
ATOM     64  C   UNL A   1      48.951  27.755  30.130  1.00  0.00     0.200 A 
ATOM     65  F   UNL A   1      49.293  28.443  27.899  1.00  0.00    -0.200 F 
ATOM     66  F   UNL A   1      50.180  27.220  30.170  1.00  0.00    -0.200 F 
ENDBRANCH  42  56
BRANCH  43  67
ATOM     67  C   UNL A   1      37.085  32.573  29.729  1.00  0.00     0.064 A 
ATOM     68  C   UNL A   1      36.222  32.394  30.820  1.00  0.00     0.173 A 
ATOM     69  C   UNL A   1      36.595  33.276  28.620  1.00  0.00     0.173 A 
ATOM     70  F   UNL A   1      36.638  31.716  31.899  1.00  0.00    -0.203 F 
ATOM     71  C   UNL A   1      34.914  32.875  30.790  1.00  0.00     0.198 A 
ATOM     72  C   UNL A   1      35.298  33.785  28.604  1.00  0.00     0.198 A 
ATOM     73  F   UNL A   1      37.382  33.483  27.554  1.00  0.00    -0.203 F 
ATOM     74  F   UNL A   1      34.093  32.644  31.824  1.00  0.00    -0.200 F 
ATOM     75  C   UNL A   1      34.455  33.574  29.685  1.00  0.00     0.200 A 
ATOM     76  F   UNL A   1      34.866  34.478  27.542  1.00  0.00    -0.200 F 
ATOM     77  F   UNL A   1      33.199  34.040  29.658  1.00  0.00    -0.200 F 
ENDBRANCH  43  67
BRANCH  55  78
ATOM     78  C   UNL A   1      43.278  35.282  31.451  1.00  0.00     0.064 A 
ATOM     79  C   UNL A   1      43.659  36.256  30.516  1.00  0.00     0.173 A 
ATOM     80  C   UNL A   1      43.277  35.643  32.808  1.00  0.00     0.173 A 
ATOM     81  F   UNL A   1      43.688  35.961  29.207  1.00  0.00    -0.203 F 
ATOM     82  C   UNL A   1      44.068  37.522  30.927  1.00  0.00     0.198 A 
ATOM     83  C   UNL A   1      43.647  36.923  33.212  1.00  0.00     0.198 A 
ATOM     84  F   UNL A   1      42.909  34.756  33.745  1.00  0.00    -0.203 F 
ATOM     85  F   UNL A   1      44.494  38.413  30.021  1.00  0.00    -0.200 F 
ATOM     86  C   UNL A   1      44.054  37.856  32.273  1.00  0.00     0.200 A 
ATOM     87  F   UNL A   1      43.612  37.249  34.511  1.00  0.00    -0.200 F 
ATOM     88  F   UNL A   1      44.444  39.077  32.666  1.00  0.00    -0.200 F 
ENDBRANCH  55  78
ENDBRANCH  29  30
ENDBRANCH  21  24
ENDBRANCH  19  20
ENDBRANCH  18  19
ENDBRANCH   1  18
TORSDOF 15
ENDMDL
MODEL 3
REMARK VINA RESULT:      -9.6      5.828     10.335
REMARK SMILES CC[C@@H](C)[NH2+][C@H](CN=[N+]=[N-])C(=O)NCCCNC(=O)c1ccc(-c2c3nc(c(-c4c(F)c(F)c(F)c(F)c4F)c4ccc([nH]4)c(-c4c(F)c(F)c(F)c(F)c4F)c4nc(c(-c5c(F)c(F)c(F)c(F)c5F)c5ccc2[nH]5)C=C4)C=C3)cc1
REMARK SMILES IDX 14 1 13 2 11 3 12 4 6 6 5 7 3 10 4 11 2 12 1 13 7 14 8 15
REMARK SMILES IDX 9 16 10 17 15 18 16 19 17 20 18 21 19 23 20 24 21 25 82 26
REMARK SMILES IDX 22 27 81 28 23 29 24 30 25 31 75 32 26 33 80 34 74 35 76 36
REMARK SMILES IDX 27 37 79 38 73 39 72 40 28 42 60 43 40 44 59 45 41 46 44 47
REMARK SMILES IDX 58 48 77 49 42 50 43 51 57 53 78 54 45 55 29 56 30 57 38 58
REMARK SMILES IDX 31 59 32 60 36 61 39 62 33 63 34 64 37 65 35 66 61 67 62 68
REMARK SMILES IDX 70 69 63 70 64 71 68 72 71 73 65 74 66 75 69 76 67 77 46 78
REMARK SMILES IDX 47 79 55 80 48 81 49 82 53 83 56 84 50 85 51 86 54 87 52 88
REMARK H PARENT 13 5 5 8 5 9 17 22 76 41 44 52
REMARK Flexibility Score: inf
ROOT
ATOM      1  C   UNL A   1      36.463  20.853  24.750  1.00  0.00     0.118 C 
ENDROOT
BRANCH   1   2
ATOM      2  N   UNL A   1      35.489  20.802  25.823  1.00  0.00    -0.351 N 
ATOM      3  C   UNL A   1      34.128  20.758  25.764  1.00  0.00     0.278 C 
ATOM      4  O   UNL A   1      33.514  20.742  26.835  1.00  0.00    -0.268 OA
ATOM      5  H   UNL A   1      35.867  20.798  26.731  1.00  0.00     0.163 HD
BRANCH   3   6
ATOM      6  C   UNL A   1      33.378  20.692  24.415  1.00  0.00     0.278 C 
BRANCH   6   7
ATOM      7  N   UNL A   1      32.258  21.669  24.466  1.00  0.00    -0.334 N 
ATOM      8  H   UNL A   1      31.532  21.346  23.826  1.00  0.00     0.347 HD
ATOM      9  H   UNL A   1      31.963  21.702  25.442  1.00  0.00     0.347 HD
BRANCH   7  10
ATOM     10  C   UNL A   1      32.598  23.049  24.103  1.00  0.00     0.179 C 
ATOM     11  C   UNL A   1      31.390  23.814  23.558  1.00  0.00     0.075 C 
BRANCH  10  12
ATOM     12  C   UNL A   1      33.745  22.989  23.073  1.00  0.00     0.061 C 
ATOM     13  C   UNL A   1      34.869  23.972  23.374  1.00  0.00     0.010 C 
ENDBRANCH  10  12
ENDBRANCH   7  10
ENDBRANCH   6   7
BRANCH   6  14
ATOM     14  C   UNL A   1      32.989  19.234  24.089  1.00  0.00     0.166 C 
BRANCH  14  15
ATOM     15  N   UNL A   1      34.124  18.323  24.341  1.00  0.00    -0.087 NA
ATOM     16  N   UNL A   1      34.131  17.258  23.704  1.00  0.00     0.001 N 
ATOM     17  N   UNL A   1      34.141  16.286  23.103  1.00  0.00    -0.003 NA
ENDBRANCH  14  15
ENDBRANCH   6  14
ENDBRANCH   3   6
ENDBRANCH   1   2
BRANCH   1  18
ATOM     18  C   UNL A   1      37.568  19.823  24.955  1.00  0.00     0.042 C 
BRANCH  18  19
ATOM     19  C   UNL A   1      38.794  20.383  25.664  1.00  0.00     0.118 C 
BRANCH  19  20
ATOM     20  N   UNL A   1      39.842  19.387  25.829  1.00  0.00    -0.352 N 
ATOM     21  C   UNL A   1      41.181  19.548  26.070  1.00  0.00     0.251 C 
ATOM     22  H   UNL A   1      39.541  18.452  25.757  1.00  0.00     0.163 HD
ATOM     23  O   UNL A   1      41.938  18.588  25.962  1.00  0.00    -0.269 OA
BRANCH  21  24
ATOM     24  C   UNL A   1      41.720  20.870  26.454  1.00  0.00     0.039 A 
ATOM     25  C   UNL A   1      41.836  21.180  27.810  1.00  0.00     0.014 A 
ATOM     26  C   UNL A   1      42.062  21.822  25.489  1.00  0.00     0.014 A 
ATOM     27  C   UNL A   1      42.316  22.432  28.196  1.00  0.00     0.010 A 
ATOM     28  C   UNL A   1      42.636  23.028  25.873  1.00  0.00     0.010 A 
ATOM     29  C   UNL A   1      42.735  23.361  27.230  1.00  0.00    -0.014 A 
BRANCH  29  30
ATOM     30  C   UNL A   1      43.213  24.710  27.625  1.00  0.00     0.031 A 
ATOM     31  C   UNL A   1      42.220  25.783  27.982  1.00  0.00     0.074 A 
ATOM     32  C   UNL A   1      44.533  24.979  27.632  1.00  0.00     0.049 A 
ATOM     33  N   UNL A   1      42.432  27.030  28.326  1.00  0.00    -0.248 NA
ATOM     34  C   UNL A   1      40.797  25.418  27.916  1.00  0.00     0.031 C 
ATOM     35  C   UNL A   1      45.588  24.037  27.258  1.00  0.00     0.029 A 
ATOM     36  N   UNL A   1      45.209  26.125  27.965  1.00  0.00    -0.354 N 
ATOM     37  C   UNL A   1      41.175  27.591  28.506  1.00  0.00     0.074 A 
ATOM     38  C   UNL A   1      40.205  26.577  28.157  1.00  0.00     0.031 C 
ATOM     39  C   UNL A   1      46.781  24.634  27.410  1.00  0.00     0.029 A 
ATOM     40  C   UNL A   1      46.573  26.009  27.853  1.00  0.00     0.049 A 
ATOM     41  H   UNL A   1      44.760  26.951  28.256  1.00  0.00     0.167 HD
ATOM     42  C   UNL A   1      40.854  28.827  28.956  1.00  0.00     0.037 A 
ATOM     43  C   UNL A   1      47.544  26.913  28.080  1.00  0.00     0.037 A 
ATOM     44  C   UNL A   1      41.823  29.829  29.312  1.00  0.00     0.049 A 
ATOM     45  C   UNL A   1      47.165  28.287  28.569  1.00  0.00     0.074 A 
ATOM     46  C   UNL A   1      41.609  31.102  29.809  1.00  0.00     0.029 A 
ATOM     47  N   UNL A   1      43.198  29.669  29.203  1.00  0.00    -0.354 N 
ATOM     48  N   UNL A   1      45.974  28.787  28.795  1.00  0.00    -0.248 NA
ATOM     49  C   UNL A   1      48.267  29.213  28.852  1.00  0.00     0.031 C 
ATOM     50  C   UNL A   1      42.850  31.733  29.947  1.00  0.00     0.029 A 
ATOM     51  C   UNL A   1      43.843  30.827  29.609  1.00  0.00     0.049 A 
ATOM     52  H   UNL A   1      43.648  28.854  28.885  1.00  0.00     0.167 HD
ATOM     53  C   UNL A   1      46.184  30.070  29.285  1.00  0.00     0.074 A 
ATOM     54  C   UNL A   1      47.618  30.264  29.333  1.00  0.00     0.031 C 
ATOM     55  C   UNL A   1      45.273  31.001  29.663  1.00  0.00     0.037 A 
BRANCH  42  56
ATOM     56  C   UNL A   1      39.393  29.158  29.087  1.00  0.00     0.064 A 
ATOM     57  C   UNL A   1      38.738  29.135  30.330  1.00  0.00     0.173 A 
ATOM     58  C   UNL A   1      38.637  29.514  27.960  1.00  0.00     0.173 A 
ATOM     59  F   UNL A   1      39.408  28.790  31.440  1.00  0.00    -0.203 F 
ATOM     60  C   UNL A   1      37.378  29.416  30.433  1.00  0.00     0.198 A 
ATOM     61  C   UNL A   1      37.285  29.832  28.072  1.00  0.00     0.198 A 
ATOM     62  F   UNL A   1      39.209  29.559  26.748  1.00  0.00    -0.203 F 
ATOM     63  F   UNL A   1      36.764  29.320  31.620  1.00  0.00    -0.200 F 
ATOM     64  C   UNL A   1      36.654  29.771  29.305  1.00  0.00     0.200 A 
ATOM     65  F   UNL A   1      36.591  30.192  26.984  1.00  0.00    -0.200 F 
ATOM     66  F   UNL A   1      35.346  30.044  29.406  1.00  0.00    -0.200 F 
ENDBRANCH  42  56
BRANCH  43  67
ATOM     67  C   UNL A   1      48.968  26.540  27.874  1.00  0.00     0.064 A 
ATOM     68  C   UNL A   1      49.520  26.465  26.586  1.00  0.00     0.173 A 
ATOM     69  C   UNL A   1      49.807  26.247  28.958  1.00  0.00     0.173 A 
ATOM     70  F   UNL A   1      48.755  26.721  25.515  1.00  0.00    -0.203 F 
ATOM     71  C   UNL A   1      50.846  26.086  26.391  1.00  0.00     0.198 A 
ATOM     72  C   UNL A   1      51.143  25.901  28.764  1.00  0.00     0.198 A 
ATOM     73  F   UNL A   1      49.334  26.313  30.211  1.00  0.00    -0.203 F 
ATOM     74  F   UNL A   1      51.332  25.970  25.147  1.00  0.00    -0.200 F 
ATOM     75  C   UNL A   1      51.658  25.810  27.480  1.00  0.00     0.200 A 
ATOM     76  F   UNL A   1      51.929  25.655  29.820  1.00  0.00    -0.200 F 
ATOM     77  F   UNL A   1      52.935  25.450  27.292  1.00  0.00    -0.200 F 
ENDBRANCH  43  67
BRANCH  55  78
ATOM     78  C   UNL A   1      45.800  32.291  30.227  1.00  0.00     0.064 A 
ATOM     79  C   UNL A   1      46.076  32.453  31.593  1.00  0.00     0.173 A 
ATOM     80  C   UNL A   1      46.056  33.377  29.375  1.00  0.00     0.173 A 
ATOM     81  F   UNL A   1      45.839  31.451  32.453  1.00  0.00    -0.203 F 
ATOM     82  C   UNL A   1      46.543  33.667  32.091  1.00  0.00     0.198 A 
ATOM     83  C   UNL A   1      46.563  34.576  29.870  1.00  0.00     0.198 A 
ATOM     84  F   UNL A   1      45.824  33.275  28.057  1.00  0.00    -0.203 F 
ATOM     85  F   UNL A   1      46.733  33.821  33.408  1.00  0.00    -0.200 F 
ATOM     86  C   UNL A   1      46.793  34.724  31.228  1.00  0.00     0.200 A 
ATOM     87  F   UNL A   1      46.823  35.588  29.030  1.00  0.00    -0.200 F 
ATOM     88  F   UNL A   1      47.247  35.891  31.708  1.00  0.00    -0.200 F 
ENDBRANCH  55  78
ENDBRANCH  29  30
ENDBRANCH  21  24
ENDBRANCH  19  20
ENDBRANCH  18  19
ENDBRANCH   1  18
TORSDOF 15
ENDMDL
