MODEL 1
REMARK VINA RESULT:     -13.2      0.000      0.000
REMARK SMILES Cn1c(Cn2nnc3ccccc32)nnc1SCC(=O)NCCCNC(=O)c1ccc(-c2c3nc(c(-c4c(F)c(F)c(F)c(F)c4F)c4ccc([nH]4)c(-c4c(F)c(F)c(F)c(F)c4F)c4nc(c(-c5c(F)c(F)c(F)c(F)c5F)c5ccc2[nH]5)C=C4)C=C3)cc1
REMARK SMILES IDX 22 1 21 2 19 3 20 4 18 6 17 7 16 8 1 9 2 10 3 11 14 12 15 13
REMARK SMILES IDX 4 14 5 15 6 16 13 17 7 18 8 19 12 20 9 21 11 22 10 23 23 24
REMARK SMILES IDX 24 25 25 26 26 27 27 29 28 30 29 31 90 32 30 33 89 34 31 35
REMARK SMILES IDX 32 36 33 37 83 38 34 39 88 40 82 41 84 42 35 43 87 44 81 45
REMARK SMILES IDX 80 46 36 48 68 49 48 50 67 51 49 52 52 53 66 54 85 55 50 56
REMARK SMILES IDX 51 57 65 59 86 60 53 61 37 62 38 63 46 64 39 65 40 66 44 67
REMARK SMILES IDX 47 68 41 69 42 70 45 71 43 72 69 73 70 74 78 75 71 76 72 77
REMARK SMILES IDX 76 78 79 79 73 80 74 81 77 82 75 83 54 84 55 85 63 86 56 87
REMARK SMILES IDX 57 88 61 89 64 90 58 91 59 92 62 93 60 94
REMARK H PARENT 21 5 25 28 84 47 52 58
REMARK Flexibility Score: inf
ROOT
ATOM      1  C   UNL A   1      31.962  29.836  25.446  1.00  0.00     0.117 C 
ENDROOT
BRANCH   1   2
ATOM      2  N   UNL A   1      32.974  29.690  24.415  1.00  0.00    -0.355 N 
ATOM      3  C   UNL A   1      33.435  28.573  23.794  1.00  0.00     0.230 C 
ATOM      4  O   UNL A   1      34.281  28.715  22.908  1.00  0.00    -0.274 OA
ATOM      5  H   UNL A   1      33.391  30.531  24.120  1.00  0.00     0.163 HD
BRANCH   3   6
ATOM      6  C   UNL A   1      32.891  27.203  24.119  1.00  0.00     0.178 C 
BRANCH   6   7
ATOM      7  S   UNL A   1      33.816  26.246  25.316  1.00  0.00    -0.076 SA
BRANCH   7   8
ATOM      8  C   UNL A   1      34.105  24.656  24.713  1.00  0.00     0.191 A 
ATOM      9  C   UNL A   1      34.516  23.251  26.798  1.00  0.00     0.154 C 
ATOM     10  N   UNL A   1      34.428  23.506  25.385  1.00  0.00    -0.308 N 
ATOM     11  C   UNL A   1      34.732  22.575  24.406  1.00  0.00     0.155 A 
ATOM     12  N   UNL A   1      34.632  23.159  23.230  1.00  0.00    -0.132 NA
ATOM     13  N   UNL A   1      34.231  24.448  23.422  1.00  0.00    -0.123 NA
BRANCH  11  14
ATOM     14  C   UNL A   1      35.182  21.174  24.645  1.00  0.00     0.224 C 
BRANCH  14  15
ATOM     15  N   UNL A   1      34.061  20.254  24.729  1.00  0.00    -0.237 N 
ATOM     16  N   UNL A   1      32.825  20.733  24.989  1.00  0.00    -0.066 NA
ATOM     17  C   UNL A   1      34.068  18.883  24.674  1.00  0.00     0.089 A 
ATOM     18  N   UNL A   1      32.000  19.696  25.061  1.00  0.00    -0.130 NA
ATOM     19  C   UNL A   1      32.730  18.555  24.863  1.00  0.00     0.113 A 
ATOM     20  C   UNL A   1      35.062  17.921  24.461  1.00  0.00     0.030 A 
ATOM     21  C   UNL A   1      32.338  17.209  24.828  1.00  0.00     0.032 A 
ATOM     22  C   UNL A   1      34.651  16.585  24.410  1.00  0.00     0.002 A 
ATOM     23  C   UNL A   1      33.313  16.231  24.589  1.00  0.00     0.002 A 
ENDBRANCH  14  15
ENDBRANCH  11  14
ENDBRANCH   7   8
ENDBRANCH   6   7
ENDBRANCH   3   6
ENDBRANCH   1   2
BRANCH   1  24
ATOM     24  C   UNL A   1      32.545  29.748  26.857  1.00  0.00     0.042 C 
BRANCH  24  25
ATOM     25  C   UNL A   1      33.873  30.481  27.058  1.00  0.00     0.118 C 
BRANCH  25  26
ATOM     26  N   UNL A   1      33.936  31.305  28.250  1.00  0.00    -0.352 N 
ATOM     27  C   UNL A   1      34.904  31.679  29.144  1.00  0.00     0.251 C 
ATOM     28  H   UNL A   1      33.060  31.694  28.475  1.00  0.00     0.163 HD
ATOM     29  O   UNL A   1      34.577  32.556  29.937  1.00  0.00    -0.269 OA
BRANCH  27  30
ATOM     30  C   UNL A   1      36.266  31.083  29.267  1.00  0.00     0.039 A 
ATOM     31  C   UNL A   1      37.472  31.778  29.299  1.00  0.00     0.014 A 
ATOM     32  C   UNL A   1      36.308  29.672  29.300  1.00  0.00     0.014 A 
ATOM     33  C   UNL A   1      38.683  31.079  29.285  1.00  0.00     0.010 A 
ATOM     34  C   UNL A   1      37.512  28.971  29.292  1.00  0.00     0.010 A 
ATOM     35  C   UNL A   1      38.708  29.675  29.247  1.00  0.00    -0.014 A 
BRANCH  35  36
ATOM     36  C   UNL A   1      40.004  28.996  29.317  1.00  0.00     0.031 A 
ATOM     37  C   UNL A   1      40.536  28.835  30.699  1.00  0.00     0.074 A 
ATOM     38  C   UNL A   1      40.673  28.448  28.278  1.00  0.00     0.049 A 
ATOM     39  N   UNL A   1      41.604  29.371  31.192  1.00  0.00    -0.248 NA
ATOM     40  C   UNL A   1      39.737  28.081  31.675  1.00  0.00     0.031 C 
ATOM     41  C   UNL A   1      40.216  28.266  26.900  1.00  0.00     0.029 A 
ATOM     42  N   UNL A   1      41.912  27.863  28.266  1.00  0.00    -0.354 N 
ATOM     43  C   UNL A   1      41.710  28.896  32.496  1.00  0.00     0.074 A 
ATOM     44  C   UNL A   1      40.475  28.213  32.780  1.00  0.00     0.031 C 
ATOM     45  C   UNL A   1      41.067  27.439  26.249  1.00  0.00     0.029 A 
ATOM     46  C   UNL A   1      42.197  27.138  27.113  1.00  0.00     0.049 A 
ATOM     47  H   UNL A   1      42.548  27.948  29.013  1.00  0.00     0.167 HD
ATOM     48  C   UNL A   1      42.900  28.929  33.156  1.00  0.00     0.037 A 
ATOM     49  C   UNL A   1      43.265  26.324  26.895  1.00  0.00     0.037 A 
ATOM     50  C   UNL A   1      43.804  29.878  32.556  1.00  0.00     0.049 A 
ATOM     51  C   UNL A   1      44.337  26.732  27.833  1.00  0.00     0.074 A 
ATOM     52  C   UNL A   1      43.752  31.235  32.294  1.00  0.00     0.029 A 
ATOM     53  N   UNL A   1      44.846  29.400  31.801  1.00  0.00    -0.354 N 
ATOM     54  N   UNL A   1      44.999  27.850  27.741  1.00  0.00    -0.248 NA
ATOM     55  C   UNL A   1      44.389  26.076  29.131  1.00  0.00     0.031 C 
ATOM     56  C   UNL A   1      44.408  31.392  31.039  1.00  0.00     0.029 A 
ATOM     57  C   UNL A   1      44.874  30.137  30.648  1.00  0.00     0.049 A 
ATOM     58  H   UNL A   1      45.456  28.667  32.043  1.00  0.00     0.167 HD
ATOM     59  C   UNL A   1      45.154  28.265  29.052  1.00  0.00     0.074 A 
ATOM     60  C   UNL A   1      44.848  27.092  29.866  1.00  0.00     0.031 C 
ATOM     61  C   UNL A   1      45.235  29.590  29.364  1.00  0.00     0.037 A 
BRANCH  48  62
ATOM     62  C   UNL A   1      43.388  27.842  34.086  1.00  0.00     0.064 A 
ATOM     63  C   UNL A   1      43.548  26.535  33.581  1.00  0.00     0.173 A 
ATOM     64  C   UNL A   1      43.376  27.952  35.492  1.00  0.00     0.173 A 
ATOM     65  F   UNL A   1      43.566  26.308  32.258  1.00  0.00    -0.203 F 
ATOM     66  C   UNL A   1      43.573  25.418  34.420  1.00  0.00     0.198 A 
ATOM     67  C   UNL A   1      43.456  26.839  36.327  1.00  0.00     0.198 A 
ATOM     68  F   UNL A   1      43.170  29.117  36.117  1.00  0.00    -0.203 F 
ATOM     69  F   UNL A   1      43.569  24.187  33.887  1.00  0.00    -0.200 F 
ATOM     70  C   UNL A   1      43.515  25.570  35.791  1.00  0.00     0.200 A 
ATOM     71  F   UNL A   1      43.382  27.006  37.655  1.00  0.00    -0.200 F 
ATOM     72  F   UNL A   1      43.462  24.500  36.594  1.00  0.00    -0.200 F 
ENDBRANCH  48  62
BRANCH  49  73
ATOM     73  C   UNL A   1      43.348  25.063  26.112  1.00  0.00     0.064 A 
ATOM     74  C   UNL A   1      44.382  24.846  25.179  1.00  0.00     0.173 A 
ATOM     75  C   UNL A   1      42.595  23.929  26.470  1.00  0.00     0.173 A 
ATOM     76  F   UNL A   1      45.184  25.857  24.811  1.00  0.00    -0.203 F 
ATOM     77  C   UNL A   1      44.661  23.574  24.667  1.00  0.00     0.198 A 
ATOM     78  C   UNL A   1      42.868  22.661  25.951  1.00  0.00     0.198 A 
ATOM     79  F   UNL A   1      41.638  24.007  27.405  1.00  0.00    -0.203 F 
ATOM     80  F   UNL A   1      45.698  23.399  23.835  1.00  0.00    -0.200 F 
ATOM     81  C   UNL A   1      43.911  22.480  25.063  1.00  0.00     0.200 A 
ATOM     82  F   UNL A   1      42.156  21.605  26.371  1.00  0.00    -0.200 F 
ATOM     83  F   UNL A   1      44.217  21.251  24.625  1.00  0.00    -0.200 F 
ENDBRANCH  49  73
BRANCH  61  84
ATOM     84  C   UNL A   1      45.455  30.579  28.258  1.00  0.00     0.064 A 
ATOM     85  C   UNL A   1      44.432  31.092  27.442  1.00  0.00     0.173 A 
ATOM     86  C   UNL A   1      46.724  31.170  28.155  1.00  0.00     0.173 A 
ATOM     87  F   UNL A   1      43.174  30.644  27.544  1.00  0.00    -0.203 F 
ATOM     88  C   UNL A   1      44.679  32.135  26.551  1.00  0.00     0.198 A 
ATOM     89  C   UNL A   1      46.956  32.236  27.293  1.00  0.00     0.198 A 
ATOM     90  F   UNL A   1      47.726  30.751  28.944  1.00  0.00    -0.203 F 
ATOM     91  F   UNL A   1      43.687  32.612  25.784  1.00  0.00    -0.200 F 
ATOM     92  C   UNL A   1      45.936  32.715  26.489  1.00  0.00     0.200 A 
ATOM     93  F   UNL A   1      48.160  32.824  27.272  1.00  0.00    -0.200 F 
ATOM     94  F   UNL A   1      46.157  33.758  25.675  1.00  0.00    -0.200 F 
ENDBRANCH  61  84
ENDBRANCH  35  36
ENDBRANCH  27  30
ENDBRANCH  25  26
ENDBRANCH  24  25
ENDBRANCH   1  24
TORSDOF 14
ENDMDL
MODEL 2
REMARK VINA RESULT:     -13.0      1.812      2.241
REMARK SMILES Cn1c(Cn2nnc3ccccc32)nnc1SCC(=O)NCCCNC(=O)c1ccc(-c2c3nc(c(-c4c(F)c(F)c(F)c(F)c4F)c4ccc([nH]4)c(-c4c(F)c(F)c(F)c(F)c4F)c4nc(c(-c5c(F)c(F)c(F)c(F)c5F)c5ccc2[nH]5)C=C4)C=C3)cc1
REMARK SMILES IDX 22 1 21 2 19 3 20 4 18 6 17 7 16 8 1 9 2 10 3 11 14 12 15 13
REMARK SMILES IDX 4 14 5 15 6 16 13 17 7 18 8 19 12 20 9 21 11 22 10 23 23 24
REMARK SMILES IDX 24 25 25 26 26 27 27 29 28 30 29 31 90 32 30 33 89 34 31 35
REMARK SMILES IDX 32 36 33 37 83 38 34 39 88 40 82 41 84 42 35 43 87 44 81 45
REMARK SMILES IDX 80 46 36 48 68 49 48 50 67 51 49 52 52 53 66 54 85 55 50 56
REMARK SMILES IDX 51 57 65 59 86 60 53 61 37 62 38 63 46 64 39 65 40 66 44 67
REMARK SMILES IDX 47 68 41 69 42 70 45 71 43 72 69 73 70 74 78 75 71 76 72 77
REMARK SMILES IDX 76 78 79 79 73 80 74 81 77 82 75 83 54 84 55 85 63 86 56 87
REMARK SMILES IDX 57 88 61 89 64 90 58 91 59 92 62 93 60 94
REMARK H PARENT 21 5 25 28 84 47 52 58
REMARK Flexibility Score: inf
ROOT
ATOM      1  C   UNL A   1      33.073  29.949  26.476  1.00  0.00     0.117 C 
ENDROOT
BRANCH   1   2
ATOM      2  N   UNL A   1      33.416  29.559  25.120  1.00  0.00    -0.355 N 
ATOM      3  C   UNL A   1      32.612  29.219  24.079  1.00  0.00     0.230 C 
ATOM      4  O   UNL A   1      33.149  28.964  22.998  1.00  0.00    -0.274 OA
ATOM      5  H   UNL A   1      34.380  29.537  24.925  1.00  0.00     0.163 HD
BRANCH   3   6
ATOM      6  C   UNL A   1      31.108  29.215  24.205  1.00  0.00     0.178 C 
BRANCH   6   7
ATOM      7  S   UNL A   1      30.278  27.701  23.737  1.00  0.00    -0.076 SA
BRANCH   7   8
ATOM      8  C   UNL A   1      30.673  26.438  24.842  1.00  0.00     0.191 A 
ATOM      9  C   UNL A   1      30.518  24.306  23.455  1.00  0.00     0.154 C 
ATOM     10  N   UNL A   1      30.701  25.080  24.655  1.00  0.00    -0.308 N 
ATOM     11  C   UNL A   1      30.896  24.533  25.912  1.00  0.00     0.155 A 
ATOM     12  N   UNL A   1      30.938  25.513  26.791  1.00  0.00    -0.132 NA
ATOM     13  N   UNL A   1      30.812  26.695  26.124  1.00  0.00    -0.123 NA
BRANCH  11  14
ATOM     14  C   UNL A   1      30.959  23.077  26.229  1.00  0.00     0.224 C 
BRANCH  14  15
ATOM     15  N   UNL A   1      32.309  22.654  26.555  1.00  0.00    -0.237 N 
ATOM     16  N   UNL A   1      32.663  22.499  27.850  1.00  0.00    -0.066 NA
ATOM     17  C   UNL A   1      33.377  22.463  25.715  1.00  0.00     0.089 A 
ATOM     18  N   UNL A   1      33.946  22.160  27.877  1.00  0.00    -0.130 NA
ATOM     19  C   UNL A   1      34.404  22.121  26.587  1.00  0.00     0.113 A 
ATOM     20  C   UNL A   1      33.548  22.523  24.327  1.00  0.00     0.030 A 
ATOM     21  C   UNL A   1      35.671  21.805  26.072  1.00  0.00     0.032 A 
ATOM     22  C   UNL A   1      34.811  22.188  23.829  1.00  0.00     0.002 A 
ATOM     23  C   UNL A   1      35.857  21.834  24.684  1.00  0.00     0.002 A 
ENDBRANCH  14  15
ENDBRANCH  11  14
ENDBRANCH   7   8
ENDBRANCH   6   7
ENDBRANCH   3   6
ENDBRANCH   1   2
BRANCH   1  24
ATOM     24  C   UNL A   1      34.307  30.238  27.333  1.00  0.00     0.042 C 
BRANCH  24  25
ATOM     25  C   UNL A   1      34.486  31.701  27.743  1.00  0.00     0.118 C 
BRANCH  25  26
ATOM     26  N   UNL A   1      34.383  31.949  29.168  1.00  0.00    -0.352 N 
ATOM     27  C   UNL A   1      35.214  31.851  30.252  1.00  0.00     0.251 C 
ATOM     28  H   UNL A   1      33.487  32.269  29.422  1.00  0.00     0.163 HD
ATOM     29  O   UNL A   1      34.783  32.339  31.292  1.00  0.00    -0.269 OA
BRANCH  27  30
ATOM     30  C   UNL A   1      36.539  31.165  30.285  1.00  0.00     0.039 A 
ATOM     31  C   UNL A   1      37.787  31.776  30.202  1.00  0.00     0.014 A 
ATOM     32  C   UNL A   1      36.490  29.756  30.355  1.00  0.00     0.014 A 
ATOM     33  C   UNL A   1      38.944  30.995  30.113  1.00  0.00     0.010 A 
ATOM     34  C   UNL A   1      37.640  28.974  30.274  1.00  0.00     0.010 A 
ATOM     35  C   UNL A   1      38.872  29.592  30.115  1.00  0.00    -0.014 A 
BRANCH  35  36
ATOM     36  C   UNL A   1      40.121  28.827  30.102  1.00  0.00     0.031 A 
ATOM     37  C   UNL A   1      40.765  28.687  31.438  1.00  0.00     0.074 A 
ATOM     38  C   UNL A   1      40.655  28.191  29.036  1.00  0.00     0.049 A 
ATOM     39  N   UNL A   1      41.907  29.167  31.809  1.00  0.00    -0.248 NA
ATOM     40  C   UNL A   1      40.010  28.032  32.516  1.00  0.00     0.031 C 
ATOM     41  C   UNL A   1      40.063  27.985  27.714  1.00  0.00     0.029 A 
ATOM     42  N   UNL A   1      41.846  27.521  28.943  1.00  0.00    -0.354 N 
ATOM     43  C   UNL A   1      42.099  28.741  33.120  1.00  0.00     0.074 A 
ATOM     44  C   UNL A   1      40.852  28.158  33.544  1.00  0.00     0.031 C 
ATOM     45  C   UNL A   1      40.795  27.074  27.031  1.00  0.00     0.029 A 
ATOM     46  C   UNL A   1      41.977  26.731  27.806  1.00  0.00     0.049 A 
ATOM     47  H   UNL A   1      42.552  27.592  29.627  1.00  0.00     0.167 HD
ATOM     48  C   UNL A   1      43.344  28.717  33.671  1.00  0.00     0.037 A 
ATOM     49  C   UNL A   1      42.964  25.835  27.533  1.00  0.00     0.037 A 
ATOM     50  C   UNL A   1      44.250  29.574  32.949  1.00  0.00     0.049 A 
ATOM     51  C   UNL A   1      44.142  26.206  28.353  1.00  0.00     0.074 A 
ATOM     52  C   UNL A   1      44.265  30.920  32.628  1.00  0.00     0.029 A 
ATOM     53  N   UNL A   1      45.185  28.994  32.129  1.00  0.00    -0.354 N 
ATOM     54  N   UNL A   1      44.865  27.269  28.149  1.00  0.00    -0.248 NA
ATOM     55  C   UNL A   1      44.268  25.602  29.671  1.00  0.00     0.031 C 
ATOM     56  C   UNL A   1      44.813  30.978  31.314  1.00  0.00     0.029 A 
ATOM     57  C   UNL A   1      45.157  29.678  30.944  1.00  0.00     0.049 A 
ATOM     58  H   UNL A   1      45.765  28.230  32.351  1.00  0.00     0.167 HD
ATOM     59  C   UNL A   1      45.166  27.726  29.421  1.00  0.00     0.074 A 
ATOM     60  C   UNL A   1      44.858  26.612  30.313  1.00  0.00     0.031 C 
ATOM     61  C   UNL A   1      45.362  29.055  29.661  1.00  0.00     0.037 A 
BRANCH  48  62
ATOM     62  C   UNL A   1      43.842  27.638  34.605  1.00  0.00     0.064 A 
ATOM     63  C   UNL A   1      43.733  26.289  34.206  1.00  0.00     0.173 A 
ATOM     64  C   UNL A   1      44.097  27.847  35.977  1.00  0.00     0.173 A 
ATOM     65  F   UNL A   1      43.484  25.970  32.927  1.00  0.00    -0.203 F 
ATOM     66  C   UNL A   1      43.759  25.243  35.132  1.00  0.00     0.198 A 
ATOM     67  C   UNL A   1      44.176  26.796  36.887  1.00  0.00     0.198 A 
ATOM     68  F   UNL A   1      44.162  29.071  36.513  1.00  0.00    -0.203 F 
ATOM     69  F   UNL A   1      43.497  23.992  34.727  1.00  0.00    -0.200 F 
ATOM     70  C   UNL A   1      43.969  25.498  36.473  1.00  0.00     0.200 A 
ATOM     71  F   UNL A   1      44.364  27.066  38.188  1.00  0.00    -0.200 F 
ATOM     72  F   UNL A   1      43.918  24.506  37.371  1.00  0.00    -0.200 F 
ENDBRANCH  48  62
BRANCH  49  73
ATOM     73  C   UNL A   1      42.892  24.540  26.807  1.00  0.00     0.064 A 
ATOM     74  C   UNL A   1      43.468  24.382  25.531  1.00  0.00     0.173 A 
ATOM     75  C   UNL A   1      42.519  23.352  27.465  1.00  0.00     0.173 A 
ATOM     76  F   UNL A   1      43.897  25.452  24.845  1.00  0.00    -0.203 F 
ATOM     77  C   UNL A   1      43.685  23.119  24.969  1.00  0.00     0.198 A 
ATOM     78  C   UNL A   1      42.729  22.093  26.900  1.00  0.00     0.198 A 
ATOM     79  F   UNL A   1      42.033  23.382  28.714  1.00  0.00    -0.203 F 
ATOM     80  F   UNL A   1      44.301  23.009  23.782  1.00  0.00    -0.200 F 
ATOM     81  C   UNL A   1      43.327  21.974  25.659  1.00  0.00     0.200 A 
ATOM     82  F   UNL A   1      42.408  20.992  27.595  1.00  0.00    -0.200 F 
ATOM     83  F   UNL A   1      43.592  20.762  25.152  1.00  0.00    -0.200 F 
ENDBRANCH  49  73
BRANCH  61  84
ATOM     84  C   UNL A   1      45.546  29.979  28.494  1.00  0.00     0.064 A 
ATOM     85  C   UNL A   1      44.489  30.581  27.790  1.00  0.00     0.173 A 
ATOM     86  C   UNL A   1      46.848  30.417  28.208  1.00  0.00     0.173 A 
ATOM     87  F   UNL A   1      43.214  30.284  28.067  1.00  0.00    -0.203 F 
ATOM     88  C   UNL A   1      44.732  31.563  26.831  1.00  0.00     0.198 A 
ATOM     89  C   UNL A   1      47.083  31.424  27.278  1.00  0.00     0.198 A 
ATOM     90  F   UNL A   1      47.891  29.909  28.883  1.00  0.00    -0.203 F 
ATOM     91  F   UNL A   1      43.709  32.128  26.173  1.00  0.00    -0.200 F 
ATOM     92  C   UNL A   1      46.027  31.993  26.587  1.00  0.00     0.200 A 
ATOM     93  F   UNL A   1      48.332  31.870  27.082  1.00  0.00    -0.200 F 
ATOM     94  F   UNL A   1      46.255  32.979  25.707  1.00  0.00    -0.200 F 
ENDBRANCH  61  84
ENDBRANCH  35  36
ENDBRANCH  27  30
ENDBRANCH  25  26
ENDBRANCH  24  25
ENDBRANCH   1  24
TORSDOF 14
ENDMDL
MODEL 3
REMARK VINA RESULT:     -13.0      3.174      9.078
REMARK SMILES Cn1c(Cn2nnc3ccccc32)nnc1SCC(=O)NCCCNC(=O)c1ccc(-c2c3nc(c(-c4c(F)c(F)c(F)c(F)c4F)c4ccc([nH]4)c(-c4c(F)c(F)c(F)c(F)c4F)c4nc(c(-c5c(F)c(F)c(F)c(F)c5F)c5ccc2[nH]5)C=C4)C=C3)cc1
REMARK SMILES IDX 22 1 21 2 19 3 20 4 18 6 17 7 16 8 1 9 2 10 3 11 14 12 15 13
REMARK SMILES IDX 4 14 5 15 6 16 13 17 7 18 8 19 12 20 9 21 11 22 10 23 23 24
REMARK SMILES IDX 24 25 25 26 26 27 27 29 28 30 29 31 90 32 30 33 89 34 31 35
REMARK SMILES IDX 32 36 33 37 83 38 34 39 88 40 82 41 84 42 35 43 87 44 81 45
REMARK SMILES IDX 80 46 36 48 68 49 48 50 67 51 49 52 52 53 66 54 85 55 50 56
REMARK SMILES IDX 51 57 65 59 86 60 53 61 37 62 38 63 46 64 39 65 40 66 44 67
REMARK SMILES IDX 47 68 41 69 42 70 45 71 43 72 69 73 70 74 78 75 71 76 72 77
REMARK SMILES IDX 76 78 79 79 73 80 74 81 77 82 75 83 54 84 55 85 63 86 56 87
REMARK SMILES IDX 57 88 61 89 64 90 58 91 59 92 62 93 60 94
REMARK H PARENT 21 5 25 28 84 47 52 58
REMARK Flexibility Score: inf
ROOT
ATOM      1  C   UNL A   1      35.688  20.829  25.251  1.00  0.00     0.117 C 
ENDROOT
BRANCH   1   2
ATOM      2  N   UNL A   1      35.337  21.477  26.502  1.00  0.00    -0.355 N 
ATOM      3  C   UNL A   1      34.194  22.118  26.863  1.00  0.00     0.230 C 
ATOM      4  O   UNL A   1      34.120  22.556  28.014  1.00  0.00    -0.274 OA
ATOM      5  H   UNL A   1      36.034  21.449  27.196  1.00  0.00     0.163 HD
BRANCH   3   6
ATOM      6  C   UNL A   1      33.020  22.240  25.922  1.00  0.00     0.178 C 
BRANCH   6   7
ATOM      7  S   UNL A   1      31.538  22.982  26.595  1.00  0.00    -0.076 SA
BRANCH   7   8
ATOM      8  C   UNL A   1      31.358  24.593  26.008  1.00  0.00     0.191 A 
ATOM      9  C   UNL A   1      33.365  24.941  24.477  1.00  0.00     0.154 C 
ATOM     10  N   UNL A   1      32.173  25.327  25.185  1.00  0.00    -0.308 N 
ATOM     11  C   UNL A   1      31.653  26.611  25.192  1.00  0.00     0.155 A 
ATOM     12  N   UNL A   1      30.617  26.636  26.005  1.00  0.00    -0.132 NA
ATOM     13  N   UNL A   1      30.428  25.380  26.501  1.00  0.00    -0.123 NA
BRANCH  11  14
ATOM     14  C   UNL A   1      32.223  27.785  24.471  1.00  0.00     0.224 C 
BRANCH  14  15
ATOM     15  N   UNL A   1      32.356  28.940  25.342  1.00  0.00    -0.237 N 
ATOM     16  N   UNL A   1      31.402  29.897  25.328  1.00  0.00    -0.066 NA
ATOM     17  C   UNL A   1      33.403  29.285  26.159  1.00  0.00     0.089 A 
ATOM     18  N   UNL A   1      31.782  30.854  26.166  1.00  0.00    -0.130 NA
ATOM     19  C   UNL A   1      32.995  30.501  26.694  1.00  0.00     0.113 A 
ATOM     20  C   UNL A   1      34.614  28.673  26.501  1.00  0.00     0.030 A 
ATOM     21  C   UNL A   1      33.813  31.153  27.630  1.00  0.00     0.032 A 
ATOM     22  C   UNL A   1      35.409  29.326  27.449  1.00  0.00     0.002 A 
ATOM     23  C   UNL A   1      35.018  30.545  28.005  1.00  0.00     0.002 A 
ENDBRANCH  14  15
ENDBRANCH  11  14
ENDBRANCH   7   8
ENDBRANCH   6   7
ENDBRANCH   3   6
ENDBRANCH   1   2
BRANCH   1  24
ATOM     24  C   UNL A   1      36.472  21.749  24.313  1.00  0.00     0.042 C 
BRANCH  24  25
ATOM     25  C   UNL A   1      37.536  22.615  24.992  1.00  0.00     0.118 C 
BRANCH  25  26
ATOM     26  N   UNL A   1      38.623  21.873  25.601  1.00  0.00    -0.352 N 
ATOM     27  C   UNL A   1      39.603  22.130  26.523  1.00  0.00     0.251 C 
ATOM     28  H   UNL A   1      38.670  20.948  25.266  1.00  0.00     0.163 HD
ATOM     29  O   UNL A   1      40.235  21.151  26.907  1.00  0.00    -0.269 OA
BRANCH  27  30
ATOM     30  C   UNL A   1      39.993  23.474  27.039  1.00  0.00     0.039 A 
ATOM     31  C   UNL A   1      41.115  23.770  27.808  1.00  0.00     0.014 A 
ATOM     32  C   UNL A   1      39.090  24.521  26.748  1.00  0.00     0.014 A 
ATOM     33  C   UNL A   1      41.285  25.055  28.333  1.00  0.00     0.010 A 
ATOM     34  C   UNL A   1      39.259  25.804  27.263  1.00  0.00     0.010 A 
ATOM     35  C   UNL A   1      40.341  26.066  28.091  1.00  0.00    -0.014 A 
BRANCH  35  36
ATOM     36  C   UNL A   1      40.614  27.414  28.598  1.00  0.00     0.031 A 
ATOM     37  C   UNL A   1      41.847  28.038  28.043  1.00  0.00     0.074 A 
ATOM     38  C   UNL A   1      39.816  28.132  29.419  1.00  0.00     0.049 A 
ATOM     39  N   UNL A   1      42.918  28.361  28.690  1.00  0.00    -0.248 NA
ATOM     40  C   UNL A   1      41.944  28.227  26.589  1.00  0.00     0.031 C 
ATOM     41  C   UNL A   1      38.458  27.819  29.866  1.00  0.00     0.029 A 
ATOM     42  N   UNL A   1      40.044  29.361  29.979  1.00  0.00    -0.354 N 
ATOM     43  C   UNL A   1      43.772  28.946  27.761  1.00  0.00     0.074 A 
ATOM     44  C   UNL A   1      43.178  28.723  26.468  1.00  0.00     0.031 C 
ATOM     45  C   UNL A   1      37.913  28.913  30.448  1.00  0.00     0.029 A 
ATOM     46  C   UNL A   1      38.918  29.959  30.537  1.00  0.00     0.049 A 
ATOM     47  H   UNL A   1      40.932  29.787  29.986  1.00  0.00     0.167 HD
ATOM     48  C   UNL A   1      44.794  29.752  28.162  1.00  0.00     0.037 A 
ATOM     49  C   UNL A   1      38.807  31.231  31.006  1.00  0.00     0.037 A 
ATOM     50  C   UNL A   1      45.125  29.524  29.545  1.00  0.00     0.049 A 
ATOM     51  C   UNL A   1      40.173  31.708  31.330  1.00  0.00     0.074 A 
ATOM     52  C   UNL A   1      45.521  28.421  30.279  1.00  0.00     0.029 A 
ATOM     53  N   UNL A   1      44.736  30.458  30.473  1.00  0.00    -0.354 N 
ATOM     54  N   UNL A   1      40.884  31.259  32.325  1.00  0.00    -0.248 NA
ATOM     55  C   UNL A   1      40.917  32.398  30.287  1.00  0.00     0.031 C 
ATOM     56  C   UNL A   1      44.871  28.565  31.539  1.00  0.00     0.029 A 
ATOM     57  C   UNL A   1      44.177  29.774  31.518  1.00  0.00     0.049 A 
ATOM     58  H   UNL A   1      44.839  31.434  30.399  1.00  0.00     0.167 HD
ATOM     59  C   UNL A   1      42.173  31.195  31.823  1.00  0.00     0.074 A 
ATOM     60  C   UNL A   1      42.150  31.997  30.603  1.00  0.00     0.031 C 
ATOM     61  C   UNL A   1      43.060  30.268  32.284  1.00  0.00     0.037 A 
BRANCH  48  62
ATOM     62  C   UNL A   1      45.228  31.003  27.434  1.00  0.00     0.064 A 
ATOM     63  C   UNL A   1      46.590  31.160  27.101  1.00  0.00     0.173 A 
ATOM     64  C   UNL A   1      44.446  32.175  27.358  1.00  0.00     0.173 A 
ATOM     65  F   UNL A   1      47.432  30.115  27.145  1.00  0.00    -0.203 F 
ATOM     66  C   UNL A   1      47.144  32.414  26.830  1.00  0.00     0.198 A 
ATOM     67  C   UNL A   1      44.993  33.415  27.034  1.00  0.00     0.198 A 
ATOM     68  F   UNL A   1      43.155  32.196  27.705  1.00  0.00    -0.203 F 
ATOM     69  F   UNL A   1      48.470  32.534  26.672  1.00  0.00    -0.200 F 
ATOM     70  C   UNL A   1      46.347  33.541  26.809  1.00  0.00     0.200 A 
ATOM     71  F   UNL A   1      44.206  34.500  27.035  1.00  0.00    -0.200 F 
ATOM     72  F   UNL A   1      46.886  34.753  26.626  1.00  0.00    -0.200 F 
ENDBRANCH  48  62
BRANCH  49  73
ATOM     73  C   UNL A   1      37.645  32.157  30.966  1.00  0.00     0.064 A 
ATOM     74  C   UNL A   1      37.306  32.858  29.791  1.00  0.00     0.173 A 
ATOM     75  C   UNL A   1      36.671  32.153  31.982  1.00  0.00     0.173 A 
ATOM     76  F   UNL A   1      38.151  32.881  28.750  1.00  0.00    -0.203 F 
ATOM     77  C   UNL A   1      36.063  33.482  29.635  1.00  0.00     0.198 A 
ATOM     78  C   UNL A   1      35.434  32.783  31.828  1.00  0.00     0.198 A 
ATOM     79  F   UNL A   1      36.858  31.453  33.111  1.00  0.00    -0.203 F 
ATOM     80  F   UNL A   1      35.753  34.078  28.474  1.00  0.00    -0.200 F 
ATOM     81  C   UNL A   1      35.123  33.433  30.649  1.00  0.00     0.200 A 
ATOM     82  F   UNL A   1      34.520  32.698  32.806  1.00  0.00    -0.200 F 
ATOM     83  F   UNL A   1      33.909  33.973  30.478  1.00  0.00    -0.200 F 
ENDBRANCH  49  73
BRANCH  61  84
ATOM     84  C   UNL A   1      42.732  29.517  33.540  1.00  0.00     0.064 A 
ATOM     85  C   UNL A   1      41.986  28.327  33.577  1.00  0.00     0.173 A 
ATOM     86  C   UNL A   1      43.364  29.923  34.725  1.00  0.00     0.173 A 
ATOM     87  F   UNL A   1      41.426  27.826  32.469  1.00  0.00    -0.203 F 
ATOM     88  C   UNL A   1      41.866  27.590  34.755  1.00  0.00     0.198 A 
ATOM     89  C   UNL A   1      43.274  29.165  35.888  1.00  0.00     0.198 A 
ATOM     90  F   UNL A   1      44.128  31.027  34.736  1.00  0.00    -0.203 F 
ATOM     91  F   UNL A   1      41.152  26.455  34.767  1.00  0.00    -0.200 F 
ATOM     92  C   UNL A   1      42.522  28.002  35.903  1.00  0.00     0.200 A 
ATOM     93  F   UNL A   1      43.951  29.541  36.982  1.00  0.00    -0.200 F 
ATOM     94  F   UNL A   1      42.456  27.262  37.020  1.00  0.00    -0.200 F 
ENDBRANCH  61  84
ENDBRANCH  35  36
ENDBRANCH  27  30
ENDBRANCH  25  26
ENDBRANCH  24  25
ENDBRANCH   1  24
TORSDOF 14
ENDMDL
