MODEL 1
REMARK VINA RESULT:     -12.9      0.000      0.000
REMARK SMILES COc1ccc(OCc2nc(C)no2)c(/C=C/C(=O)NCCCNC(=O)c2ccc(-c3c4nc(c(-c5c(F)c(F)c(F)c(F)c5F)c5ccc([nH]5)c(-c5c(F)c(F)c(F)c(F)c5F)c5nc(c(-c6c(F)c(F)c(F)c(F)c6F)c6ccc3[nH]6)C=C5)C=C4)cc2)c1
REMARK SMILES IDX 21 1 20 2 18 3 19 4 17 6 16 7 15 8 3 9 4 10 90 11 5 12 6 13
REMARK SMILES IDX 2 14 1 15 7 16 8 17 9 18 10 19 14 20 11 21 13 22 12 23 22 24
REMARK SMILES IDX 23 25 24 26 25 27 26 29 27 30 28 31 89 32 29 33 88 34 30 35
REMARK SMILES IDX 31 36 32 37 82 38 33 39 87 40 81 41 83 42 34 43 86 44 80 45
REMARK SMILES IDX 79 46 35 48 67 49 47 50 66 51 48 52 51 53 65 54 84 55 49 56
REMARK SMILES IDX 50 57 64 59 85 60 52 61 36 62 37 63 45 64 38 65 39 66 43 67
REMARK SMILES IDX 46 68 40 69 41 70 44 71 42 72 68 73 69 74 77 75 70 76 71 77
REMARK SMILES IDX 75 78 78 79 72 80 73 81 76 82 74 83 53 84 54 85 62 86 55 87
REMARK SMILES IDX 56 88 60 89 63 90 57 91 58 92 61 93 59 94
REMARK H PARENT 20 5 24 28 83 47 51 58
REMARK Flexibility Score: inf
ROOT
ATOM      1  C   UNL A   1      31.668  30.732  26.283  1.00  0.00     0.118 C 
ENDROOT
BRANCH   1   2
ATOM      2  N   UNL A   1      32.814  30.190  26.989  1.00  0.00    -0.352 N 
ATOM      3  C   UNL A   1      33.698  29.199  26.729  1.00  0.00     0.244 C 
ATOM      4  O   UNL A   1      34.484  28.879  27.624  1.00  0.00    -0.270 OA
ATOM      5  H   UNL A   1      32.986  30.644  27.846  1.00  0.00     0.163 HD
BRANCH   3   6
ATOM      6  C   UNL A   1      33.823  28.487  25.431  1.00  0.00     0.072 C 
ATOM      7  C   UNL A   1      33.547  27.197  25.211  1.00  0.00     0.018 C 
BRANCH   7   8
ATOM      8  C   UNL A   1      33.281  26.553  23.920  1.00  0.00     0.020 A 
ATOM      9  C   UNL A   1      33.683  24.517  22.623  1.00  0.00     0.119 A 
ATOM     10  C   UNL A   1      32.785  24.946  21.659  1.00  0.00     0.050 A 
ATOM     11  C   UNL A   1      33.965  25.333  23.718  1.00  0.00     0.058 A 
ATOM     12  C   UNL A   1      32.103  26.146  21.845  1.00  0.00     0.051 A 
ATOM     13  C   UNL A   1      32.292  26.930  22.997  1.00  0.00     0.127 A 
BRANCH   9  14
ATOM     14  O   UNL A   1      34.283  23.304  22.421  1.00  0.00    -0.497 OA
ATOM     15  C   UNL A   1      34.615  22.646  23.644  1.00  0.00     0.278 C 
ENDBRANCH   9  14
BRANCH  13  16
ATOM     16  O   UNL A   1      31.416  27.971  23.020  1.00  0.00    -0.483 OA
BRANCH  16  17
ATOM     17  C   UNL A   1      29.990  27.899  22.888  1.00  0.00     0.329 C 
BRANCH  17  18
ATOM     18  C   UNL A   1      29.275  29.142  22.493  1.00  0.00     0.264 A 
ATOM     19  N   UNL A   1      29.459  30.020  21.527  1.00  0.00    -0.193 NA
ATOM     20  O   UNL A   1      28.115  29.362  23.189  1.00  0.00    -0.336 OA
ATOM     21  C   UNL A   1      28.307  30.760  21.582  1.00  0.00     0.169 A 
ATOM     22  N   UNL A   1      27.471  30.432  22.573  1.00  0.00    -0.063 NA
ATOM     23  C   UNL A   1      27.947  31.749  20.550  1.00  0.00     0.093 C 
ENDBRANCH  17  18
ENDBRANCH  16  17
ENDBRANCH  13  16
ENDBRANCH   7   8
ENDBRANCH   3   6
ENDBRANCH   1   2
BRANCH   1  24
ATOM     24  C   UNL A   1      31.438  32.200  26.616  1.00  0.00     0.042 C 
BRANCH  24  25
ATOM     25  C   UNL A   1      32.604  32.787  27.408  1.00  0.00     0.118 C 
BRANCH  25  26
ATOM     26  N   UNL A   1      32.416  34.215  27.654  1.00  0.00    -0.352 N 
ATOM     27  C   UNL A   1      32.971  35.013  28.618  1.00  0.00     0.251 C 
ATOM     28  H   UNL A   1      31.799  34.669  27.036  1.00  0.00     0.163 HD
ATOM     29  O   UNL A   1      32.484  36.115  28.867  1.00  0.00    -0.269 OA
BRANCH  27  30
ATOM     30  C   UNL A   1      34.155  34.546  29.362  1.00  0.00     0.039 A 
ATOM     31  C   UNL A   1      34.001  34.046  30.658  1.00  0.00     0.014 A 
ATOM     32  C   UNL A   1      35.421  34.612  28.774  1.00  0.00     0.014 A 
ATOM     33  C   UNL A   1      35.109  33.539  31.336  1.00  0.00     0.010 A 
ATOM     34  C   UNL A   1      36.510  34.044  29.421  1.00  0.00     0.010 A 
ATOM     35  C   UNL A   1      36.362  33.496  30.704  1.00  0.00    -0.014 A 
BRANCH  35  36
ATOM     36  C   UNL A   1      37.535  32.854  31.343  1.00  0.00     0.031 A 
ATOM     37  C   UNL A   1      38.193  31.673  30.689  1.00  0.00     0.074 A 
ATOM     38  C   UNL A   1      37.929  33.269  32.561  1.00  0.00     0.049 A 
ATOM     39  N   UNL A   1      39.130  30.887  31.154  1.00  0.00    -0.248 NA
ATOM     40  C   UNL A   1      37.712  31.311  29.347  1.00  0.00     0.031 C 
ATOM     41  C   UNL A   1      37.334  34.378  33.309  1.00  0.00     0.029 A 
ATOM     42  N   UNL A   1      38.904  32.791  33.398  1.00  0.00    -0.354 N 
ATOM     43  C   UNL A   1      39.339  29.931  30.170  1.00  0.00     0.074 A 
ATOM     44  C   UNL A   1      38.401  30.206  29.103  1.00  0.00     0.031 C 
ATOM     45  C   UNL A   1      37.960  34.500  34.489  1.00  0.00     0.029 A 
ATOM     46  C   UNL A   1      38.967  33.450  34.602  1.00  0.00     0.049 A 
ATOM     47  H   UNL A   1      39.503  32.046  33.159  1.00  0.00     0.167 HD
ATOM     48  C   UNL A   1      40.246  28.924  30.155  1.00  0.00     0.037 A 
ATOM     49  C   UNL A   1      39.734  33.216  35.683  1.00  0.00     0.037 A 
ATOM     50  C   UNL A   1      41.187  28.674  31.214  1.00  0.00     0.049 A 
ATOM     51  C   UNL A   1      40.711  32.073  35.652  1.00  0.00     0.074 A 
ATOM     52  C   UNL A   1      42.199  27.730  31.263  1.00  0.00     0.029 A 
ATOM     53  N   UNL A   1      41.227  29.367  32.415  1.00  0.00    -0.354 N 
ATOM     54  N   UNL A   1      40.953  31.219  34.688  1.00  0.00    -0.248 NA
ATOM     55  C   UNL A   1      41.517  31.858  36.862  1.00  0.00     0.031 C 
ATOM     56  C   UNL A   1      42.817  27.820  32.515  1.00  0.00     0.029 A 
ATOM     57  C   UNL A   1      42.223  28.850  33.227  1.00  0.00     0.049 A 
ATOM     58  H   UNL A   1      40.634  30.116  32.654  1.00  0.00     0.167 HD
ATOM     59  C   UNL A   1      41.948  30.378  35.164  1.00  0.00     0.074 A 
ATOM     60  C   UNL A   1      42.279  30.835  36.498  1.00  0.00     0.031 C 
ATOM     61  C   UNL A   1      42.532  29.319  34.553  1.00  0.00     0.037 A 
BRANCH  48  62
ATOM     62  C   UNL A   1      40.265  28.021  28.957  1.00  0.00     0.064 A 
ATOM     63  C   UNL A   1      41.002  28.340  27.807  1.00  0.00     0.173 A 
ATOM     64  C   UNL A   1      39.571  26.802  28.974  1.00  0.00     0.173 A 
ATOM     65  F   UNL A   1      41.674  29.498  27.735  1.00  0.00    -0.203 F 
ATOM     66  C   UNL A   1      41.023  27.484  26.709  1.00  0.00     0.198 A 
ATOM     67  C   UNL A   1      39.617  25.935  27.885  1.00  0.00     0.198 A 
ATOM     68  F   UNL A   1      38.854  26.445  30.052  1.00  0.00    -0.203 F 
ATOM     69  F   UNL A   1      41.697  27.831  25.603  1.00  0.00    -0.200 F 
ATOM     70  C   UNL A   1      40.338  26.279  26.751  1.00  0.00     0.200 A 
ATOM     71  F   UNL A   1      38.964  24.765  27.934  1.00  0.00    -0.200 F 
ATOM     72  F   UNL A   1      40.365  25.453  25.697  1.00  0.00    -0.200 F 
ENDBRANCH  48  62
BRANCH  49  73
ATOM     73  C   UNL A   1      39.607  34.084  36.883  1.00  0.00     0.064 A 
ATOM     74  C   UNL A   1      38.817  33.692  37.971  1.00  0.00     0.173 A 
ATOM     75  C   UNL A   1      40.276  35.315  36.970  1.00  0.00     0.173 A 
ATOM     76  F   UNL A   1      38.143  32.534  37.926  1.00  0.00    -0.203 F 
ATOM     77  C   UNL A   1      38.686  34.504  39.096  1.00  0.00     0.198 A 
ATOM     78  C   UNL A   1      40.167  36.113  38.107  1.00  0.00     0.198 A 
ATOM     79  F   UNL A   1      41.048  35.733  35.957  1.00  0.00    -0.203 F 
ATOM     80  F   UNL A   1      37.893  34.123  40.106  1.00  0.00    -0.200 F 
ATOM     81  C   UNL A   1      39.366  35.711  39.165  1.00  0.00     0.200 A 
ATOM     82  F   UNL A   1      40.838  37.271  38.177  1.00  0.00    -0.200 F 
ATOM     83  F   UNL A   1      39.247  36.488  40.250  1.00  0.00    -0.200 F 
ENDBRANCH  49  73
BRANCH  61  84
ATOM     84  C   UNL A   1      43.598  28.588  35.316  1.00  0.00     0.064 A 
ATOM     85  C   UNL A   1      44.953  28.921  35.178  1.00  0.00     0.173 A 
ATOM     86  C   UNL A   1      43.256  27.586  36.236  1.00  0.00     0.173 A 
ATOM     87  F   UNL A   1      45.331  29.861  34.298  1.00  0.00    -0.203 F 
ATOM     88  C   UNL A   1      45.929  28.266  35.923  1.00  0.00     0.198 A 
ATOM     89  C   UNL A   1      44.231  26.953  37.000  1.00  0.00     0.198 A 
ATOM     90  F   UNL A   1      41.972  27.236  36.408  1.00  0.00    -0.203 F 
ATOM     91  F   UNL A   1      47.221  28.574  35.749  1.00  0.00    -0.200 F 
ATOM     92  C   UNL A   1      45.566  27.290  36.840  1.00  0.00     0.200 A 
ATOM     93  F   UNL A   1      43.878  26.020  37.894  1.00  0.00    -0.200 F 
ATOM     94  F   UNL A   1      46.507  26.670  37.566  1.00  0.00    -0.200 F 
ENDBRANCH  61  84
ENDBRANCH  35  36
ENDBRANCH  27  30
ENDBRANCH  25  26
ENDBRANCH  24  25
ENDBRANCH   1  24
TORSDOF 15
ENDMDL
MODEL 2
REMARK VINA RESULT:     -12.9      0.476      1.999
REMARK SMILES COc1ccc(OCc2nc(C)no2)c(/C=C/C(=O)NCCCNC(=O)c2ccc(-c3c4nc(c(-c5c(F)c(F)c(F)c(F)c5F)c5ccc([nH]5)c(-c5c(F)c(F)c(F)c(F)c5F)c5nc(c(-c6c(F)c(F)c(F)c(F)c6F)c6ccc3[nH]6)C=C5)C=C4)cc2)c1
REMARK SMILES IDX 21 1 20 2 18 3 19 4 17 6 16 7 15 8 3 9 4 10 90 11 5 12 6 13
REMARK SMILES IDX 2 14 1 15 7 16 8 17 9 18 10 19 14 20 11 21 13 22 12 23 22 24
REMARK SMILES IDX 23 25 24 26 25 27 26 29 27 30 28 31 89 32 29 33 88 34 30 35
REMARK SMILES IDX 31 36 32 37 82 38 33 39 87 40 81 41 83 42 34 43 86 44 80 45
REMARK SMILES IDX 79 46 35 48 67 49 47 50 66 51 48 52 51 53 65 54 84 55 49 56
REMARK SMILES IDX 50 57 64 59 85 60 52 61 36 62 37 63 45 64 38 65 39 66 43 67
REMARK SMILES IDX 46 68 40 69 41 70 44 71 42 72 68 73 69 74 77 75 70 76 71 77
REMARK SMILES IDX 75 78 78 79 72 80 73 81 76 82 74 83 53 84 54 85 62 86 55 87
REMARK SMILES IDX 56 88 60 89 63 90 57 91 58 92 61 93 59 94
REMARK H PARENT 20 5 24 28 83 47 51 58
REMARK Flexibility Score: inf
ROOT
ATOM      1  C   UNL A   1      31.710  30.668  26.466  1.00  0.00     0.118 C 
ENDROOT
BRANCH   1   2
ATOM      2  N   UNL A   1      32.923  30.178  27.095  1.00  0.00    -0.352 N 
ATOM      3  C   UNL A   1      33.838  29.235  26.770  1.00  0.00     0.244 C 
ATOM      4  O   UNL A   1      34.691  28.947  27.611  1.00  0.00    -0.270 OA
ATOM      5  H   UNL A   1      33.124  30.631  27.946  1.00  0.00     0.163 HD
BRANCH   3   6
ATOM      6  C   UNL A   1      33.920  28.544  25.457  1.00  0.00     0.072 C 
ATOM      7  C   UNL A   1      33.588  27.271  25.216  1.00  0.00     0.018 C 
BRANCH   7   8
ATOM      8  C   UNL A   1      33.281  26.663  23.916  1.00  0.00     0.020 A 
ATOM      9  C   UNL A   1      33.606  24.647  22.567  1.00  0.00     0.119 A 
ATOM     10  C   UNL A   1      32.703  25.121  21.629  1.00  0.00     0.050 A 
ATOM     11  C   UNL A   1      33.930  25.431  23.675  1.00  0.00     0.058 A 
ATOM     12  C   UNL A   1      32.057  26.335  21.855  1.00  0.00     0.051 A 
ATOM     13  C   UNL A   1      32.287  27.087  23.019  1.00  0.00     0.127 A 
BRANCH   9  14
ATOM     14  O   UNL A   1      34.170  23.423  22.327  1.00  0.00    -0.497 OA
ATOM     15  C   UNL A   1      35.223  23.116  23.242  1.00  0.00     0.278 C 
ENDBRANCH   9  14
BRANCH  13  16
ATOM     16  O   UNL A   1      31.439  28.150  23.082  1.00  0.00    -0.483 OA
BRANCH  16  17
ATOM     17  C   UNL A   1      30.058  28.173  22.698  1.00  0.00     0.329 C 
BRANCH  17  18
ATOM     18  C   UNL A   1      29.396  29.501  22.601  1.00  0.00     0.264 A 
ATOM     19  N   UNL A   1      29.444  30.588  23.344  1.00  0.00    -0.193 NA
ATOM     20  O   UNL A   1      28.688  29.687  21.443  1.00  0.00    -0.336 OA
ATOM     21  C   UNL A   1      28.806  31.510  22.555  1.00  0.00     0.169 A 
ATOM     22  N   UNL A   1      28.307  31.027  21.412  1.00  0.00    -0.063 NA
ATOM     23  C   UNL A   1      28.789  32.950  22.869  1.00  0.00     0.093 C 
ENDBRANCH  17  18
ENDBRANCH  16  17
ENDBRANCH  13  16
ENDBRANCH   7   8
ENDBRANCH   3   6
ENDBRANCH   1   2
BRANCH   1  24
ATOM     24  C   UNL A   1      31.520  32.162  26.687  1.00  0.00     0.042 C 
BRANCH  24  25
ATOM     25  C   UNL A   1      32.744  32.794  27.345  1.00  0.00     0.118 C 
BRANCH  25  26
ATOM     26  N   UNL A   1      32.524  34.210  27.630  1.00  0.00    -0.352 N 
ATOM     27  C   UNL A   1      33.040  34.988  28.633  1.00  0.00     0.251 C 
ATOM     28  H   UNL A   1      31.917  34.674  27.009  1.00  0.00     0.163 HD
ATOM     29  O   UNL A   1      32.527  36.073  28.901  1.00  0.00    -0.269 OA
BRANCH  27  30
ATOM     30  C   UNL A   1      34.211  34.517  29.394  1.00  0.00     0.039 A 
ATOM     31  C   UNL A   1      34.029  33.968  30.665  1.00  0.00     0.014 A 
ATOM     32  C   UNL A   1      35.492  34.630  28.846  1.00  0.00     0.014 A 
ATOM     33  C   UNL A   1      35.127  33.458  31.358  1.00  0.00     0.010 A 
ATOM     34  C   UNL A   1      36.573  34.061  29.506  1.00  0.00     0.010 A 
ATOM     35  C   UNL A   1      36.399  33.463  30.763  1.00  0.00    -0.014 A 
BRANCH  35  36
ATOM     36  C   UNL A   1      37.566  32.822  31.413  1.00  0.00     0.031 A 
ATOM     37  C   UNL A   1      38.237  31.648  30.761  1.00  0.00     0.074 A 
ATOM     38  C   UNL A   1      37.942  33.230  32.639  1.00  0.00     0.049 A 
ATOM     39  N   UNL A   1      39.172  30.863  31.233  1.00  0.00    -0.248 NA
ATOM     40  C   UNL A   1      37.776  31.292  29.410  1.00  0.00     0.031 C 
ATOM     41  C   UNL A   1      37.333  34.332  33.386  1.00  0.00     0.029 A 
ATOM     42  N   UNL A   1      38.909  32.751  33.486  1.00  0.00    -0.354 N 
ATOM     43  C   UNL A   1      39.397  29.913  30.245  1.00  0.00     0.074 A 
ATOM     44  C   UNL A   1      38.473  30.192  29.168  1.00  0.00     0.031 C 
ATOM     45  C   UNL A   1      37.944  34.449  34.575  1.00  0.00     0.029 A 
ATOM     46  C   UNL A   1      38.953  33.403  34.694  1.00  0.00     0.049 A 
ATOM     47  H   UNL A   1      39.514  32.010  33.250  1.00  0.00     0.167 HD
ATOM     48  C   UNL A   1      40.309  28.911  30.236  1.00  0.00     0.037 A 
ATOM     49  C   UNL A   1      39.706  33.165  35.784  1.00  0.00     0.037 A 
ATOM     50  C   UNL A   1      41.237  28.657  31.306  1.00  0.00     0.049 A 
ATOM     51  C   UNL A   1      40.688  32.026  35.759  1.00  0.00     0.074 A 
ATOM     52  C   UNL A   1      42.252  27.718  31.363  1.00  0.00     0.029 A 
ATOM     53  N   UNL A   1      41.258  29.343  32.511  1.00  0.00    -0.354 N 
ATOM     54  N   UNL A   1      40.946  31.179  34.793  1.00  0.00    -0.248 NA
ATOM     55  C   UNL A   1      41.479  31.806  36.978  1.00  0.00     0.031 C 
ATOM     56  C   UNL A   1      42.854  27.802  32.623  1.00  0.00     0.029 A 
ATOM     57  C   UNL A   1      42.245  28.824  33.333  1.00  0.00     0.049 A 
ATOM     58  H   UNL A   1      40.659  30.088  32.748  1.00  0.00     0.167 HD
ATOM     59  C   UNL A   1      41.939  30.339  35.277  1.00  0.00     0.074 A 
ATOM     60  C   UNL A   1      42.250  30.788  36.618  1.00  0.00     0.031 C 
ATOM     61  C   UNL A   1      42.535  29.286  34.667  1.00  0.00     0.037 A 
BRANCH  48  62
ATOM     62  C   UNL A   1      40.347  28.015  29.033  1.00  0.00     0.064 A 
ATOM     63  C   UNL A   1      39.618  26.818  28.984  1.00  0.00     0.173 A 
ATOM     64  C   UNL A   1      41.087  28.378  27.899  1.00  0.00     0.173 A 
ATOM     65  F   UNL A   1      38.901  26.419  30.046  1.00  0.00    -0.203 F 
ATOM     66  C   UNL A   1      39.650  26.004  27.855  1.00  0.00     0.198 A 
ATOM     67  C   UNL A   1      41.095  27.577  26.760  1.00  0.00     0.198 A 
ATOM     68  F   UNL A   1      41.799  29.516  27.890  1.00  0.00    -0.203 F 
ATOM     69  F   UNL A   1      38.982  24.842  27.848  1.00  0.00    -0.200 F 
ATOM     70  C   UNL A   1      40.382  26.387  26.741  1.00  0.00     0.200 A 
ATOM     71  F   UNL A   1      41.793  27.956  25.679  1.00  0.00    -0.200 F 
ATOM     72  F   UNL A   1      40.406  25.608  25.651  1.00  0.00    -0.200 F 
ENDBRANCH  48  62
BRANCH  49  73
ATOM     73  C   UNL A   1      39.560  34.025  36.988  1.00  0.00     0.064 A 
ATOM     74  C   UNL A   1      40.231  35.251  37.079  1.00  0.00     0.173 A 
ATOM     75  C   UNL A   1      38.745  33.644  38.065  1.00  0.00     0.173 A 
ATOM     76  F   UNL A   1      41.037  35.648  36.083  1.00  0.00    -0.203 F 
ATOM     77  C   UNL A   1      40.106  36.058  38.208  1.00  0.00     0.198 A 
ATOM     78  C   UNL A   1      38.599  34.465  39.181  1.00  0.00     0.198 A 
ATOM     79  F   UNL A   1      38.077  32.482  38.024  1.00  0.00    -0.203 F 
ATOM     80  F   UNL A   1      40.791  37.207  38.285  1.00  0.00    -0.200 F 
ATOM     81  C   UNL A   1      39.286  35.667  39.255  1.00  0.00     0.200 A 
ATOM     82  F   UNL A   1      37.793  34.091  40.183  1.00  0.00    -0.200 F 
ATOM     83  F   UNL A   1      39.160  36.447  40.337  1.00  0.00    -0.200 F 
ENDBRANCH  49  73
BRANCH  61  84
ATOM     84  C   UNL A   1      43.594  28.555  35.439  1.00  0.00     0.064 A 
ATOM     85  C   UNL A   1      43.263  27.544  36.353  1.00  0.00     0.173 A 
ATOM     86  C   UNL A   1      44.952  28.829  35.222  1.00  0.00     0.173 A 
ATOM     87  F   UNL A   1      41.977  27.259  36.608  1.00  0.00    -0.203 F 
ATOM     88  C   UNL A   1      44.255  26.842  37.032  1.00  0.00     0.198 A 
ATOM     89  C   UNL A   1      45.941  28.107  35.881  1.00  0.00     0.198 A 
ATOM     90  F   UNL A   1      45.319  29.784  34.354  1.00  0.00    -0.203 F 
ATOM     91  F   UNL A   1      43.917  25.906  37.928  1.00  0.00    -0.200 F 
ATOM     92  C   UNL A   1      45.594  27.118  36.788  1.00  0.00     0.200 A 
ATOM     93  F   UNL A   1      47.234  28.365  35.635  1.00  0.00    -0.200 F 
ATOM     94  F   UNL A   1      46.547  26.432  37.433  1.00  0.00    -0.200 F 
ENDBRANCH  61  84
ENDBRANCH  35  36
ENDBRANCH  27  30
ENDBRANCH  25  26
ENDBRANCH  24  25
ENDBRANCH   1  24
TORSDOF 15
ENDMDL
MODEL 3
REMARK VINA RESULT:     -12.8      6.295     11.649
REMARK SMILES COc1ccc(OCc2nc(C)no2)c(/C=C/C(=O)NCCCNC(=O)c2ccc(-c3c4nc(c(-c5c(F)c(F)c(F)c(F)c5F)c5ccc([nH]5)c(-c5c(F)c(F)c(F)c(F)c5F)c5nc(c(-c6c(F)c(F)c(F)c(F)c6F)c6ccc3[nH]6)C=C5)C=C4)cc2)c1
REMARK SMILES IDX 21 1 20 2 18 3 19 4 17 6 16 7 15 8 3 9 4 10 90 11 5 12 6 13
REMARK SMILES IDX 2 14 1 15 7 16 8 17 9 18 10 19 14 20 11 21 13 22 12 23 22 24
REMARK SMILES IDX 23 25 24 26 25 27 26 29 27 30 28 31 89 32 29 33 88 34 30 35
REMARK SMILES IDX 31 36 32 37 82 38 33 39 87 40 81 41 83 42 34 43 86 44 80 45
REMARK SMILES IDX 79 46 35 48 67 49 47 50 66 51 48 52 51 53 65 54 84 55 49 56
REMARK SMILES IDX 50 57 64 59 85 60 52 61 36 62 37 63 45 64 38 65 39 66 43 67
REMARK SMILES IDX 46 68 40 69 41 70 44 71 42 72 68 73 69 74 77 75 70 76 71 77
REMARK SMILES IDX 75 78 78 79 72 80 73 81 76 82 74 83 53 84 54 85 62 86 55 87
REMARK SMILES IDX 56 88 60 89 63 90 57 91 58 92 61 93 59 94
REMARK H PARENT 20 5 24 28 83 47 51 58
REMARK Flexibility Score: inf
ROOT
ATOM      1  C   UNL A   1      37.355  21.155  24.556  1.00  0.00     0.118 C 
ENDROOT
BRANCH   1   2
ATOM      2  N   UNL A   1      37.940  22.359  25.117  1.00  0.00    -0.352 N 
ATOM      3  C   UNL A   1      37.436  23.444  25.751  1.00  0.00     0.244 C 
ATOM      4  O   UNL A   1      38.199  24.387  25.972  1.00  0.00    -0.270 OA
ATOM      5  H   UNL A   1      38.918  22.396  25.011  1.00  0.00     0.163 HD
BRANCH   3   6
ATOM      6  C   UNL A   1      36.039  23.573  26.240  1.00  0.00     0.072 C 
ATOM      7  C   UNL A   1      34.996  24.020  25.533  1.00  0.00     0.018 C 
BRANCH   7   8
ATOM      8  C   UNL A   1      33.572  23.809  25.818  1.00  0.00     0.020 A 
ATOM      9  C   UNL A   1      31.477  24.972  26.315  1.00  0.00     0.119 A 
ATOM     10  C   UNL A   1      30.777  23.784  26.176  1.00  0.00     0.050 A 
ATOM     11  C   UNL A   1      32.866  24.976  26.186  1.00  0.00     0.058 A 
ATOM     12  C   UNL A   1      31.461  22.626  25.813  1.00  0.00     0.051 A 
ATOM     13  C   UNL A   1      32.845  22.634  25.570  1.00  0.00     0.127 A 
BRANCH   9  14
ATOM     14  O   UNL A   1      30.751  26.093  26.615  1.00  0.00    -0.497 OA
ATOM     15  C   UNL A   1      31.546  27.279  26.609  1.00  0.00     0.278 C 
ENDBRANCH   9  14
BRANCH  13  16
ATOM     16  O   UNL A   1      33.257  21.428  25.092  1.00  0.00    -0.483 OA
BRANCH  16  17
ATOM     17  C   UNL A   1      32.425  20.353  24.636  1.00  0.00     0.329 C 
BRANCH  17  18
ATOM     18  C   UNL A   1      32.888  18.966  24.906  1.00  0.00     0.264 A 
ATOM     19  N   UNL A   1      32.283  17.885  25.356  1.00  0.00    -0.193 NA
ATOM     20  O   UNL A   1      34.169  18.715  24.488  1.00  0.00    -0.336 OA
ATOM     21  C   UNL A   1      33.216  16.908  25.118  1.00  0.00     0.169 A 
ATOM     22  N   UNL A   1      34.378  17.344  24.622  1.00  0.00    -0.063 NA
ATOM     23  C   UNL A   1      32.917  15.472  25.265  1.00  0.00     0.093 C 
ENDBRANCH  17  18
ENDBRANCH  16  17
ENDBRANCH  13  16
ENDBRANCH   7   8
ENDBRANCH   3   6
ENDBRANCH   1   2
BRANCH   1  24
ATOM     24  C   UNL A   1      38.136  19.908  24.950  1.00  0.00     0.042 C 
BRANCH  24  25
ATOM     25  C   UNL A   1      39.228  20.227  25.968  1.00  0.00     0.118 C 
BRANCH  25  26
ATOM     26  N   UNL A   1      40.239  19.173  26.012  1.00  0.00    -0.352 N 
ATOM     27  C   UNL A   1      41.604  19.276  26.050  1.00  0.00     0.251 C 
ATOM     28  H   UNL A   1      39.887  18.254  26.016  1.00  0.00     0.163 HD
ATOM     29  O   UNL A   1      42.307  18.301  25.786  1.00  0.00    -0.269 OA
BRANCH  27  30
ATOM     30  C   UNL A   1      42.230  20.563  26.402  1.00  0.00     0.039 A 
ATOM     31  C   UNL A   1      42.730  21.385  25.390  1.00  0.00     0.014 A 
ATOM     32  C   UNL A   1      42.330  20.948  27.742  1.00  0.00     0.014 A 
ATOM     33  C   UNL A   1      43.260  22.634  25.716  1.00  0.00     0.010 A 
ATOM     34  C   UNL A   1      42.793  22.217  28.059  1.00  0.00     0.010 A 
ATOM     35  C   UNL A   1      43.254  23.074  27.049  1.00  0.00    -0.014 A 
BRANCH  35  36
ATOM     36  C   UNL A   1      43.694  24.440  27.420  1.00  0.00     0.031 A 
ATOM     37  C   UNL A   1      42.688  25.451  27.886  1.00  0.00     0.074 A 
ATOM     38  C   UNL A   1      44.979  24.792  27.227  1.00  0.00     0.049 A 
ATOM     39  N   UNL A   1      42.846  26.730  28.116  1.00  0.00    -0.248 NA
ATOM     40  C   UNL A   1      41.314  24.967  28.094  1.00  0.00     0.031 C 
ATOM     41  C   UNL A   1      46.034  23.903  26.737  1.00  0.00     0.029 A 
ATOM     42  N   UNL A   1      45.612  25.997  27.394  1.00  0.00    -0.354 N 
ATOM     43  C   UNL A   1      41.592  27.204  28.479  1.00  0.00     0.074 A 
ATOM     44  C   UNL A   1      40.675  26.088  28.395  1.00  0.00     0.031 C 
ATOM     45  C   UNL A   1      47.183  24.589  26.650  1.00  0.00     0.029 A 
ATOM     46  C   UNL A   1      46.937  25.976  27.031  1.00  0.00     0.049 A 
ATOM     47  H   UNL A   1      45.161  26.800  27.741  1.00  0.00     0.167 HD
ATOM     48  C   UNL A   1      41.246  28.456  28.863  1.00  0.00     0.037 A 
ATOM     49  C   UNL A   1      47.843  26.970  26.987  1.00  0.00     0.037 A 
ATOM     50  C   UNL A   1      42.173  29.552  28.962  1.00  0.00     0.049 A 
ATOM     51  C   UNL A   1      47.425  28.358  27.389  1.00  0.00     0.074 A 
ATOM     52  C   UNL A   1      41.941  30.839  29.416  1.00  0.00     0.029 A 
ATOM     53  N   UNL A   1      43.509  29.492  28.594  1.00  0.00    -0.354 N 
ATOM     54  N   UNL A   1      46.254  28.781  27.801  1.00  0.00    -0.248 NA
ATOM     55  C   UNL A   1      48.451  29.407  27.315  1.00  0.00     0.031 C 
ATOM     56  C   UNL A   1      43.124  31.571  29.274  1.00  0.00     0.029 A 
ATOM     57  C   UNL A   1      44.106  30.729  28.776  1.00  0.00     0.049 A 
ATOM     58  H   UNL A   1      43.965  28.689  28.252  1.00  0.00     0.167 HD
ATOM     59  C   UNL A   1      46.406  30.137  28.052  1.00  0.00     0.074 A 
ATOM     60  C   UNL A   1      47.786  30.464  27.763  1.00  0.00     0.031 C 
ATOM     61  C   UNL A   1      45.482  31.032  28.479  1.00  0.00     0.037 A 
BRANCH  48  62
ATOM     62  C   UNL A   1      39.807  28.706  29.206  1.00  0.00     0.064 A 
ATOM     63  C   UNL A   1      39.309  28.478  30.498  1.00  0.00     0.173 A 
ATOM     64  C   UNL A   1      38.926  29.221  28.244  1.00  0.00     0.173 A 
ATOM     65  F   UNL A   1      40.108  27.977  31.451  1.00  0.00    -0.203 F 
ATOM     66  C   UNL A   1      37.974  28.730  30.805  1.00  0.00     0.198 A 
ATOM     67  C   UNL A   1      37.599  29.499  28.563  1.00  0.00     0.198 A 
ATOM     68  F   UNL A   1      39.352  29.462  26.995  1.00  0.00    -0.203 F 
ATOM     69  F   UNL A   1      37.509  28.461  32.034  1.00  0.00    -0.200 F 
ATOM     70  C   UNL A   1      37.122  29.247  29.841  1.00  0.00     0.200 A 
ATOM     71  F   UNL A   1      36.780  30.011  27.633  1.00  0.00    -0.200 F 
ATOM     72  F   UNL A   1      35.841  29.497  30.141  1.00  0.00    -0.200 F 
ENDBRANCH  48  62
BRANCH  49  73
ATOM     73  C   UNL A   1      49.234  26.687  26.546  1.00  0.00     0.064 A 
ATOM     74  C   UNL A   1      49.604  26.831  25.203  1.00  0.00     0.173 A 
ATOM     75  C   UNL A   1      50.220  26.274  27.455  1.00  0.00     0.173 A 
ATOM     76  F   UNL A   1      48.691  27.204  24.294  1.00  0.00    -0.203 F 
ATOM     77  C   UNL A   1      50.903  26.559  24.781  1.00  0.00     0.198 A 
ATOM     78  C   UNL A   1      51.526  26.029  27.037  1.00  0.00     0.198 A 
ATOM     79  F   UNL A   1      49.917  26.126  28.753  1.00  0.00    -0.203 F 
ATOM     80  F   UNL A   1      51.220  26.667  23.484  1.00  0.00    -0.200 F 
ATOM     81  C   UNL A   1      51.865  26.164  25.699  1.00  0.00     0.200 A 
ATOM     82  F   UNL A   1      52.456  25.664  27.930  1.00  0.00    -0.200 F 
ATOM     83  F   UNL A   1      53.116  25.910  25.294  1.00  0.00    -0.200 F 
ENDBRANCH  49  73
BRANCH  61  84
ATOM     84  C   UNL A   1      45.938  32.449  28.671  1.00  0.00     0.064 A 
ATOM     85  C   UNL A   1      46.503  32.876  29.881  1.00  0.00     0.173 A 
ATOM     86  C   UNL A   1      45.860  33.372  27.618  1.00  0.00     0.173 A 
ATOM     87  F   UNL A   1      46.583  32.034  30.923  1.00  0.00    -0.203 F 
ATOM     88  C   UNL A   1      46.962  34.181  30.034  1.00  0.00     0.198 A 
ATOM     89  C   UNL A   1      46.345  34.667  27.765  1.00  0.00     0.198 A 
ATOM     90  F   UNL A   1      45.332  33.009  26.439  1.00  0.00    -0.203 F 
ATOM     91  F   UNL A   1      47.465  34.579  31.210  1.00  0.00    -0.200 F 
ATOM     92  C   UNL A   1      46.891  35.073  28.972  1.00  0.00     0.200 A 
ATOM     93  F   UNL A   1      46.288  35.523  26.735  1.00  0.00    -0.200 F 
ATOM     94  F   UNL A   1      47.346  36.325  29.118  1.00  0.00    -0.200 F 
ENDBRANCH  61  84
ENDBRANCH  35  36
ENDBRANCH  27  30
ENDBRANCH  25  26
ENDBRANCH  24  25
ENDBRANCH   1  24
TORSDOF 15
ENDMDL
