MODEL 1
REMARK VINA RESULT:     -12.2      0.000      0.000
REMARK SMILES C[C@@H]1CCc2cc(C(=O)NCCCNC(=O)c3ccc(-c4c5nc(c(-c6c(F)c(F)c(F)c(F)c6F)c6ccc([nH]6)c(-c6c(F)c(F)c(F)c(F)c6F)c6nc(c(-c7c(F)c(F)c(F)c(F)c7F)c7ccc4[nH]7)C=C6)C=C5)cc3)sc2C1
REMARK SMILES IDX 13 1 12 2 11 3 10 4 8 5 9 6 7 8 1 9 2 10 3 11 82 12 4 13
REMARK SMILES IDX 81 14 5 15 80 16 6 17 14 18 15 19 16 21 17 22 18 23 79 24
REMARK SMILES IDX 19 25 78 26 20 27 21 28 22 29 72 30 23 31 77 32 71 33 73 34
REMARK SMILES IDX 24 35 76 36 70 37 69 38 25 40 57 41 37 42 56 43 38 44 41 45
REMARK SMILES IDX 55 46 74 47 39 48 40 49 54 51 75 52 42 53 26 54 27 55 35 56
REMARK SMILES IDX 28 57 29 58 33 59 36 60 30 61 31 62 34 63 32 64 58 65 59 66
REMARK SMILES IDX 67 67 60 68 61 69 65 70 68 71 62 72 63 73 66 74 64 75 43 76
REMARK SMILES IDX 44 77 52 78 45 79 46 80 50 81 53 82 47 83 48 84 51 85 49 86
REMARK H PARENT 10 7 14 20 73 39 41 50
REMARK Flexibility Score: inf
ROOT
ATOM      1  C   UNL A   1      41.316  20.913  27.795  1.00  0.00     0.118 C 
ENDROOT
BRANCH   1   2
ATOM      2  C   UNL A   1      42.066  19.611  27.561  1.00  0.00     0.042 C 
BRANCH   2   3
ATOM      3  C   UNL A   1      41.912  19.100  26.123  1.00  0.00     0.118 C 
BRANCH   3   4
ATOM      4  N   UNL A   1      43.150  18.554  25.594  1.00  0.00    -0.351 N 
ATOM      5  C   UNL A   1      44.311  19.155  25.154  1.00  0.00     0.261 C 
ATOM      6  O   UNL A   1      45.206  18.369  24.832  1.00  0.00    -0.268 OA
ATOM      7  H   UNL A   1      43.163  17.571  25.540  1.00  0.00     0.163 HD
BRANCH   5   8
ATOM      8  C   UNL A   1      44.451  20.606  25.105  1.00  0.00     0.092 A 
ATOM      9  C   UNL A   1      46.074  25.978  26.690  1.00  0.00     0.008 C 
ATOM     10  C   UNL A   1      45.704  25.393  25.322  1.00  0.00    -0.009 C 
ATOM     11  C   UNL A   1      44.178  25.468  25.073  1.00  0.00     0.008 C 
ATOM     12  C   UNL A   1      46.400  24.033  25.096  1.00  0.00     0.050 C 
ATOM     13  C   UNL A   1      43.338  24.201  25.242  1.00  0.00     0.037 C 
ATOM     14  C   UNL A   1      45.470  22.871  25.128  1.00  0.00     0.009 A 
ATOM     15  C   UNL A   1      44.102  22.933  25.131  1.00  0.00    -0.033 A 
ATOM     16  S   UNL A   1      46.045  21.269  25.124  1.00  0.00    -0.135 S 
ATOM     17  C   UNL A   1      43.526  21.632  25.023  1.00  0.00     0.029 A 
ENDBRANCH   5   8
ENDBRANCH   3   4
ENDBRANCH   2   3
ENDBRANCH   1   2
BRANCH   1  18
ATOM     18  N   UNL A   1      40.393  21.236  26.703  1.00  0.00    -0.352 N 
ATOM     19  C   UNL A   1      39.585  22.344  26.558  1.00  0.00     0.251 C 
ATOM     20  H   UNL A   1      40.343  20.573  25.977  1.00  0.00     0.163 HD
ATOM     21  O   UNL A   1      38.623  22.323  25.789  1.00  0.00    -0.269 OA
BRANCH  19  22
ATOM     22  C   UNL A   1      39.877  23.549  27.347  1.00  0.00     0.039 A 
ATOM     23  C   UNL A   1      41.143  23.781  27.883  1.00  0.00     0.014 A 
ATOM     24  C   UNL A   1      38.864  24.492  27.492  1.00  0.00     0.014 A 
ATOM     25  C   UNL A   1      41.398  25.014  28.477  1.00  0.00     0.010 A 
ATOM     26  C   UNL A   1      39.173  25.768  27.887  1.00  0.00     0.010 A 
ATOM     27  C   UNL A   1      40.416  26.024  28.440  1.00  0.00    -0.014 A 
BRANCH  27  28
ATOM     28  C   UNL A   1      40.724  27.377  28.892  1.00  0.00     0.031 A 
ATOM     29  C   UNL A   1      41.919  27.975  28.241  1.00  0.00     0.074 A 
ATOM     30  C   UNL A   1      39.953  28.107  29.728  1.00  0.00     0.049 A 
ATOM     31  N   UNL A   1      43.076  28.165  28.780  1.00  0.00    -0.248 NA
ATOM     32  C   UNL A   1      41.883  28.243  26.795  1.00  0.00     0.031 C 
ATOM     33  C   UNL A   1      38.610  27.821  30.246  1.00  0.00     0.029 A 
ATOM     34  N   UNL A   1      40.212  29.336  30.256  1.00  0.00    -0.354 N 
ATOM     35  C   UNL A   1      43.871  28.751  27.802  1.00  0.00     0.074 A 
ATOM     36  C   UNL A   1      43.142  28.626  26.565  1.00  0.00     0.031 C 
ATOM     37  C   UNL A   1      38.092  28.931  30.819  1.00  0.00     0.029 A 
ATOM     38  C   UNL A   1      39.130  29.940  30.884  1.00  0.00     0.049 A 
ATOM     39  H   UNL A   1      41.097  29.762  30.196  1.00  0.00     0.167 HD
ATOM     40  C   UNL A   1      44.960  29.489  28.154  1.00  0.00     0.037 A 
ATOM     41  C   UNL A   1      39.097  31.181  31.432  1.00  0.00     0.037 A 
ATOM     42  C   UNL A   1      45.340  29.220  29.521  1.00  0.00     0.049 A 
ATOM     43  C   UNL A   1      40.500  31.570  31.709  1.00  0.00     0.074 A 
ATOM     44  C   UNL A   1      45.755  28.099  30.214  1.00  0.00     0.029 A 
ATOM     45  N   UNL A   1      44.939  30.118  30.480  1.00  0.00    -0.354 N 
ATOM     46  N   UNL A   1      41.243  31.001  32.615  1.00  0.00    -0.248 NA
ATOM     47  C   UNL A   1      41.217  32.284  30.666  1.00  0.00     0.031 C 
ATOM     48  C   UNL A   1      45.125  28.199  31.491  1.00  0.00     0.029 A 
ATOM     49  C   UNL A   1      44.425  29.405  31.532  1.00  0.00     0.049 A 
ATOM     50  H   UNL A   1      45.009  31.098  30.422  1.00  0.00     0.167 HD
ATOM     51  C   UNL A   1      42.491  30.892  32.021  1.00  0.00     0.074 A 
ATOM     52  C   UNL A   1      42.438  31.780  30.862  1.00  0.00     0.031 C 
ATOM     53  C   UNL A   1      43.342  29.880  32.361  1.00  0.00     0.037 A 
BRANCH  40  54
ATOM     54  C   UNL A   1      45.424  30.730  27.428  1.00  0.00     0.064 A 
ATOM     55  C   UNL A   1      46.782  30.831  27.059  1.00  0.00     0.173 A 
ATOM     56  C   UNL A   1      44.690  31.933  27.377  1.00  0.00     0.173 A 
ATOM     57  F   UNL A   1      47.578  29.751  27.074  1.00  0.00    -0.203 F 
ATOM     58  C   UNL A   1      47.379  32.060  26.769  1.00  0.00     0.198 A 
ATOM     59  C   UNL A   1      45.279  33.150  27.037  1.00  0.00     0.198 A 
ATOM     60  F   UNL A   1      43.412  32.011  27.761  1.00  0.00    -0.203 F 
ATOM     61  F   UNL A   1      48.701  32.125  26.564  1.00  0.00    -0.200 F 
ATOM     62  C   UNL A   1      46.628  33.220  26.770  1.00  0.00     0.200 A 
ATOM     63  F   UNL A   1      44.538  34.267  27.060  1.00  0.00    -0.200 F 
ATOM     64  F   UNL A   1      47.210  34.409  26.566  1.00  0.00    -0.200 F 
ENDBRANCH  40  54
BRANCH  41  65
ATOM     65  C   UNL A   1      37.991  32.165  31.451  1.00  0.00     0.064 A 
ATOM     66  C   UNL A   1      37.599  32.834  30.279  1.00  0.00     0.173 A 
ATOM     67  C   UNL A   1      37.097  32.230  32.537  1.00  0.00     0.173 A 
ATOM     68  F   UNL A   1      38.375  32.786  29.185  1.00  0.00    -0.203 F 
ATOM     69  C   UNL A   1      36.367  33.488  30.183  1.00  0.00     0.198 A 
ATOM     70  C   UNL A   1      35.868  32.887  32.441  1.00  0.00     0.198 A 
ATOM     71  F   UNL A   1      37.352  31.567  33.674  1.00  0.00    -0.203 F 
ATOM     72  F   UNL A   1      35.996  34.049  29.023  1.00  0.00    -0.200 F 
ATOM     73  C   UNL A   1      35.496  33.501  31.260  1.00  0.00     0.200 A 
ATOM     74  F   UNL A   1      35.017  32.857  33.476  1.00  0.00    -0.200 F 
ATOM     75  F   UNL A   1      34.285  34.063  31.145  1.00  0.00    -0.200 F 
ENDBRANCH  41  65
BRANCH  53  76
ATOM     76  C   UNL A   1      43.010  29.069  33.586  1.00  0.00     0.064 A 
ATOM     77  C   UNL A   1      42.155  27.953  33.596  1.00  0.00     0.173 A 
ATOM     78  C   UNL A   1      43.684  29.372  34.776  1.00  0.00     0.173 A 
ATOM     79  F   UNL A   1      41.546  27.537  32.480  1.00  0.00    -0.203 F 
ATOM     80  C   UNL A   1      41.952  27.208  34.759  1.00  0.00     0.198 A 
ATOM     81  C   UNL A   1      43.509  28.604  35.924  1.00  0.00     0.198 A 
ATOM     82  F   UNL A   1      44.552  30.396  34.816  1.00  0.00    -0.203 F 
ATOM     83  F   UNL A   1      41.117  26.157  34.748  1.00  0.00    -0.200 F 
ATOM     84  C   UNL A   1      42.635  27.530  35.919  1.00  0.00     0.200 A 
ATOM     85  F   UNL A   1      44.208  28.892  37.030  1.00  0.00    -0.200 F 
ATOM     86  F   UNL A   1      42.468  26.793  37.026  1.00  0.00    -0.200 F 
ENDBRANCH  53  76
ENDBRANCH  27  28
ENDBRANCH  19  22
ENDBRANCH   1  18
TORSDOF 10
ENDMDL
MODEL 2
REMARK VINA RESULT:     -12.1      3.984     10.510
REMARK SMILES C[C@@H]1CCc2cc(C(=O)NCCCNC(=O)c3ccc(-c4c5nc(c(-c6c(F)c(F)c(F)c(F)c6F)c6ccc([nH]6)c(-c6c(F)c(F)c(F)c(F)c6F)c6nc(c(-c7c(F)c(F)c(F)c(F)c7F)c7ccc4[nH]7)C=C6)C=C5)cc3)sc2C1
REMARK SMILES IDX 13 1 12 2 11 3 10 4 8 5 9 6 7 8 1 9 2 10 3 11 82 12 4 13
REMARK SMILES IDX 81 14 5 15 80 16 6 17 14 18 15 19 16 21 17 22 18 23 79 24
REMARK SMILES IDX 19 25 78 26 20 27 21 28 22 29 72 30 23 31 77 32 71 33 73 34
REMARK SMILES IDX 24 35 76 36 70 37 69 38 25 40 57 41 37 42 56 43 38 44 41 45
REMARK SMILES IDX 55 46 74 47 39 48 40 49 54 51 75 52 42 53 26 54 27 55 35 56
REMARK SMILES IDX 28 57 29 58 33 59 36 60 30 61 31 62 34 63 32 64 58 65 59 66
REMARK SMILES IDX 67 67 60 68 61 69 65 70 68 71 62 72 63 73 66 74 64 75 43 76
REMARK SMILES IDX 44 77 52 78 45 79 46 80 50 81 53 82 47 83 48 84 51 85 49 86
REMARK H PARENT 10 7 14 20 73 39 41 50
REMARK Flexibility Score: inf
ROOT
ATOM      1  C   UNL A   1      34.405  32.764  30.521  1.00  0.00     0.118 C 
ENDROOT
BRANCH   1   2
ATOM      2  C   UNL A   1      35.035  33.778  31.464  1.00  0.00     0.042 C 
BRANCH   2   3
ATOM      3  C   UNL A   1      35.704  33.112  32.673  1.00  0.00     0.118 C 
BRANCH   3   4
ATOM      4  N   UNL A   1      35.902  31.686  32.480  1.00  0.00    -0.351 N 
ATOM      5  C   UNL A   1      36.939  30.844  32.821  1.00  0.00     0.261 C 
ATOM      6  O   UNL A   1      36.739  29.653  32.564  1.00  0.00    -0.268 OA
ATOM      7  H   UNL A   1      35.156  31.237  32.022  1.00  0.00     0.163 HD
BRANCH   5   8
ATOM      8  C   UNL A   1      38.156  31.342  33.453  1.00  0.00     0.092 A 
ATOM      9  C   UNL A   1      41.564  33.980  37.381  1.00  0.00     0.008 C 
ATOM     10  C   UNL A   1      41.864  32.881  36.354  1.00  0.00    -0.009 C 
ATOM     11  C   UNL A   1      42.252  33.485  34.983  1.00  0.00     0.008 C 
ATOM     12  C   UNL A   1      40.766  31.794  36.372  1.00  0.00     0.050 C 
ATOM     13  C   UNL A   1      41.213  33.503  33.861  1.00  0.00     0.037 C 
ATOM     14  C   UNL A   1      39.899  31.797  35.162  1.00  0.00     0.009 A 
ATOM     15  C   UNL A   1      40.121  32.508  34.012  1.00  0.00    -0.033 A 
ATOM     16  S   UNL A   1      38.495  30.839  35.069  1.00  0.00    -0.135 S 
ATOM     17  C   UNL A   1      39.170  32.170  33.005  1.00  0.00     0.029 A 
ENDBRANCH   5   8
ENDBRANCH   3   4
ENDBRANCH   2   3
ENDBRANCH   1   2
BRANCH   1  18
ATOM     18  N   UNL A   1      34.617  33.099  29.110  1.00  0.00    -0.352 N 
ATOM     19  C   UNL A   1      35.726  32.859  28.325  1.00  0.00     0.251 C 
ATOM     20  H   UNL A   1      33.868  33.555  28.662  1.00  0.00     0.163 HD
ATOM     21  O   UNL A   1      35.904  33.488  27.282  1.00  0.00    -0.269 OA
BRANCH  19  22
ATOM     22  C   UNL A   1      36.704  31.851  28.759  1.00  0.00     0.039 A 
ATOM     23  C   UNL A   1      36.529  30.497  28.476  1.00  0.00     0.014 A 
ATOM     24  C   UNL A   1      37.850  32.296  29.410  1.00  0.00     0.014 A 
ATOM     25  C   UNL A   1      37.568  29.617  28.770  1.00  0.00     0.010 A 
ATOM     26  C   UNL A   1      38.941  31.472  29.507  1.00  0.00     0.010 A 
ATOM     27  C   UNL A   1      38.794  30.119  29.249  1.00  0.00    -0.014 A 
BRANCH  27  28
ATOM     28  C   UNL A   1      39.952  29.242  29.391  1.00  0.00     0.031 A 
ATOM     29  C   UNL A   1      40.319  28.948  30.801  1.00  0.00     0.074 A 
ATOM     30  C   UNL A   1      40.586  28.628  28.367  1.00  0.00     0.049 A 
ATOM     31  N   UNL A   1      41.334  29.414  31.446  1.00  0.00    -0.248 NA
ATOM     32  C   UNL A   1      39.379  28.186  31.637  1.00  0.00     0.031 C 
ATOM     33  C   UNL A   1      40.212  28.552  26.950  1.00  0.00     0.029 A 
ATOM     34  N   UNL A   1      41.714  27.865  28.411  1.00  0.00    -0.354 N 
ATOM     35  C   UNL A   1      41.274  28.862  32.720  1.00  0.00     0.074 A 
ATOM     36  C   UNL A   1      39.974  28.251  32.831  1.00  0.00     0.031 C 
ATOM     37  C   UNL A   1      40.962  27.615  26.327  1.00  0.00     0.029 A 
ATOM     38  C   UNL A   1      41.991  27.167  27.242  1.00  0.00     0.049 A 
ATOM     39  H   UNL A   1      42.287  27.813  29.210  1.00  0.00     0.167 HD
ATOM     40  C   UNL A   1      42.400  28.768  33.481  1.00  0.00     0.037 A 
ATOM     41  C   UNL A   1      43.007  26.291  27.040  1.00  0.00     0.037 A 
ATOM     42  C   UNL A   1      43.439  29.631  32.968  1.00  0.00     0.049 A 
ATOM     43  C   UNL A   1      44.043  26.586  28.058  1.00  0.00     0.074 A 
ATOM     44  C   UNL A   1      43.565  30.994  32.775  1.00  0.00     0.029 A 
ATOM     45  N   UNL A   1      44.416  29.057  32.191  1.00  0.00    -0.354 N 
ATOM     46  N   UNL A   1      44.755  27.677  28.071  1.00  0.00    -0.248 NA
ATOM     47  C   UNL A   1      43.966  25.872  29.321  1.00  0.00     0.031 C 
ATOM     48  C   UNL A   1      44.267  31.129  31.539  1.00  0.00     0.029 A 
ATOM     49  C   UNL A   1      44.592  29.850  31.087  1.00  0.00     0.049 A 
ATOM     50  H   UNL A   1      44.902  28.225  32.392  1.00  0.00     0.167 HD
ATOM     51  C   UNL A   1      44.829  28.027  29.410  1.00  0.00     0.074 A 
ATOM     52  C   UNL A   1      44.406  26.833  30.138  1.00  0.00     0.031 C 
ATOM     53  C   UNL A   1      44.951  29.334  29.786  1.00  0.00     0.037 A 
BRANCH  40  54
ATOM     54  C   UNL A   1      42.708  27.623  34.416  1.00  0.00     0.064 A 
ATOM     55  C   UNL A   1      43.192  26.415  33.872  1.00  0.00     0.173 A 
ATOM     56  C   UNL A   1      42.246  27.547  35.747  1.00  0.00     0.173 A 
ATOM     57  F   UNL A   1      43.653  26.367  32.613  1.00  0.00    -0.203 F 
ATOM     58  C   UNL A   1      43.116  25.207  34.571  1.00  0.00     0.198 A 
ATOM     59  C   UNL A   1      42.221  26.349  36.459  1.00  0.00     0.198 A 
ATOM     60  F   UNL A   1      41.697  28.591  36.376  1.00  0.00    -0.203 F 
ATOM     61  F   UNL A   1      43.456  24.064  33.961  1.00  0.00    -0.200 F 
ATOM     62  C   UNL A   1      42.619  25.174  35.859  1.00  0.00     0.200 A 
ATOM     63  F   UNL A   1      41.719  26.334  37.702  1.00  0.00    -0.200 F 
ATOM     64  F   UNL A   1      42.476  24.010  36.506  1.00  0.00    -0.200 F 
ENDBRANCH  40  54
BRANCH  41  65
ATOM     65  C   UNL A   1      43.020  25.041  26.247  1.00  0.00     0.064 A 
ATOM     66  C   UNL A   1      43.971  24.841  25.231  1.00  0.00     0.173 A 
ATOM     67  C   UNL A   1      42.316  23.901  26.678  1.00  0.00     0.173 A 
ATOM     68  F   UNL A   1      44.715  25.867  24.793  1.00  0.00    -0.203 F 
ATOM     69  C   UNL A   1      44.234  23.569  24.712  1.00  0.00     0.198 A 
ATOM     70  C   UNL A   1      42.576  22.633  26.156  1.00  0.00     0.198 A 
ATOM     71  F   UNL A   1      41.437  23.981  27.689  1.00  0.00    -0.203 F 
ATOM     72  F   UNL A   1      45.202  23.406  23.799  1.00  0.00    -0.200 F 
ATOM     73  C   UNL A   1      43.547  22.464  25.186  1.00  0.00     0.200 A 
ATOM     74  F   UNL A   1      41.935  21.565  26.652  1.00  0.00    -0.200 F 
ATOM     75  F   UNL A   1      43.850  21.236  24.742  1.00  0.00    -0.200 F 
ENDBRANCH  41  65
BRANCH  53  76
ATOM     76  C   UNL A   1      45.287  30.341  28.719  1.00  0.00     0.064 A 
ATOM     77  C   UNL A   1      44.341  30.978  27.896  1.00  0.00     0.173 A 
ATOM     78  C   UNL A   1      46.619  30.761  28.609  1.00  0.00     0.173 A 
ATOM     79  F   UNL A   1      43.035  30.705  28.003  1.00  0.00    -0.203 F 
ATOM     80  C   UNL A   1      44.723  31.955  26.976  1.00  0.00     0.198 A 
ATOM     81  C   UNL A   1      46.992  31.763  27.717  1.00  0.00     0.198 A 
ATOM     82  F   UNL A   1      47.561  30.226  29.402  1.00  0.00    -0.203 F 
ATOM     83  F   UNL A   1      43.804  32.535  26.189  1.00  0.00    -0.200 F 
ATOM     84  C   UNL A   1      46.047  32.351  26.893  1.00  0.00     0.200 A 
ATOM     85  F   UNL A   1      48.266  32.175  27.674  1.00  0.00    -0.200 F 
ATOM     86  F   UNL A   1      46.410  33.314  26.034  1.00  0.00    -0.200 F 
ENDBRANCH  53  76
ENDBRANCH  27  28
ENDBRANCH  19  22
ENDBRANCH   1  18
TORSDOF 10
ENDMDL
MODEL 3
REMARK VINA RESULT:     -12.1      1.934      3.127
REMARK SMILES C[C@@H]1CCc2cc(C(=O)NCCCNC(=O)c3ccc(-c4c5nc(c(-c6c(F)c(F)c(F)c(F)c6F)c6ccc([nH]6)c(-c6c(F)c(F)c(F)c(F)c6F)c6nc(c(-c7c(F)c(F)c(F)c(F)c7F)c7ccc4[nH]7)C=C6)C=C5)cc3)sc2C1
REMARK SMILES IDX 13 1 12 2 11 3 10 4 8 5 9 6 7 8 1 9 2 10 3 11 82 12 4 13
REMARK SMILES IDX 81 14 5 15 80 16 6 17 14 18 15 19 16 21 17 22 18 23 79 24
REMARK SMILES IDX 19 25 78 26 20 27 21 28 22 29 72 30 23 31 77 32 71 33 73 34
REMARK SMILES IDX 24 35 76 36 70 37 69 38 25 40 57 41 37 42 56 43 38 44 41 45
REMARK SMILES IDX 55 46 74 47 39 48 40 49 54 51 75 52 42 53 26 54 27 55 35 56
REMARK SMILES IDX 28 57 29 58 33 59 36 60 30 61 31 62 34 63 32 64 58 65 59 66
REMARK SMILES IDX 67 67 60 68 61 69 65 70 68 71 62 72 63 73 66 74 64 75 43 76
REMARK SMILES IDX 44 77 52 78 45 79 46 80 50 81 53 82 47 83 48 84 51 85 49 86
REMARK H PARENT 10 7 14 20 73 39 41 50
REMARK Flexibility Score: inf
ROOT
ATOM      1  C   UNL A   1      43.005  22.535  25.848  1.00  0.00     0.118 C 
ENDROOT
BRANCH   1   2
ATOM      2  C   UNL A   1      43.389  23.355  24.626  1.00  0.00     0.042 C 
BRANCH   2   3
ATOM      3  C   UNL A   1      44.121  24.650  25.000  1.00  0.00     0.118 C 
BRANCH   3   4
ATOM      4  N   UNL A   1      45.541  24.439  25.225  1.00  0.00    -0.351 N 
ATOM      5  C   UNL A   1      46.287  24.335  26.380  1.00  0.00     0.261 C 
ATOM      6  O   UNL A   1      47.481  24.079  26.199  1.00  0.00    -0.268 OA
ATOM      7  H   UNL A   1      46.068  24.352  24.398  1.00  0.00     0.163 HD
BRANCH   5   8
ATOM      8  C   UNL A   1      45.685  24.497  27.699  1.00  0.00     0.092 A 
ATOM      9  C   UNL A   1      45.108  26.175  33.253  1.00  0.00     0.008 C 
ATOM     10  C   UNL A   1      44.064  25.815  32.190  1.00  0.00    -0.009 C 
ATOM     11  C   UNL A   1      43.779  24.294  32.175  1.00  0.00     0.008 C 
ATOM     12  C   UNL A   1      44.392  26.495  30.842  1.00  0.00     0.050 C 
ATOM     13  C   UNL A   1      44.407  23.434  31.078  1.00  0.00     0.037 C 
ATOM     14  C   UNL A   1      44.853  25.548  29.789  1.00  0.00     0.009 A 
ATOM     15  C   UNL A   1      44.807  24.180  29.859  1.00  0.00    -0.033 A 
ATOM     16  S   UNL A   1      45.476  26.100  28.305  1.00  0.00    -0.135 S 
ATOM     17  C   UNL A   1      45.198  23.587  28.621  1.00  0.00     0.029 A 
ENDBRANCH   5   8
ENDBRANCH   3   4
ENDBRANCH   2   3
ENDBRANCH   1   2
BRANCH   1  18
ATOM     18  N   UNL A   1      41.560  22.308  25.944  1.00  0.00    -0.352 N 
ATOM     19  C   UNL A   1      40.608  23.071  26.588  1.00  0.00     0.251 C 
ATOM     20  H   UNL A   1      41.223  21.503  25.488  1.00  0.00     0.163 HD
ATOM     21  O   UNL A   1      39.512  22.592  26.881  1.00  0.00    -0.269 OA
BRANCH  19  22
ATOM     22  C   UNL A   1      40.926  24.463  26.937  1.00  0.00     0.039 A 
ATOM     23  C   UNL A   1      40.608  25.519  26.084  1.00  0.00     0.014 A 
ATOM     24  C   UNL A   1      41.499  24.707  28.181  1.00  0.00     0.014 A 
ATOM     25  C   UNL A   1      40.786  26.821  26.544  1.00  0.00     0.010 A 
ATOM     26  C   UNL A   1      41.478  25.973  28.705  1.00  0.00     0.010 A 
ATOM     27  C   UNL A   1      41.184  27.044  27.877  1.00  0.00    -0.014 A 
BRANCH  27  28
ATOM     28  C   UNL A   1      41.200  28.393  28.432  1.00  0.00     0.031 A 
ATOM     29  C   UNL A   1      42.381  29.200  28.027  1.00  0.00     0.074 A 
ATOM     30  C   UNL A   1      40.196  28.946  29.149  1.00  0.00     0.049 A 
ATOM     31  N   UNL A   1      43.388  29.518  28.768  1.00  0.00    -0.248 NA
ATOM     32  C   UNL A   1      42.547  29.557  26.609  1.00  0.00     0.031 C 
ATOM     33  C   UNL A   1      38.846  28.436  29.410  1.00  0.00     0.029 A 
ATOM     34  N   UNL A   1      40.172  30.161  29.764  1.00  0.00    -0.354 N 
ATOM     35  C   UNL A   1      44.236  30.277  27.970  1.00  0.00     0.074 A 
ATOM     36  C   UNL A   1      43.753  30.132  26.621  1.00  0.00     0.031 C 
ATOM     37  C   UNL A   1      38.075  29.418  29.928  1.00  0.00     0.029 A 
ATOM     38  C   UNL A   1      38.919  30.559  30.217  1.00  0.00     0.049 A 
ATOM     39  H   UNL A   1      40.978  30.714  29.879  1.00  0.00     0.167 HD
ATOM     40  C   UNL A   1      45.124  31.139  28.539  1.00  0.00     0.037 A 
ATOM     41  C   UNL A   1      38.605  31.743  30.802  1.00  0.00     0.037 A 
ATOM     42  C   UNL A   1      45.306  30.837  29.939  1.00  0.00     0.049 A 
ATOM     43  C   UNL A   1      39.865  32.311  31.337  1.00  0.00     0.074 A 
ATOM     44  C   UNL A   1      45.766  29.742  30.647  1.00  0.00     0.029 A 
ATOM     45  N   UNL A   1      44.617  31.600  30.850  1.00  0.00    -0.354 N 
ATOM     46  N   UNL A   1      40.524  31.795  32.335  1.00  0.00    -0.248 NA
ATOM     47  C   UNL A   1      40.628  33.189  30.467  1.00  0.00     0.031 C 
ATOM     48  C   UNL A   1      44.923  29.664  31.797  1.00  0.00     0.029 A 
ATOM     49  C   UNL A   1      44.049  30.752  31.764  1.00  0.00     0.049 A 
ATOM     50  H   UNL A   1      44.544  32.582  30.845  1.00  0.00     0.167 HD
ATOM     51  C   UNL A   1      41.855  31.908  31.966  1.00  0.00     0.074 A 
ATOM     52  C   UNL A   1      41.861  32.855  30.853  1.00  0.00     0.031 C 
ATOM     53  C   UNL A   1      42.783  31.008  32.409  1.00  0.00     0.037 A 
BRANCH  40  54
ATOM     54  C   UNL A   1      45.507  32.480  27.958  1.00  0.00     0.064 A 
ATOM     55  C   UNL A   1      44.491  33.426  27.709  1.00  0.00     0.173 A 
ATOM     56  C   UNL A   1      46.748  32.746  27.343  1.00  0.00     0.173 A 
ATOM     57  F   UNL A   1      43.268  33.273  28.240  1.00  0.00    -0.203 F 
ATOM     58  C   UNL A   1      44.675  34.492  26.825  1.00  0.00     0.198 A 
ATOM     59  C   UNL A   1      46.942  33.841  26.502  1.00  0.00     0.198 A 
ATOM     60  F   UNL A   1      47.787  31.908  27.430  1.00  0.00    -0.203 F 
ATOM     61  F   UNL A   1      43.639  35.280  26.511  1.00  0.00    -0.200 F 
ATOM     62  C   UNL A   1      45.897  34.691  26.213  1.00  0.00     0.200 A 
ATOM     63  F   UNL A   1      48.131  34.007  25.904  1.00  0.00    -0.200 F 
ATOM     64  F   UNL A   1      46.057  35.667  25.310  1.00  0.00    -0.200 F 
ENDBRANCH  40  54
BRANCH  41  65
ATOM     65  C   UNL A   1      37.373  32.554  30.667  1.00  0.00     0.064 A 
ATOM     66  C   UNL A   1      37.075  33.218  29.465  1.00  0.00     0.173 A 
ATOM     67  C   UNL A   1      36.320  32.432  31.593  1.00  0.00     0.173 A 
ATOM     68  F   UNL A   1      38.011  33.340  28.512  1.00  0.00    -0.203 F 
ATOM     69  C   UNL A   1      35.788  33.691  29.187  1.00  0.00     0.198 A 
ATOM     70  C   UNL A   1      35.037  32.907  31.316  1.00  0.00     0.198 A 
ATOM     71  F   UNL A   1      36.490  31.755  32.738  1.00  0.00    -0.203 F 
ATOM     72  F   UNL A   1      35.523  34.251  27.998  1.00  0.00    -0.200 F 
ATOM     73  C   UNL A   1      34.767  33.521  30.107  1.00  0.00     0.200 A 
ATOM     74  F   UNL A   1      34.047  32.701  32.196  1.00  0.00    -0.200 F 
ATOM     75  F   UNL A   1      33.517  33.907  29.811  1.00  0.00    -0.200 F 
ENDBRANCH  41  65
BRANCH  53  76
ATOM     76  C   UNL A   1      42.379  30.077  33.521  1.00  0.00     0.064 A 
ATOM     77  C   UNL A   1      41.883  28.775  33.331  1.00  0.00     0.173 A 
ATOM     78  C   UNL A   1      42.618  30.487  34.839  1.00  0.00     0.173 A 
ATOM     79  F   UNL A   1      41.717  28.269  32.104  1.00  0.00    -0.203 F 
ATOM     80  C   UNL A   1      41.598  27.945  34.416  1.00  0.00     0.198 A 
ATOM     81  C   UNL A   1      42.367  29.643  35.917  1.00  0.00     0.198 A 
ATOM     82  F   UNL A   1      43.137  31.702  35.082  1.00  0.00    -0.203 F 
ATOM     83  F   UNL A   1      41.108  26.712  34.210  1.00  0.00    -0.200 F 
ATOM     84  C   UNL A   1      41.847  28.377  35.707  1.00  0.00     0.200 A 
ATOM     85  F   UNL A   1      42.655  30.050  37.162  1.00  0.00    -0.200 F 
ATOM     86  F   UNL A   1      41.606  27.567  36.748  1.00  0.00    -0.200 F 
ENDBRANCH  53  76
ENDBRANCH  27  28
ENDBRANCH  19  22
ENDBRANCH   1  18
TORSDOF 10
ENDMDL
