MODEL 1
REMARK VINA RESULT:     -11.1      0.000      0.000
REMARK SMILES O=C(CC[C@]12C[C@H]3C[C@H](C[C@H](C3)C1)C2)NCCCNC(=O)c1ccc(-c2c3nc(c(-c4c(F)c(F)c(F)c(F)c4F)c4ccc([nH]4)c(-c4c(F)c(F)c(F)c(F)c4F)c4nc(c(-c5c(F)c(F)c(F)c(F)c5F)c5ccc2[nH]5)C=C4)C=C3)cc1
REMARK SMILES IDX 17 1 16 2 15 3 1 4 2 5 3 7 4 8 5 9 6 10 13 11 14 12 7 13
REMARK SMILES IDX 11 14 9 15 8 16 12 17 10 18 18 19 19 20 20 21 21 23 22 24
REMARK SMILES IDX 23 25 84 26 24 27 83 28 25 29 26 30 27 31 77 32 28 33 82 34
REMARK SMILES IDX 76 35 78 36 29 37 81 38 75 39 74 40 30 42 62 43 42 44 61 45
REMARK SMILES IDX 43 46 46 47 60 48 79 49 44 50 45 51 59 53 80 54 47 55 31 56
REMARK SMILES IDX 32 57 40 58 33 59 34 60 38 61 41 62 35 63 36 64 39 65 37 66
REMARK SMILES IDX 63 67 64 68 72 69 65 70 66 71 70 72 73 73 67 74 68 75 71 76
REMARK SMILES IDX 69 77 48 78 49 79 57 80 50 81 51 82 55 83 58 84 52 85 53 86
REMARK SMILES IDX 56 87 54 88
REMARK H PARENT 15 6 19 22 78 41 46 52
REMARK Flexibility Score: inf
ROOT
ATOM      1  C   UNL A   1      41.543  21.672  25.965  1.00  0.00     0.042 C 
ENDROOT
BRANCH   1   2
ATOM      2  C   UNL A   1      42.244  20.320  26.028  1.00  0.00     0.117 C 
BRANCH   2   3
ATOM      3  N   UNL A   1      43.684  20.414  26.136  1.00  0.00    -0.356 N 
ATOM      4  O   UNL A   1      44.052  19.574  24.034  1.00  0.00    -0.275 OA
ATOM      5  C   UNL A   1      44.480  20.116  25.049  1.00  0.00     0.220 C 
ATOM      6  H   UNL A   1      44.097  20.691  26.986  1.00  0.00     0.163 HD
BRANCH   5   7
ATOM      7  C   UNL A   1      45.916  20.584  25.180  1.00  0.00     0.100 C 
BRANCH   7   8
ATOM      8  C   UNL A   1      46.144  21.920  24.459  1.00  0.00     0.017 C 
BRANCH   8   9
ATOM      9  C   UNL A   1      45.745  23.244  25.195  1.00  0.00    -0.028 C 
ATOM     10  C   UNL A   1      44.337  23.695  24.715  1.00  0.00     0.010 C 
ATOM     11  C   UNL A   1      46.716  24.431  24.985  1.00  0.00     0.010 C 
ATOM     12  C   UNL A   1      45.651  22.980  26.725  1.00  0.00     0.010 C 
ATOM     13  C   UNL A   1      43.868  24.957  25.462  1.00  0.00    -0.010 C 
ATOM     14  C   UNL A   1      46.250  25.693  25.724  1.00  0.00    -0.010 C 
ATOM     15  C   UNL A   1      45.192  24.242  27.481  1.00  0.00    -0.010 C 
ATOM     16  C   UNL A   1      43.806  24.663  26.970  1.00  0.00     0.007 C 
ATOM     17  C   UNL A   1      44.865  26.097  25.211  1.00  0.00     0.007 C 
ATOM     18  C   UNL A   1      46.187  25.384  27.227  1.00  0.00     0.007 C 
ENDBRANCH   8   9
ENDBRANCH   7   8
ENDBRANCH   5   7
ENDBRANCH   2   3
ENDBRANCH   1   2
BRANCH   1  19
ATOM     19  C   UNL A   1      40.297  21.811  26.840  1.00  0.00     0.118 C 
BRANCH  19  20
ATOM     20  N   UNL A   1      39.133  22.349  26.151  1.00  0.00    -0.352 N 
ATOM     21  C   UNL A   1      38.675  23.649  26.116  1.00  0.00     0.251 C 
ATOM     22  H   UNL A   1      38.601  21.696  25.642  1.00  0.00     0.163 HD
ATOM     23  O   UNL A   1      37.646  23.935  25.513  1.00  0.00    -0.269 OA
BRANCH  21  24
ATOM     24  C   UNL A   1      39.404  24.702  26.857  1.00  0.00     0.039 A 
ATOM     25  C   UNL A   1      40.216  25.589  26.141  1.00  0.00     0.014 A 
ATOM     26  C   UNL A   1      39.252  24.849  28.238  1.00  0.00     0.014 A 
ATOM     27  C   UNL A   1      40.785  26.688  26.790  1.00  0.00     0.010 A 
ATOM     28  C   UNL A   1      39.783  25.969  28.875  1.00  0.00     0.010 A 
ATOM     29  C   UNL A   1      40.523  26.917  28.151  1.00  0.00    -0.014 A 
BRANCH  29  30
ATOM     30  C   UNL A   1      40.931  28.180  28.818  1.00  0.00     0.031 A 
ATOM     31  C   UNL A   1      42.316  28.345  29.368  1.00  0.00     0.074 A 
ATOM     32  C   UNL A   1      40.006  29.139  29.027  1.00  0.00     0.049 A 
ATOM     33  N   UNL A   1      42.802  29.306  30.112  1.00  0.00    -0.248 NA
ATOM     34  C   UNL A   1      43.277  27.278  29.055  1.00  0.00     0.031 C 
ATOM     35  C   UNL A   1      38.617  29.087  28.569  1.00  0.00     0.029 A 
ATOM     36  N   UNL A   1      40.087  30.333  29.702  1.00  0.00    -0.354 N 
ATOM     37  C   UNL A   1      44.119  28.953  30.372  1.00  0.00     0.074 A 
ATOM     38  C   UNL A   1      44.348  27.677  29.728  1.00  0.00     0.031 C 
ATOM     39  C   UNL A   1      37.977  30.194  28.975  1.00  0.00     0.029 A 
ATOM     40  C   UNL A   1      38.896  31.015  29.758  1.00  0.00     0.049 A 
ATOM     41  H   UNL A   1      40.919  30.667  30.108  1.00  0.00     0.167 HD
ATOM     42  C   UNL A   1      45.052  29.639  31.076  1.00  0.00     0.037 A 
ATOM     43  C   UNL A   1      38.573  32.161  30.387  1.00  0.00     0.037 A 
ATOM     44  C   UNL A   1      44.828  30.917  31.701  1.00  0.00     0.049 A 
ATOM     45  C   UNL A   1      39.623  32.893  31.176  1.00  0.00     0.074 A 
ATOM     46  C   UNL A   1      45.726  31.708  32.395  1.00  0.00     0.029 A 
ATOM     47  N   UNL A   1      43.615  31.592  31.707  1.00  0.00    -0.354 N 
ATOM     48  N   UNL A   1      40.878  32.572  31.377  1.00  0.00    -0.248 NA
ATOM     49  C   UNL A   1      39.214  34.147  31.824  1.00  0.00     0.031 C 
ATOM     50  C   UNL A   1      45.050  32.843  32.854  1.00  0.00     0.029 A 
ATOM     51  C   UNL A   1      43.740  32.781  32.409  1.00  0.00     0.049 A 
ATOM     52  H   UNL A   1      42.789  31.272  31.277  1.00  0.00     0.167 HD
ATOM     53  C   UNL A   1      41.415  33.597  32.143  1.00  0.00     0.074 A 
ATOM     54  C   UNL A   1      40.352  34.552  32.371  1.00  0.00     0.031 C 
ATOM     55  C   UNL A   1      42.679  33.733  32.610  1.00  0.00     0.037 A 
BRANCH  42  56
ATOM     56  C   UNL A   1      46.409  29.017  31.215  1.00  0.00     0.064 A 
ATOM     57  C   UNL A   1      46.723  28.172  32.289  1.00  0.00     0.173 A 
ATOM     58  C   UNL A   1      47.392  29.229  30.236  1.00  0.00     0.173 A 
ATOM     59  F   UNL A   1      45.820  27.945  33.255  1.00  0.00    -0.203 F 
ATOM     60  C   UNL A   1      47.980  27.582  32.393  1.00  0.00     0.198 A 
ATOM     61  C   UNL A   1      48.639  28.617  30.329  1.00  0.00     0.198 A 
ATOM     62  F   UNL A   1      47.139  30.023  29.184  1.00  0.00    -0.203 F 
ATOM     63  F   UNL A   1      48.271  26.811  33.449  1.00  0.00    -0.200 F 
ATOM     64  C   UNL A   1      48.935  27.799  31.410  1.00  0.00     0.200 A 
ATOM     65  F   UNL A   1      49.556  28.817  29.373  1.00  0.00    -0.200 F 
ATOM     66  F   UNL A   1      50.141  27.224  31.507  1.00  0.00    -0.200 F 
ENDBRANCH  42  56
BRANCH  43  67
ATOM     67  C   UNL A   1      37.191  32.694  30.288  1.00  0.00     0.064 A 
ATOM     68  C   UNL A   1      36.803  33.485  29.198  1.00  0.00     0.173 A 
ATOM     69  C   UNL A   1      36.230  32.424  31.274  1.00  0.00     0.173 A 
ATOM     70  F   UNL A   1      37.694  33.787  28.242  1.00  0.00    -0.203 F 
ATOM     71  C   UNL A   1      35.513  34.000  29.104  1.00  0.00     0.198 A 
ATOM     72  C   UNL A   1      34.932  32.918  31.167  1.00  0.00     0.198 A 
ATOM     73  F   UNL A   1      36.551  31.668  32.334  1.00  0.00    -0.203 F 
ATOM     74  F   UNL A   1      35.180  34.786  28.071  1.00  0.00    -0.200 F 
ATOM     75  C   UNL A   1      34.575  33.710  30.086  1.00  0.00     0.200 A 
ATOM     76  F   UNL A   1      34.027  32.626  32.110  1.00  0.00    -0.200 F 
ATOM     77  F   UNL A   1      33.333  34.202  29.993  1.00  0.00    -0.200 F 
ENDBRANCH  43  67
BRANCH  55  78
ATOM     78  C   UNL A   1      43.003  34.982  33.374  1.00  0.00     0.064 A 
ATOM     79  C   UNL A   1      43.409  36.157  32.726  1.00  0.00     0.173 A 
ATOM     80  C   UNL A   1      42.852  35.017  34.768  1.00  0.00     0.173 A 
ATOM     81  F   UNL A   1      43.584  36.168  31.396  1.00  0.00    -0.203 F 
ATOM     82  C   UNL A   1      43.662  37.320  33.449  1.00  0.00     0.198 A 
ATOM     83  C   UNL A   1      43.084  36.186  35.485  1.00  0.00     0.198 A 
ATOM     84  F   UNL A   1      42.463  33.918  35.434  1.00  0.00    -0.203 F 
ATOM     85  F   UNL A   1      44.079  38.424  32.813  1.00  0.00    -0.200 F 
ATOM     86  C   UNL A   1      43.491  37.336  34.826  1.00  0.00     0.200 A 
ATOM     87  F   UNL A   1      42.909  36.204  36.814  1.00  0.00    -0.200 F 
ATOM     88  F   UNL A   1      43.726  38.460  35.518  1.00  0.00    -0.200 F 
ENDBRANCH  55  78
ENDBRANCH  29  30
ENDBRANCH  21  24
ENDBRANCH  19  20
ENDBRANCH   1  19
TORSDOF 12
ENDMDL
MODEL 2
REMARK VINA RESULT:     -10.9      3.607     11.067
REMARK SMILES O=C(CC[C@]12C[C@H]3C[C@H](C[C@H](C3)C1)C2)NCCCNC(=O)c1ccc(-c2c3nc(c(-c4c(F)c(F)c(F)c(F)c4F)c4ccc([nH]4)c(-c4c(F)c(F)c(F)c(F)c4F)c4nc(c(-c5c(F)c(F)c(F)c(F)c5F)c5ccc2[nH]5)C=C4)C=C3)cc1
REMARK SMILES IDX 17 1 16 2 15 3 1 4 2 5 3 7 4 8 5 9 6 10 13 11 14 12 7 13
REMARK SMILES IDX 11 14 9 15 8 16 12 17 10 18 18 19 19 20 20 21 21 23 22 24
REMARK SMILES IDX 23 25 84 26 24 27 83 28 25 29 26 30 27 31 77 32 28 33 82 34
REMARK SMILES IDX 76 35 78 36 29 37 81 38 75 39 74 40 30 42 62 43 42 44 61 45
REMARK SMILES IDX 43 46 46 47 60 48 79 49 44 50 45 51 59 53 80 54 47 55 31 56
REMARK SMILES IDX 32 57 40 58 33 59 34 60 38 61 41 62 35 63 36 64 39 65 37 66
REMARK SMILES IDX 63 67 64 68 72 69 65 70 66 71 70 72 73 73 67 74 68 75 71 76
REMARK SMILES IDX 69 77 48 78 49 79 57 80 50 81 51 82 55 83 58 84 52 85 53 86
REMARK SMILES IDX 56 87 54 88
REMARK H PARENT 15 6 19 22 78 41 46 52
REMARK Flexibility Score: inf
ROOT
ATOM      1  C   UNL A   1      34.406  33.017  29.469  1.00  0.00     0.042 C 
ENDROOT
BRANCH   1   2
ATOM      2  C   UNL A   1      33.747  34.393  29.491  1.00  0.00     0.117 C 
BRANCH   2   3
ATOM      3  N   UNL A   1      34.270  35.273  30.513  1.00  0.00    -0.356 N 
ATOM      4  O   UNL A   1      32.444  35.029  31.878  1.00  0.00    -0.275 OA
ATOM      5  C   UNL A   1      33.588  35.435  31.702  1.00  0.00     0.220 C 
ATOM      6  H   UNL A   1      35.113  35.758  30.361  1.00  0.00     0.163 HD
BRANCH   5   7
ATOM      7  C   UNL A   1      34.400  36.090  32.802  1.00  0.00     0.100 C 
BRANCH   7   8
ATOM      8  C   UNL A   1      34.803  35.080  33.885  1.00  0.00     0.017 C 
BRANCH   8   9
ATOM      9  C   UNL A   1      35.947  34.058  33.566  1.00  0.00    -0.028 C 
ATOM     10  C   UNL A   1      36.933  34.692  32.545  1.00  0.00     0.010 C 
ATOM     11  C   UNL A   1      35.476  32.703  32.987  1.00  0.00     0.010 C 
ATOM     12  C   UNL A   1      36.752  33.758  34.863  1.00  0.00     0.010 C 
ATOM     13  C   UNL A   1      38.116  33.752  32.252  1.00  0.00    -0.010 C 
ATOM     14  C   UNL A   1      36.652  31.764  32.688  1.00  0.00    -0.010 C 
ATOM     15  C   UNL A   1      37.933  32.810  34.580  1.00  0.00    -0.010 C 
ATOM     16  C   UNL A   1      38.875  33.465  33.558  1.00  0.00     0.007 C 
ATOM     17  C   UNL A   1      37.587  32.432  31.675  1.00  0.00     0.007 C 
ATOM     18  C   UNL A   1      37.404  31.490  33.999  1.00  0.00     0.007 C 
ENDBRANCH   8   9
ENDBRANCH   7   8
ENDBRANCH   5   7
ENDBRANCH   2   3
ENDBRANCH   1   2
BRANCH   1  19
ATOM     19  C   UNL A   1      34.739  32.468  28.082  1.00  0.00     0.118 C 
BRANCH  19  20
ATOM     20  N   UNL A   1      34.181  31.153  27.803  1.00  0.00    -0.352 N 
ATOM     21  C   UNL A   1      34.775  29.916  27.941  1.00  0.00     0.251 C 
ATOM     22  H   UNL A   1      33.254  31.146  27.472  1.00  0.00     0.163 HD
ATOM     23  O   UNL A   1      34.175  28.895  27.625  1.00  0.00    -0.269 OA
BRANCH  21  24
ATOM     24  C   UNL A   1      36.170  29.824  28.425  1.00  0.00     0.039 A 
ATOM     25  C   UNL A   1      36.399  29.405  29.740  1.00  0.00     0.014 A 
ATOM     26  C   UNL A   1      37.247  30.099  27.579  1.00  0.00     0.014 A 
ATOM     27  C   UNL A   1      37.704  29.154  30.173  1.00  0.00     0.010 A 
ATOM     28  C   UNL A   1      38.544  29.806  27.996  1.00  0.00     0.010 A 
ATOM     29  C   UNL A   1      38.781  29.297  29.283  1.00  0.00    -0.014 A 
BRANCH  29  30
ATOM     30  C   UNL A   1      40.147  28.837  29.639  1.00  0.00     0.031 A 
ATOM     31  C   UNL A   1      41.081  29.725  30.407  1.00  0.00     0.074 A 
ATOM     32  C   UNL A   1      40.584  27.652  29.165  1.00  0.00     0.049 A 
ATOM     33  N   UNL A   1      42.352  29.558  30.671  1.00  0.00    -0.248 NA
ATOM     34  C   UNL A   1      40.514  30.976  30.929  1.00  0.00     0.031 C 
ATOM     35  C   UNL A   1      39.785  26.709  28.382  1.00  0.00     0.029 A 
ATOM     36  N   UNL A   1      41.816  27.050  29.251  1.00  0.00    -0.354 N 
ATOM     37  C   UNL A   1      42.743  30.688  31.375  1.00  0.00     0.074 A 
ATOM     38  C   UNL A   1      41.581  31.546  31.473  1.00  0.00     0.031 C 
ATOM     39  C   UNL A   1      40.544  25.651  28.058  1.00  0.00     0.029 A 
ATOM     40  C   UNL A   1      41.894  25.858  28.573  1.00  0.00     0.049 A 
ATOM     41  H   UNL A   1      42.572  27.436  29.750  1.00  0.00     0.167 HD
ATOM     42  C   UNL A   1      43.959  30.976  31.899  1.00  0.00     0.037 A 
ATOM     43  C   UNL A   1      42.940  25.034  28.368  1.00  0.00     0.037 A 
ATOM     44  C   UNL A   1      45.109  30.114  31.816  1.00  0.00     0.049 A 
ATOM     45  C   UNL A   1      44.282  25.386  28.946  1.00  0.00     0.074 A 
ATOM     46  C   UNL A   1      46.370  30.301  32.356  1.00  0.00     0.029 A 
ATOM     47  N   UNL A   1      45.139  28.898  31.148  1.00  0.00    -0.354 N 
ATOM     48  N   UNL A   1      44.629  26.437  29.649  1.00  0.00    -0.248 NA
ATOM     49  C   UNL A   1      45.379  24.438  28.704  1.00  0.00     0.031 C 
ATOM     50  C   UNL A   1      47.173  29.218  31.984  1.00  0.00     0.029 A 
ATOM     51  C   UNL A   1      46.401  28.334  31.248  1.00  0.00     0.049 A 
ATOM     52  H   UNL A   1      44.376  28.496  30.673  1.00  0.00     0.167 HD
ATOM     53  C   UNL A   1      45.969  26.260  29.961  1.00  0.00     0.074 A 
ATOM     54  C   UNL A   1      46.376  25.002  29.373  1.00  0.00     0.031 C 
ATOM     55  C   UNL A   1      46.787  27.070  30.676  1.00  0.00     0.037 A 
BRANCH  42  56
ATOM     56  C   UNL A   1      44.114  32.287  32.609  1.00  0.00     0.064 A 
ATOM     57  C   UNL A   1      43.868  32.411  33.984  1.00  0.00     0.173 A 
ATOM     58  C   UNL A   1      44.561  33.423  31.917  1.00  0.00     0.173 A 
ATOM     59  F   UNL A   1      43.431  31.356  34.689  1.00  0.00    -0.203 F 
ATOM     60  C   UNL A   1      44.039  33.630  34.636  1.00  0.00     0.198 A 
ATOM     61  C   UNL A   1      44.756  34.634  32.577  1.00  0.00     0.198 A 
ATOM     62  F   UNL A   1      44.818  33.356  30.602  1.00  0.00    -0.203 F 
ATOM     63  F   UNL A   1      43.759  33.734  35.942  1.00  0.00    -0.200 F 
ATOM     64  C   UNL A   1      44.489  34.738  33.933  1.00  0.00     0.200 A 
ATOM     65  F   UNL A   1      45.202  35.700  31.899  1.00  0.00    -0.200 F 
ATOM     66  F   UNL A   1      44.661  35.908  34.564  1.00  0.00    -0.200 F 
ENDBRANCH  42  56
BRANCH  43  67
ATOM     67  C   UNL A   1      42.755  23.786  27.586  1.00  0.00     0.064 A 
ATOM     68  C   UNL A   1      43.068  23.742  26.221  1.00  0.00     0.173 A 
ATOM     69  C   UNL A   1      42.265  22.614  28.183  1.00  0.00     0.173 A 
ATOM     70  F   UNL A   1      43.519  24.844  25.603  1.00  0.00    -0.203 F 
ATOM     71  C   UNL A   1      42.884  22.579  25.477  1.00  0.00     0.198 A 
ATOM     72  C   UNL A   1      42.105  21.444  27.443  1.00  0.00     0.198 A 
ATOM     73  F   UNL A   1      41.955  22.605  29.488  1.00  0.00    -0.203 F 
ATOM     74  F   UNL A   1      43.154  22.576  24.165  1.00  0.00    -0.200 F 
ATOM     75  C   UNL A   1      42.408  21.429  26.090  1.00  0.00     0.200 A 
ATOM     76  F   UNL A   1      41.657  20.333  28.042  1.00  0.00    -0.200 F 
ATOM     77  F   UNL A   1      42.236  20.309  25.376  1.00  0.00    -0.200 F 
ENDBRANCH  43  67
BRANCH  55  78
ATOM     78  C   UNL A   1      48.193  26.602  30.910  1.00  0.00     0.064 A 
ATOM     79  C   UNL A   1      48.511  25.719  31.951  1.00  0.00     0.173 A 
ATOM     80  C   UNL A   1      49.223  27.002  30.046  1.00  0.00     0.173 A 
ATOM     81  F   UNL A   1      47.562  25.322  32.813  1.00  0.00    -0.203 F 
ATOM     82  C   UNL A   1      49.814  25.260  32.123  1.00  0.00     0.198 A 
ATOM     83  C   UNL A   1      50.519  26.524  30.207  1.00  0.00     0.198 A 
ATOM     84  F   UNL A   1      48.966  27.845  29.033  1.00  0.00    -0.203 F 
ATOM     85  F   UNL A   1      50.104  24.440  33.144  1.00  0.00    -0.200 F 
ATOM     86  C   UNL A   1      50.815  25.656  31.248  1.00  0.00     0.200 A 
ATOM     87  F   UNL A   1      51.482  26.899  29.355  1.00  0.00    -0.200 F 
ATOM     88  F   UNL A   1      52.066  25.205  31.410  1.00  0.00    -0.200 F 
ENDBRANCH  55  78
ENDBRANCH  29  30
ENDBRANCH  21  24
ENDBRANCH  19  20
ENDBRANCH   1  19
TORSDOF 12
ENDMDL
MODEL 3
REMARK VINA RESULT:     -10.9      3.579     11.034
REMARK SMILES O=C(CC[C@]12C[C@H]3C[C@H](C[C@H](C3)C1)C2)NCCCNC(=O)c1ccc(-c2c3nc(c(-c4c(F)c(F)c(F)c(F)c4F)c4ccc([nH]4)c(-c4c(F)c(F)c(F)c(F)c4F)c4nc(c(-c5c(F)c(F)c(F)c(F)c5F)c5ccc2[nH]5)C=C4)C=C3)cc1
REMARK SMILES IDX 17 1 16 2 15 3 1 4 2 5 3 7 4 8 5 9 6 10 13 11 14 12 7 13
REMARK SMILES IDX 11 14 9 15 8 16 12 17 10 18 18 19 19 20 20 21 21 23 22 24
REMARK SMILES IDX 23 25 84 26 24 27 83 28 25 29 26 30 27 31 77 32 28 33 82 34
REMARK SMILES IDX 76 35 78 36 29 37 81 38 75 39 74 40 30 42 62 43 42 44 61 45
REMARK SMILES IDX 43 46 46 47 60 48 79 49 44 50 45 51 59 53 80 54 47 55 31 56
REMARK SMILES IDX 32 57 40 58 33 59 34 60 38 61 41 62 35 63 36 64 39 65 37 66
REMARK SMILES IDX 63 67 64 68 72 69 65 70 66 71 70 72 73 73 67 74 68 75 71 76
REMARK SMILES IDX 69 77 48 78 49 79 57 80 50 81 51 82 55 83 58 84 52 85 53 86
REMARK SMILES IDX 56 87 54 88
REMARK H PARENT 15 6 19 22 78 41 46 52
REMARK Flexibility Score: inf
ROOT
ATOM      1  C   UNL A   1      34.502  32.972  29.436  1.00  0.00     0.042 C 
ENDROOT
BRANCH   1   2
ATOM      2  C   UNL A   1      33.857  34.352  29.507  1.00  0.00     0.117 C 
BRANCH   2   3
ATOM      3  N   UNL A   1      34.396  35.194  30.553  1.00  0.00    -0.356 N 
ATOM      4  O   UNL A   1      32.508  35.060  31.848  1.00  0.00    -0.275 OA
ATOM      5  C   UNL A   1      33.682  35.394  31.717  1.00  0.00     0.220 C 
ATOM      6  H   UNL A   1      35.274  35.625  30.436  1.00  0.00     0.163 HD
BRANCH   5   7
ATOM      7  C   UNL A   1      34.491  35.992  32.851  1.00  0.00     0.100 C 
BRANCH   7   8
ATOM      8  C   UNL A   1      34.843  34.940  33.911  1.00  0.00     0.017 C 
BRANCH   8   9
ATOM      9  C   UNL A   1      36.063  33.992  33.648  1.00  0.00    -0.028 C 
ATOM     10  C   UNL A   1      35.557  32.667  33.013  1.00  0.00     0.010 C 
ATOM     11  C   UNL A   1      36.893  33.626  34.902  1.00  0.00     0.010 C 
ATOM     12  C   UNL A   1      37.027  34.659  32.626  1.00  0.00     0.010 C 
ATOM     13  C   UNL A   1      36.728  31.728  32.670  1.00  0.00    -0.010 C 
ATOM     14  C   UNL A   1      38.058  32.687  34.567  1.00  0.00    -0.010 C 
ATOM     15  C   UNL A   1      38.207  33.729  32.286  1.00  0.00    -0.010 C 
ATOM     16  C   UNL A   1      37.667  32.428  31.674  1.00  0.00     0.007 C 
ATOM     17  C   UNL A   1      37.507  31.397  33.951  1.00  0.00     0.007 C 
ATOM     18  C   UNL A   1      38.985  33.394  33.567  1.00  0.00     0.007 C 
ENDBRANCH   8   9
ENDBRANCH   7   8
ENDBRANCH   5   7
ENDBRANCH   2   3
ENDBRANCH   1   2
BRANCH   1  19
ATOM     19  C   UNL A   1      34.797  32.453  28.029  1.00  0.00     0.118 C 
BRANCH  19  20
ATOM     20  N   UNL A   1      34.259  31.131  27.747  1.00  0.00    -0.352 N 
ATOM     21  C   UNL A   1      34.873  29.903  27.879  1.00  0.00     0.251 C 
ATOM     22  H   UNL A   1      33.331  31.110  27.419  1.00  0.00     0.163 HD
ATOM     23  O   UNL A   1      34.287  28.873  27.561  1.00  0.00    -0.269 OA
BRANCH  21  24
ATOM     24  C   UNL A   1      36.270  29.830  28.359  1.00  0.00     0.039 A 
ATOM     25  C   UNL A   1      36.509  29.405  29.670  1.00  0.00     0.014 A 
ATOM     26  C   UNL A   1      37.340  30.130  27.512  1.00  0.00     0.014 A 
ATOM     27  C   UNL A   1      37.820  29.173  30.097  1.00  0.00     0.010 A 
ATOM     28  C   UNL A   1      38.643  29.856  27.923  1.00  0.00     0.010 A 
ATOM     29  C   UNL A   1      38.892  29.341  29.206  1.00  0.00    -0.014 A 
BRANCH  29  30
ATOM     30  C   UNL A   1      40.267  28.901  29.555  1.00  0.00     0.031 A 
ATOM     31  C   UNL A   1      41.195  29.807  30.307  1.00  0.00     0.074 A 
ATOM     32  C   UNL A   1      40.715  27.718  29.087  1.00  0.00     0.049 A 
ATOM     33  N   UNL A   1      42.470  29.659  30.563  1.00  0.00    -0.248 NA
ATOM     34  C   UNL A   1      40.617  31.056  30.824  1.00  0.00     0.031 C 
ATOM     35  C   UNL A   1      39.922  26.759  28.318  1.00  0.00     0.029 A 
ATOM     36  N   UNL A   1      41.955  27.133  29.168  1.00  0.00    -0.354 N 
ATOM     37  C   UNL A   1      42.852  30.800  31.254  1.00  0.00     0.074 A 
ATOM     38  C   UNL A   1      41.680  31.644  31.354  1.00  0.00     0.031 C 
ATOM     39  C   UNL A   1      40.692  25.707  27.997  1.00  0.00     0.029 A 
ATOM     40  C   UNL A   1      42.043  25.936  28.499  1.00  0.00     0.049 A 
ATOM     41  H   UNL A   1      42.710  27.533  29.658  1.00  0.00     0.167 HD
ATOM     42  C   UNL A   1      44.069  31.108  31.766  1.00  0.00     0.037 A 
ATOM     43  C   UNL A   1      43.097  25.123  28.293  1.00  0.00     0.037 A 
ATOM     44  C   UNL A   1      45.229  30.259  31.681  1.00  0.00     0.049 A 
ATOM     45  C   UNL A   1      44.440  25.497  28.858  1.00  0.00     0.074 A 
ATOM     46  C   UNL A   1      46.491  30.467  32.210  1.00  0.00     0.029 A 
ATOM     47  N   UNL A   1      45.269  29.038  31.023  1.00  0.00    -0.354 N 
ATOM     48  N   UNL A   1      44.779  26.558  29.549  1.00  0.00    -0.248 NA
ATOM     49  C   UNL A   1      45.547  24.561  28.615  1.00  0.00     0.031 C 
ATOM     50  C   UNL A   1      47.306  29.391  31.840  1.00  0.00     0.029 A 
ATOM     51  C   UNL A   1      46.539  28.492  31.118  1.00  0.00     0.049 A 
ATOM     52  H   UNL A   1      44.508  28.623  30.557  1.00  0.00     0.167 HD
ATOM     53  C   UNL A   1      46.124  26.401  29.852  1.00  0.00     0.074 A 
ATOM     54  C   UNL A   1      46.542  25.144  29.271  1.00  0.00     0.031 C 
ATOM     55  C   UNL A   1      46.936  27.228  30.553  1.00  0.00     0.037 A 
BRANCH  42  56
ATOM     56  C   UNL A   1      44.212  32.427  32.464  1.00  0.00     0.064 A 
ATOM     57  C   UNL A   1      44.587  33.587  31.772  1.00  0.00     0.173 A 
ATOM     58  C   UNL A   1      43.924  32.542  33.833  1.00  0.00     0.173 A 
ATOM     59  F   UNL A   1      44.882  33.526  30.464  1.00  0.00    -0.203 F 
ATOM     60  C   UNL A   1      44.693  34.811  32.428  1.00  0.00     0.198 A 
ATOM     61  C   UNL A   1      44.005  33.772  34.480  1.00  0.00     0.198 A 
ATOM     62  F   UNL A   1      43.553  31.464  34.539  1.00  0.00    -0.203 F 
ATOM     63  F   UNL A   1      45.092  35.898  31.754  1.00  0.00    -0.200 F 
ATOM     64  C   UNL A   1      44.395  34.904  33.779  1.00  0.00     0.200 A 
ATOM     65  F   UNL A   1      43.706  33.864  35.783  1.00  0.00    -0.200 F 
ATOM     66  F   UNL A   1      44.490  36.084  34.408  1.00  0.00    -0.200 F 
ENDBRANCH  42  56
BRANCH  43  67
ATOM     67  C   UNL A   1      42.922  23.867  27.523  1.00  0.00     0.064 A 
ATOM     68  C   UNL A   1      43.197  23.823  26.150  1.00  0.00     0.173 A 
ATOM     69  C   UNL A   1      42.480  22.686  28.139  1.00  0.00     0.173 A 
ATOM     70  F   UNL A   1      43.601  24.932  25.514  1.00  0.00    -0.203 F 
ATOM     71  C   UNL A   1      43.022  22.651  25.417  1.00  0.00     0.198 A 
ATOM     72  C   UNL A   1      42.329  21.508  27.411  1.00  0.00     0.198 A 
ATOM     73  F   UNL A   1      42.208  22.676  29.453  1.00  0.00    -0.203 F 
ATOM     74  F   UNL A   1      43.254  22.648  24.097  1.00  0.00    -0.200 F 
ATOM     75  C   UNL A   1      42.594  21.493  26.050  1.00  0.00     0.200 A 
ATOM     76  F   UNL A   1      41.928  20.389  28.028  1.00  0.00    -0.200 F 
ATOM     77  F   UNL A   1      42.430  20.365  25.346  1.00  0.00    -0.200 F 
ENDBRANCH  43  67
BRANCH  55  78
ATOM     78  C   UNL A   1      48.350  26.780  30.780  1.00  0.00     0.064 A 
ATOM     79  C   UNL A   1      49.391  27.170  29.926  1.00  0.00     0.173 A 
ATOM     80  C   UNL A   1      48.671  25.995  31.897  1.00  0.00     0.173 A 
ATOM     81  F   UNL A   1      49.130  27.906  28.836  1.00  0.00    -0.203 F 
ATOM     82  C   UNL A   1      50.704  26.781  30.179  1.00  0.00     0.198 A 
ATOM     83  C   UNL A   1      49.987  25.628  32.159  1.00  0.00     0.198 A 
ATOM     84  F   UNL A   1      47.709  25.599  32.744  1.00  0.00    -0.203 F 
ATOM     85  F   UNL A   1      51.682  27.139  29.334  1.00  0.00    -0.200 F 
ATOM     86  C   UNL A   1      51.002  26.018  31.299  1.00  0.00     0.200 A 
ATOM     87  F   UNL A   1      50.275  24.899  33.246  1.00  0.00    -0.200 F 
ATOM     88  F   UNL A   1      52.268  25.654  31.545  1.00  0.00    -0.200 F 
ENDBRANCH  55  78
ENDBRANCH  29  30
ENDBRANCH  21  24
ENDBRANCH  19  20
ENDBRANCH   1  19
TORSDOF 12
ENDMDL
