MODEL 1
REMARK VINA RESULT:     -11.7      0.000      0.000
REMARK SMILES COc1cc([C@H]([NH3+])C(=O)NCCCNC(=O)c2ccc(-c3c4nc(c(-c5c(F)c(F)c(F)c(F)c5F)c5ccc([nH]5)c(-c5c(F)c(F)c(F)c(F)c5F)c5nc(c(-c6c(F)c(F)c(F)c(F)c6F)c6ccc3[nH]6)C=C5)C=C4)cc2)cc(I)c1OC
REMARK SMILES IDX 12 1 11 2 10 3 8 4 9 5 6 7 5 8 3 9 4 10 83 11 81 12 80 13
REMARK SMILES IDX 82 14 2 15 1 16 84 17 85 18 7 19 13 23 14 24 15 25 16 27
REMARK SMILES IDX 17 28 18 29 79 30 19 31 78 32 20 33 21 34 22 35 72 36 23 37
REMARK SMILES IDX 77 38 71 39 73 40 24 41 76 42 70 43 69 44 25 46 57 47 37 48
REMARK SMILES IDX 56 49 38 50 41 51 55 52 74 53 39 54 40 55 54 57 75 58 42 59
REMARK SMILES IDX 26 60 27 61 35 62 28 63 29 64 33 65 36 66 30 67 31 68 34 69
REMARK SMILES IDX 32 70 58 71 59 72 67 73 60 74 61 75 65 76 68 77 62 78 63 79
REMARK SMILES IDX 66 80 64 81 43 82 44 83 52 84 45 85 46 86 50 87 53 88 47 89
REMARK SMILES IDX 48 90 51 91 49 92
REMARK H PARENT 10 6 7 20 7 21 7 22 14 26 73 45 41 56
REMARK Flexibility Score: inf
ROOT
ATOM      1  C   UNL A   1      31.475  32.079  26.560  1.00  0.00     0.042 C 
ENDROOT
BRANCH   1   2
ATOM      2  C   UNL A   1      31.704  30.608  26.271  1.00  0.00     0.118 C 
BRANCH   2   3
ATOM      3  N   UNL A   1      32.919  30.100  26.886  1.00  0.00    -0.351 N 
ATOM      4  C   UNL A   1      33.740  29.072  26.502  1.00  0.00     0.283 C 
ATOM      5  O   UNL A   1      34.814  28.963  27.102  1.00  0.00    -0.268 OA
ATOM      6  H   UNL A   1      33.195  30.567  27.707  1.00  0.00     0.163 HD
BRANCH   4   7
ATOM      7  C   UNL A   1      33.345  28.091  25.366  1.00  0.00     0.302 C 
BRANCH   7   8
ATOM      8  C   UNL A   1      33.401  26.605  25.718  1.00  0.00     0.024 A 
ATOM      9  C   UNL A   1      32.322  24.612  26.609  1.00  0.00     0.162 A 
ATOM     10  C   UNL A   1      32.320  25.992  26.356  1.00  0.00     0.061 A 
ATOM     11  C   UNL A   1      33.406  23.783  26.218  1.00  0.00     0.174 A 
ATOM     12  C   UNL A   1      34.516  24.403  25.634  1.00  0.00     0.059 A 
ATOM     13  C   UNL A   1      34.518  25.802  25.453  1.00  0.00     0.029 A 
ATOM     14  I   UNL A   1      36.286  23.510  24.898  1.00  0.00    -0.040 I 
BRANCH   9  15
ATOM     15  O   UNL A   1      31.304  24.002  27.310  1.00  0.00    -0.493 OA
ATOM     16  C   UNL A   1      30.112  23.733  26.584  1.00  0.00     0.278 C 
ENDBRANCH   9  15
BRANCH  11  17
ATOM     17  O   UNL A   1      33.167  22.468  26.501  1.00  0.00    -0.492 OA
ATOM     18  C   UNL A   1      33.891  21.745  27.472  1.00  0.00     0.278 C 
ENDBRANCH  11  17
ENDBRANCH   7   8
BRANCH   7  19
ATOM     19  N   UNL A   1      34.138  28.424  24.160  1.00  0.00    -0.343 N 
ATOM     20  H   UNL A   1      33.640  28.106  23.327  1.00  0.00     0.345 HD
ATOM     21  H   UNL A   1      35.046  27.961  24.211  1.00  0.00     0.345 HD
ATOM     22  H   UNL A   1      34.273  29.433  24.109  1.00  0.00     0.345 HD
ENDBRANCH   7  19
ENDBRANCH   4   7
ENDBRANCH   2   3
ENDBRANCH   1   2
BRANCH   1  23
ATOM     23  C   UNL A   1      32.610  32.725  27.339  1.00  0.00     0.118 C 
BRANCH  23  24
ATOM     24  N   UNL A   1      32.375  34.134  27.634  1.00  0.00    -0.352 N 
ATOM     25  C   UNL A   1      32.964  34.952  28.565  1.00  0.00     0.251 C 
ATOM     26  H   UNL A   1      31.686  34.565  27.079  1.00  0.00     0.163 HD
ATOM     27  O   UNL A   1      32.507  36.073  28.773  1.00  0.00    -0.269 OA
BRANCH  25  28
ATOM     28  C   UNL A   1      34.127  34.475  29.341  1.00  0.00     0.039 A 
ATOM     29  C   UNL A   1      33.915  33.913  30.601  1.00  0.00     0.014 A 
ATOM     30  C   UNL A   1      35.420  34.563  28.821  1.00  0.00     0.014 A 
ATOM     31  C   UNL A   1      34.990  33.367  31.301  1.00  0.00     0.010 A 
ATOM     32  C   UNL A   1      36.470  33.921  29.467  1.00  0.00     0.010 A 
ATOM     33  C   UNL A   1      36.268  33.320  30.717  1.00  0.00    -0.014 A 
BRANCH  33  34
ATOM     34  C   UNL A   1      37.394  32.631  31.396  1.00  0.00     0.031 A 
ATOM     35  C   UNL A   1      38.088  31.473  30.738  1.00  0.00     0.074 A 
ATOM     36  C   UNL A   1      37.748  33.017  32.637  1.00  0.00     0.049 A 
ATOM     37  N   UNL A   1      39.078  30.741  31.184  1.00  0.00    -0.248 NA
ATOM     38  C   UNL A   1      37.586  31.059  29.419  1.00  0.00     0.031 C 
ATOM     39  C   UNL A   1      37.098  34.077  33.410  1.00  0.00     0.029 A 
ATOM     40  N   UNL A   1      38.738  32.560  33.470  1.00  0.00    -0.354 N 
ATOM     41  C   UNL A   1      39.305  29.778  30.210  1.00  0.00     0.074 A 
ATOM     42  C   UNL A   1      38.308  29.976  29.180  1.00  0.00     0.031 C 
ATOM     43  C   UNL A   1      37.729  34.216  34.586  1.00  0.00     0.029 A 
ATOM     44  C   UNL A   1      38.800  33.227  34.669  1.00  0.00     0.049 A 
ATOM     45  H   UNL A   1      39.346  31.823  33.231  1.00  0.00     0.167 HD
ATOM     46  C   UNL A   1      40.274  28.834  30.164  1.00  0.00     0.037 A 
ATOM     47  C   UNL A   1      39.627  33.060  35.718  1.00  0.00     0.037 A 
ATOM     48  C   UNL A   1      41.273  28.656  31.186  1.00  0.00     0.049 A 
ATOM     49  C   UNL A   1      40.700  32.011  35.641  1.00  0.00     0.074 A 
ATOM     50  C   UNL A   1      42.345  27.781  31.201  1.00  0.00     0.029 A 
ATOM     51  N   UNL A   1      41.315  29.360  32.381  1.00  0.00    -0.354 N 
ATOM     52  N   UNL A   1      40.968  31.170  34.671  1.00  0.00    -0.248 NA
ATOM     53  C   UNL A   1      41.593  31.894  36.800  1.00  0.00     0.031 C 
ATOM     54  C   UNL A   1      42.997  27.911  32.432  1.00  0.00     0.029 A 
ATOM     55  C   UNL A   1      42.373  28.913  33.158  1.00  0.00     0.049 A 
ATOM     56  H   UNL A   1      40.685  30.071  32.640  1.00  0.00     0.167 HD
ATOM     57  C   UNL A   1      42.069  30.438  35.093  1.00  0.00     0.074 A 
ATOM     58  C   UNL A   1      42.436  30.953  36.396  1.00  0.00     0.031 C 
ATOM     59  C   UNL A   1      42.717  29.428  34.459  1.00  0.00     0.037 A 
BRANCH  46  60
ATOM     60  C   UNL A   1      40.295  27.917  28.973  1.00  0.00     0.064 A 
ATOM     61  C   UNL A   1      41.031  28.220  27.817  1.00  0.00     0.173 A 
ATOM     62  C   UNL A   1      39.585  26.707  28.995  1.00  0.00     0.173 A 
ATOM     63  F   UNL A   1      41.721  29.369  27.736  1.00  0.00    -0.203 F 
ATOM     64  C   UNL A   1      41.025  27.367  26.716  1.00  0.00     0.198 A 
ATOM     65  C   UNL A   1      39.610  25.839  27.905  1.00  0.00     0.198 A 
ATOM     66  F   UNL A   1      38.867  26.362  30.075  1.00  0.00    -0.203 F 
ATOM     67  F   UNL A   1      41.686  27.710  25.602  1.00  0.00    -0.200 F 
ATOM     68  C   UNL A   1      40.320  26.174  26.763  1.00  0.00     0.200 A 
ATOM     69  F   UNL A   1      38.940  24.679  27.960  1.00  0.00    -0.200 F 
ATOM     70  F   UNL A   1      40.319  25.352  25.706  1.00  0.00    -0.200 F 
ENDBRANCH  46  60
BRANCH  47  71
ATOM     71  C   UNL A   1      39.484  33.930  36.916  1.00  0.00     0.064 A 
ATOM     72  C   UNL A   1      40.074  35.200  36.961  1.00  0.00     0.173 A 
ATOM     73  C   UNL A   1      38.741  33.516  38.032  1.00  0.00     0.173 A 
ATOM     74  F   UNL A   1      40.808  35.635  35.927  1.00  0.00    -0.203 F 
ATOM     75  C   UNL A   1      39.942  36.016  38.083  1.00  0.00     0.198 A 
ATOM     76  C   UNL A   1      38.584  34.345  39.140  1.00  0.00     0.198 A 
ATOM     77  F   UNL A   1      38.149  32.312  38.035  1.00  0.00    -0.203 F 
ATOM     78  F   UNL A   1      40.552  37.209  38.118  1.00  0.00    -0.200 F 
ATOM     79  C   UNL A   1      39.191  35.591  39.169  1.00  0.00     0.200 A 
ATOM     80  F   UNL A   1      37.841  33.937  40.178  1.00  0.00    -0.200 F 
ATOM     81  F   UNL A   1      39.054  36.380  40.243  1.00  0.00    -0.200 F 
ENDBRANCH  47  71
BRANCH  59  82
ATOM     82  C   UNL A   1      43.901  28.827  35.164  1.00  0.00     0.064 A 
ATOM     83  C   UNL A   1      45.199  29.325  34.983  1.00  0.00     0.173 A 
ATOM     84  C   UNL A   1      43.728  27.752  36.051  1.00  0.00     0.173 A 
ATOM     85  F   UNL A   1      45.420  30.341  34.135  1.00  0.00    -0.203 F 
ATOM     86  C   UNL A   1      46.286  28.747  35.634  1.00  0.00     0.198 A 
ATOM     87  C   UNL A   1      44.813  27.202  36.729  1.00  0.00     0.198 A 
ATOM     88  F   UNL A   1      42.507  27.243  36.269  1.00  0.00    -0.203 F 
ATOM     89  F   UNL A   1      47.524  29.199  35.396  1.00  0.00    -0.200 F 
ATOM     90  C   UNL A   1      46.091  27.691  36.511  1.00  0.00     0.200 A 
ATOM     91  F   UNL A   1      44.619  26.192  37.589  1.00  0.00    -0.200 F 
ATOM     92  F   UNL A   1      47.138  27.139  37.140  1.00  0.00    -0.200 F 
ENDBRANCH  59  82
ENDBRANCH  33  34
ENDBRANCH  25  28
ENDBRANCH  23  24
ENDBRANCH   1  23
TORSDOF 14
ENDMDL
MODEL 2
REMARK VINA RESULT:     -11.7      0.099      1.632
REMARK SMILES COc1cc([C@H]([NH3+])C(=O)NCCCNC(=O)c2ccc(-c3c4nc(c(-c5c(F)c(F)c(F)c(F)c5F)c5ccc([nH]5)c(-c5c(F)c(F)c(F)c(F)c5F)c5nc(c(-c6c(F)c(F)c(F)c(F)c6F)c6ccc3[nH]6)C=C5)C=C4)cc2)cc(I)c1OC
REMARK SMILES IDX 12 1 11 2 10 3 8 4 9 5 6 7 5 8 3 9 4 10 83 11 81 12 80 13
REMARK SMILES IDX 82 14 2 15 1 16 84 17 85 18 7 19 13 23 14 24 15 25 16 27
REMARK SMILES IDX 17 28 18 29 79 30 19 31 78 32 20 33 21 34 22 35 72 36 23 37
REMARK SMILES IDX 77 38 71 39 73 40 24 41 76 42 70 43 69 44 25 46 57 47 37 48
REMARK SMILES IDX 56 49 38 50 41 51 55 52 74 53 39 54 40 55 54 57 75 58 42 59
REMARK SMILES IDX 26 60 27 61 35 62 28 63 29 64 33 65 36 66 30 67 31 68 34 69
REMARK SMILES IDX 32 70 58 71 59 72 67 73 60 74 61 75 65 76 68 77 62 78 63 79
REMARK SMILES IDX 66 80 64 81 43 82 44 83 52 84 45 85 46 86 50 87 53 88 47 89
REMARK SMILES IDX 48 90 51 91 49 92
REMARK H PARENT 10 6 7 20 7 21 7 22 14 26 73 45 41 56
REMARK Flexibility Score: inf
ROOT
ATOM      1  C   UNL A   1      31.452  32.113  26.654  1.00  0.00     0.042 C 
ENDROOT
BRANCH   1   2
ATOM      2  C   UNL A   1      31.753  30.697  26.204  1.00  0.00     0.118 C 
BRANCH   2   3
ATOM      3  N   UNL A   1      32.945  30.152  26.831  1.00  0.00    -0.351 N 
ATOM      4  C   UNL A   1      33.730  29.091  26.463  1.00  0.00     0.283 C 
ATOM      5  O   UNL A   1      34.797  28.950  27.070  1.00  0.00    -0.268 OA
ATOM      6  H   UNL A   1      33.234  30.618  27.649  1.00  0.00     0.163 HD
BRANCH   4   7
ATOM      7  C   UNL A   1      33.307  28.112  25.335  1.00  0.00     0.302 C 
BRANCH   7   8
ATOM      8  C   UNL A   1      33.350  26.627  25.690  1.00  0.00     0.024 A 
ATOM      9  C   UNL A   1      32.247  24.640  26.568  1.00  0.00     0.162 A 
ATOM     10  C   UNL A   1      32.256  26.020  26.313  1.00  0.00     0.061 A 
ATOM     11  C   UNL A   1      33.333  23.805  26.194  1.00  0.00     0.174 A 
ATOM     12  C   UNL A   1      34.455  24.418  25.627  1.00  0.00     0.059 A 
ATOM     13  C   UNL A   1      34.466  25.817  25.443  1.00  0.00     0.029 A 
ATOM     14  I   UNL A   1      36.231  23.515  24.919  1.00  0.00    -0.040 I 
BRANCH   9  15
ATOM     15  O   UNL A   1      31.215  24.037  27.255  1.00  0.00    -0.493 OA
ATOM     16  C   UNL A   1      29.968  23.959  26.577  1.00  0.00     0.278 C 
ENDBRANCH   9  15
BRANCH  11  17
ATOM     17  O   UNL A   1      33.083  22.492  26.476  1.00  0.00    -0.492 OA
ATOM     18  C   UNL A   1      33.752  21.782  27.494  1.00  0.00     0.278 C 
ENDBRANCH  11  17
ENDBRANCH   7   8
BRANCH   7  19
ATOM     19  N   UNL A   1      34.085  28.433  24.117  1.00  0.00    -0.343 N 
ATOM     20  H   UNL A   1      33.857  27.763  23.381  1.00  0.00     0.345 HD
ATOM     21  H   UNL A   1      35.082  28.380  24.326  1.00  0.00     0.345 HD
ATOM     22  H   UNL A   1      33.853  29.374  23.802  1.00  0.00     0.345 HD
ENDBRANCH   7  19
ENDBRANCH   4   7
ENDBRANCH   2   3
ENDBRANCH   1   2
BRANCH   1  23
ATOM     23  C   UNL A   1      32.624  32.786  27.351  1.00  0.00     0.118 C 
BRANCH  23  24
ATOM     24  N   UNL A   1      32.375  34.189  27.665  1.00  0.00    -0.352 N 
ATOM     25  C   UNL A   1      32.953  34.998  28.611  1.00  0.00     0.251 C 
ATOM     26  H   UNL A   1      31.684  34.623  27.113  1.00  0.00     0.163 HD
ATOM     27  O   UNL A   1      32.485  36.113  28.833  1.00  0.00    -0.269 OA
BRANCH  25  28
ATOM     28  C   UNL A   1      34.117  34.520  29.385  1.00  0.00     0.039 A 
ATOM     29  C   UNL A   1      33.912  34.010  30.668  1.00  0.00     0.014 A 
ATOM     30  C   UNL A   1      35.403  34.556  28.841  1.00  0.00     0.014 A 
ATOM     31  C   UNL A   1      34.985  33.462  31.370  1.00  0.00     0.010 A 
ATOM     32  C   UNL A   1      36.446  33.911  29.494  1.00  0.00     0.010 A 
ATOM     33  C   UNL A   1      36.251  33.361  30.767  1.00  0.00    -0.014 A 
BRANCH  33  34
ATOM     34  C   UNL A   1      37.370  32.669  31.453  1.00  0.00     0.031 A 
ATOM     35  C   UNL A   1      38.060  31.503  30.802  1.00  0.00     0.074 A 
ATOM     36  C   UNL A   1      37.724  33.058  32.694  1.00  0.00     0.049 A 
ATOM     37  N   UNL A   1      39.044  30.767  31.255  1.00  0.00    -0.248 NA
ATOM     38  C   UNL A   1      37.560  31.086  29.484  1.00  0.00     0.031 C 
ATOM     39  C   UNL A   1      37.077  34.126  33.460  1.00  0.00     0.029 A 
ATOM     40  N   UNL A   1      38.708  32.599  33.531  1.00  0.00    -0.354 N 
ATOM     41  C   UNL A   1      39.267  29.799  30.286  1.00  0.00     0.074 A 
ATOM     42  C   UNL A   1      38.275  29.998  29.252  1.00  0.00     0.031 C 
ATOM     43  C   UNL A   1      37.706  34.265  34.637  1.00  0.00     0.029 A 
ATOM     44  C   UNL A   1      38.771  33.271  34.728  1.00  0.00     0.049 A 
ATOM     45  H   UNL A   1      39.312  31.857  33.298  1.00  0.00     0.167 HD
ATOM     46  C   UNL A   1      40.231  28.848  30.247  1.00  0.00     0.037 A 
ATOM     47  C   UNL A   1      39.593  33.104  35.780  1.00  0.00     0.037 A 
ATOM     48  C   UNL A   1      41.226  28.669  31.273  1.00  0.00     0.049 A 
ATOM     49  C   UNL A   1      40.660  32.047  35.711  1.00  0.00     0.074 A 
ATOM     50  C   UNL A   1      42.293  27.788  31.295  1.00  0.00     0.029 A 
ATOM     51  N   UNL A   1      41.268  29.378  32.465  1.00  0.00    -0.354 N 
ATOM     52  N   UNL A   1      40.926  31.201  34.746  1.00  0.00    -0.248 NA
ATOM     53  C   UNL A   1      41.549  31.930  36.874  1.00  0.00     0.031 C 
ATOM     54  C   UNL A   1      42.941  27.919  32.528  1.00  0.00     0.029 A 
ATOM     55  C   UNL A   1      42.321  28.928  33.247  1.00  0.00     0.049 A 
ATOM     56  H   UNL A   1      40.643  30.094  32.718  1.00  0.00     0.167 HD
ATOM     57  C   UNL A   1      42.021  30.464  35.174  1.00  0.00     0.074 A 
ATOM     58  C   UNL A   1      42.387  30.983  36.476  1.00  0.00     0.031 C 
ATOM     59  C   UNL A   1      42.665  29.447  34.547  1.00  0.00     0.037 A 
BRANCH  46  60
ATOM     60  C   UNL A   1      40.250  27.926  29.061  1.00  0.00     0.064 A 
ATOM     61  C   UNL A   1      39.545  26.712  29.055  1.00  0.00     0.173 A 
ATOM     62  C   UNL A   1      40.965  28.269  27.904  1.00  0.00     0.173 A 
ATOM     63  F   UNL A   1      38.852  26.327  30.139  1.00  0.00    -0.203 F 
ATOM     64  C   UNL A   1      39.586  25.860  27.953  1.00  0.00     0.198 A 
ATOM     65  C   UNL A   1      40.975  27.432  26.790  1.00  0.00     0.198 A 
ATOM     66  F   UNL A   1      41.653  29.419  27.850  1.00  0.00    -0.203 F 
ATOM     67  F   UNL A   1      38.956  24.678  27.998  1.00  0.00    -0.200 F 
ATOM     68  C   UNL A   1      40.296  26.224  26.819  1.00  0.00     0.200 A 
ATOM     69  F   UNL A   1      41.649  27.794  25.689  1.00  0.00    -0.200 F 
ATOM     70  F   UNL A   1      40.332  25.407  25.758  1.00  0.00    -0.200 F 
ENDBRANCH  46  60
BRANCH  47  71
ATOM     71  C   UNL A   1      39.452  33.979  36.974  1.00  0.00     0.064 A 
ATOM     72  C   UNL A   1      38.761  33.543  38.113  1.00  0.00     0.173 A 
ATOM     73  C   UNL A   1      40.018  35.262  37.006  1.00  0.00     0.173 A 
ATOM     74  F   UNL A   1      38.187  32.331  38.124  1.00  0.00    -0.203 F 
ATOM     75  C   UNL A   1      38.627  34.362  39.232  1.00  0.00     0.198 A 
ATOM     76  C   UNL A   1      39.910  36.068  38.138  1.00  0.00     0.198 A 
ATOM     77  F   UNL A   1      40.696  35.724  35.945  1.00  0.00    -0.203 F 
ATOM     78  F   UNL A   1      37.925  33.937  40.291  1.00  0.00    -0.200 F 
ATOM     79  C   UNL A   1      39.208  35.621  39.246  1.00  0.00     0.200 A 
ATOM     80  F   UNL A   1      40.490  37.277  38.153  1.00  0.00    -0.200 F 
ATOM     81  F   UNL A   1      39.088  36.405  40.326  1.00  0.00    -0.200 F 
ENDBRANCH  47  71
BRANCH  59  82
ATOM     82  C   UNL A   1      43.842  28.842  35.259  1.00  0.00     0.064 A 
ATOM     83  C   UNL A   1      45.147  29.321  35.066  1.00  0.00     0.173 A 
ATOM     84  C   UNL A   1      43.659  27.783  36.162  1.00  0.00     0.173 A 
ATOM     85  F   UNL A   1      45.378  30.321  34.202  1.00  0.00    -0.203 F 
ATOM     86  C   UNL A   1      46.228  28.739  35.724  1.00  0.00     0.198 A 
ATOM     87  C   UNL A   1      44.738  27.230  36.846  1.00  0.00     0.198 A 
ATOM     88  F   UNL A   1      42.432  27.292  36.391  1.00  0.00    -0.203 F 
ATOM     89  F   UNL A   1      47.471  29.172  35.476  1.00  0.00    -0.200 F 
ATOM     90  C   UNL A   1      46.022  27.700  36.618  1.00  0.00     0.200 A 
ATOM     91  F   UNL A   1      44.534  26.236  37.722  1.00  0.00    -0.200 F 
ATOM     92  F   UNL A   1      47.063  27.144  37.252  1.00  0.00    -0.200 F 
ENDBRANCH  59  82
ENDBRANCH  33  34
ENDBRANCH  25  28
ENDBRANCH  23  24
ENDBRANCH   1  23
TORSDOF 14
ENDMDL
MODEL 3
REMARK VINA RESULT:     -11.5      5.991     11.375
REMARK SMILES COc1cc([C@H]([NH3+])C(=O)NCCCNC(=O)c2ccc(-c3c4nc(c(-c5c(F)c(F)c(F)c(F)c5F)c5ccc([nH]5)c(-c5c(F)c(F)c(F)c(F)c5F)c5nc(c(-c6c(F)c(F)c(F)c(F)c6F)c6ccc3[nH]6)C=C5)C=C4)cc2)cc(I)c1OC
REMARK SMILES IDX 12 1 11 2 10 3 8 4 9 5 6 7 5 8 3 9 4 10 83 11 81 12 80 13
REMARK SMILES IDX 82 14 2 15 1 16 84 17 85 18 7 19 13 23 14 24 15 25 16 27
REMARK SMILES IDX 17 28 18 29 79 30 19 31 78 32 20 33 21 34 22 35 72 36 23 37
REMARK SMILES IDX 77 38 71 39 73 40 24 41 76 42 70 43 69 44 25 46 57 47 37 48
REMARK SMILES IDX 56 49 38 50 41 51 55 52 74 53 39 54 40 55 54 57 75 58 42 59
REMARK SMILES IDX 26 60 27 61 35 62 28 63 29 64 33 65 36 66 30 67 31 68 34 69
REMARK SMILES IDX 32 70 58 71 59 72 67 73 60 74 61 75 65 76 68 77 62 78 63 79
REMARK SMILES IDX 66 80 64 81 43 82 44 83 52 84 45 85 46 86 50 87 53 88 47 89
REMARK SMILES IDX 48 90 51 91 49 92
REMARK H PARENT 10 6 7 20 7 21 7 22 14 26 73 45 41 56
REMARK Flexibility Score: inf
ROOT
ATOM      1  C   UNL A   1      38.065  19.706  25.005  1.00  0.00     0.042 C 
ENDROOT
BRANCH   1   2
ATOM      2  C   UNL A   1      36.970  20.754  24.999  1.00  0.00     0.118 C 
BRANCH   2   3
ATOM      3  N   UNL A   1      37.470  22.086  25.299  1.00  0.00    -0.351 N 
ATOM      4  C   UNL A   1      36.798  23.210  25.704  1.00  0.00     0.283 C 
ATOM      5  O   UNL A   1      37.487  24.168  26.068  1.00  0.00    -0.268 OA
ATOM      6  H   UNL A   1      38.442  22.198  25.194  1.00  0.00     0.163 HD
BRANCH   4   7
ATOM      7  C   UNL A   1      35.248  23.280  25.708  1.00  0.00     0.302 C 
BRANCH   7   8
ATOM      8  C   UNL A   1      34.634  24.519  25.059  1.00  0.00     0.024 A 
ATOM      9  C   UNL A   1      33.808  25.665  23.074  1.00  0.00     0.162 A 
ATOM     10  C   UNL A   1      34.448  24.571  23.675  1.00  0.00     0.061 A 
ATOM     11  C   UNL A   1      33.314  26.753  23.841  1.00  0.00     0.174 A 
ATOM     12  C   UNL A   1      33.553  26.735  25.220  1.00  0.00     0.059 A 
ATOM     13  C   UNL A   1      34.258  25.654  25.790  1.00  0.00     0.029 A 
ATOM     14  I   UNL A   1      32.949  28.140  26.679  1.00  0.00    -0.040 I 
BRANCH   9  15
ATOM     15  O   UNL A   1      33.689  25.774  21.705  1.00  0.00    -0.493 OA
ATOM     16  C   UNL A   1      32.810  24.851  21.075  1.00  0.00     0.278 C 
ENDBRANCH   9  15
BRANCH  11  17
ATOM     17  O   UNL A   1      32.670  27.672  23.062  1.00  0.00    -0.492 OA
ATOM     18  C   UNL A   1      33.121  28.999  22.904  1.00  0.00     0.278 C 
ENDBRANCH  11  17
ENDBRANCH   7   8
BRANCH   7  19
ATOM     19  N   UNL A   1      34.771  23.063  27.093  1.00  0.00    -0.343 N 
ATOM     20  H   UNL A   1      35.570  22.895  27.706  1.00  0.00     0.345 HD
ATOM     21  H   UNL A   1      34.150  22.253  27.116  1.00  0.00     0.345 HD
ATOM     22  H   UNL A   1      34.266  23.888  27.413  1.00  0.00     0.345 HD
ENDBRANCH   7  19
ENDBRANCH   4   7
ENDBRANCH   2   3
ENDBRANCH   1   2
BRANCH   1  23
ATOM     23  C   UNL A   1      39.327  20.154  25.727  1.00  0.00     0.118 C 
BRANCH  23  24
ATOM     24  N   UNL A   1      40.317  19.092  25.867  1.00  0.00    -0.352 N 
ATOM     25  C   UNL A   1      41.669  19.168  26.082  1.00  0.00     0.251 C 
ATOM     26  H   UNL A   1      39.958  18.178  25.795  1.00  0.00     0.163 HD
ATOM     27  O   UNL A   1      42.362  18.156  26.002  1.00  0.00    -0.269 OA
BRANCH  25  28
ATOM     28  C   UNL A   1      42.301  20.470  26.378  1.00  0.00     0.039 A 
ATOM     29  C   UNL A   1      42.875  21.197  25.333  1.00  0.00     0.014 A 
ATOM     30  C   UNL A   1      42.311  20.983  27.677  1.00  0.00     0.014 A 
ATOM     31  C   UNL A   1      43.383  22.472  25.580  1.00  0.00     0.010 A 
ATOM     32  C   UNL A   1      42.715  22.294  27.899  1.00  0.00     0.010 A 
ATOM     33  C   UNL A   1      43.261  23.051  26.854  1.00  0.00    -0.014 A 
BRANCH  33  34
ATOM     34  C   UNL A   1      43.684  24.453  27.100  1.00  0.00     0.031 A 
ATOM     35  C   UNL A   1      42.694  25.477  27.577  1.00  0.00     0.074 A 
ATOM     36  C   UNL A   1      44.955  24.813  26.833  1.00  0.00     0.049 A 
ATOM     37  N   UNL A   1      42.877  26.748  27.830  1.00  0.00    -0.248 NA
ATOM     38  C   UNL A   1      41.307  25.024  27.764  1.00  0.00     0.031 C 
ATOM     39  C   UNL A   1      45.988  23.926  26.293  1.00  0.00     0.029 A 
ATOM     40  N   UNL A   1      45.594  26.018  26.974  1.00  0.00    -0.354 N 
ATOM     41  C   UNL A   1      41.631  27.244  28.191  1.00  0.00     0.074 A 
ATOM     42  C   UNL A   1      40.688  26.155  28.061  1.00  0.00     0.031 C 
ATOM     43  C   UNL A   1      47.139  24.607  26.185  1.00  0.00     0.029 A 
ATOM     44  C   UNL A   1      46.917  25.986  26.607  1.00  0.00     0.049 A 
ATOM     45  H   UNL A   1      45.147  26.830  27.306  1.00  0.00     0.167 HD
ATOM     46  C   UNL A   1      41.308  28.487  28.621  1.00  0.00     0.037 A 
ATOM     47  C   UNL A   1      47.847  26.960  26.608  1.00  0.00     0.037 A 
ATOM     48  C   UNL A   1      42.257  29.561  28.765  1.00  0.00     0.049 A 
ATOM     49  C   UNL A   1      47.467  28.330  27.097  1.00  0.00     0.074 A 
ATOM     50  C   UNL A   1      42.050  30.834  29.264  1.00  0.00     0.029 A 
ATOM     51  N   UNL A   1      43.594  29.488  28.397  1.00  0.00    -0.354 N 
ATOM     52  N   UNL A   1      46.308  28.762  27.530  1.00  0.00    -0.248 NA
ATOM     53  C   UNL A   1      48.528  29.344  27.107  1.00  0.00     0.031 C 
ATOM     54  C   UNL A   1      43.244  31.552  29.138  1.00  0.00     0.029 A 
ATOM     55  C   UNL A   1      44.214  30.707  28.624  1.00  0.00     0.049 A 
ATOM     56  H   UNL A   1      44.036  28.689  28.028  1.00  0.00     0.167 HD
ATOM     57  C   UNL A   1      46.502  30.091  27.881  1.00  0.00     0.074 A 
ATOM     58  C   UNL A   1      47.899  30.385  27.636  1.00  0.00     0.031 C 
ATOM     59  C   UNL A   1      45.604  30.988  28.362  1.00  0.00     0.037 A 
BRANCH  46  60
ATOM     60  C   UNL A   1      39.868  28.753  28.959  1.00  0.00     0.064 A 
ATOM     61  C   UNL A   1      39.353  28.521  30.244  1.00  0.00     0.173 A 
ATOM     62  C   UNL A   1      38.994  29.268  27.990  1.00  0.00     0.173 A 
ATOM     63  F   UNL A   1      40.141  28.019  31.208  1.00  0.00    -0.203 F 
ATOM     64  C   UNL A   1      38.011  28.757  30.535  1.00  0.00     0.198 A 
ATOM     65  C   UNL A   1      37.661  29.536  28.294  1.00  0.00     0.198 A 
ATOM     66  F   UNL A   1      39.431  29.514  26.746  1.00  0.00    -0.203 F 
ATOM     67  F   UNL A   1      37.531  28.467  31.752  1.00  0.00    -0.200 F 
ATOM     68  C   UNL A   1      37.168  29.270  29.562  1.00  0.00     0.200 A 
ATOM     69  F   UNL A   1      36.851  30.048  27.356  1.00  0.00    -0.200 F 
ATOM     70  F   UNL A   1      35.879  29.501  29.844  1.00  0.00    -0.200 F 
ENDBRANCH  46  60
BRANCH  47  71
ATOM     71  C   UNL A   1      49.231  26.659  26.156  1.00  0.00     0.064 A 
ATOM     72  C   UNL A   1      49.634  26.920  24.839  1.00  0.00     0.173 A 
ATOM     73  C   UNL A   1      50.183  26.122  27.035  1.00  0.00     0.173 A 
ATOM     74  F   UNL A   1      48.757  27.418  23.957  1.00  0.00    -0.203 F 
ATOM     75  C   UNL A   1      50.931  26.638  24.414  1.00  0.00     0.198 A 
ATOM     76  C   UNL A   1      51.488  25.870  26.617  1.00  0.00     0.198 A 
ATOM     77  F   UNL A   1      49.850  25.862  28.309  1.00  0.00    -0.203 F 
ATOM     78  F   UNL A   1      51.278  26.857  23.139  1.00  0.00    -0.200 F 
ATOM     79  C   UNL A   1      51.858  26.120  25.305  1.00  0.00     0.200 A 
ATOM     80  F   UNL A   1      52.386  25.388  27.488  1.00  0.00    -0.200 F 
ATOM     81  F   UNL A   1      53.109  25.860  24.900  1.00  0.00    -0.200 F 
ENDBRANCH  47  71
BRANCH  59  82
ATOM     82  C   UNL A   1      46.114  32.368  28.668  1.00  0.00     0.064 A 
ATOM     83  C   UNL A   1      46.655  32.693  29.921  1.00  0.00     0.173 A 
ATOM     84  C   UNL A   1      46.082  33.371  27.687  1.00  0.00     0.173 A 
ATOM     85  F   UNL A   1      46.695  31.775  30.898  1.00  0.00    -0.203 F 
ATOM     86  C   UNL A   1      47.110  33.981  30.192  1.00  0.00     0.198 A 
ATOM     87  C   UNL A   1      46.573  34.647  27.950  1.00  0.00     0.198 A 
ATOM     88  F   UNL A   1      45.583  33.112  26.469  1.00  0.00    -0.203 F 
ATOM     89  F   UNL A   1      47.564  34.285  31.415  1.00  0.00    -0.200 F 
ATOM     90  C   UNL A   1      47.076  34.954  29.205  1.00  0.00     0.200 A 
ATOM     91  F   UNL A   1      46.553  35.581  26.989  1.00  0.00    -0.200 F 
ATOM     92  F   UNL A   1      47.518  36.192  29.467  1.00  0.00    -0.200 F 
ENDBRANCH  59  82
ENDBRANCH  33  34
ENDBRANCH  25  28
ENDBRANCH  23  24
ENDBRANCH   1  23
TORSDOF 14
ENDMDL
