MODEL 1
REMARK VINA RESULT:     -12.9      0.000      0.000
REMARK SMILES [NH3+]Cc1ccc(C(=O)N2[C@@H](C(=O)NCCCNC(=O)c3ccc(-c4c5nc(c(-c6c(F)c(F)c(F)c(F)c6F)c6ccc([nH]6)c(-c6c(F)c(F)c(F)c(F)c6F)c6nc(c(-c7c(F)c(F)c(F)c(F)c7F)c7ccc4[nH]7)C=C6)C=C5)cc3)C[C@H]3CCCC[C@@H]32)o1
REMARK SMILES IDX 14 1 13 2 11 3 12 4 10 6 9 7 89 8 83 9 84 10 88 11 85 12
REMARK SMILES IDX 87 13 86 14 7 15 8 16 6 17 3 18 4 19 90 20 5 21 2 22 1 23
REMARK SMILES IDX 15 27 16 28 17 29 18 30 19 32 20 33 21 34 82 35 22 36 81 37
REMARK SMILES IDX 23 38 24 39 25 40 75 41 26 42 80 43 74 44 76 45 27 46 79 47
REMARK SMILES IDX 73 48 72 49 28 51 60 52 40 53 59 54 41 55 44 56 58 57 77 58
REMARK SMILES IDX 42 59 43 60 57 62 78 63 45 64 29 65 30 66 38 67 31 68 32 69
REMARK SMILES IDX 36 70 39 71 33 72 34 73 37 74 35 75 61 76 62 77 70 78 63 79
REMARK SMILES IDX 64 80 68 81 71 82 65 83 66 84 69 85 67 86 46 87 47 88 55 89
REMARK SMILES IDX 48 90 49 91 53 92 56 93 50 94 51 95 54 96 52 97
REMARK H PARENT 13 5 1 24 1 25 1 26 17 31 76 50 44 61
REMARK Flexibility Score: inf
ROOT
ATOM      1  C   UNL A   1      32.030  30.451  25.900  1.00  0.00     0.117 C 
ENDROOT
BRANCH   1   2
ATOM      2  N   UNL A   1      31.467  29.214  26.410  1.00  0.00    -0.354 N 
ATOM      3  C   UNL A   1      31.884  27.922  26.253  1.00  0.00     0.242 C 
ATOM      4  O   UNL A   1      31.230  27.047  26.823  1.00  0.00    -0.273 OA
ATOM      5  H   UNL A   1      30.654  29.323  26.956  1.00  0.00     0.163 HD
BRANCH   3   6
ATOM      6  C   UNL A   1      33.138  27.616  25.402  1.00  0.00     0.175 C 
ATOM      7  N   UNL A   1      32.790  27.356  23.986  1.00  0.00    -0.321 N 
ATOM      8  C   UNL A   1      32.860  25.932  23.716  1.00  0.00     0.089 C 
ATOM      9  C   UNL A   1      33.758  26.285  25.890  1.00  0.00     0.041 C 
ATOM     10  C   UNL A   1      34.043  25.538  24.600  1.00  0.00     0.014 C 
ATOM     11  C   UNL A   1      33.127  25.437  22.293  1.00  0.00     0.025 C 
ATOM     12  C   UNL A   1      34.187  24.032  24.695  1.00  0.00     0.006 C 
ATOM     13  C   UNL A   1      33.328  23.917  22.302  1.00  0.00     0.002 C 
ATOM     14  C   UNL A   1      34.404  23.460  23.292  1.00  0.00     0.000 C 
BRANCH   7  15
ATOM     15  C   UNL A   1      32.226  28.252  23.086  1.00  0.00     0.290 C 
ATOM     16  O   UNL A   1      32.936  29.056  22.482  1.00  0.00    -0.265 OA
BRANCH  15  17
ATOM     17  C   UNL A   1      30.780  28.284  22.949  1.00  0.00     0.192 A 
ATOM     18  C   UNL A   1      28.891  29.257  22.340  1.00  0.00     0.159 A 
ATOM     19  C   UNL A   1      28.532  28.155  23.083  1.00  0.00     0.052 A 
ATOM     20  O   UNL A   1      30.245  29.339  22.255  1.00  0.00    -0.450 OA
ATOM     21  C   UNL A   1      29.742  27.541  23.487  1.00  0.00     0.057 A 
BRANCH  18  22
ATOM     22  C   UNL A   1      28.129  30.351  21.690  1.00  0.00     0.335 C 
BRANCH  22  23
ATOM     23  N   UNL A   1      29.028  31.420  21.258  1.00  0.00    -0.351 N 
ATOM     24  H   UNL A   1      29.634  31.074  20.514  1.00  0.00     0.344 HD
ATOM     25  H   UNL A   1      29.598  31.725  22.046  1.00  0.00     0.344 HD
ATOM     26  H   UNL A   1      28.478  32.206  20.911  1.00  0.00     0.344 HD
ENDBRANCH  22  23
ENDBRANCH  18  22
ENDBRANCH  15  17
ENDBRANCH   7  15
ENDBRANCH   3   6
ENDBRANCH   1   2
BRANCH   1  27
ATOM     27  C   UNL A   1      31.687  31.650  26.780  1.00  0.00     0.042 C 
BRANCH  27  28
ATOM     28  C   UNL A   1      32.890  32.475  27.235  1.00  0.00     0.118 C 
BRANCH  28  29
ATOM     29  N   UNL A   1      32.537  33.842  27.590  1.00  0.00    -0.352 N 
ATOM     30  C   UNL A   1      33.075  34.667  28.549  1.00  0.00     0.251 C 
ATOM     31  H   UNL A   1      31.804  34.235  27.065  1.00  0.00     0.163 HD
ATOM     32  O   UNL A   1      32.543  35.744  28.802  1.00  0.00    -0.269 OA
BRANCH  30  33
ATOM     33  C   UNL A   1      34.277  34.255  29.303  1.00  0.00     0.039 A 
ATOM     34  C   UNL A   1      34.111  33.588  30.521  1.00  0.00     0.014 A 
ATOM     35  C   UNL A   1      35.562  34.534  28.826  1.00  0.00     0.014 A 
ATOM     36  C   UNL A   1      35.229  33.123  31.220  1.00  0.00     0.010 A 
ATOM     37  C   UNL A   1      36.675  34.043  29.507  1.00  0.00     0.010 A 
ATOM     38  C   UNL A   1      36.515  33.316  30.696  1.00  0.00    -0.014 A 
BRANCH  38  39
ATOM     39  C   UNL A   1      37.707  32.711  31.338  1.00  0.00     0.031 A 
ATOM     40  C   UNL A   1      38.420  31.560  30.697  1.00  0.00     0.074 A 
ATOM     41  C   UNL A   1      38.092  33.150  32.551  1.00  0.00     0.049 A 
ATOM     42  N   UNL A   1      39.359  30.795  31.191  1.00  0.00    -0.248 NA
ATOM     43  C   UNL A   1      38.015  31.215  29.327  1.00  0.00     0.031 C 
ATOM     44  C   UNL A   1      37.477  34.255  33.287  1.00  0.00     0.029 A 
ATOM     45  N   UNL A   1      39.085  32.703  33.387  1.00  0.00    -0.354 N 
ATOM     46  C   UNL A   1      39.632  29.853  30.211  1.00  0.00     0.074 A 
ATOM     47  C   UNL A   1      38.769  30.150  29.086  1.00  0.00     0.031 C 
ATOM     48  C   UNL A   1      38.106  34.403  34.464  1.00  0.00     0.029 A 
ATOM     49  C   UNL A   1      39.144  33.381  34.578  1.00  0.00     0.049 A 
ATOM     50  H   UNL A   1      39.696  31.968  33.154  1.00  0.00     0.167 HD
ATOM     51  C   UNL A   1      40.519  28.831  30.250  1.00  0.00     0.037 A 
ATOM     52  C   UNL A   1      39.925  33.183  35.655  1.00  0.00     0.037 A 
ATOM     53  C   UNL A   1      41.412  28.556  31.344  1.00  0.00     0.049 A 
ATOM     54  C   UNL A   1      40.902  32.046  35.670  1.00  0.00     0.074 A 
ATOM     55  C   UNL A   1      42.390  27.581  31.439  1.00  0.00     0.029 A 
ATOM     56  N   UNL A   1      41.438  29.265  32.535  1.00  0.00    -0.354 N 
ATOM     57  N   UNL A   1      41.146  31.158  34.741  1.00  0.00    -0.248 NA
ATOM     58  C   UNL A   1      41.696  31.872  36.895  1.00  0.00     0.031 C 
ATOM     59  C   UNL A   1      43.001  27.692  32.694  1.00  0.00     0.029 A 
ATOM     60  C   UNL A   1      42.407  28.741  33.375  1.00  0.00     0.049 A 
ATOM     61  H   UNL A   1      40.855  30.028  32.751  1.00  0.00     0.167 HD
ATOM     62  C   UNL A   1      42.114  30.314  35.267  1.00  0.00     0.074 A 
ATOM     63  C   UNL A   1      42.421  30.803  36.596  1.00  0.00     0.031 C 
ATOM     64  C   UNL A   1      42.691  29.230  34.697  1.00  0.00     0.037 A 
BRANCH  51  65
ATOM     65  C   UNL A   1      40.552  27.916  29.070  1.00  0.00     0.064 A 
ATOM     66  C   UNL A   1      39.743  26.775  29.009  1.00  0.00     0.173 A 
ATOM     67  C   UNL A   1      41.379  28.205  27.975  1.00  0.00     0.173 A 
ATOM     68  F   UNL A   1      38.945  26.457  30.040  1.00  0.00    -0.203 F 
ATOM     69  C   UNL A   1      39.765  25.947  27.890  1.00  0.00     0.198 A 
ATOM     70  C   UNL A   1      41.393  27.379  26.856  1.00  0.00     0.198 A 
ATOM     71  F   UNL A   1      42.175  29.284  27.996  1.00  0.00    -0.203 F 
ATOM     72  F   UNL A   1      38.994  24.850  27.854  1.00  0.00    -0.200 F 
ATOM     73  C   UNL A   1      40.587  26.251  26.814  1.00  0.00     0.200 A 
ATOM     74  F   UNL A   1      42.191  27.670  25.819  1.00  0.00    -0.200 F 
ATOM     75  F   UNL A   1      40.607  25.451  25.739  1.00  0.00    -0.200 F 
ENDBRANCH  51  65
BRANCH  52  76
ATOM     76  C   UNL A   1      39.785  34.074  36.827  1.00  0.00     0.064 A 
ATOM     77  C   UNL A   1      38.945  33.727  37.893  1.00  0.00     0.173 A 
ATOM     78  C   UNL A   1      40.507  35.272  36.914  1.00  0.00     0.173 A 
ATOM     79  F   UNL A   1      38.231  32.594  37.843  1.00  0.00    -0.203 F 
ATOM     80  C   UNL A   1      38.832  34.552  39.010  1.00  0.00     0.198 A 
ATOM     81  C   UNL A   1      40.397  36.092  38.034  1.00  0.00     0.198 A 
ATOM     82  F   UNL A   1      41.319  35.638  35.913  1.00  0.00    -0.203 F 
ATOM     83  F   UNL A   1      38.016  34.208  40.016  1.00  0.00    -0.200 F 
ATOM     84  C   UNL A   1      39.560  35.731  39.080  1.00  0.00     0.200 A 
ATOM     85  F   UNL A   1      41.104  37.228  38.102  1.00  0.00    -0.200 F 
ATOM     86  F   UNL A   1      39.453  36.523  40.156  1.00  0.00    -0.200 F 
ENDBRANCH  52  76
BRANCH  64  87
ATOM     87  C   UNL A   1      43.704  28.494  35.515  1.00  0.00     0.064 A 
ATOM     88  C   UNL A   1      43.310  27.498  36.418  1.00  0.00     0.173 A 
ATOM     89  C   UNL A   1      45.072  28.767  35.381  1.00  0.00     0.173 A 
ATOM     90  F   UNL A   1      42.010  27.215  36.587  1.00  0.00    -0.203 F 
ATOM     91  C   UNL A   1      44.255  26.800  37.165  1.00  0.00     0.198 A 
ATOM     92  C   UNL A   1      46.015  28.065  36.126  1.00  0.00     0.198 A 
ATOM     93  F   UNL A   1      45.490  29.721  34.534  1.00  0.00    -0.203 F 
ATOM     94  F   UNL A   1      43.860  25.862  38.036  1.00  0.00    -0.200 F 
ATOM     95  C   UNL A   1      45.606  27.083  37.017  1.00  0.00     0.200 A 
ATOM     96  F   UNL A   1      47.319  28.343  35.989  1.00  0.00    -0.200 F 
ATOM     97  F   UNL A   1      46.514  26.415  37.742  1.00  0.00    -0.200 F 
ENDBRANCH  64  87
ENDBRANCH  38  39
ENDBRANCH  30  33
ENDBRANCH  28  29
ENDBRANCH  27  28
ENDBRANCH   1  27
TORSDOF 14
ENDMDL
MODEL 2
REMARK VINA RESULT:     -12.8      6.003     11.320
REMARK SMILES [NH3+]Cc1ccc(C(=O)N2[C@@H](C(=O)NCCCNC(=O)c3ccc(-c4c5nc(c(-c6c(F)c(F)c(F)c(F)c6F)c6ccc([nH]6)c(-c6c(F)c(F)c(F)c(F)c6F)c6nc(c(-c7c(F)c(F)c(F)c(F)c7F)c7ccc4[nH]7)C=C6)C=C5)cc3)C[C@H]3CCCC[C@@H]32)o1
REMARK SMILES IDX 14 1 13 2 11 3 12 4 10 6 9 7 89 8 83 9 84 10 88 11 85 12
REMARK SMILES IDX 87 13 86 14 7 15 8 16 6 17 3 18 4 19 90 20 5 21 2 22 1 23
REMARK SMILES IDX 15 27 16 28 17 29 18 30 19 32 20 33 21 34 82 35 22 36 81 37
REMARK SMILES IDX 23 38 24 39 25 40 75 41 26 42 80 43 74 44 76 45 27 46 79 47
REMARK SMILES IDX 73 48 72 49 28 51 60 52 40 53 59 54 41 55 44 56 58 57 77 58
REMARK SMILES IDX 42 59 43 60 57 62 78 63 45 64 29 65 30 66 38 67 31 68 32 69
REMARK SMILES IDX 36 70 39 71 33 72 34 73 37 74 35 75 61 76 62 77 70 78 63 79
REMARK SMILES IDX 64 80 68 81 71 82 65 83 66 84 69 85 67 86 46 87 47 88 55 89
REMARK SMILES IDX 48 90 49 91 53 92 56 93 50 94 51 95 54 96 52 97
REMARK H PARENT 13 5 1 24 1 25 1 26 17 31 76 50 44 61
REMARK Flexibility Score: inf
ROOT
ATOM      1  C   UNL A   1      36.610  21.054  25.311  1.00  0.00     0.117 C 
ENDROOT
BRANCH   1   2
ATOM      2  N   UNL A   1      36.141  21.822  24.172  1.00  0.00    -0.354 N 
ATOM      3  C   UNL A   1      35.400  22.970  24.125  1.00  0.00     0.242 C 
ATOM      4  O   UNL A   1      35.159  23.438  23.011  1.00  0.00    -0.273 OA
ATOM      5  H   UNL A   1      36.396  21.459  23.293  1.00  0.00     0.163 HD
BRANCH   3   6
ATOM      6  C   UNL A   1      34.920  23.632  25.437  1.00  0.00     0.175 C 
ATOM      7  N   UNL A   1      33.635  23.060  25.901  1.00  0.00    -0.321 N 
ATOM      8  C   UNL A   1      32.554  23.985  25.615  1.00  0.00     0.089 C 
ATOM      9  C   UNL A   1      34.595  25.118  25.156  1.00  0.00     0.041 C 
ATOM     10  C   UNL A   1      33.259  25.320  25.849  1.00  0.00     0.014 C 
ATOM     11  C   UNL A   1      31.278  23.951  26.457  1.00  0.00     0.025 C 
ATOM     12  C   UNL A   1      32.411  26.485  25.379  1.00  0.00     0.006 C 
ATOM     13  C   UNL A   1      30.372  25.128  26.075  1.00  0.00     0.002 C 
ATOM     14  C   UNL A   1      31.086  26.481  26.147  1.00  0.00     0.000 C 
BRANCH   7  15
ATOM     15  C   UNL A   1      33.402  21.752  26.310  1.00  0.00     0.290 C 
ATOM     16  O   UNL A   1      33.662  21.405  27.462  1.00  0.00    -0.265 OA
BRANCH  15  17
ATOM     17  C   UNL A   1      32.938  20.788  25.327  1.00  0.00     0.192 A 
ATOM     18  C   UNL A   1      32.620  18.723  24.608  1.00  0.00     0.159 A 
ATOM     19  C   UNL A   1      32.353  19.545  23.537  1.00  0.00     0.052 A 
ATOM     20  O   UNL A   1      32.972  19.466  25.690  1.00  0.00    -0.450 OA
ATOM     21  C   UNL A   1      32.573  20.868  23.993  1.00  0.00     0.057 A 
BRANCH  18  22
ATOM     22  C   UNL A   1      32.651  17.251  24.790  1.00  0.00     0.335 C 
BRANCH  22  23
ATOM     23  N   UNL A   1      33.216  16.903  26.092  1.00  0.00    -0.351 N 
ATOM     24  H   UNL A   1      33.124  17.697  26.725  1.00  0.00     0.344 HD
ATOM     25  H   UNL A   1      34.203  16.669  25.983  1.00  0.00     0.344 HD
ATOM     26  H   UNL A   1      32.716  16.102  26.476  1.00  0.00     0.344 HD
ENDBRANCH  22  23
ENDBRANCH  18  22
ENDBRANCH  15  17
ENDBRANCH   7  15
ENDBRANCH   3   6
ENDBRANCH   1   2
BRANCH   1  27
ATOM     27  C   UNL A   1      37.867  20.251  24.990  1.00  0.00     0.042 C 
BRANCH  27  28
ATOM     28  C   UNL A   1      39.020  20.445  25.974  1.00  0.00     0.118 C 
BRANCH  28  29
ATOM     29  N   UNL A   1      40.010  19.380  25.904  1.00  0.00    -0.352 N 
ATOM     30  C   UNL A   1      41.379  19.445  26.016  1.00  0.00     0.251 C 
ATOM     31  H   UNL A   1      39.645  18.479  25.753  1.00  0.00     0.163 HD
ATOM     32  O   UNL A   1      42.061  18.453  25.780  1.00  0.00    -0.269 OA
BRANCH  30  33
ATOM     33  C   UNL A   1      42.040  20.712  26.392  1.00  0.00     0.039 A 
ATOM     34  C   UNL A   1      42.443  21.586  25.378  1.00  0.00     0.014 A 
ATOM     35  C   UNL A   1      42.278  21.033  27.732  1.00  0.00     0.014 A 
ATOM     36  C   UNL A   1      43.006  22.823  25.707  1.00  0.00     0.010 A 
ATOM     37  C   UNL A   1      42.811  22.280  28.061  1.00  0.00     0.010 A 
ATOM     38  C   UNL A   1      43.158  23.190  27.051  1.00  0.00    -0.014 A 
BRANCH  38  39
ATOM     39  C   UNL A   1      43.615  24.549  27.431  1.00  0.00     0.031 A 
ATOM     40  C   UNL A   1      42.650  25.558  27.973  1.00  0.00     0.074 A 
ATOM     41  C   UNL A   1      44.895  24.897  27.203  1.00  0.00     0.049 A 
ATOM     42  N   UNL A   1      42.829  26.836  28.188  1.00  0.00    -0.248 NA
ATOM     43  C   UNL A   1      41.303  25.071  28.302  1.00  0.00     0.031 C 
ATOM     44  C   UNL A   1      45.932  24.011  26.670  1.00  0.00     0.029 A 
ATOM     45  N   UNL A   1      45.537  26.099  27.372  1.00  0.00    -0.354 N 
ATOM     46  C   UNL A   1      41.610  27.317  28.640  1.00  0.00     0.074 A 
ATOM     47  C   UNL A   1      40.700  26.190  28.683  1.00  0.00     0.031 C 
ATOM     48  C   UNL A   1      47.081  24.699  26.558  1.00  0.00     0.029 A 
ATOM     49  C   UNL A   1      46.850  26.079  26.977  1.00  0.00     0.049 A 
ATOM     50  H   UNL A   1      45.096  26.898  27.741  1.00  0.00     0.167 HD
ATOM     51  C   UNL A   1      41.280  28.584  28.983  1.00  0.00     0.037 A 
ATOM     52  C   UNL A   1      47.759  27.068  26.928  1.00  0.00     0.037 A 
ATOM     53  C   UNL A   1      42.188  29.699  28.988  1.00  0.00     0.049 A 
ATOM     54  C   UNL A   1      47.369  28.462  27.318  1.00  0.00     0.074 A 
ATOM     55  C   UNL A   1      41.954  31.004  29.386  1.00  0.00     0.029 A 
ATOM     56  N   UNL A   1      43.511  29.638  28.578  1.00  0.00    -0.354 N 
ATOM     57  N   UNL A   1      46.211  28.906  27.738  1.00  0.00    -0.248 NA
ATOM     58  C   UNL A   1      48.408  29.497  27.206  1.00  0.00     0.031 C 
ATOM     59  C   UNL A   1      43.134  31.738  29.206  1.00  0.00     0.029 A 
ATOM     60  C   UNL A   1      44.102  30.885  28.702  1.00  0.00     0.049 A 
ATOM     61  H   UNL A   1      43.963  28.828  28.248  1.00  0.00     0.167 HD
ATOM     62  C   UNL A   1      46.376  30.270  27.933  1.00  0.00     0.074 A 
ATOM     63  C   UNL A   1      47.750  30.581  27.596  1.00  0.00     0.031 C 
ATOM     64  C   UNL A   1      45.465  31.180  28.351  1.00  0.00     0.037 A 
BRANCH  51  65
ATOM     65  C   UNL A   1      39.859  28.835  29.369  1.00  0.00     0.064 A 
ATOM     66  C   UNL A   1      39.430  28.706  30.695  1.00  0.00     0.173 A 
ATOM     67  C   UNL A   1      38.926  29.241  28.404  1.00  0.00     0.173 A 
ATOM     68  F   UNL A   1      40.289  28.309  31.647  1.00  0.00    -0.203 F 
ATOM     69  C   UNL A   1      38.108  28.970  31.044  1.00  0.00     0.198 A 
ATOM     70  C   UNL A   1      37.607  29.511  28.757  1.00  0.00     0.198 A 
ATOM     71  F   UNL A   1      39.294  29.370  27.121  1.00  0.00    -0.203 F 
ATOM     72  F   UNL A   1      37.711  28.828  32.317  1.00  0.00    -0.200 F 
ATOM     73  C   UNL A   1      37.200  29.374  30.076  1.00  0.00     0.200 A 
ATOM     74  F   UNL A   1      36.729  29.897  27.822  1.00  0.00    -0.200 F 
ATOM     75  F   UNL A   1      35.928  29.627  30.414  1.00  0.00    -0.200 F 
ENDBRANCH  51  65
BRANCH  52  76
ATOM     76  C   UNL A   1      49.130  26.772  26.457  1.00  0.00     0.064 A 
ATOM     77  C   UNL A   1      50.106  26.304  27.346  1.00  0.00     0.173 A 
ATOM     78  C   UNL A   1      49.479  26.926  25.109  1.00  0.00     0.173 A 
ATOM     79  F   UNL A   1      49.813  26.154  28.645  1.00  0.00    -0.203 F 
ATOM     80  C   UNL A   1      51.390  26.000  26.900  1.00  0.00     0.198 A 
ATOM     81  C   UNL A   1      50.761  26.614  24.664  1.00  0.00     0.198 A 
ATOM     82  F   UNL A   1      48.573  27.373  24.229  1.00  0.00    -0.203 F 
ATOM     83  F   UNL A   1      52.313  25.562  27.767  1.00  0.00    -0.200 F 
ATOM     84  C   UNL A   1      51.715  26.152  25.559  1.00  0.00     0.200 A 
ATOM     85  F   UNL A   1      51.072  26.758  23.369  1.00  0.00    -0.200 F 
ATOM     86  F   UNL A   1      52.949  25.855  25.130  1.00  0.00    -0.200 F 
ENDBRANCH  52  76
BRANCH  64  87
ATOM     87  C   UNL A   1      45.925  32.600  28.455  1.00  0.00     0.064 A 
ATOM     88  C   UNL A   1      45.783  33.480  27.374  1.00  0.00     0.173 A 
ATOM     89  C   UNL A   1      46.486  33.088  29.642  1.00  0.00     0.173 A 
ATOM     90  F   UNL A   1      45.264  33.049  26.216  1.00  0.00    -0.203 F 
ATOM     91  C   UNL A   1      46.194  34.806  27.478  1.00  0.00     0.198 A 
ATOM     92  C   UNL A   1      46.892  34.416  29.744  1.00  0.00     0.198 A 
ATOM     93  F   UNL A   1      46.649  32.275  30.697  1.00  0.00    -0.203 F 
ATOM     94  F   UNL A   1      46.067  35.630  26.430  1.00  0.00    -0.200 F 
ATOM     95  C   UNL A   1      46.747  35.273  28.663  1.00  0.00     0.200 A 
ATOM     96  F   UNL A   1      47.432  34.865  30.886  1.00  0.00    -0.200 F 
ATOM     97  F   UNL A   1      47.148  36.548  28.759  1.00  0.00    -0.200 F 
ENDBRANCH  64  87
ENDBRANCH  38  39
ENDBRANCH  30  33
ENDBRANCH  28  29
ENDBRANCH  27  28
ENDBRANCH   1  27
TORSDOF 14
ENDMDL
MODEL 3
REMARK VINA RESULT:     -12.7      6.096     11.508
REMARK SMILES [NH3+]Cc1ccc(C(=O)N2[C@@H](C(=O)NCCCNC(=O)c3ccc(-c4c5nc(c(-c6c(F)c(F)c(F)c(F)c6F)c6ccc([nH]6)c(-c6c(F)c(F)c(F)c(F)c6F)c6nc(c(-c7c(F)c(F)c(F)c(F)c7F)c7ccc4[nH]7)C=C6)C=C5)cc3)C[C@H]3CCCC[C@@H]32)o1
REMARK SMILES IDX 14 1 13 2 11 3 12 4 10 6 9 7 89 8 83 9 84 10 88 11 85 12
REMARK SMILES IDX 87 13 86 14 7 15 8 16 6 17 3 18 4 19 90 20 5 21 2 22 1 23
REMARK SMILES IDX 15 27 16 28 17 29 18 30 19 32 20 33 21 34 82 35 22 36 81 37
REMARK SMILES IDX 23 38 24 39 25 40 75 41 26 42 80 43 74 44 76 45 27 46 79 47
REMARK SMILES IDX 73 48 72 49 28 51 60 52 40 53 59 54 41 55 44 56 58 57 77 58
REMARK SMILES IDX 42 59 43 60 57 62 78 63 45 64 29 65 30 66 38 67 31 68 32 69
REMARK SMILES IDX 36 70 39 71 33 72 34 73 37 74 35 75 61 76 62 77 70 78 63 79
REMARK SMILES IDX 64 80 68 81 71 82 65 83 66 84 69 85 67 86 46 87 47 88 55 89
REMARK SMILES IDX 48 90 49 91 53 92 56 93 50 94 51 95 54 96 52 97
REMARK H PARENT 13 5 1 24 1 25 1 26 17 31 76 50 44 61
REMARK Flexibility Score: inf
ROOT
ATOM      1  C   UNL A   1      36.737  21.103  25.333  1.00  0.00     0.117 C 
ENDROOT
BRANCH   1   2
ATOM      2  N   UNL A   1      36.213  21.814  24.181  1.00  0.00    -0.354 N 
ATOM      3  C   UNL A   1      35.430  22.933  24.113  1.00  0.00     0.242 C 
ATOM      4  O   UNL A   1      35.146  23.352  22.991  1.00  0.00    -0.273 OA
ATOM      5  H   UNL A   1      36.460  21.429  23.308  1.00  0.00     0.163 HD
BRANCH   3   6
ATOM      6  C   UNL A   1      34.959  23.622  25.414  1.00  0.00     0.175 C 
ATOM      7  N   UNL A   1      33.674  23.063  25.896  1.00  0.00    -0.321 N 
ATOM      8  C   UNL A   1      32.594  23.984  25.596  1.00  0.00     0.089 C 
ATOM      9  C   UNL A   1      34.635  25.102  25.104  1.00  0.00     0.041 C 
ATOM     10  C   UNL A   1      33.303  25.322  25.800  1.00  0.00     0.014 C 
ATOM     11  C   UNL A   1      31.322  23.970  26.446  1.00  0.00     0.025 C 
ATOM     12  C   UNL A   1      32.455  26.479  25.310  1.00  0.00     0.006 C 
ATOM     13  C   UNL A   1      30.417  25.142  26.044  1.00  0.00     0.002 C 
ATOM     14  C   UNL A   1      31.134  26.495  26.084  1.00  0.00     0.000 C 
BRANCH   7  15
ATOM     15  C   UNL A   1      33.440  21.764  26.333  1.00  0.00     0.290 C 
ATOM     16  O   UNL A   1      33.661  21.452  27.503  1.00  0.00    -0.265 OA
BRANCH  15  17
ATOM     17  C   UNL A   1      33.024  20.768  25.361  1.00  0.00     0.192 A 
ATOM     18  C   UNL A   1      32.929  18.696  24.599  1.00  0.00     0.159 A 
ATOM     19  C   UNL A   1      32.451  19.497  23.587  1.00  0.00     0.052 A 
ATOM     20  O   UNL A   1      33.274  19.456  25.671  1.00  0.00    -0.450 OA
ATOM     21  C   UNL A   1      32.527  20.827  24.069  1.00  0.00     0.057 A 
BRANCH  18  22
ATOM     22  C   UNL A   1      33.180  17.239  24.723  1.00  0.00     0.335 C 
BRANCH  22  23
ATOM     23  N   UNL A   1      33.153  16.828  26.126  1.00  0.00    -0.351 N 
ATOM     24  H   UNL A   1      32.902  15.841  26.185  1.00  0.00     0.344 HD
ATOM     25  H   UNL A   1      32.463  17.384  26.630  1.00  0.00     0.344 HD
ATOM     26  H   UNL A   1      34.074  16.971  26.539  1.00  0.00     0.344 HD
ENDBRANCH  22  23
ENDBRANCH  18  22
ENDBRANCH  15  17
ENDBRANCH   7  15
ENDBRANCH   3   6
ENDBRANCH   1   2
BRANCH   1  27
ATOM     27  C   UNL A   1      38.011  20.328  25.005  1.00  0.00     0.042 C 
BRANCH  27  28
ATOM     28  C   UNL A   1      39.155  20.528  25.998  1.00  0.00     0.118 C 
BRANCH  28  29
ATOM     29  N   UNL A   1      40.134  19.452  25.958  1.00  0.00    -0.352 N 
ATOM     30  C   UNL A   1      41.503  19.506  26.067  1.00  0.00     0.251 C 
ATOM     31  H   UNL A   1      39.760  18.550  25.834  1.00  0.00     0.163 HD
ATOM     32  O   UNL A   1      42.176  18.500  25.859  1.00  0.00    -0.269 OA
BRANCH  30  33
ATOM     33  C   UNL A   1      42.178  20.776  26.405  1.00  0.00     0.039 A 
ATOM     34  C   UNL A   1      42.612  21.604  25.364  1.00  0.00     0.014 A 
ATOM     35  C   UNL A   1      42.399  21.146  27.735  1.00  0.00     0.014 A 
ATOM     36  C   UNL A   1      43.188  22.844  25.655  1.00  0.00     0.010 A 
ATOM     37  C   UNL A   1      42.945  22.396  28.024  1.00  0.00     0.010 A 
ATOM     38  C   UNL A   1      43.323  23.261  26.986  1.00  0.00    -0.014 A 
BRANCH  38  39
ATOM     39  C   UNL A   1      43.796  24.626  27.321  1.00  0.00     0.031 A 
ATOM     40  C   UNL A   1      42.846  25.656  27.851  1.00  0.00     0.074 A 
ATOM     41  C   UNL A   1      45.074  24.959  27.063  1.00  0.00     0.049 A 
ATOM     42  N   UNL A   1      43.037  26.939  28.027  1.00  0.00    -0.248 NA
ATOM     43  C   UNL A   1      41.502  25.188  28.215  1.00  0.00     0.031 C 
ATOM     44  C   UNL A   1      46.096  24.053  26.538  1.00  0.00     0.029 A 
ATOM     45  N   UNL A   1      45.726  26.161  27.188  1.00  0.00    -0.354 N 
ATOM     46  C   UNL A   1      41.828  27.440  28.486  1.00  0.00     0.074 A 
ATOM     47  C   UNL A   1      40.912  26.322  28.575  1.00  0.00     0.031 C 
ATOM     48  C   UNL A   1      47.247  24.729  26.388  1.00  0.00     0.029 A 
ATOM     49  C   UNL A   1      47.033  26.122  26.772  1.00  0.00     0.049 A 
ATOM     50  H   UNL A   1      45.296  26.973  27.542  1.00  0.00     0.167 HD
ATOM     51  C   UNL A   1      41.512  28.719  28.800  1.00  0.00     0.037 A 
ATOM     52  C   UNL A   1      47.947  27.103  26.681  1.00  0.00     0.037 A 
ATOM     53  C   UNL A   1      42.428  29.827  28.759  1.00  0.00     0.049 A 
ATOM     54  C   UNL A   1      47.572  28.510  27.039  1.00  0.00     0.074 A 
ATOM     55  C   UNL A   1      42.209  31.144  29.125  1.00  0.00     0.029 A 
ATOM     56  N   UNL A   1      43.743  29.746  28.330  1.00  0.00    -0.354 N 
ATOM     57  N   UNL A   1      46.424  28.973  27.465  1.00  0.00    -0.248 NA
ATOM     58  C   UNL A   1      48.615  29.534  26.882  1.00  0.00     0.031 C 
ATOM     59  C   UNL A   1      43.390  31.865  28.905  1.00  0.00     0.029 A 
ATOM     60  C   UNL A   1      44.344  30.992  28.409  1.00  0.00     0.049 A 
ATOM     61  H   UNL A   1      44.185  28.924  28.015  1.00  0.00     0.167 HD
ATOM     62  C   UNL A   1      46.601  30.340  27.620  1.00  0.00     0.074 A 
ATOM     63  C   UNL A   1      47.971  30.632  27.252  1.00  0.00     0.031 C 
ATOM     64  C   UNL A   1      45.703  31.268  28.028  1.00  0.00     0.037 A 
BRANCH  51  65
ATOM     65  C   UNL A   1      40.099  28.989  29.201  1.00  0.00     0.064 A 
ATOM     66  C   UNL A   1      39.110  29.263  28.249  1.00  0.00     0.173 A 
ATOM     67  C   UNL A   1      39.727  28.941  30.552  1.00  0.00     0.173 A 
ATOM     68  F   UNL A   1      39.427  29.328  26.947  1.00  0.00    -0.203 F 
ATOM     69  C   UNL A   1      37.792  29.485  28.636  1.00  0.00     0.198 A 
ATOM     70  C   UNL A   1      38.407  29.157  30.935  1.00  0.00     0.198 A 
ATOM     71  F   UNL A   1      40.645  28.689  31.497  1.00  0.00    -0.203 F 
ATOM     72  F   UNL A   1      36.860  29.759  27.712  1.00  0.00    -0.200 F 
ATOM     73  C   UNL A   1      37.441  29.430  29.978  1.00  0.00     0.200 A 
ATOM     74  F   UNL A   1      38.069  29.109  32.232  1.00  0.00    -0.200 F 
ATOM     75  F   UNL A   1      36.172  29.646  30.349  1.00  0.00    -0.200 F 
ENDBRANCH  51  65
BRANCH  52  76
ATOM     76  C   UNL A   1      49.308  26.785  26.196  1.00  0.00     0.064 A 
ATOM     77  C   UNL A   1      49.651  26.976  24.852  1.00  0.00     0.173 A 
ATOM     78  C   UNL A   1      50.294  26.311  27.072  1.00  0.00     0.173 A 
ATOM     79  F   UNL A   1      48.732  27.418  23.983  1.00  0.00    -0.203 F 
ATOM     80  C   UNL A   1      50.939  26.701  24.399  1.00  0.00     0.198 A 
ATOM     81  C   UNL A   1      51.583  26.044  26.618  1.00  0.00     0.198 A 
ATOM     82  F   UNL A   1      50.003  26.114  28.365  1.00  0.00    -0.203 F 
ATOM     83  F   UNL A   1      51.246  26.882  23.107  1.00  0.00    -0.200 F 
ATOM     84  C   UNL A   1      51.904  26.239  25.282  1.00  0.00     0.200 A 
ATOM     85  F   UNL A   1      52.514  25.601  27.473  1.00  0.00    -0.200 F 
ATOM     86  F   UNL A   1      53.144  25.979  24.846  1.00  0.00    -0.200 F 
ENDBRANCH  52  76
BRANCH  64  87
ATOM     87  C   UNL A   1      46.174  32.687  28.085  1.00  0.00     0.064 A 
ATOM     88  C   UNL A   1      45.995  33.545  26.992  1.00  0.00     0.173 A 
ATOM     89  C   UNL A   1      46.782  33.196  29.240  1.00  0.00     0.173 A 
ATOM     90  F   UNL A   1      45.430  33.094  25.864  1.00  0.00    -0.203 F 
ATOM     91  C   UNL A   1      46.417  34.871  27.053  1.00  0.00     0.198 A 
ATOM     92  C   UNL A   1      47.198  34.523  29.299  1.00  0.00     0.198 A 
ATOM     93  F   UNL A   1      46.980  32.403  30.304  1.00  0.00    -0.203 F 
ATOM     94  F   UNL A   1      46.254  35.675  25.994  1.00  0.00    -0.200 F 
ATOM     95  C   UNL A   1      47.016  35.359  28.207  1.00  0.00     0.200 A 
ATOM     96  F   UNL A   1      47.783  34.992  30.410  1.00  0.00    -0.200 F 
ATOM     97  F   UNL A   1      47.427  36.633  28.261  1.00  0.00    -0.200 F 
ENDBRANCH  64  87
ENDBRANCH  38  39
ENDBRANCH  30  33
ENDBRANCH  28  29
ENDBRANCH  27  28
ENDBRANCH   1  27
TORSDOF 14
ENDMDL
