MODEL 1
REMARK VINA RESULT:     -10.8      0.000      0.000
REMARK SMILES O=Cc1cn(-c2ccc(Cl)cc2)nc1C(=O)NCCCNC(=O)c1ccc(-c2c3nc(c(-c4c(F)c(F)c(F)c(F)c4F)c4ccc([nH]4)c(-c4c(F)c(F)c(F)c(F)c4F)c4nc(c(-c5c(F)c(F)c(F)c(F)c5F)c5ccc2[nH]5)C=C4)C=C3)cc1
REMARK SMILES IDX 19 1 18 2 17 3 15 4 16 5 14 7 3 8 4 9 5 10 13 11 2 12 1 13
REMARK SMILES IDX 6 14 7 15 12 16 8 17 11 18 9 19 10 20 20 21 21 22 22 23
REMARK SMILES IDX 23 25 24 26 25 27 86 28 26 29 85 30 27 31 28 32 29 33 79 34
REMARK SMILES IDX 30 35 84 36 78 37 80 38 31 39 83 40 77 41 76 42 32 44 64 45
REMARK SMILES IDX 44 46 63 47 45 48 48 49 62 50 81 51 46 52 47 53 61 55 82 56
REMARK SMILES IDX 49 57 33 58 34 59 42 60 35 61 36 62 40 63 43 64 37 65 38 66
REMARK SMILES IDX 41 67 39 68 65 69 66 70 74 71 67 72 68 73 72 74 75 75 69 76
REMARK SMILES IDX 70 77 73 78 71 79 50 80 51 81 59 82 52 83 53 84 57 85 60 86
REMARK SMILES IDX 54 87 55 88 58 89 56 90
REMARK H PARENT 17 6 21 24 80 43 48 54
REMARK Flexibility Score: inf
ROOT
ATOM      1  C   UNL A   1      34.475  33.963  31.688  1.00  0.00     0.042 C 
ENDROOT
BRANCH   1   2
ATOM      2  C   UNL A   1      35.572  34.648  32.480  1.00  0.00     0.118 C 
BRANCH   2   3
ATOM      3  N   UNL A   1      35.680  34.321  33.890  1.00  0.00    -0.351 N 
ATOM      4  C   UNL A   1      36.696  33.666  34.564  1.00  0.00     0.272 C 
ATOM      5  O   UNL A   1      36.562  33.533  35.782  1.00  0.00    -0.267 OA
ATOM      6  H   UNL A   1      34.920  34.607  34.448  1.00  0.00     0.163 HD
BRANCH   4   7
ATOM      7  C   UNL A   1      37.880  33.150  33.837  1.00  0.00     0.161 A 
ATOM      8  C   UNL A   1      38.443  31.836  33.814  1.00  0.00     0.066 A 
ATOM      9  C   UNL A   1      39.577  31.952  33.054  1.00  0.00     0.127 A 
ATOM     10  N   UNL A   1      39.544  33.191  32.482  1.00  0.00    -0.239 N 
ATOM     11  N   UNL A   1      38.618  33.984  33.062  1.00  0.00    -0.162 NA
BRANCH   8  12
ATOM     12  C   UNL A   1      38.042  30.594  34.425  1.00  0.00     0.264 C 
ATOM     13  O   UNL A   1      38.490  30.207  35.500  1.00  0.00    -0.298 OA
ENDBRANCH   8  12
BRANCH  10  14
ATOM     14  C   UNL A   1      40.348  33.585  31.391  1.00  0.00     0.065 A 
ATOM     15  C   UNL A   1      41.639  33.040  31.286  1.00  0.00     0.030 A 
ATOM     16  C   UNL A   1      39.897  34.523  30.460  1.00  0.00     0.030 A 
ATOM     17  C   UNL A   1      42.500  33.464  30.280  1.00  0.00     0.023 A 
ATOM     18  C   UNL A   1      40.786  34.978  29.477  1.00  0.00     0.023 A 
ATOM     19  C   UNL A   1      42.080  34.453  29.397  1.00  0.00     0.041 A 
ATOM     20  Cl  UNL A   1      43.176  35.038  28.208  1.00  0.00    -0.084 Cl
ENDBRANCH  10  14
ENDBRANCH   4   7
ENDBRANCH   2   3
ENDBRANCH   1   2
BRANCH   1  21
ATOM     21  C   UNL A   1      34.817  32.552  31.279  1.00  0.00     0.118 C 
BRANCH  21  22
ATOM     22  N   UNL A   1      34.521  32.212  29.881  1.00  0.00    -0.352 N 
ATOM     23  C   UNL A   1      35.361  31.549  28.982  1.00  0.00     0.251 C 
ATOM     24  H   UNL A   1      33.635  32.477  29.541  1.00  0.00     0.163 HD
ATOM     25  O   UNL A   1      35.140  31.505  27.797  1.00  0.00    -0.269 OA
BRANCH  23  26
ATOM     26  C   UNL A   1      36.550  30.891  29.563  1.00  0.00     0.039 A 
ATOM     27  C   UNL A   1      36.572  29.537  29.908  1.00  0.00     0.014 A 
ATOM     28  C   UNL A   1      37.708  31.649  29.552  1.00  0.00     0.014 A 
ATOM     29  C   UNL A   1      37.809  28.933  30.134  1.00  0.00     0.010 A 
ATOM     30  C   UNL A   1      38.898  30.995  29.473  1.00  0.00     0.010 A 
ATOM     31  C   UNL A   1      38.974  29.669  29.880  1.00  0.00    -0.014 A 
BRANCH  31  32
ATOM     32  C   UNL A   1      40.312  29.092  29.945  1.00  0.00     0.031 A 
ATOM     33  C   UNL A   1      40.872  28.968  31.320  1.00  0.00     0.074 A 
ATOM     34  C   UNL A   1      40.831  28.455  28.867  1.00  0.00     0.049 A 
ATOM     35  N   UNL A   1      41.935  29.522  31.803  1.00  0.00    -0.248 NA
ATOM     36  C   UNL A   1      40.084  28.236  32.328  1.00  0.00     0.031 C 
ATOM     37  C   UNL A   1      40.182  28.219  27.562  1.00  0.00     0.029 A 
ATOM     38  N   UNL A   1      41.986  27.747  28.741  1.00  0.00    -0.354 N 
ATOM     39  C   UNL A   1      42.064  29.037  33.106  1.00  0.00     0.074 A 
ATOM     40  C   UNL A   1      40.805  28.428  33.435  1.00  0.00     0.031 C 
ATOM     41  C   UNL A   1      40.810  27.222  26.907  1.00  0.00     0.029 A 
ATOM     42  C   UNL A   1      42.021  26.907  27.631  1.00  0.00     0.049 A 
ATOM     43  H   UNL A   1      42.732  27.823  29.379  1.00  0.00     0.167 HD
ATOM     44  C   UNL A   1      43.292  28.921  33.687  1.00  0.00     0.037 A 
ATOM     45  C   UNL A   1      42.978  25.999  27.331  1.00  0.00     0.037 A 
ATOM     46  C   UNL A   1      44.273  29.652  32.926  1.00  0.00     0.049 A 
ATOM     47  C   UNL A   1      44.177  26.366  28.116  1.00  0.00     0.074 A 
ATOM     48  C   UNL A   1      44.553  30.976  32.678  1.00  0.00     0.029 A 
ATOM     49  N   UNL A   1      44.901  28.912  31.958  1.00  0.00    -0.354 N 
ATOM     50  N   UNL A   1      44.844  27.474  27.943  1.00  0.00    -0.248 NA
ATOM     51  C   UNL A   1      44.412  25.686  29.382  1.00  0.00     0.031 C 
ATOM     52  C   UNL A   1      45.112  31.008  31.365  1.00  0.00     0.029 A 
ATOM     53  C   UNL A   1      45.208  29.701  30.885  1.00  0.00     0.049 A 
ATOM     54  H   UNL A   1      45.102  27.951  32.026  1.00  0.00     0.167 HD
ATOM     55  C   UNL A   1      45.247  27.842  29.216  1.00  0.00     0.074 A 
ATOM     56  C   UNL A   1      45.096  26.637  30.023  1.00  0.00     0.031 C 
ATOM     57  C   UNL A   1      45.364  29.160  29.550  1.00  0.00     0.037 A 
BRANCH  44  58
ATOM     58  C   UNL A   1      43.725  27.797  34.615  1.00  0.00     0.064 A 
ATOM     59  C   UNL A   1      43.629  26.463  34.156  1.00  0.00     0.173 A 
ATOM     60  C   UNL A   1      43.908  27.938  36.008  1.00  0.00     0.173 A 
ATOM     61  F   UNL A   1      43.444  26.200  32.854  1.00  0.00    -0.203 F 
ATOM     62  C   UNL A   1      43.623  25.373  35.031  1.00  0.00     0.198 A 
ATOM     63  C   UNL A   1      43.951  26.843  36.873  1.00  0.00     0.198 A 
ATOM     64  F   UNL A   1      43.937  29.129  36.612  1.00  0.00    -0.203 F 
ATOM     65  F   UNL A   1      43.395  24.140  34.560  1.00  0.00    -0.200 F 
ATOM     66  C   UNL A   1      43.775  25.564  36.391  1.00  0.00     0.200 A 
ATOM     67  F   UNL A   1      44.081  27.053  38.191  1.00  0.00    -0.200 F 
ATOM     68  F   UNL A   1      43.703  24.530  37.239  1.00  0.00    -0.200 F 
ENDBRANCH  44  58
BRANCH  45  69
ATOM     69  C   UNL A   1      42.820  24.697  26.646  1.00  0.00     0.064 A 
ATOM     70  C   UNL A   1      43.438  24.437  25.414  1.00  0.00     0.173 A 
ATOM     71  C   UNL A   1      42.273  23.588  27.322  1.00  0.00     0.173 A 
ATOM     72  F   UNL A   1      44.020  25.434  24.731  1.00  0.00    -0.203 F 
ATOM     73  C   UNL A   1      43.525  23.139  24.899  1.00  0.00     0.198 A 
ATOM     74  C   UNL A   1      42.358  22.294  26.807  1.00  0.00     0.198 A 
ATOM     75  F   UNL A   1      41.731  23.731  28.541  1.00  0.00    -0.203 F 
ATOM     76  F   UNL A   1      44.174  22.919  23.746  1.00  0.00    -0.200 F 
ATOM     77  C   UNL A   1      42.995  22.067  25.601  1.00  0.00     0.200 A 
ATOM     78  F   UNL A   1      41.878  21.262  27.516  1.00  0.00    -0.200 F 
ATOM     79  F   UNL A   1      43.134  20.817  25.138  1.00  0.00    -0.200 F 
ENDBRANCH  45  69
BRANCH  57  80
ATOM     80  C   UNL A   1      45.482  30.157  28.434  1.00  0.00     0.064 A 
ATOM     81  C   UNL A   1      44.405  30.867  27.881  1.00  0.00     0.173 A 
ATOM     82  C   UNL A   1      46.772  30.510  28.020  1.00  0.00     0.173 A 
ATOM     83  F   UNL A   1      43.149  30.639  28.280  1.00  0.00    -0.203 F 
ATOM     84  C   UNL A   1      44.615  31.876  26.940  1.00  0.00     0.198 A 
ATOM     85  C   UNL A   1      46.982  31.542  27.111  1.00  0.00     0.198 A 
ATOM     86  F   UNL A   1      47.839  29.893  28.552  1.00  0.00    -0.203 F 
ATOM     87  F   UNL A   1      43.572  32.544  26.425  1.00  0.00    -0.200 F 
ATOM     88  C   UNL A   1      45.904  32.220  26.568  1.00  0.00     0.200 A 
ATOM     89  F   UNL A   1      48.232  31.900  26.791  1.00  0.00    -0.200 F 
ATOM     90  F   UNL A   1      46.110  33.225  25.704  1.00  0.00    -0.200 F 
ENDBRANCH  57  80
ENDBRANCH  31  32
ENDBRANCH  23  26
ENDBRANCH  21  22
ENDBRANCH   1  21
TORSDOF 12
ENDMDL
MODEL 2
REMARK VINA RESULT:     -10.7      4.878      9.589
REMARK SMILES O=Cc1cn(-c2ccc(Cl)cc2)nc1C(=O)NCCCNC(=O)c1ccc(-c2c3nc(c(-c4c(F)c(F)c(F)c(F)c4F)c4ccc([nH]4)c(-c4c(F)c(F)c(F)c(F)c4F)c4nc(c(-c5c(F)c(F)c(F)c(F)c5F)c5ccc2[nH]5)C=C4)C=C3)cc1
REMARK SMILES IDX 19 1 18 2 17 3 15 4 16 5 14 7 3 8 4 9 5 10 13 11 2 12 1 13
REMARK SMILES IDX 6 14 7 15 12 16 8 17 11 18 9 19 10 20 20 21 21 22 22 23
REMARK SMILES IDX 23 25 24 26 25 27 86 28 26 29 85 30 27 31 28 32 29 33 79 34
REMARK SMILES IDX 30 35 84 36 78 37 80 38 31 39 83 40 77 41 76 42 32 44 64 45
REMARK SMILES IDX 44 46 63 47 45 48 48 49 62 50 81 51 46 52 47 53 61 55 82 56
REMARK SMILES IDX 49 57 33 58 34 59 42 60 35 61 36 62 40 63 43 64 37 65 38 66
REMARK SMILES IDX 41 67 39 68 65 69 66 70 74 71 67 72 68 73 72 74 75 75 69 76
REMARK SMILES IDX 70 77 73 78 71 79 50 80 51 81 59 82 52 83 53 84 57 85 60 86
REMARK SMILES IDX 54 87 55 88 58 89 56 90
REMARK H PARENT 17 6 21 24 80 43 48 54
REMARK Flexibility Score: inf
ROOT
ATOM      1  C   UNL A   1      37.821  20.362  24.931  1.00  0.00     0.042 C 
ENDROOT
BRANCH   1   2
ATOM      2  C   UNL A   1      36.808  21.451  25.228  1.00  0.00     0.118 C 
BRANCH   2   3
ATOM      3  N   UNL A   1      35.877  21.217  26.318  1.00  0.00    -0.351 N 
ATOM      4  C   UNL A   1      34.674  21.843  26.592  1.00  0.00     0.272 C 
ATOM      5  O   UNL A   1      34.048  21.441  27.575  1.00  0.00    -0.267 OA
ATOM      6  H   UNL A   1      36.141  20.513  26.953  1.00  0.00     0.163 HD
BRANCH   4   7
ATOM      7  C   UNL A   1      34.178  22.947  25.737  1.00  0.00     0.161 A 
ATOM      8  C   UNL A   1      33.580  22.906  24.438  1.00  0.00     0.066 A 
ATOM      9  C   UNL A   1      33.404  24.219  24.090  1.00  0.00     0.127 A 
ATOM     10  N   UNL A   1      33.662  24.961  25.206  1.00  0.00    -0.239 N 
ATOM     11  N   UNL A   1      34.281  24.232  26.159  1.00  0.00    -0.162 NA
BRANCH   8  12
ATOM     12  C   UNL A   1      33.221  21.816  23.566  1.00  0.00     0.264 C 
ATOM     13  O   UNL A   1      32.554  20.857  23.941  1.00  0.00    -0.298 OA
ENDBRANCH   8  12
BRANCH  10  14
ATOM     14  C   UNL A   1      33.292  26.314  25.365  1.00  0.00     0.065 A 
ATOM     15  C   UNL A   1      32.478  26.656  26.460  1.00  0.00     0.030 A 
ATOM     16  C   UNL A   1      33.682  27.287  24.442  1.00  0.00     0.030 A 
ATOM     17  C   UNL A   1      32.014  27.958  26.609  1.00  0.00     0.023 A 
ATOM     18  C   UNL A   1      33.174  28.585  24.575  1.00  0.00     0.023 A 
ATOM     19  C   UNL A   1      32.341  28.911  25.650  1.00  0.00     0.041 A 
ATOM     20  Cl  UNL A   1      31.695  30.499  25.791  1.00  0.00    -0.084 Cl
ENDBRANCH  10  14
ENDBRANCH   4   7
ENDBRANCH   2   3
ENDBRANCH   1   2
BRANCH   1  21
ATOM     21  C   UNL A   1      39.092  20.484  25.733  1.00  0.00     0.118 C 
BRANCH  21  22
ATOM     22  N   UNL A   1      39.951  19.293  25.738  1.00  0.00    -0.352 N 
ATOM     23  C   UNL A   1      41.328  19.252  25.973  1.00  0.00     0.251 C 
ATOM     24  H   UNL A   1      39.510  18.431  25.560  1.00  0.00     0.163 HD
ATOM     25  O   UNL A   1      41.999  18.276  25.740  1.00  0.00    -0.269 OA
BRANCH  23  26
ATOM     26  C   UNL A   1      41.932  20.480  26.531  1.00  0.00     0.039 A 
ATOM     27  C   UNL A   1      42.453  21.499  25.730  1.00  0.00     0.014 A 
ATOM     28  C   UNL A   1      41.762  20.654  27.894  1.00  0.00     0.014 A 
ATOM     29  C   UNL A   1      42.696  22.742  26.314  1.00  0.00     0.010 A 
ATOM     30  C   UNL A   1      41.712  21.925  28.374  1.00  0.00     0.010 A 
ATOM     31  C   UNL A   1      42.288  22.953  27.638  1.00  0.00    -0.014 A 
BRANCH  31  32
ATOM     32  C   UNL A   1      42.362  24.252  28.298  1.00  0.00     0.031 A 
ATOM     33  C   UNL A   1      41.188  25.139  28.066  1.00  0.00     0.074 A 
ATOM     34  C   UNL A   1      43.280  24.468  29.273  1.00  0.00     0.049 A 
ATOM     35  N   UNL A   1      41.163  26.301  27.500  1.00  0.00    -0.248 NA
ATOM     36  C   UNL A   1      39.847  24.615  28.386  1.00  0.00     0.031 C 
ATOM     37  C   UNL A   1      44.257  23.506  29.818  1.00  0.00     0.029 A 
ATOM     38  N   UNL A   1      43.446  25.539  30.095  1.00  0.00    -0.354 N 
ATOM     39  C   UNL A   1      39.842  26.744  27.589  1.00  0.00     0.074 A 
ATOM     40  C   UNL A   1      39.056  25.597  27.948  1.00  0.00     0.031 C 
ATOM     41  C   UNL A   1      44.699  23.927  31.020  1.00  0.00     0.029 A 
ATOM     42  C   UNL A   1      44.217  25.275  31.224  1.00  0.00     0.049 A 
ATOM     43  H   UNL A   1      43.056  26.423  29.908  1.00  0.00     0.167 HD
ATOM     44  C   UNL A   1      39.558  28.076  27.648  1.00  0.00     0.037 A 
ATOM     45  C   UNL A   1      44.436  26.106  32.270  1.00  0.00     0.037 A 
ATOM     46  C   UNL A   1      40.715  28.848  27.274  1.00  0.00     0.049 A 
ATOM     47  C   UNL A   1      44.106  27.471  31.807  1.00  0.00     0.074 A 
ATOM     48  C   UNL A   1      41.421  29.085  26.116  1.00  0.00     0.029 A 
ATOM     49  N   UNL A   1      41.525  29.196  28.324  1.00  0.00    -0.354 N 
ATOM     50  N   UNL A   1      44.765  28.096  30.869  1.00  0.00    -0.248 NA
ATOM     51  C   UNL A   1      42.784  28.004  32.103  1.00  0.00     0.031 C 
ATOM     52  C   UNL A   1      42.771  29.295  26.527  1.00  0.00     0.029 A 
ATOM     53  C   UNL A   1      42.830  29.238  27.921  1.00  0.00     0.049 A 
ATOM     54  H   UNL A   1      41.211  29.387  29.237  1.00  0.00     0.167 HD
ATOM     55  C   UNL A   1      43.801  28.815  30.184  1.00  0.00     0.074 A 
ATOM     56  C   UNL A   1      42.648  28.848  31.077  1.00  0.00     0.031 C 
ATOM     57  C   UNL A   1      43.929  29.040  28.843  1.00  0.00     0.037 A 
BRANCH  44  58
ATOM     58  C   UNL A   1      38.455  28.707  28.485  1.00  0.00     0.064 A 
ATOM     59  C   UNL A   1      37.716  29.779  27.934  1.00  0.00     0.173 A 
ATOM     60  C   UNL A   1      38.316  28.539  29.879  1.00  0.00     0.173 A 
ATOM     61  F   UNL A   1      37.774  30.047  26.621  1.00  0.00    -0.203 F 
ATOM     62  C   UNL A   1      36.978  30.661  28.729  1.00  0.00     0.198 A 
ATOM     63  C   UNL A   1      37.537  29.392  30.663  1.00  0.00     0.198 A 
ATOM     64  F   UNL A   1      39.008  27.625  30.565  1.00  0.00    -0.203 F 
ATOM     65  F   UNL A   1      36.406  31.739  28.177  1.00  0.00    -0.200 F 
ATOM     66  C   UNL A   1      36.897  30.473  30.096  1.00  0.00     0.200 A 
ATOM     67  F   UNL A   1      37.487  29.201  31.989  1.00  0.00    -0.200 F 
ATOM     68  F   UNL A   1      36.247  31.350  30.870  1.00  0.00    -0.200 F 
ENDBRANCH  44  58
BRANCH  45  69
ATOM     69  C   UNL A   1      44.626  25.752  33.694  1.00  0.00     0.064 A 
ATOM     70  C   UNL A   1      43.533  25.529  34.545  1.00  0.00     0.173 A 
ATOM     71  C   UNL A   1      45.890  25.364  34.179  1.00  0.00     0.173 A 
ATOM     72  F   UNL A   1      42.291  25.831  34.138  1.00  0.00    -0.203 F 
ATOM     73  C   UNL A   1      43.693  24.931  35.800  1.00  0.00     0.198 A 
ATOM     74  C   UNL A   1      46.050  24.770  35.431  1.00  0.00     0.198 A 
ATOM     75  F   UNL A   1      46.981  25.470  33.404  1.00  0.00    -0.203 F 
ATOM     76  F   UNL A   1      42.620  24.680  36.564  1.00  0.00    -0.200 F 
ATOM     77  C   UNL A   1      44.950  24.542  36.238  1.00  0.00     0.200 A 
ATOM     78  F   UNL A   1      47.265  24.362  35.824  1.00  0.00    -0.200 F 
ATOM     79  F   UNL A   1      45.096  23.913  37.412  1.00  0.00    -0.200 F 
ENDBRANCH  45  69
BRANCH  57  80
ATOM     80  C   UNL A   1      45.294  28.894  28.237  1.00  0.00     0.064 A 
ATOM     81  C   UNL A   1      45.774  27.726  27.624  1.00  0.00     0.173 A 
ATOM     82  C   UNL A   1      46.085  30.046  28.145  1.00  0.00     0.173 A 
ATOM     83  F   UNL A   1      45.043  26.606  27.603  1.00  0.00    -0.203 F 
ATOM     84  C   UNL A   1      47.002  27.712  26.962  1.00  0.00     0.198 A 
ATOM     85  C   UNL A   1      47.292  30.040  27.454  1.00  0.00     0.198 A 
ATOM     86  F   UNL A   1      45.652  31.200  28.676  1.00  0.00    -0.203 F 
ATOM     87  F   UNL A   1      47.441  26.586  26.381  1.00  0.00    -0.200 F 
ATOM     88  C   UNL A   1      47.752  28.873  26.867  1.00  0.00     0.200 A 
ATOM     89  F   UNL A   1      47.989  31.176  27.326  1.00  0.00    -0.200 F 
ATOM     90  F   UNL A   1      48.907  28.874  26.187  1.00  0.00    -0.200 F 
ENDBRANCH  57  80
ENDBRANCH  31  32
ENDBRANCH  23  26
ENDBRANCH  21  22
ENDBRANCH   1  21
TORSDOF 12
ENDMDL
MODEL 3
REMARK VINA RESULT:     -10.6      5.900     10.735
REMARK SMILES O=Cc1cn(-c2ccc(Cl)cc2)nc1C(=O)NCCCNC(=O)c1ccc(-c2c3nc(c(-c4c(F)c(F)c(F)c(F)c4F)c4ccc([nH]4)c(-c4c(F)c(F)c(F)c(F)c4F)c4nc(c(-c5c(F)c(F)c(F)c(F)c5F)c5ccc2[nH]5)C=C4)C=C3)cc1
REMARK SMILES IDX 19 1 18 2 17 3 15 4 16 5 14 7 3 8 4 9 5 10 13 11 2 12 1 13
REMARK SMILES IDX 6 14 7 15 12 16 8 17 11 18 9 19 10 20 20 21 21 22 22 23
REMARK SMILES IDX 23 25 24 26 25 27 86 28 26 29 85 30 27 31 28 32 29 33 79 34
REMARK SMILES IDX 30 35 84 36 78 37 80 38 31 39 83 40 77 41 76 42 32 44 64 45
REMARK SMILES IDX 44 46 63 47 45 48 48 49 62 50 81 51 46 52 47 53 61 55 82 56
REMARK SMILES IDX 49 57 33 58 34 59 42 60 35 61 36 62 40 63 43 64 37 65 38 66
REMARK SMILES IDX 41 67 39 68 65 69 66 70 74 71 67 72 68 73 72 74 75 75 69 76
REMARK SMILES IDX 70 77 73 78 71 79 50 80 51 81 59 82 52 83 53 84 57 85 60 86
REMARK SMILES IDX 54 87 55 88 58 89 56 90
REMARK H PARENT 17 6 21 24 80 43 48 54
REMARK Flexibility Score: inf
ROOT
ATOM      1  C   UNL A   1      37.486  21.082  25.058  1.00  0.00     0.042 C 
ENDROOT
BRANCH   1   2
ATOM      2  C   UNL A   1      37.079  22.309  24.265  1.00  0.00     0.118 C 
BRANCH   2   3
ATOM      3  N   UNL A   1      36.233  23.283  24.931  1.00  0.00    -0.351 N 
ATOM      4  C   UNL A   1      34.860  23.275  25.111  1.00  0.00     0.272 C 
ATOM      5  O   UNL A   1      34.376  24.217  25.741  1.00  0.00    -0.267 OA
ATOM      6  H   UNL A   1      36.703  24.062  25.308  1.00  0.00     0.163 HD
BRANCH   4   7
ATOM      7  C   UNL A   1      34.028  22.181  24.559  1.00  0.00     0.161 A 
ATOM      8  C   UNL A   1      33.217  22.147  23.382  1.00  0.00     0.066 A 
ATOM      9  C   UNL A   1      32.603  20.922  23.412  1.00  0.00     0.127 A 
ATOM     10  N   UNL A   1      33.200  20.206  24.409  1.00  0.00    -0.239 N 
ATOM     11  N   UNL A   1      33.945  20.995  25.213  1.00  0.00    -0.162 NA
BRANCH   8  12
ATOM     12  C   UNL A   1      32.977  23.110  22.337  1.00  0.00     0.264 C 
ATOM     13  O   UNL A   1      33.883  23.671  21.729  1.00  0.00    -0.298 OA
ENDBRANCH   8  12
BRANCH  10  14
ATOM     14  C   UNL A   1      33.087  18.807  24.562  1.00  0.00     0.065 A 
ATOM     15  C   UNL A   1      32.628  18.308  25.793  1.00  0.00     0.030 A 
ATOM     16  C   UNL A   1      33.460  17.934  23.538  1.00  0.00     0.030 A 
ATOM     17  C   UNL A   1      32.586  16.938  26.023  1.00  0.00     0.023 A 
ATOM     18  C   UNL A   1      33.456  16.556  23.792  1.00  0.00     0.023 A 
ATOM     19  C   UNL A   1      33.026  16.068  25.030  1.00  0.00     0.041 A 
ATOM     20  Cl  UNL A   1      33.054  14.378  25.348  1.00  0.00    -0.084 Cl
ENDBRANCH  10  14
ENDBRANCH   4   7
ENDBRANCH   2   3
ENDBRANCH   1   2
BRANCH   1  21
ATOM     21  C   UNL A   1      38.911  21.125  25.548  1.00  0.00     0.118 C 
BRANCH  21  22
ATOM     22  N   UNL A   1      39.601  19.829  25.595  1.00  0.00    -0.352 N 
ATOM     23  C   UNL A   1      40.941  19.603  25.922  1.00  0.00     0.251 C 
ATOM     24  H   UNL A   1      39.062  19.035  25.374  1.00  0.00     0.163 HD
ATOM     25  O   UNL A   1      41.490  18.548  25.721  1.00  0.00    -0.269 OA
BRANCH  23  26
ATOM     26  C   UNL A   1      41.663  20.736  26.539  1.00  0.00     0.039 A 
ATOM     27  C   UNL A   1      42.373  21.678  25.790  1.00  0.00     0.014 A 
ATOM     28  C   UNL A   1      41.420  20.926  27.888  1.00  0.00     0.014 A 
ATOM     29  C   UNL A   1      42.738  22.874  26.407  1.00  0.00     0.010 A 
ATOM     30  C   UNL A   1      41.507  22.191  28.380  1.00  0.00     0.010 A 
ATOM     31  C   UNL A   1      42.268  23.134  27.701  1.00  0.00    -0.014 A 
BRANCH  31  32
ATOM     32  C   UNL A   1      42.468  24.408  28.382  1.00  0.00     0.031 A 
ATOM     33  C   UNL A   1      41.395  25.415  28.152  1.00  0.00     0.074 A 
ATOM     34  C   UNL A   1      43.392  24.514  29.369  1.00  0.00     0.049 A 
ATOM     35  N   UNL A   1      41.496  26.582  27.604  1.00  0.00    -0.248 NA
ATOM     36  C   UNL A   1      40.004  25.029  28.452  1.00  0.00     0.031 C 
ATOM     37  C   UNL A   1      44.258  23.448  29.908  1.00  0.00     0.029 A 
ATOM     38  N   UNL A   1      43.659  25.550  30.210  1.00  0.00    -0.354 N 
ATOM     39  C   UNL A   1      40.227  27.158  27.688  1.00  0.00     0.074 A 
ATOM     40  C   UNL A   1      39.323  26.093  28.021  1.00  0.00     0.031 C 
ATOM     41  C   UNL A   1      44.728  23.804  31.121  1.00  0.00     0.029 A 
ATOM     42  C   UNL A   1      44.386  25.191  31.342  1.00  0.00     0.049 A 
ATOM     43  H   UNL A   1      43.364  26.472  30.032  1.00  0.00     0.167 HD
ATOM     44  C   UNL A   1      40.082  28.511  27.765  1.00  0.00     0.037 A 
ATOM     45  C   UNL A   1      44.677  25.979  32.402  1.00  0.00     0.037 A 
ATOM     46  C   UNL A   1      41.317  29.165  27.414  1.00  0.00     0.049 A 
ATOM     47  C   UNL A   1      44.496  27.378  31.958  1.00  0.00     0.074 A 
ATOM     48  C   UNL A   1      42.056  29.344  26.267  1.00  0.00     0.029 A 
ATOM     49  N   UNL A   1      42.146  29.411  28.477  1.00  0.00    -0.354 N 
ATOM     50  N   UNL A   1      45.227  27.945  31.036  1.00  0.00    -0.248 NA
ATOM     51  C   UNL A   1      43.233  28.041  32.249  1.00  0.00     0.031 C 
ATOM     52  C   UNL A   1      43.416  29.407  26.695  1.00  0.00     0.029 A 
ATOM     53  C   UNL A   1      43.453  29.324  28.088  1.00  0.00     0.049 A 
ATOM     54  H   UNL A   1      41.844  29.620  29.390  1.00  0.00     0.167 HD
ATOM     55  C   UNL A   1      44.350  28.770  30.353  1.00  0.00     0.074 A 
ATOM     56  C   UNL A   1      43.196  28.909  31.235  1.00  0.00     0.031 C 
ATOM     57  C   UNL A   1      44.516  29.000  29.018  1.00  0.00     0.037 A 
BRANCH  44  58
ATOM     58  C   UNL A   1      39.041  29.240  28.600  1.00  0.00     0.064 A 
ATOM     59  C   UNL A   1      39.037  29.043  30.001  1.00  0.00     0.173 A 
ATOM     60  C   UNL A   1      37.875  29.840  28.078  1.00  0.00     0.173 A 
ATOM     61  F   UNL A   1      40.084  28.472  30.614  1.00  0.00    -0.203 F 
ATOM     62  C   UNL A   1      37.921  29.336  30.791  1.00  0.00     0.198 A 
ATOM     63  C   UNL A   1      36.782  30.177  28.879  1.00  0.00     0.198 A 
ATOM     64  F   UNL A   1      37.686  30.022  26.768  1.00  0.00    -0.203 F 
ATOM     65  F   UNL A   1      37.917  29.007  32.089  1.00  0.00    -0.200 F 
ATOM     66  C   UNL A   1      36.790  29.895  30.227  1.00  0.00     0.200 A 
ATOM     67  F   UNL A   1      35.688  30.702  28.308  1.00  0.00    -0.200 F 
ATOM     68  F   UNL A   1      35.695  30.116  30.966  1.00  0.00    -0.200 F 
ENDBRANCH  44  58
BRANCH  45  69
ATOM     69  C   UNL A   1      44.813  25.587  33.822  1.00  0.00     0.064 A 
ATOM     70  C   UNL A   1      43.691  25.419  34.647  1.00  0.00     0.173 A 
ATOM     71  C   UNL A   1      46.040  25.109  34.325  1.00  0.00     0.173 A 
ATOM     72  F   UNL A   1      42.480  25.809  34.221  1.00  0.00    -0.203 F 
ATOM     73  C   UNL A   1      43.785  24.788  35.893  1.00  0.00     0.198 A 
ATOM     74  C   UNL A   1      46.134  24.482  35.568  1.00  0.00     0.198 A 
ATOM     75  F   UNL A   1      47.151  25.158  33.574  1.00  0.00    -0.203 F 
ATOM     76  F   UNL A   1      42.683  24.593  36.629  1.00  0.00    -0.200 F 
ATOM     77  C   UNL A   1      45.005  24.310  36.347  1.00  0.00     0.200 A 
ATOM     78  F   UNL A   1      47.312  23.988  35.977  1.00  0.00    -0.200 F 
ATOM     79  F   UNL A   1      45.085  23.651  37.511  1.00  0.00    -0.200 F 
ENDBRANCH  45  69
BRANCH  57  80
ATOM     80  C   UNL A   1      45.865  28.722  28.422  1.00  0.00     0.064 A 
ATOM     81  C   UNL A   1      46.221  27.528  27.775  1.00  0.00     0.173 A 
ATOM     82  C   UNL A   1      46.780  29.781  28.379  1.00  0.00     0.173 A 
ATOM     83  F   UNL A   1      45.370  26.499  27.709  1.00  0.00    -0.203 F 
ATOM     84  C   UNL A   1      47.450  27.399  27.128  1.00  0.00     0.198 A 
ATOM     85  C   UNL A   1      47.989  29.663  27.701  1.00  0.00     0.198 A 
ATOM     86  F   UNL A   1      46.470  30.958  28.944  1.00  0.00    -0.203 F 
ATOM     87  F   UNL A   1      47.770  26.250  26.514  1.00  0.00    -0.200 F 
ATOM     88  C   UNL A   1      48.325  28.471  27.080  1.00  0.00     0.200 A 
ATOM     89  F   UNL A   1      48.810  30.718  27.620  1.00  0.00    -0.200 F 
ATOM     90  F   UNL A   1      49.484  28.366  26.414  1.00  0.00    -0.200 F 
ENDBRANCH  57  80
ENDBRANCH  31  32
ENDBRANCH  23  26
ENDBRANCH  21  22
ENDBRANCH   1  21
TORSDOF 12
ENDMDL
