MODEL 1
REMARK VINA RESULT:     -15.3      0.000      0.000
REMARK SMILES Cc1c(NCc2ccccn2)cccc1C(=O)N1CCOC[C@@H]1CC(=O)NCCCNC(=O)c1ccc(-c2c3nc(c(-c4c(F)c(F)c(F)c(F)c4F)c4ccc([nH]4)c(-c4c(F)c(F)c(F)c(F)c4F)c4nc(c(-c5c(F)c(F)c(F)c(F)c5F)c5ccc2[nH]5)C=C4)C=C3)cc1
REMARK SMILES IDX 25 1 26 2 27 3 24 5 23 6 18 7 19 8 20 9 22 10 21 11 16 12
REMARK SMILES IDX 17 13 15 14 1 15 2 16 3 17 12 18 14 19 13 20 4 21 5 23 6 24
REMARK SMILES IDX 7 25 11 26 8 27 10 28 9 29 28 30 29 31 30 32 31 33 32 34
REMARK SMILES IDX 33 36 34 37 35 38 96 39 36 40 95 41 37 42 38 43 39 44 89 45
REMARK SMILES IDX 40 46 94 47 88 48 90 49 41 50 93 51 87 52 86 53 42 55 74 56
REMARK SMILES IDX 54 57 73 58 55 59 58 60 72 61 91 62 56 63 57 64 71 66 92 67
REMARK SMILES IDX 59 68 43 69 44 70 52 71 45 72 46 73 50 74 53 75 47 76 48 77
REMARK SMILES IDX 51 78 49 79 75 80 76 81 84 82 77 83 78 84 82 85 85 86 79 87
REMARK SMILES IDX 80 88 83 89 81 90 60 91 61 92 69 93 62 94 63 95 67 96 70 97
REMARK SMILES IDX 64 98 65 99 68 100 66 101
REMARK H PARENT 27 4 4 22 31 35 90 54 58 65
REMARK Flexibility Score: inf
ROOT
ATOM      1  C   UNL A   1      31.671  24.458  26.714  1.00  0.00     0.222 C 
ATOM      2  O   UNL A   1      31.371  23.643  27.591  1.00  0.00    -0.275 OA
ATOM      3  N   UNL A   1      31.126  25.745  26.713  1.00  0.00    -0.356 N 
ATOM      4  H   UNL A   1      30.167  25.921  26.850  1.00  0.00     0.163 HD
ENDROOT
BRANCH   1   5
ATOM      5  C   UNL A   1      32.689  24.143  25.616  1.00  0.00     0.127 C 
BRANCH   5   6
ATOM      6  C   UNL A   1      33.073  22.659  25.582  1.00  0.00     0.120 C 
ATOM      7  N   UNL A   1      34.425  22.203  24.958  1.00  0.00    -0.331 N 
ATOM      8  C   UNL A   1      34.464  20.703  25.016  1.00  0.00     0.148 C 
ATOM      9  C   UNL A   1      33.204  20.071  24.345  1.00  0.00     0.181 C 
ATOM     10  C   UNL A   1      31.843  21.833  25.003  1.00  0.00     0.185 C 
ATOM     11  O   UNL A   1      32.037  20.423  25.094  1.00  0.00    -0.377 OA
BRANCH   7  12
ATOM     12  C   UNL A   1      35.752  22.917  24.697  1.00  0.00     0.254 C 
ATOM     13  O   UNL A   1      35.622  23.973  24.053  1.00  0.00    -0.269 OA
BRANCH  12  14
ATOM     14  C   UNL A   1      37.426  22.632  25.328  1.00  0.00     0.045 A 
ATOM     15  C   UNL A   1      38.688  19.939  24.991  1.00  0.00     0.047 C 
ATOM     16  C   UNL A   1      38.476  21.401  25.579  1.00  0.00    -0.015 A 
ATOM     17  C   UNL A   1      39.604  21.499  26.404  1.00  0.00     0.038 A 
ATOM     18  C   UNL A   1      39.864  22.814  26.764  1.00  0.00     0.026 A 
ATOM     19  C   UNL A   1      37.794  23.836  25.919  1.00  0.00     0.014 A 
ATOM     20  C   UNL A   1      39.016  23.933  26.571  1.00  0.00     0.003 A 
BRANCH  17  21
ATOM     21  N   UNL A   1      40.404  20.439  26.876  1.00  0.00    -0.379 N 
ATOM     22  H   UNL A   1      39.838  19.673  27.126  1.00  0.00     0.160 HD
BRANCH  21  23
ATOM     23  C   UNL A   1      41.899  20.101  27.124  1.00  0.00     0.169 C 
BRANCH  23  24
ATOM     24  C   UNL A   1      42.974  20.015  25.983  1.00  0.00     0.059 A 
ATOM     25  C   UNL A   1      43.479  18.830  25.431  1.00  0.00     0.026 A 
ATOM     26  N   UNL A   1      43.428  21.197  25.483  1.00  0.00    -0.259 NA
ATOM     27  C   UNL A   1      44.570  18.852  24.544  1.00  0.00     0.004 A 
ATOM     28  C   UNL A   1      44.438  21.198  24.569  1.00  0.00     0.111 A 
ATOM     29  C   UNL A   1      45.068  20.063  24.106  1.00  0.00     0.020 A 
ENDBRANCH  23  24
ENDBRANCH  21  23
ENDBRANCH  17  21
ENDBRANCH  12  14
ENDBRANCH   7  12
ENDBRANCH   5   6
ENDBRANCH   1   5
BRANCH   3  30
ATOM     30  C   UNL A   1      32.085  26.783  26.496  1.00  0.00     0.117 C 
BRANCH  30  31
ATOM     31  C   UNL A   1      32.394  28.335  27.413  1.00  0.00     0.042 C 
BRANCH  31  32
ATOM     32  C   UNL A   1      33.637  29.639  27.255  1.00  0.00     0.118 C 
BRANCH  32  33
ATOM     33  N   UNL A   1      33.513  31.168  27.261  1.00  0.00    -0.352 N 
ATOM     34  C   UNL A   1      33.973  32.307  28.006  1.00  0.00     0.251 C 
ATOM     35  H   UNL A   1      32.935  31.462  26.521  1.00  0.00     0.163 HD
ATOM     36  O   UNL A   1      33.341  33.359  27.847  1.00  0.00    -0.269 OA
BRANCH  34  37
ATOM     37  C   UNL A   1      35.192  32.446  28.910  1.00  0.00     0.039 A 
ATOM     38  C   UNL A   1      36.374  33.168  28.585  1.00  0.00     0.014 A 
ATOM     39  C   UNL A   1      35.244  31.828  30.118  1.00  0.00     0.014 A 
ATOM     40  C   UNL A   1      37.620  32.973  29.295  1.00  0.00     0.010 A 
ATOM     41  C   UNL A   1      36.457  31.666  30.812  1.00  0.00     0.010 A 
ATOM     42  C   UNL A   1      37.697  32.070  30.353  1.00  0.00    -0.014 A 
BRANCH  42  43
ATOM     43  C   UNL A   1      38.842  31.191  30.821  1.00  0.00     0.031 A 
ATOM     44  C   UNL A   1      39.258  29.876  30.175  1.00  0.00     0.074 A 
ATOM     45  C   UNL A   1      39.874  31.829  31.438  1.00  0.00     0.049 A 
ATOM     46  N   UNL A   1      40.400  29.288  30.377  1.00  0.00    -0.248 NA
ATOM     47  C   UNL A   1      38.443  29.103  29.244  1.00  0.00     0.031 C 
ATOM     48  C   UNL A   1      41.323  31.622  31.209  1.00  0.00     0.029 A 
ATOM     49  N   UNL A   1      39.858  32.898  32.328  1.00  0.00    -0.354 N 
ATOM     50  C   UNL A   1      40.613  28.348  29.393  1.00  0.00     0.074 A 
ATOM     51  C   UNL A   1      39.318  28.197  28.777  1.00  0.00     0.031 C 
ATOM     52  C   UNL A   1      42.036  32.372  32.057  1.00  0.00     0.029 A 
ATOM     53  C   UNL A   1      41.104  32.935  33.000  1.00  0.00     0.049 A 
ATOM     54  H   UNL A   1      39.109  33.521  32.468  1.00  0.00     0.167 HD
ATOM     55  C   UNL A   1      41.878  27.873  29.160  1.00  0.00     0.037 A 
ATOM     56  C   UNL A   1      41.136  32.710  34.347  1.00  0.00     0.037 A 
ATOM     57  C   UNL A   1      42.829  28.294  30.190  1.00  0.00     0.049 A 
ATOM     58  C   UNL A   1      41.766  31.381  34.724  1.00  0.00     0.074 A 
ATOM     59  C   UNL A   1      43.986  29.049  30.249  1.00  0.00     0.029 A 
ATOM     60  N   UNL A   1      42.535  27.953  31.496  1.00  0.00    -0.354 N 
ATOM     61  N   UNL A   1      42.479  30.636  33.923  1.00  0.00    -0.248 NA
ATOM     62  C   UNL A   1      41.541  30.736  36.019  1.00  0.00     0.031 C 
ATOM     63  C   UNL A   1      44.337  29.205  31.630  1.00  0.00     0.029 A 
ATOM     64  C   UNL A   1      43.415  28.513  32.394  1.00  0.00     0.049 A 
ATOM     65  H   UNL A   1      41.782  27.374  31.755  1.00  0.00     0.167 HD
ATOM     66  C   UNL A   1      42.648  29.400  34.489  1.00  0.00     0.074 A 
ATOM     67  C   UNL A   1      42.090  29.527  35.822  1.00  0.00     0.031 C 
ATOM     68  C   UNL A   1      43.146  28.326  33.810  1.00  0.00     0.037 A 
BRANCH  55  69
ATOM     69  C   UNL A   1      42.337  27.019  27.990  1.00  0.00     0.064 A 
ATOM     70  C   UNL A   1      42.496  27.591  26.702  1.00  0.00     0.173 A 
ATOM     71  C   UNL A   1      42.547  25.627  28.042  1.00  0.00     0.173 A 
ATOM     72  F   UNL A   1      42.316  28.904  26.499  1.00  0.00    -0.203 F 
ATOM     73  C   UNL A   1      42.839  26.837  25.574  1.00  0.00     0.198 A 
ATOM     74  C   UNL A   1      42.948  24.883  26.922  1.00  0.00     0.198 A 
ATOM     75  F   UNL A   1      42.314  24.927  29.158  1.00  0.00    -0.203 F 
ATOM     76  F   UNL A   1      42.925  27.429  24.374  1.00  0.00    -0.200 F 
ATOM     77  C   UNL A   1      43.083  25.485  25.688  1.00  0.00     0.200 A 
ATOM     78  F   UNL A   1      43.176  23.567  27.047  1.00  0.00    -0.200 F 
ATOM     79  F   UNL A   1      43.428  24.761  24.613  1.00  0.00    -0.200 F 
ENDBRANCH  55  69
BRANCH  56  80
ATOM     80  C   UNL A   1      39.942  33.353  34.976  1.00  0.00     0.064 A 
ATOM     81  C   UNL A   1      38.918  32.468  35.381  1.00  0.00     0.173 A 
ATOM     82  C   UNL A   1      40.094  34.551  35.690  1.00  0.00     0.173 A 
ATOM     83  F   UNL A   1      38.757  31.296  34.745  1.00  0.00    -0.203 F 
ATOM     84  C   UNL A   1      38.224  32.676  36.569  1.00  0.00     0.198 A 
ATOM     85  C   UNL A   1      39.377  34.762  36.868  1.00  0.00     0.198 A 
ATOM     86  F   UNL A   1      41.074  35.409  35.373  1.00  0.00    -0.203 F 
ATOM     87  F   UNL A   1      37.410  31.721  37.042  1.00  0.00    -0.200 F 
ATOM     88  C   UNL A   1      38.483  33.804  37.330  1.00  0.00     0.200 A 
ATOM     89  F   UNL A   1      39.658  35.826  37.634  1.00  0.00    -0.200 F 
ATOM     90  F   UNL A   1      37.935  33.931  38.547  1.00  0.00    -0.200 F 
ENDBRANCH  56  80
BRANCH  68  91
ATOM     91  C   UNL A   1      43.339  26.982  34.455  1.00  0.00     0.064 A 
ATOM     92  C   UNL A   1      44.623  26.472  34.704  1.00  0.00     0.173 A 
ATOM     93  C   UNL A   1      42.261  26.119  34.747  1.00  0.00     0.173 A 
ATOM     94  F   UNL A   1      45.713  27.198  34.414  1.00  0.00    -0.203 F 
ATOM     95  C   UNL A   1      44.816  25.202  35.251  1.00  0.00     0.198 A 
ATOM     96  C   UNL A   1      42.458  24.832  35.246  1.00  0.00     0.198 A 
ATOM     97  F   UNL A   1      40.988  26.510  34.590  1.00  0.00    -0.203 F 
ATOM     98  F   UNL A   1      46.057  24.778  35.525  1.00  0.00    -0.200 F 
ATOM     99  C   UNL A   1      43.735  24.377  35.509  1.00  0.00     0.200 A 
ATOM    100  F   UNL A   1      41.402  24.038  35.476  1.00  0.00    -0.200 F 
ATOM    101  F   UNL A   1      43.923  23.152  36.017  1.00  0.00    -0.200 F 
ENDBRANCH  68  91
ENDBRANCH  42  43
ENDBRANCH  34  37
ENDBRANCH  32  33
ENDBRANCH  31  32
ENDBRANCH  30  31
ENDBRANCH   3  30
TORSDOF 16
ENDMDL
MODEL 2
REMARK VINA RESULT:     -15.3      1.978      2.912
REMARK SMILES Cc1c(NCc2ccccn2)cccc1C(=O)N1CCOC[C@@H]1CC(=O)NCCCNC(=O)c1ccc(-c2c3nc(c(-c4c(F)c(F)c(F)c(F)c4F)c4ccc([nH]4)c(-c4c(F)c(F)c(F)c(F)c4F)c4nc(c(-c5c(F)c(F)c(F)c(F)c5F)c5ccc2[nH]5)C=C4)C=C3)cc1
REMARK SMILES IDX 25 1 26 2 27 3 24 5 23 6 18 7 19 8 20 9 22 10 21 11 16 12
REMARK SMILES IDX 17 13 15 14 1 15 2 16 3 17 12 18 14 19 13 20 4 21 5 23 6 24
REMARK SMILES IDX 7 25 11 26 8 27 10 28 9 29 28 30 29 31 30 32 31 33 32 34
REMARK SMILES IDX 33 36 34 37 35 38 96 39 36 40 95 41 37 42 38 43 39 44 89 45
REMARK SMILES IDX 40 46 94 47 88 48 90 49 41 50 93 51 87 52 86 53 42 55 74 56
REMARK SMILES IDX 54 57 73 58 55 59 58 60 72 61 91 62 56 63 57 64 71 66 92 67
REMARK SMILES IDX 59 68 43 69 44 70 52 71 45 72 46 73 50 74 53 75 47 76 48 77
REMARK SMILES IDX 51 78 49 79 75 80 76 81 84 82 77 83 78 84 82 85 85 86 79 87
REMARK SMILES IDX 80 88 83 89 81 90 60 91 61 92 69 93 62 94 63 95 67 96 70 97
REMARK SMILES IDX 64 98 65 99 68 100 66 101
REMARK H PARENT 27 4 4 22 31 35 90 54 58 65
REMARK Flexibility Score: inf
ROOT
ATOM      1  C   UNL A   1      31.008  26.136  25.996  1.00  0.00     0.222 C 
ATOM      2  O   UNL A   1      30.062  25.473  26.432  1.00  0.00    -0.275 OA
ATOM      3  N   UNL A   1      30.834  27.468  25.611  1.00  0.00    -0.356 N 
ATOM      4  H   UNL A   1      30.085  27.771  25.050  1.00  0.00     0.163 HD
ENDROOT
BRANCH   1   5
ATOM      5  C   UNL A   1      32.428  25.573  25.901  1.00  0.00     0.127 C 
BRANCH   5   6
ATOM      6  C   UNL A   1      32.550  24.466  24.849  1.00  0.00     0.120 C 
ATOM      7  N   UNL A   1      33.778  23.508  24.841  1.00  0.00    -0.331 N 
ATOM      8  C   UNL A   1      33.632  22.597  23.658  1.00  0.00     0.148 C 
ATOM      9  C   UNL A   1      33.440  23.403  22.334  1.00  0.00     0.181 C 
ATOM     10  C   UNL A   1      32.283  25.101  23.415  1.00  0.00     0.185 C 
ATOM     11  O   UNL A   1      32.202  24.118  22.385  1.00  0.00    -0.377 OA
BRANCH   7  12
ATOM     12  C   UNL A   1      34.786  23.089  25.913  1.00  0.00     0.254 C 
ATOM     13  O   UNL A   1      34.251  22.729  26.976  1.00  0.00    -0.269 OA
BRANCH  12  14
ATOM     14  C   UNL A   1      36.575  22.813  25.851  1.00  0.00     0.045 A 
ATOM     15  C   UNL A   1      37.628  20.209  24.818  1.00  0.00     0.047 C 
ATOM     16  C   UNL A   1      37.646  21.605  25.578  1.00  0.00    -0.015 A 
ATOM     17  C   UNL A   1      39.000  21.673  25.934  1.00  0.00     0.038 A 
ATOM     18  C   UNL A   1      39.371  22.960  26.297  1.00  0.00     0.026 A 
ATOM     19  C   UNL A   1      37.133  23.974  26.376  1.00  0.00     0.014 A 
ATOM     20  C   UNL A   1      38.510  24.059  26.537  1.00  0.00     0.003 A 
BRANCH  17  21
ATOM     21  N   UNL A   1      39.919  20.606  25.974  1.00  0.00    -0.379 N 
ATOM     22  H   UNL A   1      39.619  19.877  25.383  1.00  0.00     0.160 HD
BRANCH  21  23
ATOM     23  C   UNL A   1      41.259  20.221  26.659  1.00  0.00     0.169 C 
BRANCH  23  24
ATOM     24  C   UNL A   1      42.651  20.259  25.934  1.00  0.00     0.059 A 
ATOM     25  C   UNL A   1      43.520  21.357  25.903  1.00  0.00     0.026 A 
ATOM     26  N   UNL A   1      43.043  19.116  25.308  1.00  0.00    -0.259 NA
ATOM     27  C   UNL A   1      44.659  21.356  25.077  1.00  0.00     0.004 A 
ATOM     28  C   UNL A   1      44.188  19.111  24.570  1.00  0.00     0.111 A 
ATOM     29  C   UNL A   1      44.999  20.209  24.388  1.00  0.00     0.020 A 
ENDBRANCH  23  24
ENDBRANCH  21  23
ENDBRANCH  17  21
ENDBRANCH  12  14
ENDBRANCH   7  12
ENDBRANCH   5   6
ENDBRANCH   1   5
BRANCH   3  30
ATOM     30  C   UNL A   1      31.844  28.353  26.106  1.00  0.00     0.117 C 
BRANCH  30  31
ATOM     31  C   UNL A   1      32.111  30.140  25.821  1.00  0.00     0.042 C 
BRANCH  31  32
ATOM     32  C   UNL A   1      31.738  31.616  26.796  1.00  0.00     0.118 C 
BRANCH  32  33
ATOM     33  N   UNL A   1      32.652  32.618  27.513  1.00  0.00    -0.352 N 
ATOM     34  C   UNL A   1      33.912  32.662  28.200  1.00  0.00     0.251 C 
ATOM     35  H   UNL A   1      32.247  33.516  27.497  1.00  0.00     0.163 HD
ATOM     36  O   UNL A   1      34.111  33.648  28.922  1.00  0.00    -0.269 OA
BRANCH  34  37
ATOM     37  C   UNL A   1      35.100  31.710  28.110  1.00  0.00     0.039 A 
ATOM     38  C   UNL A   1      35.020  30.292  28.192  1.00  0.00     0.014 A 
ATOM     39  C   UNL A   1      36.367  32.180  27.982  1.00  0.00     0.014 A 
ATOM     40  C   UNL A   1      36.176  29.467  28.467  1.00  0.00     0.010 A 
ATOM     41  C   UNL A   1      37.485  31.362  28.228  1.00  0.00     0.010 A 
ATOM     42  C   UNL A   1      37.431  30.044  28.644  1.00  0.00    -0.014 A 
BRANCH  42  43
ATOM     43  C   UNL A   1      38.596  29.630  29.526  1.00  0.00     0.031 A 
ATOM     44  C   UNL A   1      39.503  28.433  29.273  1.00  0.00     0.074 A 
ATOM     45  C   UNL A   1      39.215  30.631  30.209  1.00  0.00     0.049 A 
ATOM     46  N   UNL A   1      40.660  28.258  29.840  1.00  0.00    -0.248 NA
ATOM     47  C   UNL A   1      39.206  27.331  28.366  1.00  0.00     0.031 C 
ATOM     48  C   UNL A   1      40.672  30.851  30.354  1.00  0.00     0.029 A 
ATOM     49  N   UNL A   1      38.675  31.752  30.833  1.00  0.00    -0.354 N 
ATOM     50  C   UNL A   1      41.372  27.306  29.144  1.00  0.00     0.074 A 
ATOM     51  C   UNL A   1      40.382  26.684  28.302  1.00  0.00     0.031 C 
ATOM     52  C   UNL A   1      40.903  31.890  31.165  1.00  0.00     0.029 A 
ATOM     53  C   UNL A   1      39.636  32.259  31.741  1.00  0.00     0.049 A 
ATOM     54  H   UNL A   1      37.779  32.127  30.672  1.00  0.00     0.167 HD
ATOM     55  C   UNL A   1      42.732  27.217  29.300  1.00  0.00     0.037 A 
ATOM     56  C   UNL A   1      39.359  32.236  33.079  1.00  0.00     0.037 A 
ATOM     57  C   UNL A   1      43.221  28.044  30.404  1.00  0.00     0.049 A 
ATOM     58  C   UNL A   1      40.190  31.228  33.852  1.00  0.00     0.074 A 
ATOM     59  C   UNL A   1      44.076  29.119  30.560  1.00  0.00     0.029 A 
ATOM     60  N   UNL A   1      42.684  27.806  31.655  1.00  0.00    -0.354 N 
ATOM     61  N   UNL A   1      41.265  30.639  33.400  1.00  0.00    -0.248 NA
ATOM     62  C   UNL A   1      39.800  30.724  35.169  1.00  0.00     0.031 C 
ATOM     63  C   UNL A   1      43.985  29.558  31.921  1.00  0.00     0.029 A 
ATOM     64  C   UNL A   1      43.106  28.724  32.589  1.00  0.00     0.049 A 
ATOM     65  H   UNL A   1      42.069  27.063  31.855  1.00  0.00     0.167 HD
ATOM     66  C   UNL A   1      41.593  29.603  34.233  1.00  0.00     0.074 A 
ATOM     67  C   UNL A   1      40.681  29.727  35.354  1.00  0.00     0.031 C 
ATOM     68  C   UNL A   1      42.522  28.654  33.918  1.00  0.00     0.037 A 
BRANCH  55  69
ATOM     69  C   UNL A   1      43.700  26.398  28.463  1.00  0.00     0.064 A 
ATOM     70  C   UNL A   1      44.089  26.843  27.173  1.00  0.00     0.173 A 
ATOM     71  C   UNL A   1      44.207  25.135  28.823  1.00  0.00     0.173 A 
ATOM     72  F   UNL A   1      43.672  28.023  26.691  1.00  0.00    -0.203 F 
ATOM     73  C   UNL A   1      44.914  26.092  26.328  1.00  0.00     0.198 A 
ATOM     74  C   UNL A   1      45.081  24.410  27.999  1.00  0.00     0.198 A 
ATOM     75  F   UNL A   1      43.830  24.527  29.954  1.00  0.00    -0.203 F 
ATOM     76  F   UNL A   1      45.205  26.545  25.101  1.00  0.00    -0.200 F 
ATOM     77  C   UNL A   1      45.425  24.882  26.749  1.00  0.00     0.200 A 
ATOM     78  F   UNL A   1      45.566  23.232  28.419  1.00  0.00    -0.200 F 
ATOM     79  F   UNL A   1      46.229  24.167  25.949  1.00  0.00    -0.200 F 
ENDBRANCH  55  69
BRANCH  56  80
ATOM     80  C   UNL A   1      37.913  32.559  33.281  1.00  0.00     0.064 A 
ATOM     81  C   UNL A   1      37.592  33.934  33.282  1.00  0.00     0.173 A 
ATOM     82  C   UNL A   1      36.932  31.656  32.843  1.00  0.00     0.173 A 
ATOM     83  F   UNL A   1      38.511  34.836  33.664  1.00  0.00    -0.203 F 
ATOM     84  C   UNL A   1      36.427  34.395  32.675  1.00  0.00     0.198 A 
ATOM     85  C   UNL A   1      35.757  32.126  32.257  1.00  0.00     0.198 A 
ATOM     86  F   UNL A   1      37.198  30.343  32.785  1.00  0.00    -0.203 F 
ATOM     87  F   UNL A   1      36.243  35.712  32.499  1.00  0.00    -0.200 F 
ATOM     88  C   UNL A   1      35.531  33.491  32.130  1.00  0.00     0.200 A 
ATOM     89  F   UNL A   1      34.910  31.261  31.683  1.00  0.00    -0.200 F 
ATOM     90  F   UNL A   1      34.490  33.933  31.409  1.00  0.00    -0.200 F 
ENDBRANCH  56  80
BRANCH  68  91
ATOM     91  C   UNL A   1      42.879  27.532  34.853  1.00  0.00     0.064 A 
ATOM     92  C   UNL A   1      42.003  26.456  35.068  1.00  0.00     0.173 A 
ATOM     93  C   UNL A   1      44.050  27.545  35.640  1.00  0.00     0.173 A 
ATOM     94  F   UNL A   1      40.841  26.381  34.402  1.00  0.00    -0.203 F 
ATOM     95  C   UNL A   1      42.299  25.437  35.975  1.00  0.00     0.198 A 
ATOM     96  C   UNL A   1      44.319  26.553  36.582  1.00  0.00     0.198 A 
ATOM     97  F   UNL A   1      44.982  28.499  35.495  1.00  0.00    -0.203 F 
ATOM     98  F   UNL A   1      41.461  24.400  36.106  1.00  0.00    -0.200 F 
ATOM     99  C   UNL A   1      43.450  25.492  36.741  1.00  0.00     0.200 A 
ATOM    100  F   UNL A   1      45.431  26.628  37.329  1.00  0.00    -0.200 F 
ATOM    101  F   UNL A   1      43.724  24.523  37.625  1.00  0.00    -0.200 F 
ENDBRANCH  68  91
ENDBRANCH  42  43
ENDBRANCH  34  37
ENDBRANCH  32  33
ENDBRANCH  31  32
ENDBRANCH  30  31
ENDBRANCH   3  30
TORSDOF 16
ENDMDL
MODEL 3
REMARK VINA RESULT:     -15.0      3.731     10.504
REMARK SMILES Cc1c(NCc2ccccn2)cccc1C(=O)N1CCOC[C@@H]1CC(=O)NCCCNC(=O)c1ccc(-c2c3nc(c(-c4c(F)c(F)c(F)c(F)c4F)c4ccc([nH]4)c(-c4c(F)c(F)c(F)c(F)c4F)c4nc(c(-c5c(F)c(F)c(F)c(F)c5F)c5ccc2[nH]5)C=C4)C=C3)cc1
REMARK SMILES IDX 25 1 26 2 27 3 24 5 23 6 18 7 19 8 20 9 22 10 21 11 16 12
REMARK SMILES IDX 17 13 15 14 1 15 2 16 3 17 12 18 14 19 13 20 4 21 5 23 6 24
REMARK SMILES IDX 7 25 11 26 8 27 10 28 9 29 28 30 29 31 30 32 31 33 32 34
REMARK SMILES IDX 33 36 34 37 35 38 96 39 36 40 95 41 37 42 38 43 39 44 89 45
REMARK SMILES IDX 40 46 94 47 88 48 90 49 41 50 93 51 87 52 86 53 42 55 74 56
REMARK SMILES IDX 54 57 73 58 55 59 58 60 72 61 91 62 56 63 57 64 71 66 92 67
REMARK SMILES IDX 59 68 43 69 44 70 52 71 45 72 46 73 50 74 53 75 47 76 48 77
REMARK SMILES IDX 51 78 49 79 75 80 76 81 84 82 77 83 78 84 82 85 85 86 79 87
REMARK SMILES IDX 80 88 83 89 81 90 60 91 61 92 69 93 62 94 63 95 67 96 70 97
REMARK SMILES IDX 64 98 65 99 68 100 66 101
REMARK H PARENT 27 4 4 22 31 35 90 54 58 65
REMARK Flexibility Score: inf
ROOT
ATOM      1  C   UNL A   1      36.864  22.564  25.108  1.00  0.00     0.222 C 
ATOM      2  O   UNL A   1      36.455  23.674  24.754  1.00  0.00    -0.275 OA
ATOM      3  N   UNL A   1      38.153  22.136  24.782  1.00  0.00    -0.356 N 
ATOM      4  H   UNL A   1      38.536  22.226  23.880  1.00  0.00     0.163 HD
ENDROOT
BRANCH   1   5
ATOM      5  C   UNL A   1      36.021  21.616  25.965  1.00  0.00     0.127 C 
BRANCH   5   6
ATOM      6  C   UNL A   1      34.770  21.120  25.233  1.00  0.00     0.120 C 
ATOM      7  N   UNL A   1      33.348  21.524  25.725  1.00  0.00    -0.331 N 
ATOM      8  C   UNL A   1      32.352  20.825  24.848  1.00  0.00     0.148 C 
ATOM      9  C   UNL A   1      32.603  19.284  24.811  1.00  0.00     0.181 C 
ATOM     10  C   UNL A   1      34.900  19.549  25.019  1.00  0.00     0.185 C 
ATOM     11  O   UNL A   1      33.865  19.020  24.193  1.00  0.00    -0.377 OA
BRANCH   7  12
ATOM     12  C   UNL A   1      32.824  22.684  26.574  1.00  0.00     0.254 C 
ATOM     13  O   UNL A   1      32.992  22.513  27.795  1.00  0.00    -0.269 OA
BRANCH  12  14
ATOM     14  C   UNL A   1      32.215  24.330  26.131  1.00  0.00     0.045 A 
ATOM     15  C   UNL A   1      34.171  26.481  25.419  1.00  0.00     0.047 C 
ATOM     16  C   UNL A   1      32.782  25.841  25.853  1.00  0.00    -0.015 A 
ATOM     17  C   UNL A   1      31.972  26.985  25.844  1.00  0.00     0.038 A 
ATOM     18  C   UNL A   1      30.623  26.658  25.836  1.00  0.00     0.026 A 
ATOM     19  C   UNL A   1      30.833  24.245  26.257  1.00  0.00     0.014 A 
ATOM     20  C   UNL A   1      30.056  25.378  26.054  1.00  0.00     0.003 A 
BRANCH  17  21
ATOM     21  N   UNL A   1      32.401  28.327  25.871  1.00  0.00    -0.379 N 
ATOM     22  H   UNL A   1      32.706  28.603  24.977  1.00  0.00     0.160 HD
BRANCH  21  23
ATOM     23  C   UNL A   1      32.541  29.506  26.872  1.00  0.00     0.169 C 
BRANCH  23  24
ATOM     24  C   UNL A   1      33.919  30.082  27.354  1.00  0.00     0.059 A 
ATOM     25  C   UNL A   1      35.082  29.332  27.568  1.00  0.00     0.026 A 
ATOM     26  N   UNL A   1      33.981  31.427  27.553  1.00  0.00    -0.259 NA
ATOM     27  C   UNL A   1      36.214  29.907  28.174  1.00  0.00     0.004 A 
ATOM     28  C   UNL A   1      35.112  31.980  28.074  1.00  0.00     0.111 A 
ATOM     29  C   UNL A   1      36.229  31.262  28.440  1.00  0.00     0.020 A 
ENDBRANCH  23  24
ENDBRANCH  21  23
ENDBRANCH  17  21
ENDBRANCH  12  14
ENDBRANCH   7  12
ENDBRANCH   5   6
ENDBRANCH   1   5
BRANCH   3  30
ATOM     30  C   UNL A   1      38.867  21.554  25.876  1.00  0.00     0.117 C 
BRANCH  30  31
ATOM     31  C   UNL A   1      39.667  19.917  26.045  1.00  0.00     0.042 C 
BRANCH  31  32
ATOM     32  C   UNL A   1      41.269  19.385  26.693  1.00  0.00     0.118 C 
BRANCH  32  33
ATOM     33  N   UNL A   1      42.679  19.969  26.523  1.00  0.00    -0.352 N 
ATOM     34  C   UNL A   1      43.326  21.173  26.085  1.00  0.00     0.251 C 
ATOM     35  H   UNL A   1      43.353  19.308  26.804  1.00  0.00     0.163 HD
ATOM     36  O   UNL A   1      44.528  21.080  25.803  1.00  0.00    -0.269 OA
BRANCH  34  37
ATOM     37  C   UNL A   1      42.776  22.592  25.994  1.00  0.00     0.039 A 
ATOM     38  C   UNL A   1      42.967  23.475  24.895  1.00  0.00     0.014 A 
ATOM     39  C   UNL A   1      42.073  23.139  27.019  1.00  0.00     0.014 A 
ATOM     40  C   UNL A   1      42.750  24.901  25.001  1.00  0.00     0.010 A 
ATOM     41  C   UNL A   1      41.846  24.525  27.100  1.00  0.00     0.010 A 
ATOM     42  C   UNL A   1      42.319  25.464  26.201  1.00  0.00    -0.014 A 
BRANCH  42  43
ATOM     43  C   UNL A   1      42.617  26.815  26.823  1.00  0.00     0.031 A 
ATOM     44  C   UNL A   1      41.568  27.824  27.270  1.00  0.00     0.074 A 
ATOM     45  C   UNL A   1      43.777  26.906  27.531  1.00  0.00     0.049 A 
ATOM     46  N   UNL A   1      41.805  28.826  28.065  1.00  0.00    -0.248 NA
ATOM     47  C   UNL A   1      40.164  27.805  26.877  1.00  0.00     0.031 C 
ATOM     48  C   UNL A   1      43.972  27.534  28.858  1.00  0.00     0.029 A 
ATOM     49  N   UNL A   1      45.025  26.349  27.273  1.00  0.00    -0.354 N 
ATOM     50  C   UNL A   1      40.614  29.312  28.558  1.00  0.00     0.074 A 
ATOM     51  C   UNL A   1      39.619  28.713  27.705  1.00  0.00     0.031 C 
ATOM     52  C   UNL A   1      45.265  27.502  29.198  1.00  0.00     0.029 A 
ATOM     53  C   UNL A   1      45.990  27.048  28.039  1.00  0.00     0.049 A 
ATOM     54  H   UNL A   1      45.208  25.599  26.662  1.00  0.00     0.167 HD
ATOM     55  C   UNL A   1      40.607  30.095  29.684  1.00  0.00     0.037 A 
ATOM     56  C   UNL A   1      46.949  27.775  27.392  1.00  0.00     0.037 A 
ATOM     57  C   UNL A   1      41.954  30.499  30.090  1.00  0.00     0.049 A 
ATOM     58  C   UNL A   1      46.771  29.276  27.538  1.00  0.00     0.074 A 
ATOM     59  C   UNL A   1      42.775  30.322  31.188  1.00  0.00     0.029 A 
ATOM     60  N   UNL A   1      42.711  31.186  29.161  1.00  0.00    -0.354 N 
ATOM     61  N   UNL A   1      45.992  29.857  28.411  1.00  0.00    -0.248 NA
ATOM     62  C   UNL A   1      47.387  30.239  26.624  1.00  0.00     0.031 C 
ATOM     63  C   UNL A   1      44.062  30.861  30.865  1.00  0.00     0.029 A 
ATOM     64  C   UNL A   1      44.002  31.395  29.590  1.00  0.00     0.049 A 
ATOM     65  H   UNL A   1      42.368  31.492  28.291  1.00  0.00     0.167 HD
ATOM     66  C   UNL A   1      45.859  31.180  28.083  1.00  0.00     0.074 A 
ATOM     67  C   UNL A   1      46.791  31.385  26.991  1.00  0.00     0.031 C 
ATOM     68  C   UNL A   1      44.935  32.005  28.657  1.00  0.00     0.037 A 
BRANCH  55  69
ATOM     69  C   UNL A   1      39.396  30.528  30.493  1.00  0.00     0.064 A 
ATOM     70  C   UNL A   1      39.098  31.905  30.659  1.00  0.00     0.173 A 
ATOM     71  C   UNL A   1      38.547  29.656  31.203  1.00  0.00     0.173 A 
ATOM     72  F   UNL A   1      39.829  32.851  30.053  1.00  0.00    -0.203 F 
ATOM     73  C   UNL A   1      38.043  32.362  31.458  1.00  0.00     0.198 A 
ATOM     74  C   UNL A   1      37.456  30.114  31.956  1.00  0.00     0.198 A 
ATOM     75  F   UNL A   1      38.777  28.339  31.246  1.00  0.00    -0.203 F 
ATOM     76  F   UNL A   1      37.844  33.678  31.614  1.00  0.00    -0.200 F 
ATOM     77  C   UNL A   1      37.210  31.465  32.092  1.00  0.00     0.200 A 
ATOM     78  F   UNL A   1      36.657  29.230  32.572  1.00  0.00    -0.200 F 
ATOM     79  F   UNL A   1      36.189  31.898  32.846  1.00  0.00    -0.200 F 
ENDBRANCH  55  69
BRANCH  56  80
ATOM     80  C   UNL A   1      47.379  27.032  26.169  1.00  0.00     0.064 A 
ATOM     81  C   UNL A   1      46.847  27.509  24.950  1.00  0.00     0.173 A 
ATOM     82  C   UNL A   1      48.638  26.414  26.138  1.00  0.00     0.173 A 
ATOM     83  F   UNL A   1      45.659  28.135  24.938  1.00  0.00    -0.203 F 
ATOM     84  C   UNL A   1      47.630  27.556  23.799  1.00  0.00     0.198 A 
ATOM     85  C   UNL A   1      49.407  26.444  24.975  1.00  0.00     0.198 A 
ATOM     86  F   UNL A   1      49.206  25.978  27.271  1.00  0.00    -0.203 F 
ATOM     87  F   UNL A   1      47.182  28.203  22.714  1.00  0.00    -0.200 F 
ATOM     88  C   UNL A   1      48.922  27.058  23.825  1.00  0.00     0.200 A 
ATOM     89  F   UNL A   1      50.675  26.011  25.005  1.00  0.00    -0.200 F 
ATOM     90  F   UNL A   1      49.731  27.241  22.772  1.00  0.00    -0.200 F 
ENDBRANCH  56  80
BRANCH  68  91
ATOM     91  C   UNL A   1      44.816  33.459  28.295  1.00  0.00     0.064 A 
ATOM     92  C   UNL A   1      45.243  34.465  29.176  1.00  0.00     0.173 A 
ATOM     93  C   UNL A   1      44.180  33.897  27.114  1.00  0.00     0.173 A 
ATOM     94  F   UNL A   1      45.816  34.148  30.347  1.00  0.00    -0.203 F 
ATOM     95  C   UNL A   1      45.088  35.820  28.876  1.00  0.00     0.198 A 
ATOM     96  C   UNL A   1      43.979  35.250  26.840  1.00  0.00     0.198 A 
ATOM     97  F   UNL A   1      43.766  33.031  26.178  1.00  0.00    -0.203 F 
ATOM     98  F   UNL A   1      45.562  36.747  29.719  1.00  0.00    -0.200 F 
ATOM     99  C   UNL A   1      44.444  36.212  27.714  1.00  0.00     0.200 A 
ATOM    100  F   UNL A   1      43.340  35.614  25.719  1.00  0.00    -0.200 F 
ATOM    101  F   UNL A   1      44.279  37.512  27.437  1.00  0.00    -0.200 F 
ENDBRANCH  68  91
ENDBRANCH  42  43
ENDBRANCH  34  37
ENDBRANCH  32  33
ENDBRANCH  31  32
ENDBRANCH  30  31
ENDBRANCH   3  30
TORSDOF 16
ENDMDL
