MODEL 1
REMARK VINA RESULT:     -13.5      0.000      0.000
REMARK SMILES C[C@]1(c2ccccc2C(=O)NCCCNC(=O)c2ccc(-c3c4nc(c(-c5c(F)c(F)c(F)c(F)c5F)c5ccc([nH]5)c(-c5c(F)c(F)c(F)c(F)c5F)c5nc(c(-c6c(F)c(F)c(F)c(F)c6F)c6ccc3[nH]6)C=C5)C=C4)cc2)NN=C(c2ccccc2)S1
REMARK SMILES IDX 13 1 12 2 11 3 9 4 10 5 8 7 3 8 4 9 5 10 7 11 6 12 2 13 1 14
REMARK SMILES IDX 81 15 90 16 82 17 83 19 84 20 85 21 89 22 86 23 88 24 87 25
REMARK SMILES IDX 14 26 15 27 16 28 17 30 18 31 19 32 80 33 20 34 79 35 21 36
REMARK SMILES IDX 22 37 23 38 73 39 24 40 78 41 72 42 74 43 25 44 77 45 71 46
REMARK SMILES IDX 70 47 26 49 58 50 38 51 57 52 39 53 42 54 56 55 75 56 40 57
REMARK SMILES IDX 41 58 55 60 76 61 43 62 27 63 28 64 36 65 29 66 30 67 34 68
REMARK SMILES IDX 37 69 31 70 32 71 35 72 33 73 59 74 60 75 68 76 61 77 62 78
REMARK SMILES IDX 66 79 69 80 63 81 64 82 67 83 65 84 44 85 45 86 53 87 46 88
REMARK SMILES IDX 47 89 51 90 54 91 48 92 49 93 52 94 50 95
REMARK H PARENT 11 6 81 18 15 29 74 48 42 59
REMARK Flexibility Score: inf
ROOT
ATOM      1  C   UNL A   1      33.259  28.989  23.350  1.00  0.00     0.042 C 
ENDROOT
BRANCH   1   2
ATOM      2  C   UNL A   1      34.136  27.964  22.611  1.00  0.00     0.118 C 
BRANCH   2   3
ATOM      3  N   UNL A   1      33.329  27.272  21.615  1.00  0.00    -0.352 N 
ATOM      4  C   UNL A   1      32.876  25.970  21.631  1.00  0.00     0.251 C 
ATOM      5  O   UNL A   1      32.826  25.351  20.567  1.00  0.00    -0.269 OA
ATOM      6  H   UNL A   1      33.073  27.804  20.827  1.00  0.00     0.163 HD
BRANCH   4   7
ATOM      7  C   UNL A   1      32.138  25.431  22.804  1.00  0.00     0.046 A 
ATOM      8  C   UNL A   1      32.304  24.213  23.497  1.00  0.00     0.002 A 
ATOM      9  C   UNL A   1      31.447  24.009  24.623  1.00  0.00     0.008 A 
ATOM     10  C   UNL A   1      30.400  24.869  24.954  1.00  0.00     0.000 A 
ATOM     11  C   UNL A   1      31.045  26.275  23.134  1.00  0.00     0.014 A 
ATOM     12  C   UNL A   1      30.170  25.986  24.177  1.00  0.00     0.001 A 
BRANCH   8  13
ATOM     13  C   UNL A   1      33.171  22.997  23.127  1.00  0.00     0.129 C 
ATOM     14  C   UNL A   1      32.331  21.902  22.438  1.00  0.00     0.054 C 
ATOM     15  N   UNL A   1      34.287  23.418  22.246  1.00  0.00    -0.288 NA
ATOM     16  S   UNL A   1      34.059  22.138  24.432  1.00  0.00    -0.070 SA
ATOM     17  N   UNL A   1      35.513  23.579  22.849  1.00  0.00    -0.171 NA
ATOM     18  H   UNL A   1      34.158  23.574  21.282  1.00  0.00     0.185 HD
ATOM     19  C   UNL A   1      35.526  22.938  23.974  1.00  0.00     0.126 C 
BRANCH  19  20
ATOM     20  C   UNL A   1      36.646  22.801  24.899  1.00  0.00     0.009 A 
ATOM     21  C   UNL A   1      37.455  21.663  24.853  1.00  0.00     0.011 A 
ATOM     22  C   UNL A   1      36.995  23.897  25.695  1.00  0.00     0.011 A 
ATOM     23  C   UNL A   1      38.624  21.624  25.615  1.00  0.00     0.001 A 
ATOM     24  C   UNL A   1      38.166  23.852  26.450  1.00  0.00     0.001 A 
ATOM     25  C   UNL A   1      38.980  22.718  26.407  1.00  0.00     0.000 A 
ENDBRANCH  19  20
ENDBRANCH   8  13
ENDBRANCH   4   7
ENDBRANCH   2   3
ENDBRANCH   1   2
BRANCH   1  26
ATOM     26  C   UNL A   1      33.290  28.903  24.867  1.00  0.00     0.118 C 
BRANCH  26  27
ATOM     27  N   UNL A   1      32.727  30.089  25.487  1.00  0.00    -0.352 N 
ATOM     28  C   UNL A   1      33.089  30.785  26.614  1.00  0.00     0.251 C 
ATOM     29  H   UNL A   1      31.946  30.460  25.016  1.00  0.00     0.163 HD
ATOM     30  O   UNL A   1      32.287  31.607  27.071  1.00  0.00    -0.269 OA
BRANCH  28  31
ATOM     31  C   UNL A   1      34.387  30.591  27.315  1.00  0.00     0.039 A 
ATOM     32  C   UNL A   1      34.728  29.301  27.749  1.00  0.00     0.014 A 
ATOM     33  C   UNL A   1      35.225  31.652  27.659  1.00  0.00     0.014 A 
ATOM     34  C   UNL A   1      35.900  29.077  28.488  1.00  0.00     0.010 A 
ATOM     35  C   UNL A   1      36.440  31.417  28.308  1.00  0.00     0.010 A 
ATOM     36  C   UNL A   1      36.781  30.132  28.757  1.00  0.00    -0.014 A 
BRANCH  36  37
ATOM     37  C   UNL A   1      38.019  29.955  29.570  1.00  0.00     0.031 A 
ATOM     38  C   UNL A   1      39.122  29.058  29.061  1.00  0.00     0.074 A 
ATOM     39  C   UNL A   1      38.137  30.527  30.784  1.00  0.00     0.049 A 
ATOM     40  N   UNL A   1      40.186  28.610  29.679  1.00  0.00    -0.248 NA
ATOM     41  C   UNL A   1      38.988  28.573  27.678  1.00  0.00     0.031 C 
ATOM     42  C   UNL A   1      37.151  31.414  31.404  1.00  0.00     0.029 A 
ATOM     43  N   UNL A   1      39.134  30.432  31.726  1.00  0.00    -0.354 N 
ATOM     44  C   UNL A   1      40.822  27.765  28.776  1.00  0.00     0.074 A 
ATOM     45  C   UNL A   1      40.002  27.727  27.584  1.00  0.00     0.031 C 
ATOM     46  C   UNL A   1      37.598  31.793  32.613  1.00  0.00     0.029 A 
ATOM     47  C   UNL A   1      38.875  31.135  32.878  1.00  0.00     0.049 A 
ATOM     48  H   UNL A   1      39.957  29.909  31.588  1.00  0.00     0.167 HD
ATOM     49  C   UNL A   1      41.994  27.099  28.914  1.00  0.00     0.037 A 
ATOM     50  C   UNL A   1      39.577  31.222  34.025  1.00  0.00     0.037 A 
ATOM     51  C   UNL A   1      42.835  27.175  30.078  1.00  0.00     0.049 A 
ATOM     52  C   UNL A   1      40.870  30.459  34.161  1.00  0.00     0.074 A 
ATOM     53  C   UNL A   1      44.055  26.559  30.306  1.00  0.00     0.029 A 
ATOM     54  N   UNL A   1      42.550  27.926  31.208  1.00  0.00    -0.354 N 
ATOM     55  N   UNL A   1      41.466  29.676  33.295  1.00  0.00    -0.248 NA
ATOM     56  C   UNL A   1      41.590  30.592  35.437  1.00  0.00     0.031 C 
ATOM     57  C   UNL A   1      44.491  26.913  31.586  1.00  0.00     0.029 A 
ATOM     58  C   UNL A   1      43.568  27.787  32.136  1.00  0.00     0.049 A 
ATOM     59  H   UNL A   1      41.742  28.476  31.332  1.00  0.00     0.167 HD
ATOM     60  C   UNL A   1      42.647  29.264  33.899  1.00  0.00     0.074 A 
ATOM     61  C   UNL A   1      42.686  29.883  35.207  1.00  0.00     0.031 C 
ATOM     62  C   UNL A   1      43.612  28.447  33.415  1.00  0.00     0.037 A 
BRANCH  49  63
ATOM     63  C   UNL A   1      42.447  26.233  27.771  1.00  0.00     0.064 A 
ATOM     64  C   UNL A   1      43.301  26.724  26.773  1.00  0.00     0.173 A 
ATOM     65  C   UNL A   1      42.058  24.887  27.698  1.00  0.00     0.173 A 
ATOM     66  F   UNL A   1      43.694  28.007  26.790  1.00  0.00    -0.203 F 
ATOM     67  C   UNL A   1      43.726  25.907  25.728  1.00  0.00     0.198 A 
ATOM     68  C   UNL A   1      42.511  24.065  26.669  1.00  0.00     0.198 A 
ATOM     69  F   UNL A   1      41.248  24.364  28.632  1.00  0.00    -0.203 F 
ATOM     70  F   UNL A   1      44.502  26.412  24.759  1.00  0.00    -0.200 F 
ATOM     71  C   UNL A   1      43.337  24.577  25.681  1.00  0.00     0.200 A 
ATOM     72  F   UNL A   1      42.146  22.775  26.635  1.00  0.00    -0.200 F 
ATOM     73  F   UNL A   1      43.756  23.790  24.680  1.00  0.00    -0.200 F 
ENDBRANCH  49  63
BRANCH  50  74
ATOM     74  C   UNL A   1      39.086  32.071  35.143  1.00  0.00     0.064 A 
ATOM     75  C   UNL A   1      39.356  33.447  35.171  1.00  0.00     0.173 A 
ATOM     76  C   UNL A   1      38.368  31.528  36.219  1.00  0.00     0.173 A 
ATOM     77  F   UNL A   1      40.060  34.011  34.177  1.00  0.00    -0.203 F 
ATOM     78  C   UNL A   1      38.956  34.240  36.244  1.00  0.00     0.198 A 
ATOM     79  C   UNL A   1      37.940  32.328  37.277  1.00  0.00     0.198 A 
ATOM     80  F   UNL A   1      38.077  30.218  36.240  1.00  0.00    -0.203 F 
ATOM     81  F   UNL A   1      39.280  35.540  36.271  1.00  0.00    -0.200 F 
ATOM     82  C   UNL A   1      38.244  33.681  37.295  1.00  0.00     0.200 A 
ATOM     83  F   UNL A   1      37.241  31.786  38.284  1.00  0.00    -0.200 F 
ATOM     84  F   UNL A   1      37.862  34.443  38.329  1.00  0.00    -0.200 F 
ENDBRANCH  50  74
BRANCH  62  85
ATOM     85  C   UNL A   1      44.834  28.233  34.260  1.00  0.00     0.064 A 
ATOM     86  C   UNL A   1      45.921  29.117  34.228  1.00  0.00     0.173 A 
ATOM     87  C   UNL A   1      44.884  27.159  35.163  1.00  0.00     0.173 A 
ATOM     88  F   UNL A   1      45.926  30.152  33.373  1.00  0.00    -0.203 F 
ATOM     89  C   UNL A   1      47.023  28.924  35.058  1.00  0.00     0.198 A 
ATOM     90  C   UNL A   1      45.974  26.986  36.011  1.00  0.00     0.198 A 
ATOM     91  F   UNL A   1      43.866  26.290  35.237  1.00  0.00    -0.203 F 
ATOM     92  F   UNL A   1      48.068  29.761  34.986  1.00  0.00    -0.200 F 
ATOM     93  C   UNL A   1      47.044  27.866  35.954  1.00  0.00     0.200 A 
ATOM     94  F   UNL A   1      45.986  25.971  36.885  1.00  0.00    -0.200 F 
ATOM     95  F   UNL A   1      48.099  27.691  36.762  1.00  0.00    -0.200 F 
ENDBRANCH  62  85
ENDBRANCH  36  37
ENDBRANCH  28  31
ENDBRANCH  26  27
ENDBRANCH   1  26
TORSDOF 12
ENDMDL
MODEL 2
REMARK VINA RESULT:     -13.4      0.129      1.127
REMARK SMILES C[C@]1(c2ccccc2C(=O)NCCCNC(=O)c2ccc(-c3c4nc(c(-c5c(F)c(F)c(F)c(F)c5F)c5ccc([nH]5)c(-c5c(F)c(F)c(F)c(F)c5F)c5nc(c(-c6c(F)c(F)c(F)c(F)c6F)c6ccc3[nH]6)C=C5)C=C4)cc2)NN=C(c2ccccc2)S1
REMARK SMILES IDX 13 1 12 2 11 3 9 4 10 5 8 7 3 8 4 9 5 10 7 11 6 12 2 13 1 14
REMARK SMILES IDX 81 15 90 16 82 17 83 19 84 20 85 21 89 22 86 23 88 24 87 25
REMARK SMILES IDX 14 26 15 27 16 28 17 30 18 31 19 32 80 33 20 34 79 35 21 36
REMARK SMILES IDX 22 37 23 38 73 39 24 40 78 41 72 42 74 43 25 44 77 45 71 46
REMARK SMILES IDX 70 47 26 49 58 50 38 51 57 52 39 53 42 54 56 55 75 56 40 57
REMARK SMILES IDX 41 58 55 60 76 61 43 62 27 63 28 64 36 65 29 66 30 67 34 68
REMARK SMILES IDX 37 69 31 70 32 71 35 72 33 73 59 74 60 75 68 76 61 77 62 78
REMARK SMILES IDX 66 79 69 80 63 81 64 82 67 83 65 84 44 85 45 86 53 87 46 88
REMARK SMILES IDX 47 89 51 90 54 91 48 92 49 93 52 94 50 95
REMARK H PARENT 11 6 81 18 15 29 74 48 42 59
REMARK Flexibility Score: inf
ROOT
ATOM      1  C   UNL A   1      33.258  28.990  23.408  1.00  0.00     0.042 C 
ENDROOT
BRANCH   1   2
ATOM      2  C   UNL A   1      34.136  27.963  22.674  1.00  0.00     0.118 C 
BRANCH   2   3
ATOM      3  N   UNL A   1      33.335  27.276  21.672  1.00  0.00    -0.352 N 
ATOM      4  C   UNL A   1      32.892  25.970  21.674  1.00  0.00     0.251 C 
ATOM      5  O   UNL A   1      32.846  25.362  20.603  1.00  0.00    -0.269 OA
ATOM      6  H   UNL A   1      33.073  27.814  20.890  1.00  0.00     0.163 HD
BRANCH   4   7
ATOM      7  C   UNL A   1      32.160  25.412  22.842  1.00  0.00     0.046 A 
ATOM      8  C   UNL A   1      32.347  24.194  23.531  1.00  0.00     0.002 A 
ATOM      9  C   UNL A   1      31.490  23.968  24.652  1.00  0.00     0.008 A 
ATOM     10  C   UNL A   1      30.425  24.807  24.982  1.00  0.00     0.000 A 
ATOM     11  C   UNL A   1      31.050  26.232  23.170  1.00  0.00     0.014 A 
ATOM     12  C   UNL A   1      30.176  25.922  24.209  1.00  0.00     0.001 A 
BRANCH   8  13
ATOM     13  C   UNL A   1      33.240  22.997  23.159  1.00  0.00     0.129 C 
ATOM     14  C   UNL A   1      32.426  21.891  22.457  1.00  0.00     0.054 C 
ATOM     15  N   UNL A   1      34.355  23.445  22.290  1.00  0.00    -0.288 NA
ATOM     16  S   UNL A   1      34.134  22.146  24.466  1.00  0.00    -0.070 SA
ATOM     17  N   UNL A   1      35.573  23.624  22.903  1.00  0.00    -0.171 NA
ATOM     18  H   UNL A   1      34.230  23.604  21.326  1.00  0.00     0.185 HD
ATOM     19  C   UNL A   1      35.589  22.976  24.024  1.00  0.00     0.126 C 
BRANCH  19  20
ATOM     20  C   UNL A   1      36.705  22.854  24.957  1.00  0.00     0.009 A 
ATOM     21  C   UNL A   1      37.472  21.687  24.980  1.00  0.00     0.011 A 
ATOM     22  C   UNL A   1      37.093  23.982  25.688  1.00  0.00     0.011 A 
ATOM     23  C   UNL A   1      38.640  21.651  25.743  1.00  0.00     0.001 A 
ATOM     24  C   UNL A   1      38.263  23.940  26.445  1.00  0.00     0.001 A 
ATOM     25  C   UNL A   1      39.035  22.777  26.470  1.00  0.00     0.000 A 
ENDBRANCH  19  20
ENDBRANCH   8  13
ENDBRANCH   4   7
ENDBRANCH   2   3
ENDBRANCH   1   2
BRANCH   1  26
ATOM     26  C   UNL A   1      33.299  28.921  24.926  1.00  0.00     0.118 C 
BRANCH  26  27
ATOM     27  N   UNL A   1      32.740  30.113  25.536  1.00  0.00    -0.352 N 
ATOM     28  C   UNL A   1      33.106  30.820  26.656  1.00  0.00     0.251 C 
ATOM     29  H   UNL A   1      31.958  30.482  25.064  1.00  0.00     0.163 HD
ATOM     30  O   UNL A   1      32.307  31.647  27.108  1.00  0.00    -0.269 OA
BRANCH  28  31
ATOM     31  C   UNL A   1      34.407  30.630  27.354  1.00  0.00     0.039 A 
ATOM     32  C   UNL A   1      34.738  29.347  27.817  1.00  0.00     0.014 A 
ATOM     33  C   UNL A   1      35.255  31.691  27.670  1.00  0.00     0.014 A 
ATOM     34  C   UNL A   1      35.913  29.130  28.555  1.00  0.00     0.010 A 
ATOM     35  C   UNL A   1      36.472  31.460  28.317  1.00  0.00     0.010 A 
ATOM     36  C   UNL A   1      36.804  30.184  28.794  1.00  0.00    -0.014 A 
BRANCH  36  37
ATOM     37  C   UNL A   1      38.045  30.014  29.604  1.00  0.00     0.031 A 
ATOM     38  C   UNL A   1      39.162  29.141  29.083  1.00  0.00     0.074 A 
ATOM     39  C   UNL A   1      38.154  30.571  30.827  1.00  0.00     0.049 A 
ATOM     40  N   UNL A   1      40.233  28.701  29.695  1.00  0.00    -0.248 NA
ATOM     41  C   UNL A   1      39.035  28.674  27.693  1.00  0.00     0.031 C 
ATOM     42  C   UNL A   1      37.155  31.434  31.458  1.00  0.00     0.029 A 
ATOM     43  N   UNL A   1      39.154  30.478  31.766  1.00  0.00    -0.354 N 
ATOM     44  C   UNL A   1      40.881  27.879  28.780  1.00  0.00     0.074 A 
ATOM     45  C   UNL A   1      40.061  27.844  27.588  1.00  0.00     0.031 C 
ATOM     46  C   UNL A   1      37.597  31.803  32.672  1.00  0.00     0.029 A 
ATOM     47  C   UNL A   1      38.884  31.161  32.928  1.00  0.00     0.049 A 
ATOM     48  H   UNL A   1      39.984  29.970  31.621  1.00  0.00     0.167 HD
ATOM     49  C   UNL A   1      42.064  27.229  28.909  1.00  0.00     0.037 A 
ATOM     50  C   UNL A   1      39.585  31.243  34.077  1.00  0.00     0.037 A 
ATOM     51  C   UNL A   1      42.904  27.301  30.074  1.00  0.00     0.049 A 
ATOM     52  C   UNL A   1      40.889  30.499  34.202  1.00  0.00     0.074 A 
ATOM     53  C   UNL A   1      44.132  26.702  30.293  1.00  0.00     0.029 A 
ATOM     54  N   UNL A   1      42.607  28.033  31.214  1.00  0.00    -0.354 N 
ATOM     55  N   UNL A   1      41.497  29.737  33.325  1.00  0.00    -0.248 NA
ATOM     56  C   UNL A   1      41.608  30.625  35.479  1.00  0.00     0.031 C 
ATOM     57  C   UNL A   1      44.564  27.045  31.578  1.00  0.00     0.029 A 
ATOM     58  C   UNL A   1      43.628  27.897  32.141  1.00  0.00     0.049 A 
ATOM     59  H   UNL A   1      41.791  28.568  31.346  1.00  0.00     0.167 HD
ATOM     60  C   UNL A   1      42.684  29.335  33.924  1.00  0.00     0.074 A 
ATOM     61  C   UNL A   1      42.714  29.936  35.240  1.00  0.00     0.031 C 
ATOM     62  C   UNL A   1      43.662  28.539  33.428  1.00  0.00     0.037 A 
BRANCH  49  63
ATOM     63  C   UNL A   1      42.529  26.386  27.754  1.00  0.00     0.064 A 
ATOM     64  C   UNL A   1      42.114  25.055  27.604  1.00  0.00     0.173 A 
ATOM     65  C   UNL A   1      43.362  26.929  26.765  1.00  0.00     0.173 A 
ATOM     66  F   UNL A   1      41.325  24.484  28.528  1.00  0.00    -0.203 F 
ATOM     67  C   UNL A   1      42.539  24.289  26.521  1.00  0.00     0.198 A 
ATOM     68  C   UNL A   1      43.759  26.170  25.666  1.00  0.00     0.198 A 
ATOM     69  F   UNL A   1      43.782  28.200  26.855  1.00  0.00    -0.203 F 
ATOM     70  F   UNL A   1      42.169  23.004  26.426  1.00  0.00    -0.200 F 
ATOM     71  C   UNL A   1      43.354  24.849  25.550  1.00  0.00     0.200 A 
ATOM     72  F   UNL A   1      44.535  26.718  24.720  1.00  0.00    -0.200 F 
ATOM     73  F   UNL A   1      43.754  24.113  24.503  1.00  0.00    -0.200 F 
ENDBRANCH  49  63
BRANCH  50  74
ATOM     74  C   UNL A   1      39.081  32.069  35.207  1.00  0.00     0.064 A 
ATOM     75  C   UNL A   1      39.339  33.447  35.258  1.00  0.00     0.173 A 
ATOM     76  C   UNL A   1      38.362  31.502  36.269  1.00  0.00     0.173 A 
ATOM     77  F   UNL A   1      40.042  34.033  34.278  1.00  0.00    -0.203 F 
ATOM     78  C   UNL A   1      38.927  34.218  36.343  1.00  0.00     0.198 A 
ATOM     79  C   UNL A   1      37.923  32.280  37.339  1.00  0.00     0.198 A 
ATOM     80  F   UNL A   1      38.083  30.190  36.267  1.00  0.00    -0.203 F 
ATOM     81  F   UNL A   1      39.239  35.521  36.393  1.00  0.00    -0.200 F 
ATOM     82  C   UNL A   1      38.215  33.635  37.381  1.00  0.00     0.200 A 
ATOM     83  F   UNL A   1      37.224  31.716  38.333  1.00  0.00    -0.200 F 
ATOM     84  F   UNL A   1      37.822  34.377  38.425  1.00  0.00    -0.200 F 
ENDBRANCH  50  74
BRANCH  62  85
ATOM     85  C   UNL A   1      44.887  28.332  34.270  1.00  0.00     0.064 A 
ATOM     86  C   UNL A   1      45.977  29.212  34.220  1.00  0.00     0.173 A 
ATOM     87  C   UNL A   1      44.937  27.272  35.188  1.00  0.00     0.173 A 
ATOM     88  F   UNL A   1      45.982  30.234  33.350  1.00  0.00    -0.203 F 
ATOM     89  C   UNL A   1      47.082  29.026  35.047  1.00  0.00     0.198 A 
ATOM     90  C   UNL A   1      46.031  27.106  36.033  1.00  0.00     0.198 A 
ATOM     91  F   UNL A   1      43.916  26.408  35.279  1.00  0.00    -0.203 F 
ATOM     92  F   UNL A   1      48.130  29.858  34.958  1.00  0.00    -0.200 F 
ATOM     93  C   UNL A   1      47.104  27.981  35.958  1.00  0.00     0.200 A 
ATOM     94  F   UNL A   1      46.043  26.104  36.922  1.00  0.00    -0.200 F 
ATOM     95  F   UNL A   1      48.163  27.813  36.763  1.00  0.00    -0.200 F 
ENDBRANCH  62  85
ENDBRANCH  36  37
ENDBRANCH  28  31
ENDBRANCH  26  27
ENDBRANCH   1  26
TORSDOF 12
ENDMDL
MODEL 3
REMARK VINA RESULT:     -13.2      1.605      3.486
REMARK SMILES C[C@]1(c2ccccc2C(=O)NCCCNC(=O)c2ccc(-c3c4nc(c(-c5c(F)c(F)c(F)c(F)c5F)c5ccc([nH]5)c(-c5c(F)c(F)c(F)c(F)c5F)c5nc(c(-c6c(F)c(F)c(F)c(F)c6F)c6ccc3[nH]6)C=C5)C=C4)cc2)NN=C(c2ccccc2)S1
REMARK SMILES IDX 13 1 12 2 11 3 9 4 10 5 8 7 3 8 4 9 5 10 7 11 6 12 2 13 1 14
REMARK SMILES IDX 81 15 90 16 82 17 83 19 84 20 85 21 89 22 86 23 88 24 87 25
REMARK SMILES IDX 14 26 15 27 16 28 17 30 18 31 19 32 80 33 20 34 79 35 21 36
REMARK SMILES IDX 22 37 23 38 73 39 24 40 78 41 72 42 74 43 25 44 77 45 71 46
REMARK SMILES IDX 70 47 26 49 58 50 38 51 57 52 39 53 42 54 56 55 75 56 40 57
REMARK SMILES IDX 41 58 55 60 76 61 43 62 27 63 28 64 36 65 29 66 30 67 34 68
REMARK SMILES IDX 37 69 31 70 32 71 35 72 33 73 59 74 60 75 68 76 61 77 62 78
REMARK SMILES IDX 66 79 69 80 63 81 64 82 67 83 65 84 44 85 45 86 53 87 46 88
REMARK SMILES IDX 47 89 51 90 54 91 48 92 49 93 52 94 50 95
REMARK H PARENT 11 6 81 18 15 29 74 48 42 59
REMARK Flexibility Score: inf
ROOT
ATOM      1  C   UNL A   1      32.059  28.071  25.961  1.00  0.00     0.042 C 
ENDROOT
BRANCH   1   2
ATOM      2  C   UNL A   1      32.758  26.753  26.335  1.00  0.00     0.118 C 
BRANCH   2   3
ATOM      3  N   UNL A   1      31.779  25.832  26.893  1.00  0.00    -0.352 N 
ATOM      4  C   UNL A   1      31.428  24.576  26.444  1.00  0.00     0.251 C 
ATOM      5  O   UNL A   1      30.250  24.226  26.536  1.00  0.00    -0.269 OA
ATOM      6  H   UNL A   1      31.305  26.146  27.697  1.00  0.00     0.163 HD
BRANCH   4   7
ATOM      7  C   UNL A   1      32.462  23.539  26.187  1.00  0.00     0.046 A 
ATOM      8  C   UNL A   1      33.085  23.160  24.978  1.00  0.00     0.002 A 
ATOM      9  C   UNL A   1      34.081  22.139  25.077  1.00  0.00     0.008 A 
ATOM     10  C   UNL A   1      34.339  21.434  26.253  1.00  0.00     0.000 A 
ATOM     11  C   UNL A   1      32.712  22.785  27.363  1.00  0.00     0.014 A 
ATOM     12  C   UNL A   1      33.619  21.728  27.392  1.00  0.00     0.001 A 
BRANCH   8  13
ATOM     13  C   UNL A   1      32.742  23.579  23.538  1.00  0.00     0.129 C 
ATOM     14  C   UNL A   1      33.749  22.989  22.530  1.00  0.00     0.054 C 
ATOM     15  N   UNL A   1      31.364  23.148  23.198  1.00  0.00    -0.288 NA
ATOM     16  S   UNL A   1      32.670  25.331  23.140  1.00  0.00    -0.070 SA
ATOM     17  N   UNL A   1      30.388  24.116  23.264  1.00  0.00    -0.171 NA
ATOM     18  H   UNL A   1      31.159  22.221  22.938  1.00  0.00     0.185 HD
ATOM     19  C   UNL A   1      30.940  25.287  23.213  1.00  0.00     0.126 C 
BRANCH  19  20
ATOM     20  C   UNL A   1      30.265  26.580  23.199  1.00  0.00     0.009 A 
ATOM     21  C   UNL A   1      30.867  27.675  22.574  1.00  0.00     0.011 A 
ATOM     22  C   UNL A   1      28.945  26.652  23.658  1.00  0.00     0.011 A 
ATOM     23  C   UNL A   1      30.137  28.854  22.409  1.00  0.00     0.001 A 
ATOM     24  C   UNL A   1      28.223  27.832  23.486  1.00  0.00     0.001 A 
ATOM     25  C   UNL A   1      28.817  28.929  22.861  1.00  0.00     0.000 A 
ENDBRANCH  19  20
ENDBRANCH   8  13
ENDBRANCH   4   7
ENDBRANCH   2   3
ENDBRANCH   1   2
BRANCH   1  26
ATOM     26  C   UNL A   1      32.957  29.143  25.367  1.00  0.00     0.118 C 
BRANCH  26  27
ATOM     27  N   UNL A   1      32.576  30.472  25.808  1.00  0.00    -0.352 N 
ATOM     28  C   UNL A   1      33.071  31.275  26.807  1.00  0.00     0.251 C 
ATOM     29  H   UNL A   1      31.831  30.870  25.302  1.00  0.00     0.163 HD
ATOM     30  O   UNL A   1      32.401  32.256  27.149  1.00  0.00    -0.269 OA
BRANCH  28  31
ATOM     31  C   UNL A   1      34.361  31.017  27.502  1.00  0.00     0.039 A 
ATOM     32  C   UNL A   1      34.639  29.712  27.937  1.00  0.00     0.014 A 
ATOM     33  C   UNL A   1      35.253  32.035  27.841  1.00  0.00     0.014 A 
ATOM     34  C   UNL A   1      35.802  29.431  28.670  1.00  0.00     0.010 A 
ATOM     35  C   UNL A   1      36.458  31.741  28.484  1.00  0.00     0.010 A 
ATOM     36  C   UNL A   1      36.737  30.441  28.933  1.00  0.00    -0.014 A 
BRANCH  36  37
ATOM     37  C   UNL A   1      37.968  30.204  29.740  1.00  0.00     0.031 A 
ATOM     38  C   UNL A   1      39.051  29.301  29.198  1.00  0.00     0.074 A 
ATOM     39  C   UNL A   1      38.096  30.725  30.976  1.00  0.00     0.049 A 
ATOM     40  N   UNL A   1      40.103  28.804  29.799  1.00  0.00    -0.248 NA
ATOM     41  C   UNL A   1      38.909  28.875  27.796  1.00  0.00     0.031 C 
ATOM     42  C   UNL A   1      37.130  31.609  31.629  1.00  0.00     0.029 A 
ATOM     43  N   UNL A   1      39.089  30.569  31.915  1.00  0.00    -0.354 N 
ATOM     44  C   UNL A   1      40.721  27.982  28.865  1.00  0.00     0.074 A 
ATOM     45  C   UNL A   1      39.903  28.009  27.671  1.00  0.00     0.031 C 
ATOM     46  C   UNL A   1      37.583  31.929  32.852  1.00  0.00     0.029 A 
ATOM     47  C   UNL A   1      38.843  31.232  33.093  1.00  0.00     0.049 A 
ATOM     48  H   UNL A   1      39.899  30.033  31.757  1.00  0.00     0.167 HD
ATOM     49  C   UNL A   1      41.877  27.284  28.978  1.00  0.00     0.037 A 
ATOM     50  C   UNL A   1      39.545  31.257  34.244  1.00  0.00     0.037 A 
ATOM     51  C   UNL A   1      42.717  27.293  30.146  1.00  0.00     0.049 A 
ATOM     52  C   UNL A   1      40.819  30.460  34.352  1.00  0.00     0.074 A 
ATOM     53  C   UNL A   1      43.921  26.641  30.351  1.00  0.00     0.029 A 
ATOM     54  N   UNL A   1      42.446  28.006  31.304  1.00  0.00    -0.354 N 
ATOM     55  N   UNL A   1      41.399  29.697  33.457  1.00  0.00    -0.248 NA
ATOM     56  C   UNL A   1      41.539  30.526  35.633  1.00  0.00     0.031 C 
ATOM     57  C   UNL A   1      44.363  26.934  31.645  1.00  0.00     0.029 A 
ATOM     58  C   UNL A   1      43.459  27.807  32.228  1.00  0.00     0.049 A 
ATOM     59  H   UNL A   1      41.651  28.570  31.448  1.00  0.00     0.167 HD
ATOM     60  C   UNL A   1      42.568  29.235  34.046  1.00  0.00     0.074 A 
ATOM     61  C   UNL A   1      42.618  29.801  35.377  1.00  0.00     0.031 C 
ATOM     62  C   UNL A   1      43.515  28.415  33.532  1.00  0.00     0.037 A 
BRANCH  49  63
ATOM     63  C   UNL A   1      42.312  26.453  27.803  1.00  0.00     0.064 A 
ATOM     64  C   UNL A   1      41.796  25.167  27.582  1.00  0.00     0.173 A 
ATOM     65  C   UNL A   1      43.220  26.965  26.864  1.00  0.00     0.173 A 
ATOM     66  F   UNL A   1      40.933  24.627  28.456  1.00  0.00    -0.203 F 
ATOM     67  C   UNL A   1      42.194  24.414  26.481  1.00  0.00     0.198 A 
ATOM     68  C   UNL A   1      43.592  26.221  25.747  1.00  0.00     0.198 A 
ATOM     69  F   UNL A   1      43.738  28.193  27.022  1.00  0.00    -0.203 F 
ATOM     70  F   UNL A   1      41.725  23.169  26.318  1.00  0.00    -0.200 F 
ATOM     71  C   UNL A   1      43.085  24.944  25.560  1.00  0.00     0.200 A 
ATOM     72  F   UNL A   1      44.441  26.742  24.849  1.00  0.00    -0.200 F 
ATOM     73  F   UNL A   1      43.460  24.221  24.495  1.00  0.00    -0.200 F 
ENDBRANCH  49  63
BRANCH  50  74
ATOM     74  C   UNL A   1      39.070  32.073  35.394  1.00  0.00     0.064 A 
ATOM     75  C   UNL A   1      39.402  33.432  35.494  1.00  0.00     0.173 A 
ATOM     76  C   UNL A   1      38.307  31.512  36.429  1.00  0.00     0.173 A 
ATOM     77  F   UNL A   1      40.150  34.010  34.542  1.00  0.00    -0.203 F 
ATOM     78  C   UNL A   1      39.017  34.190  36.599  1.00  0.00     0.198 A 
ATOM     79  C   UNL A   1      37.896  32.279  37.518  1.00  0.00     0.198 A 
ATOM     80  F   UNL A   1      37.957  30.218  36.380  1.00  0.00    -0.203 F 
ATOM     81  F   UNL A   1      39.400  35.471  36.695  1.00  0.00    -0.200 F 
ATOM     82  C   UNL A   1      38.261  33.614  37.608  1.00  0.00     0.200 A 
ATOM     83  F   UNL A   1      37.154  31.722  38.485  1.00  0.00    -0.200 F 
ATOM     84  F   UNL A   1      37.894  34.342  38.671  1.00  0.00    -0.200 F 
ENDBRANCH  50  74
BRANCH  62  85
ATOM     85  C   UNL A   1      44.730  28.139  34.369  1.00  0.00     0.064 A 
ATOM     86  C   UNL A   1      45.854  28.976  34.341  1.00  0.00     0.173 A 
ATOM     87  C   UNL A   1      44.737  27.056  35.261  1.00  0.00     0.173 A 
ATOM     88  F   UNL A   1      45.901  30.018  33.497  1.00  0.00    -0.203 F 
ATOM     89  C   UNL A   1      46.949  28.727  35.164  1.00  0.00     0.198 A 
ATOM     90  C   UNL A   1      45.821  26.826  36.102  1.00  0.00     0.198 A 
ATOM     91  F   UNL A   1      43.682  26.231  35.331  1.00  0.00    -0.203 F 
ATOM     92  F   UNL A   1      48.030  29.518  35.097  1.00  0.00    -0.200 F 
ATOM     93  C   UNL A   1      46.928  27.659  36.050  1.00  0.00     0.200 A 
ATOM     94  F   UNL A   1      45.792  25.804  36.967  1.00  0.00    -0.200 F 
ATOM     95  F   UNL A   1      47.978  27.431  36.852  1.00  0.00    -0.200 F 
ENDBRANCH  62  85
ENDBRANCH  36  37
ENDBRANCH  28  31
ENDBRANCH  26  27
ENDBRANCH   1  26
TORSDOF 12
ENDMDL
