MODEL 1
REMARK VINA RESULT:     -14.0      0.000      0.000
REMARK SMILES Cc1ccc([C@H](C)Nc2ccc(C(=O)NCCCNC(=O)c3ccc(-c4c5nc(c(-c6c(F)c(F)c(F)c(F)c6F)c6ccc([nH]6)c(-c6c(F)c(F)c(F)c(F)c6F)c6nc(c(-c7c(F)c(F)c(F)c(F)c7F)c7ccc4[nH]7)C=C6)C=C5)cc3)cc2Cl)cc1F
REMARK SMILES IDX 16 1 15 2 13 3 14 4 12 6 9 7 10 8 86 9 11 10 85 11 87 12
REMARK SMILES IDX 8 13 6 15 7 16 5 17 1 18 2 19 3 20 89 21 4 22 88 23 90 24
REMARK SMILES IDX 17 25 18 26 19 27 20 28 21 30 22 31 23 32 84 33 24 34 83 35
REMARK SMILES IDX 25 36 26 37 27 38 77 39 28 40 82 41 76 42 78 43 29 44 81 45
REMARK SMILES IDX 75 46 74 47 30 49 62 50 42 51 61 52 43 53 46 54 60 55 79 56
REMARK SMILES IDX 44 57 45 58 59 60 80 61 47 62 31 63 32 64 40 65 33 66 34 67
REMARK SMILES IDX 38 68 41 69 35 70 36 71 39 72 37 73 63 74 64 75 72 76 65 77
REMARK SMILES IDX 66 78 70 79 73 80 67 81 68 82 71 83 69 84 48 85 49 86 57 87
REMARK SMILES IDX 50 88 51 89 55 90 58 91 52 92 53 93 56 94 54 95
REMARK H PARENT 15 5 8 14 19 29 78 48 46 59
REMARK Flexibility Score: inf
ROOT
ATOM      1  C   UNL A   1      35.579  21.744  25.938  1.00  0.00     0.118 C 
ENDROOT
BRANCH   1   2
ATOM      2  N   UNL A   1      35.039  20.554  25.294  1.00  0.00    -0.352 N 
ATOM      3  C   UNL A   1      33.824  20.326  24.688  1.00  0.00     0.251 C 
ATOM      4  O   UNL A   1      33.617  19.218  24.198  1.00  0.00    -0.269 OA
ATOM      5  H   UNL A   1      35.649  19.781  25.290  1.00  0.00     0.163 HD
BRANCH   3   6
ATOM      6  C   UNL A   1      32.783  21.386  24.568  1.00  0.00     0.041 A 
ATOM      7  C   UNL A   1      30.903  23.535  24.429  1.00  0.00     0.053 A 
ATOM      8  C   UNL A   1      31.805  23.249  23.378  1.00  0.00     0.028 A 
ATOM      9  C   UNL A   1      30.995  22.724  25.557  1.00  0.00     0.065 A 
ATOM     10  C   UNL A   1      32.756  22.216  23.455  1.00  0.00     0.016 A 
ATOM     11  C   UNL A   1      31.829  21.619  25.543  1.00  0.00     0.036 A 
ATOM     12  Cl  UNL A   1      30.154  22.905  27.063  1.00  0.00    -0.082 Cl
BRANCH   7  13
ATOM     13  N   UNL A   1      30.041  24.595  24.253  1.00  0.00    -0.377 N 
ATOM     14  H   UNL A   1      29.089  24.422  24.429  1.00  0.00     0.161 HD
BRANCH  13  15
ATOM     15  C   UNL A   1      30.392  25.945  23.833  1.00  0.00     0.106 C 
ATOM     16  C   UNL A   1      29.061  26.689  23.644  1.00  0.00     0.036 C 
BRANCH  15  17
ATOM     17  C   UNL A   1      31.427  26.542  24.786  1.00  0.00    -0.023 A 
ATOM     18  C   UNL A   1      34.109  28.939  27.223  1.00  0.00     0.047 C 
ATOM     19  C   UNL A   1      33.208  28.065  26.410  1.00  0.00    -0.015 A 
ATOM     20  C   UNL A   1      32.101  27.419  26.967  1.00  0.00     0.007 A 
ATOM     21  C   UNL A   1      33.440  27.911  25.050  1.00  0.00     0.126 A 
ATOM     22  C   UNL A   1      31.219  26.676  26.165  1.00  0.00     0.006 A 
ATOM     23  C   UNL A   1      32.592  27.139  24.264  1.00  0.00     0.045 A 
ATOM     24  F   UNL A   1      34.475  28.535  24.468  1.00  0.00    -0.207 F 
ENDBRANCH  15  17
ENDBRANCH  13  15
ENDBRANCH   7  13
ENDBRANCH   3   6
ENDBRANCH   1   2
BRANCH   1  25
ATOM     25  C   UNL A   1      36.320  22.627  24.919  1.00  0.00     0.042 C 
BRANCH  25  26
ATOM     26  C   UNL A   1      37.370  23.441  25.597  1.00  0.00     0.118 C 
BRANCH  26  27
ATOM     27  N   UNL A   1      38.380  22.570  26.192  1.00  0.00    -0.352 N 
ATOM     28  C   UNL A   1      39.603  22.945  26.697  1.00  0.00     0.251 C 
ATOM     29  H   UNL A   1      38.162  21.611  26.235  1.00  0.00     0.163 HD
ATOM     30  O   UNL A   1      40.508  22.140  26.831  1.00  0.00    -0.269 OA
BRANCH  28  31
ATOM     31  C   UNL A   1      39.763  24.348  27.102  1.00  0.00     0.039 A 
ATOM     32  C   UNL A   1      40.368  25.300  26.277  1.00  0.00     0.014 A 
ATOM     33  C   UNL A   1      39.321  24.686  28.376  1.00  0.00     0.014 A 
ATOM     34  C   UNL A   1      40.545  26.589  26.766  1.00  0.00     0.010 A 
ATOM     35  C   UNL A   1      39.236  25.985  28.737  1.00  0.00     0.010 A 
ATOM     36  C   UNL A   1      39.991  26.895  28.008  1.00  0.00    -0.014 A 
BRANCH  36  37
ATOM     37  C   UNL A   1      40.232  28.087  28.786  1.00  0.00     0.031 A 
ATOM     38  C   UNL A   1      39.288  29.193  28.713  1.00  0.00     0.074 A 
ATOM     39  C   UNL A   1      41.141  27.907  29.772  1.00  0.00     0.049 A 
ATOM     40  N   UNL A   1      39.523  30.364  29.176  1.00  0.00    -0.248 NA
ATOM     41  C   UNL A   1      37.970  29.060  28.105  1.00  0.00     0.031 C 
ATOM     42  C   UNL A   1      41.364  28.633  31.009  1.00  0.00     0.029 A 
ATOM     43  N   UNL A   1      42.159  26.932  29.774  1.00  0.00    -0.354 N 
ATOM     44  C   UNL A   1      38.312  31.014  29.259  1.00  0.00     0.074 A 
ATOM     45  C   UNL A   1      37.409  30.220  28.460  1.00  0.00     0.031 C 
ATOM     46  C   UNL A   1      42.603  28.337  31.456  1.00  0.00     0.029 A 
ATOM     47  C   UNL A   1      43.245  27.524  30.431  1.00  0.00     0.049 A 
ATOM     48  H   UNL A   1      42.116  26.025  29.392  1.00  0.00     0.167 HD
ATOM     49  C   UNL A   1      38.208  32.043  30.150  1.00  0.00     0.037 A 
ATOM     50  C   UNL A   1      44.307  27.904  29.657  1.00  0.00     0.037 A 
ATOM     51  C   UNL A   1      39.508  32.264  30.802  1.00  0.00     0.049 A 
ATOM     52  C   UNL A   1      44.428  29.409  29.616  1.00  0.00     0.074 A 
ATOM     53  C   UNL A   1      40.019  31.863  32.028  1.00  0.00     0.029 A 
ATOM     54  N   UNL A   1      40.609  32.610  30.020  1.00  0.00    -0.354 N 
ATOM     55  N   UNL A   1      43.425  30.234  29.764  1.00  0.00    -0.248 NA
ATOM     56  C   UNL A   1      45.707  30.090  29.496  1.00  0.00     0.031 C 
ATOM     57  C   UNL A   1      41.439  31.890  31.942  1.00  0.00     0.029 A 
ATOM     58  C   UNL A   1      41.794  32.320  30.673  1.00  0.00     0.049 A 
ATOM     59  H   UNL A   1      40.551  33.007  29.120  1.00  0.00     0.167 HD
ATOM     60  C   UNL A   1      43.896  31.518  29.829  1.00  0.00     0.074 A 
ATOM     61  C   UNL A   1      45.332  31.372  29.651  1.00  0.00     0.031 C 
ATOM     62  C   UNL A   1      43.082  32.597  30.043  1.00  0.00     0.037 A 
BRANCH  49  63
ATOM     63  C   UNL A   1      36.901  32.630  30.651  1.00  0.00     0.064 A 
ATOM     64  C   UNL A   1      36.167  33.537  29.853  1.00  0.00     0.173 A 
ATOM     65  C   UNL A   1      36.324  32.371  31.910  1.00  0.00     0.173 A 
ATOM     66  F   UNL A   1      36.540  33.827  28.600  1.00  0.00    -0.203 F 
ATOM     67  C   UNL A   1      35.013  34.184  30.307  1.00  0.00     0.198 A 
ATOM     68  C   UNL A   1      35.195  33.052  32.383  1.00  0.00     0.198 A 
ATOM     69  F   UNL A   1      36.784  31.402  32.707  1.00  0.00    -0.203 F 
ATOM     70  F   UNL A   1      34.363  35.031  29.496  1.00  0.00    -0.200 F 
ATOM     71  C   UNL A   1      34.540  33.962  31.583  1.00  0.00     0.200 A 
ATOM     72  F   UNL A   1      34.741  32.805  33.621  1.00  0.00    -0.200 F 
ATOM     73  F   UNL A   1      33.446  34.594  32.025  1.00  0.00    -0.200 F 
ENDBRANCH  49  63
BRANCH  50  74
ATOM     74  C   UNL A   1      44.530  26.949  28.518  1.00  0.00     0.064 A 
ATOM     75  C   UNL A   1      44.201  27.405  27.220  1.00  0.00     0.173 A 
ATOM     76  C   UNL A   1      45.429  25.875  28.601  1.00  0.00     0.173 A 
ATOM     77  F   UNL A   1      43.345  28.429  27.070  1.00  0.00    -0.203 F 
ATOM     78  C   UNL A   1      44.856  26.927  26.085  1.00  0.00     0.198 A 
ATOM     79  C   UNL A   1      46.059  25.374  27.453  1.00  0.00     0.198 A 
ATOM     80  F   UNL A   1      45.788  25.381  29.794  1.00  0.00    -0.203 F 
ATOM     81  F   UNL A   1      44.626  27.494  24.890  1.00  0.00    -0.200 F 
ATOM     82  C   UNL A   1      45.806  25.929  26.206  1.00  0.00     0.200 A 
ATOM     83  F   UNL A   1      46.980  24.405  27.566  1.00  0.00    -0.200 F 
ATOM     84  F   UNL A   1      46.498  25.528  25.131  1.00  0.00    -0.200 F 
ENDBRANCH  50  74
BRANCH  62  85
ATOM     85  C   UNL A   1      43.446  34.040  29.760  1.00  0.00     0.064 A 
ATOM     86  C   UNL A   1      43.595  34.574  28.470  1.00  0.00     0.173 A 
ATOM     87  C   UNL A   1      43.484  34.993  30.811  1.00  0.00     0.173 A 
ATOM     88  F   UNL A   1      43.444  33.822  27.373  1.00  0.00    -0.203 F 
ATOM     89  C   UNL A   1      43.837  35.931  28.251  1.00  0.00     0.198 A 
ATOM     90  C   UNL A   1      43.636  36.358  30.582  1.00  0.00     0.198 A 
ATOM     91  F   UNL A   1      43.335  34.641  32.096  1.00  0.00    -0.203 F 
ATOM     92  F   UNL A   1      44.035  36.373  27.001  1.00  0.00    -0.200 F 
ATOM     93  C   UNL A   1      43.837  36.826  29.302  1.00  0.00     0.200 A 
ATOM     94  F   UNL A   1      43.560  37.217  31.608  1.00  0.00    -0.200 F 
ATOM     95  F   UNL A   1      44.005  38.135  29.081  1.00  0.00    -0.200 F 
ENDBRANCH  62  85
ENDBRANCH  36  37
ENDBRANCH  28  31
ENDBRANCH  26  27
ENDBRANCH  25  26
ENDBRANCH   1  25
TORSDOF 13
ENDMDL
MODEL 2
REMARK VINA RESULT:     -13.8      3.456      9.179
REMARK SMILES Cc1ccc([C@H](C)Nc2ccc(C(=O)NCCCNC(=O)c3ccc(-c4c5nc(c(-c6c(F)c(F)c(F)c(F)c6F)c6ccc([nH]6)c(-c6c(F)c(F)c(F)c(F)c6F)c6nc(c(-c7c(F)c(F)c(F)c(F)c7F)c7ccc4[nH]7)C=C6)C=C5)cc3)cc2Cl)cc1F
REMARK SMILES IDX 16 1 15 2 13 3 14 4 12 6 9 7 10 8 86 9 11 10 85 11 87 12
REMARK SMILES IDX 8 13 6 15 7 16 5 17 1 18 2 19 3 20 89 21 4 22 88 23 90 24
REMARK SMILES IDX 17 25 18 26 19 27 20 28 21 30 22 31 23 32 84 33 24 34 83 35
REMARK SMILES IDX 25 36 26 37 27 38 77 39 28 40 82 41 76 42 78 43 29 44 81 45
REMARK SMILES IDX 75 46 74 47 30 49 62 50 42 51 61 52 43 53 46 54 60 55 79 56
REMARK SMILES IDX 44 57 45 58 59 60 80 61 47 62 31 63 32 64 40 65 33 66 34 67
REMARK SMILES IDX 38 68 41 69 35 70 36 71 39 72 37 73 63 74 64 75 72 76 65 77
REMARK SMILES IDX 66 78 70 79 73 80 67 81 68 82 71 83 69 84 48 85 49 86 57 87
REMARK SMILES IDX 50 88 51 89 55 90 58 91 52 92 53 93 56 94 54 95
REMARK H PARENT 15 5 8 14 19 29 78 48 46 59
REMARK Flexibility Score: inf
ROOT
ATOM      1  C   UNL A   1      32.789  29.199  25.170  1.00  0.00     0.118 C 
ENDROOT
BRANCH   1   2
ATOM      2  N   UNL A   1      31.511  29.635  24.624  1.00  0.00    -0.352 N 
ATOM      3  C   UNL A   1      30.573  28.965  23.871  1.00  0.00     0.251 C 
ATOM      4  O   UNL A   1      29.552  29.567  23.543  1.00  0.00    -0.269 OA
ATOM      5  H   UNL A   1      31.278  30.570  24.829  1.00  0.00     0.163 HD
BRANCH   3   6
ATOM      6  C   UNL A   1      30.735  27.533  23.487  1.00  0.00     0.041 A 
ATOM      7  C   UNL A   1      31.212  24.791  22.841  1.00  0.00     0.053 A 
ATOM      8  C   UNL A   1      30.453  25.182  23.969  1.00  0.00     0.028 A 
ATOM      9  C   UNL A   1      31.741  25.819  22.068  1.00  0.00     0.065 A 
ATOM     10  C   UNL A   1      30.245  26.530  24.311  1.00  0.00     0.016 A 
ATOM     11  C   UNL A   1      31.391  27.131  22.337  1.00  0.00     0.036 A 
ATOM     12  Cl  UNL A   1      32.833  25.683  20.727  1.00  0.00    -0.082 Cl
BRANCH   7  13
ATOM     13  N   UNL A   1      31.377  23.440  22.627  1.00  0.00    -0.377 N 
ATOM     14  H   UNL A   1      31.038  23.084  21.775  1.00  0.00     0.161 HD
BRANCH  13  15
ATOM     15  C   UNL A   1      32.001  22.482  23.531  1.00  0.00     0.106 C 
ATOM     16  C   UNL A   1      31.947  21.125  22.813  1.00  0.00     0.036 C 
BRANCH  15  17
ATOM     17  C   UNL A   1      33.360  23.004  23.996  1.00  0.00    -0.023 A 
ATOM     18  C   UNL A   1      37.359  23.732  25.530  1.00  0.00     0.047 C 
ATOM     19  C   UNL A   1      35.979  23.539  24.986  1.00  0.00    -0.015 A 
ATOM     20  C   UNL A   1      35.719  23.522  23.613  1.00  0.00     0.007 A 
ATOM     21  C   UNL A   1      34.918  23.327  25.856  1.00  0.00     0.126 A 
ATOM     22  C   UNL A   1      34.430  23.250  23.126  1.00  0.00     0.006 A 
ATOM     23  C   UNL A   1      33.633  23.103  25.375  1.00  0.00     0.045 A 
ATOM     24  F   UNL A   1      35.127  23.308  27.181  1.00  0.00    -0.207 F 
ENDBRANCH  15  17
ENDBRANCH  13  15
ENDBRANCH   7  13
ENDBRANCH   3   6
ENDBRANCH   1   2
BRANCH   1  25
ATOM     25  C   UNL A   1      32.621  28.697  26.614  1.00  0.00     0.042 C 
BRANCH  25  26
ATOM     26  C   UNL A   1      33.834  29.013  27.423  1.00  0.00     0.118 C 
BRANCH  26  27
ATOM     27  N   UNL A   1      34.126  30.442  27.359  1.00  0.00    -0.352 N 
ATOM     28  C   UNL A   1      35.165  31.103  27.973  1.00  0.00     0.251 C 
ATOM     29  H   UNL A   1      33.514  30.992  26.819  1.00  0.00     0.163 HD
ATOM     30  O   UNL A   1      35.125  32.306  28.167  1.00  0.00    -0.269 OA
BRANCH  28  31
ATOM     31  C   UNL A   1      36.338  30.307  28.355  1.00  0.00     0.039 A 
ATOM     32  C   UNL A   1      36.448  29.689  29.604  1.00  0.00     0.014 A 
ATOM     33  C   UNL A   1      37.370  30.228  27.427  1.00  0.00     0.014 A 
ATOM     34  C   UNL A   1      37.624  29.013  29.911  1.00  0.00     0.010 A 
ATOM     35  C   UNL A   1      38.377  29.348  27.613  1.00  0.00     0.010 A 
ATOM     36  C   UNL A   1      38.580  28.881  28.906  1.00  0.00    -0.014 A 
BRANCH  36  37
ATOM     37  C   UNL A   1      39.937  28.414  29.066  1.00  0.00     0.031 A 
ATOM     38  C   UNL A   1      40.255  27.026  28.766  1.00  0.00     0.074 A 
ATOM     39  C   UNL A   1      40.842  29.417  29.150  1.00  0.00     0.049 A 
ATOM     40  N   UNL A   1      41.359  26.460  29.088  1.00  0.00    -0.248 NA
ATOM     41  C   UNL A   1      39.335  26.146  28.055  1.00  0.00     0.031 C 
ATOM     42  C   UNL A   1      42.268  29.439  28.884  1.00  0.00     0.029 A 
ATOM     43  N   UNL A   1      40.566  30.727  29.589  1.00  0.00    -0.354 N 
ATOM     44  C   UNL A   1      41.452  25.305  28.345  1.00  0.00     0.074 A 
ATOM     45  C   UNL A   1      40.121  25.089  27.828  1.00  0.00     0.031 C 
ATOM     46  C   UNL A   1      42.791  30.533  29.477  1.00  0.00     0.029 A 
ATOM     47  C   UNL A   1      41.725  31.151  30.254  1.00  0.00     0.049 A 
ATOM     48  H   UNL A   1      39.734  31.238  29.458  1.00  0.00     0.167 HD
ATOM     49  C   UNL A   1      42.699  24.796  28.124  1.00  0.00     0.037 A 
ATOM     50  C   UNL A   1      41.666  31.222  31.618  1.00  0.00     0.037 A 
ATOM     51  C   UNL A   1      43.698  25.616  28.827  1.00  0.00     0.049 A 
ATOM     52  C   UNL A   1      42.550  30.171  32.247  1.00  0.00     0.074 A 
ATOM     53  C   UNL A   1      44.540  26.632  28.401  1.00  0.00     0.029 A 
ATOM     54  N   UNL A   1      43.625  25.732  30.215  1.00  0.00    -0.354 N 
ATOM     55  N   UNL A   1      42.855  29.031  31.684  1.00  0.00    -0.248 NA
ATOM     56  C   UNL A   1      43.227  30.372  33.519  1.00  0.00     0.031 C 
ATOM     57  C   UNL A   1      44.901  27.409  29.537  1.00  0.00     0.029 A 
ATOM     58  C   UNL A   1      44.294  26.861  30.655  1.00  0.00     0.049 A 
ATOM     59  H   UNL A   1      43.159  25.094  30.803  1.00  0.00     0.167 HD
ATOM     60  C   UNL A   1      43.791  28.383  32.446  1.00  0.00     0.074 A 
ATOM     61  C   UNL A   1      43.986  29.264  33.586  1.00  0.00     0.031 C 
ATOM     62  C   UNL A   1      44.349  27.189  32.077  1.00  0.00     0.037 A 
BRANCH  49  63
ATOM     63  C   UNL A   1      43.045  23.776  27.054  1.00  0.00     0.064 A 
ATOM     64  C   UNL A   1      42.743  22.408  27.241  1.00  0.00     0.173 A 
ATOM     65  C   UNL A   1      43.694  24.064  25.837  1.00  0.00     0.173 A 
ATOM     66  F   UNL A   1      42.057  21.981  28.309  1.00  0.00    -0.203 F 
ATOM     67  C   UNL A   1      43.131  21.416  26.333  1.00  0.00     0.198 A 
ATOM     68  C   UNL A   1      44.124  23.068  24.951  1.00  0.00     0.198 A 
ATOM     69  F   UNL A   1      43.880  25.320  25.421  1.00  0.00    -0.203 F 
ATOM     70  F   UNL A   1      42.810  20.135  26.571  1.00  0.00    -0.200 F 
ATOM     71  C   UNL A   1      43.845  21.742  25.201  1.00  0.00     0.200 A 
ATOM     72  F   UNL A   1      44.799  23.411  23.844  1.00  0.00    -0.200 F 
ATOM     73  F   UNL A   1      44.233  20.792  24.341  1.00  0.00    -0.200 F 
ENDBRANCH  49  63
BRANCH  50  74
ATOM     74  C   UNL A   1      40.309  31.660  32.092  1.00  0.00     0.064 A 
ATOM     75  C   UNL A   1      39.496  30.684  32.714  1.00  0.00     0.173 A 
ATOM     76  C   UNL A   1      40.004  33.003  32.364  1.00  0.00     0.173 A 
ATOM     77  F   UNL A   1      39.734  29.380  32.494  1.00  0.00    -0.203 F 
ATOM     78  C   UNL A   1      38.545  31.024  33.675  1.00  0.00     0.198 A 
ATOM     79  C   UNL A   1      39.023  33.340  33.306  1.00  0.00     0.198 A 
ATOM     80  F   UNL A   1      40.725  33.988  31.810  1.00  0.00    -0.203 F 
ATOM     81  F   UNL A   1      37.904  30.060  34.354  1.00  0.00    -0.200 F 
ATOM     82  C   UNL A   1      38.328  32.353  33.992  1.00  0.00     0.200 A 
ATOM     83  F   UNL A   1      38.809  34.629  33.614  1.00  0.00    -0.200 F 
ATOM     84  F   UNL A   1      37.478  32.679  34.975  1.00  0.00    -0.200 F 
ENDBRANCH  50  74
BRANCH  62  85
ATOM     85  C   UNL A   1      45.084  26.240  33.003  1.00  0.00     0.064 A 
ATOM     86  C   UNL A   1      44.449  25.410  33.941  1.00  0.00     0.173 A 
ATOM     87  C   UNL A   1      46.475  26.011  32.843  1.00  0.00     0.173 A 
ATOM     88  F   UNL A   1      43.120  25.413  34.101  1.00  0.00    -0.203 F 
ATOM     89  C   UNL A   1      45.155  24.481  34.708  1.00  0.00     0.198 A 
ATOM     90  C   UNL A   1      47.158  25.022  33.546  1.00  0.00     0.198 A 
ATOM     91  F   UNL A   1      47.215  26.709  31.971  1.00  0.00    -0.203 F 
ATOM     92  F   UNL A   1      44.506  23.761  35.632  1.00  0.00    -0.200 F 
ATOM     93  C   UNL A   1      46.502  24.272  34.498  1.00  0.00     0.200 A 
ATOM     94  F   UNL A   1      48.450  24.786  33.275  1.00  0.00    -0.200 F 
ATOM     95  F   UNL A   1      47.162  23.336  35.190  1.00  0.00    -0.200 F 
ENDBRANCH  62  85
ENDBRANCH  36  37
ENDBRANCH  28  31
ENDBRANCH  26  27
ENDBRANCH  25  26
ENDBRANCH   1  25
TORSDOF 13
ENDMDL
MODEL 3
REMARK VINA RESULT:     -13.7      3.539      9.220
REMARK SMILES Cc1ccc([C@H](C)Nc2ccc(C(=O)NCCCNC(=O)c3ccc(-c4c5nc(c(-c6c(F)c(F)c(F)c(F)c6F)c6ccc([nH]6)c(-c6c(F)c(F)c(F)c(F)c6F)c6nc(c(-c7c(F)c(F)c(F)c(F)c7F)c7ccc4[nH]7)C=C6)C=C5)cc3)cc2Cl)cc1F
REMARK SMILES IDX 16 1 15 2 13 3 14 4 12 6 9 7 10 8 86 9 11 10 85 11 87 12
REMARK SMILES IDX 8 13 6 15 7 16 5 17 1 18 2 19 3 20 89 21 4 22 88 23 90 24
REMARK SMILES IDX 17 25 18 26 19 27 20 28 21 30 22 31 23 32 84 33 24 34 83 35
REMARK SMILES IDX 25 36 26 37 27 38 77 39 28 40 82 41 76 42 78 43 29 44 81 45
REMARK SMILES IDX 75 46 74 47 30 49 62 50 42 51 61 52 43 53 46 54 60 55 79 56
REMARK SMILES IDX 44 57 45 58 59 60 80 61 47 62 31 63 32 64 40 65 33 66 34 67
REMARK SMILES IDX 38 68 41 69 35 70 36 71 39 72 37 73 63 74 64 75 72 76 65 77
REMARK SMILES IDX 66 78 70 79 73 80 67 81 68 82 71 83 69 84 48 85 49 86 57 87
REMARK SMILES IDX 50 88 51 89 55 90 58 91 52 92 53 93 56 94 54 95
REMARK H PARENT 15 5 8 14 19 29 78 48 46 59
REMARK Flexibility Score: inf
ROOT
ATOM      1  C   UNL A   1      32.989  29.314  24.846  1.00  0.00     0.118 C 
ENDROOT
BRANCH   1   2
ATOM      2  N   UNL A   1      31.652  29.703  24.419  1.00  0.00    -0.352 N 
ATOM      3  C   UNL A   1      30.655  28.983  23.801  1.00  0.00     0.251 C 
ATOM      4  O   UNL A   1      29.593  29.552  23.556  1.00  0.00    -0.269 OA
ATOM      5  H   UNL A   1      31.423  30.643  24.605  1.00  0.00     0.163 HD
BRANCH   3   6
ATOM      6  C   UNL A   1      30.804  27.537  23.468  1.00  0.00     0.041 A 
ATOM      7  C   UNL A   1      31.259  24.770  22.919  1.00  0.00     0.053 A 
ATOM      8  C   UNL A   1      30.513  25.207  24.038  1.00  0.00     0.028 A 
ATOM      9  C   UNL A   1      31.788  25.767  22.104  1.00  0.00     0.065 A 
ATOM     10  C   UNL A   1      30.316  26.568  24.333  1.00  0.00     0.016 A 
ATOM     11  C   UNL A   1      31.448  27.090  22.328  1.00  0.00     0.036 A 
ATOM     12  Cl  UNL A   1      32.868  25.575  20.760  1.00  0.00    -0.082 Cl
BRANCH   7  13
ATOM     13  N   UNL A   1      31.415  23.411  22.753  1.00  0.00    -0.377 N 
ATOM     14  H   UNL A   1      31.089  23.031  21.907  1.00  0.00     0.161 HD
BRANCH  13  15
ATOM     15  C   UNL A   1      32.010  22.478  23.701  1.00  0.00     0.106 C 
ATOM     16  C   UNL A   1      31.939  21.096  23.034  1.00  0.00     0.036 C 
BRANCH  15  17
ATOM     17  C   UNL A   1      33.374  22.992  24.160  1.00  0.00    -0.023 A 
ATOM     18  C   UNL A   1      37.379  23.701  25.690  1.00  0.00     0.047 C 
ATOM     19  C   UNL A   1      35.997  23.514  25.147  1.00  0.00    -0.015 A 
ATOM     20  C   UNL A   1      35.739  23.482  23.774  1.00  0.00     0.007 A 
ATOM     21  C   UNL A   1      34.934  23.324  26.018  1.00  0.00     0.126 A 
ATOM     22  C   UNL A   1      34.447  23.217  23.288  1.00  0.00     0.006 A 
ATOM     23  C   UNL A   1      33.647  23.106  25.538  1.00  0.00     0.045 A 
ATOM     24  F   UNL A   1      35.141  23.319  27.343  1.00  0.00    -0.207 F 
ENDBRANCH  15  17
ENDBRANCH  13  15
ENDBRANCH   7  13
ENDBRANCH   3   6
ENDBRANCH   1   2
BRANCH   1  25
ATOM     25  C   UNL A   1      32.973  28.818  26.302  1.00  0.00     0.042 C 
BRANCH  25  26
ATOM     26  C   UNL A   1      34.316  28.987  26.928  1.00  0.00     0.118 C 
BRANCH  26  27
ATOM     27  N   UNL A   1      34.604  30.403  27.134  1.00  0.00    -0.352 N 
ATOM     28  C   UNL A   1      35.561  30.942  27.963  1.00  0.00     0.251 C 
ATOM     29  H   UNL A   1      34.054  31.042  26.625  1.00  0.00     0.163 HD
ATOM     30  O   UNL A   1      35.490  32.097  28.346  1.00  0.00    -0.269 OA
BRANCH  28  31
ATOM     31  C   UNL A   1      36.688  30.080  28.341  1.00  0.00     0.039 A 
ATOM     32  C   UNL A   1      36.691  29.327  29.519  1.00  0.00     0.014 A 
ATOM     33  C   UNL A   1      37.786  30.076  27.489  1.00  0.00     0.014 A 
ATOM     34  C   UNL A   1      37.829  28.593  29.837  1.00  0.00     0.010 A 
ATOM     35  C   UNL A   1      38.761  29.156  27.651  1.00  0.00     0.010 A 
ATOM     36  C   UNL A   1      38.856  28.547  28.897  1.00  0.00    -0.014 A 
BRANCH  36  37
ATOM     37  C   UNL A   1      40.189  28.031  29.104  1.00  0.00     0.031 A 
ATOM     38  C   UNL A   1      40.499  26.668  28.699  1.00  0.00     0.074 A 
ATOM     39  C   UNL A   1      41.105  28.997  29.343  1.00  0.00     0.049 A 
ATOM     40  N   UNL A   1      41.566  26.046  29.041  1.00  0.00    -0.248 NA
ATOM     41  C   UNL A   1      39.614  25.882  27.848  1.00  0.00     0.031 C 
ATOM     42  C   UNL A   1      42.547  29.006  29.178  1.00  0.00     0.029 A 
ATOM     43  N   UNL A   1      40.827  30.269  29.883  1.00  0.00    -0.354 N 
ATOM     44  C   UNL A   1      41.687  24.962  28.202  1.00  0.00     0.074 A 
ATOM     45  C   UNL A   1      40.392  24.829  27.578  1.00  0.00     0.031 C 
ATOM     46  C   UNL A   1      43.050  30.026  29.905  1.00  0.00     0.029 A 
ATOM     47  C   UNL A   1      41.944  30.599  30.661  1.00  0.00     0.049 A 
ATOM     48  H   UNL A   1      40.016  30.811  29.743  1.00  0.00     0.167 HD
ATOM     49  C   UNL A   1      42.936  24.442  28.020  1.00  0.00     0.037 A 
ATOM     50  C   UNL A   1      41.791  30.546  32.019  1.00  0.00     0.037 A 
ATOM     51  C   UNL A   1      43.900  25.167  28.862  1.00  0.00     0.049 A 
ATOM     52  C   UNL A   1      42.607  29.418  32.606  1.00  0.00     0.074 A 
ATOM     53  C   UNL A   1      44.790  26.195  28.591  1.00  0.00     0.029 A 
ATOM     54  N   UNL A   1      43.732  25.157  30.247  1.00  0.00    -0.354 N 
ATOM     55  N   UNL A   1      42.928  28.327  31.962  1.00  0.00    -0.248 NA
ATOM     56  C   UNL A   1      43.197  29.485  33.934  1.00  0.00     0.031 C 
ATOM     57  C   UNL A   1      45.087  26.855  29.817  1.00  0.00     0.029 A 
ATOM     58  C   UNL A   1      44.391  26.223  30.835  1.00  0.00     0.049 A 
ATOM     59  H   UNL A   1      43.212  24.481  30.740  1.00  0.00     0.167 HD
ATOM     60  C   UNL A   1      43.794  27.588  32.721  1.00  0.00     0.074 A 
ATOM     61  C   UNL A   1      43.926  28.356  33.949  1.00  0.00     0.031 C 
ATOM     62  C   UNL A   1      44.352  26.418  32.282  1.00  0.00     0.037 A 
BRANCH  49  63
ATOM     63  C   UNL A   1      43.336  23.516  26.886  1.00  0.00     0.064 A 
ATOM     64  C   UNL A   1      42.974  22.149  26.912  1.00  0.00     0.173 A 
ATOM     65  C   UNL A   1      44.093  23.891  25.759  1.00  0.00     0.173 A 
ATOM     66  F   UNL A   1      42.188  21.651  27.876  1.00  0.00    -0.203 F 
ATOM     67  C   UNL A   1      43.403  21.233  25.945  1.00  0.00     0.198 A 
ATOM     68  C   UNL A   1      44.562  22.967  24.816  1.00  0.00     0.198 A 
ATOM     69  F   UNL A   1      44.355  25.172  25.484  1.00  0.00    -0.203 F 
ATOM     70  F   UNL A   1      43.021  19.950  26.030  1.00  0.00    -0.200 F 
ATOM     71  C   UNL A   1      44.219  21.636  24.911  1.00  0.00     0.200 A 
ATOM     72  F   UNL A   1      45.338  23.386  23.806  1.00  0.00    -0.200 F 
ATOM     73  F   UNL A   1      44.645  20.757  23.995  1.00  0.00    -0.200 F 
ENDBRANCH  49  63
BRANCH  50  74
ATOM     74  C   UNL A   1      40.413  30.976  32.438  1.00  0.00     0.064 A 
ATOM     75  C   UNL A   1      39.981  32.256  32.020  1.00  0.00     0.173 A 
ATOM     76  C   UNL A   1      39.414  30.057  32.793  1.00  0.00     0.173 A 
ATOM     77  F   UNL A   1      40.888  33.183  31.668  1.00  0.00    -0.203 F 
ATOM     78  C   UNL A   1      38.633  32.545  31.812  1.00  0.00     0.198 A 
ATOM     79  C   UNL A   1      38.058  30.365  32.615  1.00  0.00     0.198 A 
ATOM     80  F   UNL A   1      39.741  28.824  33.204  1.00  0.00    -0.203 F 
ATOM     81  F   UNL A   1      38.276  33.719  31.267  1.00  0.00    -0.200 F 
ATOM     82  C   UNL A   1      37.672  31.588  32.084  1.00  0.00     0.200 A 
ATOM     83  F   UNL A   1      37.123  29.439  32.879  1.00  0.00    -0.200 F 
ATOM     84  F   UNL A   1      36.384  31.832  31.804  1.00  0.00    -0.200 F 
ENDBRANCH  50  74
BRANCH  62  85
ATOM     85  C   UNL A   1      45.001  25.369  33.163  1.00  0.00     0.064 A 
ATOM     86  C   UNL A   1      46.389  25.190  33.278  1.00  0.00     0.173 A 
ATOM     87  C   UNL A   1      44.221  24.610  34.073  1.00  0.00     0.173 A 
ATOM     88  F   UNL A   1      47.257  25.937  32.585  1.00  0.00    -0.203 F 
ATOM     89  C   UNL A   1      46.948  24.276  34.173  1.00  0.00     0.198 A 
ATOM     90  C   UNL A   1      44.787  23.767  35.025  1.00  0.00     0.198 A 
ATOM     91  F   UNL A   1      42.883  24.688  34.100  1.00  0.00    -0.203 F 
ATOM     92  F   UNL A   1      48.276  24.102  34.194  1.00  0.00    -0.200 F 
ATOM     93  C   UNL A   1      46.152  23.580  35.060  1.00  0.00     0.200 A 
ATOM     94  F   UNL A   1      44.002  23.156  35.924  1.00  0.00    -0.200 F 
ATOM     95  F   UNL A   1      46.697  22.754  35.960  1.00  0.00    -0.200 F 
ENDBRANCH  62  85
ENDBRANCH  36  37
ENDBRANCH  28  31
ENDBRANCH  26  27
ENDBRANCH  25  26
ENDBRANCH   1  25
TORSDOF 13
ENDMDL
