MODEL 1
REMARK VINA RESULT:     -12.6      0.000      0.000
REMARK SMILES C[C@@H](C(=O)NCCCNC(=O)c1ccc(-c2c3nc(c(-c4c(F)c(F)c(F)c(F)c4F)c4ccc([nH]4)c(-c4c(F)c(F)c(F)c(F)c4F)c4nc(c(-c5c(F)c(F)c(F)c(F)c5F)c5ccc2[nH]5)C=C4)C=C3)cc1)c1ccc(OC2CCCC2)cc1F
REMARK SMILES IDX 6 1 5 2 3 3 4 4 2 6 1 7 75 8 76 9 86 10 77 11 85 12 87 13
REMARK SMILES IDX 78 14 79 15 80 16 81 17 84 18 82 19 83 20 7 21 8 22 9 23
REMARK SMILES IDX 10 24 11 26 12 27 13 28 74 29 14 30 73 31 15 32 16 33 17 34
REMARK SMILES IDX 67 35 18 36 72 37 66 38 68 39 19 40 71 41 65 42 64 43 20 45
REMARK SMILES IDX 52 46 32 47 51 48 33 49 36 50 50 51 69 52 34 53 35 54 49 56
REMARK SMILES IDX 70 57 37 58 21 59 22 60 30 61 23 62 24 63 28 64 31 65 25 66
REMARK SMILES IDX 26 67 29 68 27 69 53 70 54 71 62 72 55 73 56 74 60 75 63 76
REMARK SMILES IDX 57 77 58 78 61 79 59 80 38 81 39 82 47 83 40 84 41 85 45 86
REMARK SMILES IDX 48 87 42 88 43 89 46 90 44 91
REMARK H PARENT 5 5 9 25 68 44 36 55
REMARK Flexibility Score: inf
ROOT
ATOM      1  C   UNL A   1      32.654  26.774  26.271  1.00  0.00     0.117 C 
ENDROOT
BRANCH   1   2
ATOM      2  N   UNL A   1      31.762  25.796  26.859  1.00  0.00    -0.356 N 
ATOM      3  C   UNL A   1      31.075  24.759  26.302  1.00  0.00     0.227 C 
ATOM      4  O   UNL A   1      30.488  24.020  27.098  1.00  0.00    -0.274 OA
ATOM      5  H   UNL A   1      31.628  25.899  27.829  1.00  0.00     0.163 HD
BRANCH   3   6
ATOM      6  C   UNL A   1      31.112  24.504  24.782  1.00  0.00     0.108 C 
ATOM      7  C   UNL A   1      32.466  24.002  24.272  1.00  0.00     0.023 C 
BRANCH   6   8
ATOM      8  C   UNL A   1      30.726  25.745  23.985  1.00  0.00     0.000 A 
ATOM      9  C   UNL A   1      31.604  26.301  23.048  1.00  0.00     0.011 A 
ATOM     10  C   UNL A   1      29.495  26.379  24.187  1.00  0.00     0.130 A 
ATOM     11  C   UNL A   1      31.237  27.449  22.337  1.00  0.00     0.047 A 
ATOM     12  C   UNL A   1      29.123  27.513  23.470  1.00  0.00     0.086 A 
ATOM     13  F   UNL A   1      28.642  25.906  25.108  1.00  0.00    -0.207 F 
ATOM     14  C   UNL A   1      29.989  28.052  22.528  1.00  0.00     0.122 A 
BRANCH  14  15
ATOM     15  O   UNL A   1      29.772  29.154  21.759  1.00  0.00    -0.490 OA
BRANCH  15  16
ATOM     16  C   UNL A   1      28.785  30.129  22.074  1.00  0.00     0.173 C 
ATOM     17  C   UNL A   1      29.043  31.012  23.294  1.00  0.00     0.045 C 
ATOM     18  C   UNL A   1      28.362  31.056  20.932  1.00  0.00     0.045 C 
ATOM     19  C   UNL A   1      28.066  32.158  23.093  1.00  0.00     0.004 C 
ATOM     20  C   UNL A   1      28.076  32.408  21.588  1.00  0.00     0.004 C 
ENDBRANCH  15  16
ENDBRANCH  14  15
ENDBRANCH   6   8
ENDBRANCH   3   6
ENDBRANCH   1   2
BRANCH   1  21
ATOM     21  C   UNL A   1      32.058  28.181  26.268  1.00  0.00     0.042 C 
BRANCH  21  22
ATOM     22  C   UNL A   1      32.918  29.246  25.590  1.00  0.00     0.118 C 
BRANCH  22  23
ATOM     23  N   UNL A   1      32.610  30.595  26.037  1.00  0.00    -0.352 N 
ATOM     24  C   UNL A   1      33.188  31.379  27.000  1.00  0.00     0.251 C 
ATOM     25  H   UNL A   1      31.856  31.018  25.566  1.00  0.00     0.163 HD
ATOM     26  O   UNL A   1      32.645  32.440  27.306  1.00  0.00    -0.269 OA
BRANCH  24  27
ATOM     27  C   UNL A   1      34.434  30.980  27.696  1.00  0.00     0.039 A 
ATOM     28  C   UNL A   1      35.404  31.962  27.921  1.00  0.00     0.014 A 
ATOM     29  C   UNL A   1      34.697  29.656  28.064  1.00  0.00     0.014 A 
ATOM     30  C   UNL A   1      36.606  31.633  28.553  1.00  0.00     0.010 A 
ATOM     31  C   UNL A   1      35.870  29.339  28.754  1.00  0.00     0.010 A 
ATOM     32  C   UNL A   1      36.839  30.323  29.000  1.00  0.00    -0.014 A 
BRANCH  32  33
ATOM     33  C   UNL A   1      38.089  29.991  29.730  1.00  0.00     0.031 A 
ATOM     34  C   UNL A   1      38.338  30.519  31.117  1.00  0.00     0.074 A 
ATOM     35  C   UNL A   1      39.019  29.224  29.129  1.00  0.00     0.049 A 
ATOM     36  N   UNL A   1      39.360  30.311  31.909  1.00  0.00    -0.248 NA
ATOM     37  C   UNL A   1      37.316  31.414  31.678  1.00  0.00     0.031 C 
ATOM     38  C   UNL A   1      38.925  28.698  27.767  1.00  0.00     0.029 A 
ATOM     39  N   UNL A   1      40.225  28.754  29.586  1.00  0.00    -0.354 N 
ATOM     40  C   UNL A   1      39.109  31.052  33.056  1.00  0.00     0.074 A 
ATOM     41  C   UNL A   1      37.861  31.753  32.839  1.00  0.00     0.031 C 
ATOM     42  C   UNL A   1      40.011  27.952  27.508  1.00  0.00     0.029 A 
ATOM     43  C   UNL A   1      40.887  27.966  28.677  1.00  0.00     0.049 A 
ATOM     44  H   UNL A   1      40.581  28.961  30.480  1.00  0.00     0.167 HD
ATOM     45  C   UNL A   1      39.840  31.124  34.194  1.00  0.00     0.037 A 
ATOM     46  C   UNL A   1      42.062  27.318  28.777  1.00  0.00     0.037 A 
ATOM     47  C   UNL A   1      41.069  30.410  34.422  1.00  0.00     0.049 A 
ATOM     48  C   UNL A   1      42.839  27.390  30.061  1.00  0.00     0.074 A 
ATOM     49  C   UNL A   1      41.849  30.371  35.565  1.00  0.00     0.029 A 
ATOM     50  N   UNL A   1      41.699  29.605  33.484  1.00  0.00    -0.354 N 
ATOM     51  N   UNL A   1      42.552  28.036  31.166  1.00  0.00    -0.248 NA
ATOM     52  C   UNL A   1      44.097  26.633  30.117  1.00  0.00     0.031 C 
ATOM     53  C   UNL A   1      42.967  29.572  35.308  1.00  0.00     0.029 A 
ATOM     54  C   UNL A   1      42.865  29.080  34.017  1.00  0.00     0.049 A 
ATOM     55  H   UNL A   1      41.366  29.433  32.574  1.00  0.00     0.167 HD
ATOM     56  C   UNL A   1      43.582  27.751  32.051  1.00  0.00     0.074 A 
ATOM     57  C   UNL A   1      44.490  26.856  31.363  1.00  0.00     0.031 C 
ATOM     58  C   UNL A   1      43.762  28.196  33.319  1.00  0.00     0.037 A 
BRANCH  45  59
ATOM     59  C   UNL A   1      39.323  32.007  35.293  1.00  0.00     0.064 A 
ATOM     60  C   UNL A   1      38.499  31.501  36.310  1.00  0.00     0.173 A 
ATOM     61  C   UNL A   1      39.686  33.360  35.353  1.00  0.00     0.173 A 
ATOM     62  F   UNL A   1      38.116  30.216  36.292  1.00  0.00    -0.203 F 
ATOM     63  C   UNL A   1      38.038  32.324  37.334  1.00  0.00     0.198 A 
ATOM     64  C   UNL A   1      39.242  34.175  36.392  1.00  0.00     0.198 A 
ATOM     65  F   UNL A   1      40.476  33.891  34.409  1.00  0.00    -0.203 F 
ATOM     66  F   UNL A   1      37.219  31.829  38.272  1.00  0.00    -0.200 F 
ATOM     67  C   UNL A   1      38.415  33.659  37.378  1.00  0.00     0.200 A 
ATOM     68  F   UNL A   1      39.615  35.461  36.440  1.00  0.00    -0.200 F 
ATOM     69  F   UNL A   1      37.975  34.448  38.367  1.00  0.00    -0.200 F 
ENDBRANCH  45  59
BRANCH  46  70
ATOM     70  C   UNL A   1      42.554  26.505  27.636  1.00  0.00     0.064 A 
ATOM     71  C   UNL A   1      43.498  27.024  26.739  1.00  0.00     0.173 A 
ATOM     72  C   UNL A   1      42.099  25.197  27.424  1.00  0.00     0.173 A 
ATOM     73  F   UNL A   1      43.945  28.279  26.891  1.00  0.00    -0.203 F 
ATOM     74  C   UNL A   1      43.955  26.269  25.662  1.00  0.00     0.198 A 
ATOM     75  C   UNL A   1      42.577  24.434  26.361  1.00  0.00     0.198 A 
ATOM     76  F   UNL A   1      41.201  24.654  28.260  1.00  0.00    -0.203 F 
ATOM     77  F   UNL A   1      44.829  26.803  24.797  1.00  0.00    -0.200 F 
ATOM     78  C   UNL A   1      43.499  24.974  25.477  1.00  0.00     0.200 A 
ATOM     79  F   UNL A   1      42.142  23.177  26.192  1.00  0.00    -0.200 F 
ATOM     80  F   UNL A   1      43.945  24.245  24.443  1.00  0.00    -0.200 F 
ENDBRANCH  46  70
BRANCH  58  81
ATOM     81  C   UNL A   1      44.980  27.708  34.044  1.00  0.00     0.064 A 
ATOM     82  C   UNL A   1      46.188  28.419  34.004  1.00  0.00     0.173 A 
ATOM     83  C   UNL A   1      44.936  26.525  34.798  1.00  0.00     0.173 A 
ATOM     84  F   UNL A   1      46.284  29.546  33.283  1.00  0.00    -0.203 F 
ATOM     85  C   UNL A   1      47.317  27.949  34.670  1.00  0.00     0.198 A 
ATOM     86  C   UNL A   1      46.060  26.071  35.483  1.00  0.00     0.198 A 
ATOM     87  F   UNL A   1      43.803  25.811  34.870  1.00  0.00    -0.203 F 
ATOM     88  F   UNL A   1      48.474  28.618  34.577  1.00  0.00    -0.200 F 
ATOM     89  C   UNL A   1      47.250  26.779  35.412  1.00  0.00     0.200 A 
ATOM     90  F   UNL A   1      45.993  24.945  36.205  1.00  0.00    -0.200 F 
ATOM     91  F   UNL A   1      48.339  26.326  36.050  1.00  0.00    -0.200 F 
ENDBRANCH  58  81
ENDBRANCH  32  33
ENDBRANCH  24  27
ENDBRANCH  22  23
ENDBRANCH  21  22
ENDBRANCH   1  21
TORSDOF 13
ENDMDL
MODEL 2
REMARK VINA RESULT:     -12.5      2.013      4.526
REMARK SMILES C[C@@H](C(=O)NCCCNC(=O)c1ccc(-c2c3nc(c(-c4c(F)c(F)c(F)c(F)c4F)c4ccc([nH]4)c(-c4c(F)c(F)c(F)c(F)c4F)c4nc(c(-c5c(F)c(F)c(F)c(F)c5F)c5ccc2[nH]5)C=C4)C=C3)cc1)c1ccc(OC2CCCC2)cc1F
REMARK SMILES IDX 6 1 5 2 3 3 4 4 2 6 1 7 75 8 76 9 86 10 77 11 85 12 87 13
REMARK SMILES IDX 78 14 79 15 80 16 81 17 84 18 82 19 83 20 7 21 8 22 9 23
REMARK SMILES IDX 10 24 11 26 12 27 13 28 74 29 14 30 73 31 15 32 16 33 17 34
REMARK SMILES IDX 67 35 18 36 72 37 66 38 68 39 19 40 71 41 65 42 64 43 20 45
REMARK SMILES IDX 52 46 32 47 51 48 33 49 36 50 50 51 69 52 34 53 35 54 49 56
REMARK SMILES IDX 70 57 37 58 21 59 22 60 30 61 23 62 24 63 28 64 31 65 25 66
REMARK SMILES IDX 26 67 29 68 27 69 53 70 54 71 62 72 55 73 56 74 60 75 63 76
REMARK SMILES IDX 57 77 58 78 61 79 59 80 38 81 39 82 47 83 40 84 41 85 45 86
REMARK SMILES IDX 48 87 42 88 43 89 46 90 44 91
REMARK H PARENT 5 5 9 25 68 44 36 55
REMARK Flexibility Score: inf
ROOT
ATOM      1  C   UNL A   1      32.457  27.105  26.615  1.00  0.00     0.117 C 
ENDROOT
BRANCH   1   2
ATOM      2  N   UNL A   1      31.421  26.119  26.840  1.00  0.00    -0.356 N 
ATOM      3  C   UNL A   1      31.024  25.049  26.094  1.00  0.00     0.227 C 
ATOM      4  O   UNL A   1      30.183  24.315  26.622  1.00  0.00    -0.274 OA
ATOM      5  H   UNL A   1      30.915  26.243  27.675  1.00  0.00     0.163 HD
BRANCH   3   6
ATOM      6  C   UNL A   1      31.660  24.755  24.721  1.00  0.00     0.108 C 
ATOM      7  C   UNL A   1      30.656  24.747  23.565  1.00  0.00     0.023 C 
BRANCH   6   8
ATOM      8  C   UNL A   1      32.415  23.431  24.712  1.00  0.00     0.000 A 
ATOM      9  C   UNL A   1      32.034  22.389  23.860  1.00  0.00     0.011 A 
ATOM     10  C   UNL A   1      33.495  23.210  25.576  1.00  0.00     0.130 A 
ATOM     11  C   UNL A   1      32.732  21.176  23.877  1.00  0.00     0.047 A 
ATOM     12  C   UNL A   1      34.198  22.009  25.585  1.00  0.00     0.086 A 
ATOM     13  F   UNL A   1      33.865  24.165  26.442  1.00  0.00    -0.207 F 
ATOM     14  C   UNL A   1      33.829  20.984  24.724  1.00  0.00     0.122 A 
BRANCH  14  15
ATOM     15  O   UNL A   1      34.411  19.757  24.622  1.00  0.00    -0.490 OA
BRANCH  15  16
ATOM     16  C   UNL A   1      33.658  18.559  24.475  1.00  0.00     0.173 C 
ATOM     17  C   UNL A   1      34.396  17.334  23.938  1.00  0.00     0.045 C 
ATOM     18  C   UNL A   1      32.868  18.102  25.705  1.00  0.00     0.045 C 
ATOM     19  C   UNL A   1      33.462  16.192  24.301  1.00  0.00     0.004 C 
ATOM     20  C   UNL A   1      32.907  16.573  25.670  1.00  0.00     0.004 C 
ENDBRANCH  15  16
ENDBRANCH  14  15
ENDBRANCH   6   8
ENDBRANCH   3   6
ENDBRANCH   1   2
BRANCH   1  21
ATOM     21  C   UNL A   1      31.913  28.395  26.003  1.00  0.00     0.042 C 
BRANCH  21  22
ATOM     22  C   UNL A   1      32.974  29.416  25.596  1.00  0.00     0.118 C 
BRANCH  22  23
ATOM     23  N   UNL A   1      32.693  30.756  26.086  1.00  0.00    -0.352 N 
ATOM     24  C   UNL A   1      33.275  31.490  27.086  1.00  0.00     0.251 C 
ATOM     25  H   UNL A   1      31.958  31.214  25.619  1.00  0.00     0.163 HD
ATOM     26  O   UNL A   1      32.752  32.553  27.421  1.00  0.00    -0.269 OA
BRANCH  24  27
ATOM     27  C   UNL A   1      34.499  31.035  27.786  1.00  0.00     0.039 A 
ATOM     28  C   UNL A   1      35.521  31.967  27.993  1.00  0.00     0.014 A 
ATOM     29  C   UNL A   1      34.691  29.705  28.174  1.00  0.00     0.014 A 
ATOM     30  C   UNL A   1      36.705  31.583  28.628  1.00  0.00     0.010 A 
ATOM     31  C   UNL A   1      35.847  29.336  28.867  1.00  0.00     0.010 A 
ATOM     32  C   UNL A   1      36.868  30.270  29.095  1.00  0.00    -0.014 A 
BRANCH  32  33
ATOM     33  C   UNL A   1      38.101  29.883  29.829  1.00  0.00     0.031 A 
ATOM     34  C   UNL A   1      38.368  30.397  31.216  1.00  0.00     0.074 A 
ATOM     35  C   UNL A   1      38.998  29.077  29.229  1.00  0.00     0.049 A 
ATOM     36  N   UNL A   1      39.378  30.143  32.011  1.00  0.00    -0.248 NA
ATOM     37  C   UNL A   1      37.385  31.335  31.777  1.00  0.00     0.031 C 
ATOM     38  C   UNL A   1      38.885  28.557  27.866  1.00  0.00     0.029 A 
ATOM     39  N   UNL A   1      40.180  28.553  29.689  1.00  0.00    -0.354 N 
ATOM     40  C   UNL A   1      39.156  30.894  33.159  1.00  0.00     0.074 A 
ATOM     41  C   UNL A   1      37.941  31.648  32.940  1.00  0.00     0.031 C 
ATOM     42  C   UNL A   1      39.938  27.764  27.609  1.00  0.00     0.029 A 
ATOM     43  C   UNL A   1      40.810  27.738  28.780  1.00  0.00     0.049 A 
ATOM     44  H   UNL A   1      40.543  28.743  30.584  1.00  0.00     0.167 HD
ATOM     45  C   UNL A   1      39.886  30.932  34.299  1.00  0.00     0.037 A 
ATOM     46  C   UNL A   1      41.955  27.039  28.883  1.00  0.00     0.037 A 
ATOM     47  C   UNL A   1      41.082  30.164  34.530  1.00  0.00     0.049 A 
ATOM     48  C   UNL A   1      42.731  27.076  30.170  1.00  0.00     0.074 A 
ATOM     49  C   UNL A   1      41.856  30.090  35.675  1.00  0.00     0.029 A 
ATOM     50  N   UNL A   1      41.679  29.334  33.592  1.00  0.00    -0.354 N 
ATOM     51  N   UNL A   1      42.469  27.732  31.274  1.00  0.00    -0.248 NA
ATOM     52  C   UNL A   1      43.954  26.263  30.228  1.00  0.00     0.031 C 
ATOM     53  C   UNL A   1      42.939  29.242  35.420  1.00  0.00     0.029 A 
ATOM     54  C   UNL A   1      42.820  28.757  34.127  1.00  0.00     0.049 A 
ATOM     55  H   UNL A   1      41.341  29.177  32.681  1.00  0.00     0.167 HD
ATOM     56  C   UNL A   1      43.483  27.401  32.162  1.00  0.00     0.074 A 
ATOM     57  C   UNL A   1      44.353  26.468  31.475  1.00  0.00     0.031 C 
ATOM     58  C   UNL A   1      43.678  27.836  33.431  1.00  0.00     0.037 A 
BRANCH  45  59
ATOM     59  C   UNL A   1      39.405  31.835  35.398  1.00  0.00     0.064 A 
ATOM     60  C   UNL A   1      39.798  33.180  35.463  1.00  0.00     0.173 A 
ATOM     61  C   UNL A   1      38.512  31.363  36.371  1.00  0.00     0.173 A 
ATOM     62  F   UNL A   1      40.658  33.677  34.561  1.00  0.00    -0.203 F 
ATOM     63  C   UNL A   1      39.333  34.014  36.477  1.00  0.00     0.198 A 
ATOM     64  C   UNL A   1      38.031  32.206  37.370  1.00  0.00     0.198 A 
ATOM     65  F   UNL A   1      38.101  30.087  36.350  1.00  0.00    -0.203 F 
ATOM     66  F   UNL A   1      39.753  35.285  36.543  1.00  0.00    -0.200 F 
ATOM     67  C   UNL A   1      38.445  33.528  37.426  1.00  0.00     0.200 A 
ATOM     68  F   UNL A   1      37.165  31.739  38.280  1.00  0.00    -0.200 F 
ATOM     69  F   UNL A   1      37.994  34.333  38.397  1.00  0.00    -0.200 F 
ENDBRANCH  45  59
BRANCH  46  70
ATOM     70  C   UNL A   1      42.415  26.207  27.743  1.00  0.00     0.064 A 
ATOM     71  C   UNL A   1      41.888  24.925  27.531  1.00  0.00     0.173 A 
ATOM     72  C   UNL A   1      43.380  26.675  26.841  1.00  0.00     0.173 A 
ATOM     73  F   UNL A   1      40.978  24.428  28.381  1.00  0.00    -0.203 F 
ATOM     74  C   UNL A   1      42.322  24.137  26.469  1.00  0.00     0.198 A 
ATOM     75  C   UNL A   1      43.795  25.895  25.764  1.00  0.00     0.198 A 
ATOM     76  F   UNL A   1      43.909  27.898  26.999  1.00  0.00    -0.203 F 
ATOM     77  F   UNL A   1      41.830  22.900  26.311  1.00  0.00    -0.200 F 
ATOM     78  C   UNL A   1      43.271  24.624  25.583  1.00  0.00     0.200 A 
ATOM     79  F   UNL A   1      44.704  26.375  24.903  1.00  0.00    -0.200 F 
ATOM     80  F   UNL A   1      43.684  23.867  24.557  1.00  0.00    -0.200 F 
ENDBRANCH  46  70
BRANCH  58  81
ATOM     81  C   UNL A   1      44.872  27.294  34.159  1.00  0.00     0.064 A 
ATOM     82  C   UNL A   1      46.108  27.957  34.131  1.00  0.00     0.173 A 
ATOM     83  C   UNL A   1      44.777  26.108  34.903  1.00  0.00     0.173 A 
ATOM     84  F   UNL A   1      46.253  29.084  33.420  1.00  0.00    -0.203 F 
ATOM     85  C   UNL A   1      47.213  27.437  34.799  1.00  0.00     0.198 A 
ATOM     86  C   UNL A   1      45.877  25.604  35.590  1.00  0.00     0.198 A 
ATOM     87  F   UNL A   1      43.615  25.439  34.963  1.00  0.00    -0.203 F 
ATOM     88  F   UNL A   1      48.397  28.060  34.718  1.00  0.00    -0.200 F 
ATOM     89  C   UNL A   1      47.096  26.264  35.532  1.00  0.00     0.200 A 
ATOM     90  F   UNL A   1      45.762  24.476  36.303  1.00  0.00    -0.200 F 
ATOM     91  F   UNL A   1      48.161  25.763  36.172  1.00  0.00    -0.200 F 
ENDBRANCH  58  81
ENDBRANCH  32  33
ENDBRANCH  24  27
ENDBRANCH  22  23
ENDBRANCH  21  22
ENDBRANCH   1  21
TORSDOF 13
ENDMDL
MODEL 3
REMARK VINA RESULT:     -12.5      4.194      8.015
REMARK SMILES C[C@@H](C(=O)NCCCNC(=O)c1ccc(-c2c3nc(c(-c4c(F)c(F)c(F)c(F)c4F)c4ccc([nH]4)c(-c4c(F)c(F)c(F)c(F)c4F)c4nc(c(-c5c(F)c(F)c(F)c(F)c5F)c5ccc2[nH]5)C=C4)C=C3)cc1)c1ccc(OC2CCCC2)cc1F
REMARK SMILES IDX 6 1 5 2 3 3 4 4 2 6 1 7 75 8 76 9 86 10 77 11 85 12 87 13
REMARK SMILES IDX 78 14 79 15 80 16 81 17 84 18 82 19 83 20 7 21 8 22 9 23
REMARK SMILES IDX 10 24 11 26 12 27 13 28 74 29 14 30 73 31 15 32 16 33 17 34
REMARK SMILES IDX 67 35 18 36 72 37 66 38 68 39 19 40 71 41 65 42 64 43 20 45
REMARK SMILES IDX 52 46 32 47 51 48 33 49 36 50 50 51 69 52 34 53 35 54 49 56
REMARK SMILES IDX 70 57 37 58 21 59 22 60 30 61 23 62 24 63 28 64 31 65 25 66
REMARK SMILES IDX 26 67 29 68 27 69 53 70 54 71 62 72 55 73 56 74 60 75 63 76
REMARK SMILES IDX 57 77 58 78 61 79 59 80 38 81 39 82 47 83 40 84 41 85 45 86
REMARK SMILES IDX 48 87 42 88 43 89 46 90 44 91
REMARK H PARENT 5 5 9 25 68 44 36 55
REMARK Flexibility Score: inf
ROOT
ATOM      1  C   UNL A   1      35.136  33.915  30.749  1.00  0.00     0.117 C 
ENDROOT
BRANCH   1   2
ATOM      2  N   UNL A   1      36.554  34.198  30.655  1.00  0.00    -0.356 N 
ATOM      3  C   UNL A   1      37.563  34.033  31.557  1.00  0.00     0.227 C 
ATOM      4  O   UNL A   1      38.700  34.255  31.129  1.00  0.00    -0.274 OA
ATOM      5  H   UNL A   1      36.837  34.574  29.791  1.00  0.00     0.163 HD
BRANCH   3   6
ATOM      6  C   UNL A   1      37.281  33.526  32.985  1.00  0.00     0.108 C 
ATOM      7  C   UNL A   1      37.569  34.561  34.076  1.00  0.00     0.023 C 
BRANCH   6   8
ATOM      8  C   UNL A   1      38.062  32.257  33.306  1.00  0.00     0.000 A 
ATOM      9  C   UNL A   1      39.335  32.321  33.884  1.00  0.00     0.011 A 
ATOM     10  C   UNL A   1      37.540  30.993  33.007  1.00  0.00     0.130 A 
ATOM     11  C   UNL A   1      40.042  31.145  34.158  1.00  0.00     0.047 A 
ATOM     12  C   UNL A   1      38.237  29.822  33.291  1.00  0.00     0.086 A 
ATOM     13  F   UNL A   1      36.343  30.887  32.410  1.00  0.00    -0.207 F 
ATOM     14  C   UNL A   1      39.492  29.888  33.881  1.00  0.00     0.122 A 
BRANCH  14  15
ATOM     15  O   UNL A   1      40.294  28.838  34.211  1.00  0.00    -0.490 OA
BRANCH  15  16
ATOM     16  C   UNL A   1      41.697  28.842  33.982  1.00  0.00     0.173 C 
ATOM     17  C   UNL A   1      42.603  28.755  35.209  1.00  0.00     0.045 C 
ATOM     18  C   UNL A   1      42.220  27.821  32.968  1.00  0.00     0.045 C 
ATOM     19  C   UNL A   1      43.945  28.364  34.612  1.00  0.00     0.004 C 
ATOM     20  C   UNL A   1      43.594  27.394  33.489  1.00  0.00     0.004 C 
ENDBRANCH  15  16
ENDBRANCH  14  15
ENDBRANCH   6   8
ENDBRANCH   3   6
ENDBRANCH   1   2
BRANCH   1  21
ATOM     21  C   UNL A   1      34.776  32.542  30.182  1.00  0.00     0.042 C 
BRANCH  21  22
ATOM     22  C   UNL A   1      34.481  32.519  28.683  1.00  0.00     0.118 C 
BRANCH  22  23
ATOM     23  N   UNL A   1      33.917  31.256  28.234  1.00  0.00    -0.352 N 
ATOM     24  C   UNL A   1      34.512  30.060  27.930  1.00  0.00     0.251 C 
ATOM     25  H   UNL A   1      32.938  31.261  28.131  1.00  0.00     0.163 HD
ATOM     26  O   UNL A   1      33.832  29.173  27.415  1.00  0.00    -0.269 OA
BRANCH  24  27
ATOM     27  C   UNL A   1      35.951  29.812  28.182  1.00  0.00     0.039 A 
ATOM     28  C   UNL A   1      36.324  29.338  29.444  1.00  0.00     0.014 A 
ATOM     29  C   UNL A   1      36.940  30.101  27.237  1.00  0.00     0.014 A 
ATOM     30  C   UNL A   1      37.669  29.108  29.741  1.00  0.00     0.010 A 
ATOM     31  C   UNL A   1      38.279  29.811  27.510  1.00  0.00     0.010 A 
ATOM     32  C   UNL A   1      38.658  29.317  28.767  1.00  0.00    -0.014 A 
BRANCH  32  33
ATOM     33  C   UNL A   1      40.081  29.009  29.065  1.00  0.00     0.031 A 
ATOM     34  C   UNL A   1      40.930  29.967  29.854  1.00  0.00     0.074 A 
ATOM     35  C   UNL A   1      40.617  27.864  28.601  1.00  0.00     0.049 A 
ATOM     36  N   UNL A   1      42.181  29.848  30.226  1.00  0.00    -0.248 NA
ATOM     37  C   UNL A   1      40.301  31.231  30.260  1.00  0.00     0.031 C 
ATOM     38  C   UNL A   1      39.918  26.880  27.775  1.00  0.00     0.029 A 
ATOM     39  N   UNL A   1      41.874  27.336  28.757  1.00  0.00    -0.354 N 
ATOM     40  C   UNL A   1      42.489  31.022  30.901  1.00  0.00     0.074 A 
ATOM     41  C   UNL A   1      41.310  31.860  30.848  1.00  0.00     0.031 C 
ATOM     42  C   UNL A   1      40.744  25.851  27.522  1.00  0.00     0.029 A 
ATOM     43  C   UNL A   1      42.036  26.115  28.149  1.00  0.00     0.049 A 
ATOM     44  H   UNL A   1      42.591  27.787  29.258  1.00  0.00     0.167 HD
ATOM     45  C   UNL A   1      43.641  31.361  31.529  1.00  0.00     0.037 A 
ATOM     46  C   UNL A   1      43.102  25.294  28.110  1.00  0.00     0.037 A 
ATOM     47  C   UNL A   1      44.807  30.519  31.605  1.00  0.00     0.049 A 
ATOM     48  C   UNL A   1      44.359  25.680  28.839  1.00  0.00     0.074 A 
ATOM     49  C   UNL A   1      45.999  30.750  32.269  1.00  0.00     0.029 A 
ATOM     50  N   UNL A   1      44.926  29.280  30.992  1.00  0.00    -0.354 N 
ATOM     51  N   UNL A   1      44.611  26.761  29.537  1.00  0.00    -0.248 NA
ATOM     52  C   UNL A   1      45.474  24.725  28.785  1.00  0.00     0.031 C 
ATOM     53  C   UNL A   1      46.852  29.667  32.032  1.00  0.00     0.029 A 
ATOM     54  C   UNL A   1      46.177  28.742  31.250  1.00  0.00     0.049 A 
ATOM     55  H   UNL A   1      44.225  28.846  30.454  1.00  0.00     0.167 HD
ATOM     56  C   UNL A   1      45.904  26.609  30.017  1.00  0.00     0.074 A 
ATOM     57  C   UNL A   1      46.376  25.322  29.550  1.00  0.00     0.031 C 
ATOM     58  C   UNL A   1      46.636  27.464  30.774  1.00  0.00     0.037 A 
BRANCH  45  59
ATOM     59  C   UNL A   1      43.697  32.705  32.195  1.00  0.00     0.064 A 
ATOM     60  C   UNL A   1      43.466  32.848  33.571  1.00  0.00     0.173 A 
ATOM     61  C   UNL A   1      44.023  33.854  31.459  1.00  0.00     0.173 A 
ATOM     62  F   UNL A   1      43.140  31.781  34.316  1.00  0.00    -0.203 F 
ATOM     63  C   UNL A   1      43.536  34.098  34.182  1.00  0.00     0.198 A 
ATOM     64  C   UNL A   1      44.116  35.097  32.079  1.00  0.00     0.198 A 
ATOM     65  F   UNL A   1      44.259  33.769  30.142  1.00  0.00    -0.203 F 
ATOM     66  F   UNL A   1      43.271  34.217  35.491  1.00  0.00    -0.200 F 
ATOM     67  C   UNL A   1      43.867  35.220  33.437  1.00  0.00     0.200 A 
ATOM     68  F   UNL A   1      44.447  36.180  31.360  1.00  0.00    -0.200 F 
ATOM     69  F   UNL A   1      43.940  36.420  34.028  1.00  0.00    -0.200 F 
ENDBRANCH  45  59
BRANCH  46  70
ATOM     70  C   UNL A   1      43.010  24.001  27.387  1.00  0.00     0.064 A 
ATOM     71  C   UNL A   1      43.398  23.901  26.043  1.00  0.00     0.173 A 
ATOM     72  C   UNL A   1      42.541  22.844  28.022  1.00  0.00     0.173 A 
ATOM     73  F   UNL A   1      43.833  24.988  25.390  1.00  0.00    -0.203 F 
ATOM     74  C   UNL A   1      43.304  22.692  25.358  1.00  0.00     0.198 A 
ATOM     75  C   UNL A   1      42.471  21.630  27.341  1.00  0.00     0.198 A 
ATOM     76  F   UNL A   1      42.163  22.889  29.308  1.00  0.00    -0.203 F 
ATOM     77  F   UNL A   1      43.646  22.632  24.063  1.00  0.00    -0.200 F 
ATOM     78  C   UNL A   1      42.846  21.557  26.009  1.00  0.00     0.200 A 
ATOM     79  F   UNL A   1      42.039  20.532  27.977  1.00  0.00    -0.200 F 
ATOM     80  F   UNL A   1      42.762  20.393  25.350  1.00  0.00    -0.200 F 
ENDBRANCH  46  70
BRANCH  58  81
ATOM     81  C   UNL A   1      48.019  27.023  31.151  1.00  0.00     0.064 A 
ATOM     82  C   UNL A   1      49.133  27.369  30.374  1.00  0.00     0.173 A 
ATOM     83  C   UNL A   1      48.233  26.259  32.309  1.00  0.00     0.173 A 
ATOM     84  F   UNL A   1      48.977  28.083  29.250  1.00  0.00    -0.203 F 
ATOM     85  C   UNL A   1      50.411  26.943  30.727  1.00  0.00     0.198 A 
ATOM     86  C   UNL A   1      49.515  25.856  32.672  1.00  0.00     0.198 A 
ATOM     87  F   UNL A   1      47.199  25.906  33.087  1.00  0.00    -0.203 F 
ATOM     88  F   UNL A   1      51.456  27.243  29.943  1.00  0.00    -0.200 F 
ATOM     89  C   UNL A   1      50.601  26.191  31.877  1.00  0.00     0.200 A 
ATOM     90  F   UNL A   1      49.699  25.136  33.787  1.00  0.00    -0.200 F 
ATOM     91  F   UNL A   1      51.831  25.778  32.214  1.00  0.00    -0.200 F 
ENDBRANCH  58  81
ENDBRANCH  32  33
ENDBRANCH  24  27
ENDBRANCH  22  23
ENDBRANCH  21  22
ENDBRANCH   1  21
TORSDOF 13
ENDMDL
