MODEL 1
REMARK VINA RESULT:     -12.0      0.000      0.000
REMARK SMILES CCn1cnc(S(=O)(=O)N[C@H](Cc2cnc[nH]2)C(=O)NCCCNC(=O)c2ccc(-c3c4nc(c(-c5c(F)c(F)c(F)c(F)c5F)c5ccc([nH]5)c(-c5c(F)c(F)c(F)c(F)c5F)c5nc(c(-c6c(F)c(F)c(F)c(F)c6F)c6ccc3[nH]6)C=C5)C=C4)cc2)c1
REMARK SMILES IDX 21 1 20 2 18 3 19 4 11 6 10 7 7 9 8 10 9 11 6 12 3 13 4 14
REMARK SMILES IDX 90 15 5 16 2 17 1 18 12 19 13 20 14 21 17 22 15 23 16 24
REMARK SMILES IDX 22 26 23 27 24 28 25 29 26 31 27 32 28 33 89 34 29 35 88 36
REMARK SMILES IDX 30 37 31 38 32 39 82 40 33 41 87 42 81 43 83 44 34 45 86 46
REMARK SMILES IDX 80 47 79 48 35 50 67 51 47 52 66 53 48 54 51 55 65 56 84 57
REMARK SMILES IDX 49 58 50 59 64 61 85 62 52 63 36 64 37 65 45 66 38 67 39 68
REMARK SMILES IDX 43 69 46 70 40 71 41 72 44 73 42 74 68 75 69 76 77 77 70 78
REMARK SMILES IDX 71 79 75 80 78 81 72 82 73 83 76 84 74 85 53 86 54 87 62 88
REMARK SMILES IDX 55 89 56 90 60 91 63 92 57 93 58 94 61 95 59 96
REMARK H PARENT 20 5 10 8 17 25 24 30 83 49 51 60
REMARK Flexibility Score: inf
ROOT
ATOM      1  C   UNL A   1      34.001  28.162  22.636  1.00  0.00     0.117 C 
ENDROOT
BRANCH   1   2
ATOM      2  N   UNL A   1      33.376  27.328  21.626  1.00  0.00    -0.355 N 
ATOM      3  C   UNL A   1      32.694  26.148  21.775  1.00  0.00     0.238 C 
ATOM      4  O   UNL A   1      32.113  25.704  20.781  1.00  0.00    -0.273 OA
ATOM      5  H   UNL A   1      33.452  27.656  20.701  1.00  0.00     0.163 HD
BRANCH   3   6
ATOM      6  C   UNL A   1      32.611  25.419  23.136  1.00  0.00     0.165 C 
BRANCH   6   7
ATOM      7  N   UNL A   1      33.113  24.037  22.879  1.00  0.00    -0.197 NA
ATOM      8  H   UNL A   1      32.295  23.430  22.939  1.00  0.00     0.142 HD
BRANCH   7   9
ATOM      9  S   UNL A   1      34.305  23.290  23.797  1.00  0.00     0.260 S 
ATOM     10  O   UNL A   1      34.428  23.956  25.077  1.00  0.00    -0.205 OA
ATOM     11  O   UNL A   1      35.424  23.099  22.906  1.00  0.00    -0.205 OA
BRANCH   9  12
ATOM     12  C   UNL A   1      33.740  21.670  24.121  1.00  0.00     0.188 A 
ATOM     13  N   UNL A   1      33.769  19.519  24.471  1.00  0.00    -0.336 N 
ATOM     14  C   UNL A   1      32.500  19.926  24.165  1.00  0.00     0.201 A 
ATOM     15  C   UNL A   1      34.546  20.638  24.566  1.00  0.00     0.129 A 
ATOM     16  N   UNL A   1      32.458  21.211  23.885  1.00  0.00    -0.224 NA
BRANCH  13  17
ATOM     17  C   UNL A   1      34.238  18.153  24.586  1.00  0.00     0.120 C 
ATOM     18  C   UNL A   1      33.833  17.264  23.416  1.00  0.00     0.027 C 
ENDBRANCH  13  17
ENDBRANCH   9  12
ENDBRANCH   7   9
ENDBRANCH   6   7
BRANCH   6  19
ATOM     19  C   UNL A   1      31.214  25.596  23.753  1.00  0.00     0.085 C 
BRANCH  19  20
ATOM     20  C   UNL A   1      31.057  24.787  25.001  1.00  0.00     0.037 A 
ATOM     21  C   UNL A   1      31.351  25.049  26.322  1.00  0.00     0.134 A 
ATOM     22  N   UNL A   1      30.565  23.504  25.003  1.00  0.00    -0.348 N 
ATOM     23  N   UNL A   1      31.054  23.970  27.111  1.00  0.00    -0.245 NA
ATOM     24  C   UNL A   1      30.588  23.055  26.291  1.00  0.00     0.196 A 
ATOM     25  H   UNL A   1      30.251  23.001  24.217  1.00  0.00     0.167 HD
ENDBRANCH  19  20
ENDBRANCH   6  19
ENDBRANCH   3   6
ENDBRANCH   1   2
BRANCH   1  26
ATOM     26  C   UNL A   1      32.999  28.928  23.493  1.00  0.00     0.042 C 
BRANCH  26  27
ATOM     27  C   UNL A   1      33.458  29.146  24.932  1.00  0.00     0.118 C 
BRANCH  27  28
ATOM     28  N   UNL A   1      32.830  30.298  25.571  1.00  0.00    -0.352 N 
ATOM     29  C   UNL A   1      33.116  31.033  26.696  1.00  0.00     0.251 C 
ATOM     30  H   UNL A   1      32.031  30.616  25.094  1.00  0.00     0.163 HD
ATOM     31  O   UNL A   1      32.272  31.845  27.077  1.00  0.00    -0.269 OA
BRANCH  29  32
ATOM     32  C   UNL A   1      34.348  30.852  27.508  1.00  0.00     0.039 A 
ATOM     33  C   UNL A   1      35.161  31.976  27.742  1.00  0.00     0.014 A 
ATOM     34  C   UNL A   1      34.761  29.617  27.997  1.00  0.00     0.014 A 
ATOM     35  C   UNL A   1      36.321  31.880  28.520  1.00  0.00     0.010 A 
ATOM     36  C   UNL A   1      35.880  29.527  28.827  1.00  0.00     0.010 A 
ATOM     37  C   UNL A   1      36.678  30.654  29.087  1.00  0.00    -0.014 A 
BRANCH  37  38
ATOM     38  C   UNL A   1      37.937  30.459  29.850  1.00  0.00     0.031 A 
ATOM     39  C   UNL A   1      38.990  29.555  29.271  1.00  0.00     0.074 A 
ATOM     40  C   UNL A   1      38.095  30.979  31.081  1.00  0.00     0.049 A 
ATOM     41  N   UNL A   1      40.023  29.000  29.848  1.00  0.00    -0.248 NA
ATOM     42  C   UNL A   1      38.821  29.189  27.854  1.00  0.00     0.031 C 
ATOM     43  C   UNL A   1      37.152  31.867  31.759  1.00  0.00     0.029 A 
ATOM     44  N   UNL A   1      39.103  30.799  31.997  1.00  0.00    -0.354 N 
ATOM     45  C   UNL A   1      40.588  28.172  28.886  1.00  0.00     0.074 A 
ATOM     46  C   UNL A   1      39.775  28.285  27.695  1.00  0.00     0.031 C 
ATOM     47  C   UNL A   1      37.619  32.145  32.989  1.00  0.00     0.029 A 
ATOM     48  C   UNL A   1      38.871  31.421  33.201  1.00  0.00     0.049 A 
ATOM     49  H   UNL A   1      39.915  30.275  31.809  1.00  0.00     0.167 HD
ATOM     50  C   UNL A   1      41.688  27.390  28.989  1.00  0.00     0.037 A 
ATOM     51  C   UNL A   1      39.575  31.382  34.348  1.00  0.00     0.037 A 
ATOM     52  C   UNL A   1      42.534  27.339  30.150  1.00  0.00     0.049 A 
ATOM     53  C   UNL A   1      40.829  30.548  34.418  1.00  0.00     0.074 A 
ATOM     54  C   UNL A   1      43.705  26.625  30.337  1.00  0.00     0.029 A 
ATOM     55  N   UNL A   1      42.309  28.053  31.318  1.00  0.00    -0.354 N 
ATOM     56  N   UNL A   1      41.360  29.772  33.504  1.00  0.00    -0.248 NA
ATOM     57  C   UNL A   1      41.582  30.585  35.681  1.00  0.00     0.031 C 
ATOM     58  C   UNL A   1      44.180  26.895  31.624  1.00  0.00     0.029 A 
ATOM     59  C   UNL A   1      43.322  27.802  32.226  1.00  0.00     0.049 A 
ATOM     60  H   UNL A   1      41.542  28.649  31.477  1.00  0.00     0.167 HD
ATOM     61  C   UNL A   1      42.520  29.256  34.068  1.00  0.00     0.074 A 
ATOM     62  C   UNL A   1      42.622  29.812  35.400  1.00  0.00     0.031 C 
ATOM     63  C   UNL A   1      43.419  28.395  33.533  1.00  0.00     0.037 A 
BRANCH  50  64
ATOM     64  C   UNL A   1      42.035  26.524  27.817  1.00  0.00     0.064 A 
ATOM     65  C   UNL A   1      41.426  25.278  27.614  1.00  0.00     0.173 A 
ATOM     66  C   UNL A   1      42.974  26.959  26.869  1.00  0.00     0.173 A 
ATOM     67  F   UNL A   1      40.536  24.808  28.502  1.00  0.00    -0.203 F 
ATOM     68  C   UNL A   1      41.765  24.484  26.520  1.00  0.00     0.198 A 
ATOM     69  C   UNL A   1      43.289  26.177  25.761  1.00  0.00     0.198 A 
ATOM     70  F   UNL A   1      43.585  28.145  27.017  1.00  0.00    -0.203 F 
ATOM     71  F   UNL A   1      41.208  23.275  26.375  1.00  0.00    -0.200 F 
ATOM     72  C   UNL A   1      42.690  24.938  25.591  1.00  0.00     0.200 A 
ATOM     73  F   UNL A   1      44.178  26.620  24.861  1.00  0.00    -0.200 F 
ATOM     74  F   UNL A   1      43.013  24.175  24.538  1.00  0.00    -0.200 F 
ENDBRANCH  50  64
BRANCH  51  75
ATOM     75  C   UNL A   1      39.122  32.154  35.534  1.00  0.00     0.064 A 
ATOM     76  C   UNL A   1      39.489  33.498  35.695  1.00  0.00     0.173 A 
ATOM     77  C   UNL A   1      38.349  31.564  36.544  1.00  0.00     0.173 A 
ATOM     78  F   UNL A   1      40.249  34.098  34.767  1.00  0.00    -0.203 F 
ATOM     79  C   UNL A   1      39.123  34.214  36.833  1.00  0.00     0.198 A 
ATOM     80  C   UNL A   1      37.963  32.288  37.670  1.00  0.00     0.198 A 
ATOM     81  F   UNL A   1      37.971  30.282  36.437  1.00  0.00    -0.203 F 
ATOM     82  F   UNL A   1      39.533  35.481  36.984  1.00  0.00    -0.200 F 
ATOM     83  C   UNL A   1      38.358  33.610  37.818  1.00  0.00     0.200 A 
ATOM     84  F   UNL A   1      37.215  31.704  38.616  1.00  0.00    -0.200 F 
ATOM     85  F   UNL A   1      38.011  34.297  38.915  1.00  0.00    -0.200 F 
ENDBRANCH  51  75
BRANCH  63  86
ATOM     86  C   UNL A   1      44.620  28.048  34.360  1.00  0.00     0.064 A 
ATOM     87  C   UNL A   1      44.629  26.935  35.210  1.00  0.00     0.173 A 
ATOM     88  C   UNL A   1      45.793  28.810  34.254  1.00  0.00     0.173 A 
ATOM     89  F   UNL A   1      43.526  26.186  35.354  1.00  0.00    -0.203 F 
ATOM     90  C   UNL A   1      45.769  26.604  35.939  1.00  0.00     0.198 A 
ATOM     91  C   UNL A   1      46.937  28.464  34.967  1.00  0.00     0.198 A 
ATOM     92  F   UNL A   1      45.833  29.882  33.448  1.00  0.00    -0.203 F 
ATOM     93  F   UNL A   1      45.748  25.554  36.771  1.00  0.00    -0.200 F 
ATOM     94  C   UNL A   1      46.923  27.364  35.810  1.00  0.00     0.200 A 
ATOM     95  F   UNL A   1      48.054  29.192  34.834  1.00  0.00    -0.200 F 
ATOM     96  F   UNL A   1      48.021  27.038  36.506  1.00  0.00    -0.200 F 
ENDBRANCH  63  86
ENDBRANCH  37  38
ENDBRANCH  29  32
ENDBRANCH  27  28
ENDBRANCH  26  27
ENDBRANCH   1  26
TORSDOF 16
ENDMDL
MODEL 2
REMARK VINA RESULT:     -11.9      0.688      1.843
REMARK SMILES CCn1cnc(S(=O)(=O)N[C@H](Cc2cnc[nH]2)C(=O)NCCCNC(=O)c2ccc(-c3c4nc(c(-c5c(F)c(F)c(F)c(F)c5F)c5ccc([nH]5)c(-c5c(F)c(F)c(F)c(F)c5F)c5nc(c(-c6c(F)c(F)c(F)c(F)c6F)c6ccc3[nH]6)C=C5)C=C4)cc2)c1
REMARK SMILES IDX 21 1 20 2 18 3 19 4 11 6 10 7 7 9 8 10 9 11 6 12 3 13 4 14
REMARK SMILES IDX 90 15 5 16 2 17 1 18 12 19 13 20 14 21 17 22 15 23 16 24
REMARK SMILES IDX 22 26 23 27 24 28 25 29 26 31 27 32 28 33 89 34 29 35 88 36
REMARK SMILES IDX 30 37 31 38 32 39 82 40 33 41 87 42 81 43 83 44 34 45 86 46
REMARK SMILES IDX 80 47 79 48 35 50 67 51 47 52 66 53 48 54 51 55 65 56 84 57
REMARK SMILES IDX 49 58 50 59 64 61 85 62 52 63 36 64 37 65 45 66 38 67 39 68
REMARK SMILES IDX 43 69 46 70 40 71 41 72 44 73 42 74 68 75 69 76 77 77 70 78
REMARK SMILES IDX 71 79 75 80 78 81 72 82 73 83 76 84 74 85 53 86 54 87 62 88
REMARK SMILES IDX 55 89 56 90 60 91 63 92 57 93 58 94 61 95 59 96
REMARK H PARENT 20 5 10 8 17 25 24 30 83 49 51 60
REMARK Flexibility Score: inf
ROOT
ATOM      1  C   UNL A   1      32.322  28.315  22.832  1.00  0.00     0.117 C 
ENDROOT
BRANCH   1   2
ATOM      2  N   UNL A   1      32.726  27.465  21.728  1.00  0.00    -0.355 N 
ATOM      3  C   UNL A   1      32.941  26.112  21.707  1.00  0.00     0.238 C 
ATOM      4  O   UNL A   1      33.125  25.587  20.607  1.00  0.00    -0.273 OA
ATOM      5  H   UNL A   1      32.865  27.926  20.869  1.00  0.00     0.163 HD
BRANCH   3   6
ATOM      6  C   UNL A   1      32.912  25.262  22.998  1.00  0.00     0.165 C 
BRANCH   6   7
ATOM      7  N   UNL A   1      33.891  24.158  22.771  1.00  0.00    -0.197 NA
ATOM      8  H   UNL A   1      33.331  23.319  22.612  1.00  0.00     0.142 HD
BRANCH   7   9
ATOM      9  S   UNL A   1      35.073  23.715  23.879  1.00  0.00     0.260 S 
ATOM     10  O   UNL A   1      35.254  24.771  24.852  1.00  0.00    -0.205 OA
ATOM     11  O   UNL A   1      36.161  23.179  23.098  1.00  0.00    -0.205 OA
BRANCH   9  12
ATOM     12  C   UNL A   1      34.449  22.331  24.744  1.00  0.00     0.188 A 
ATOM     13  N   UNL A   1      33.279  20.548  25.189  1.00  0.00    -0.336 N 
ATOM     14  C   UNL A   1      33.811  21.058  26.341  1.00  0.00     0.201 A 
ATOM     15  C   UNL A   1      33.777  21.279  24.149  1.00  0.00     0.129 A 
ATOM     16  N   UNL A   1      34.472  22.173  26.116  1.00  0.00    -0.224 NA
BRANCH  13  17
ATOM     17  C   UNL A   1      32.296  19.488  25.082  1.00  0.00     0.120 C 
ATOM     18  C   UNL A   1      32.834  18.112  25.451  1.00  0.00     0.027 C 
ENDBRANCH  13  17
ENDBRANCH   9  12
ENDBRANCH   7   9
ENDBRANCH   6   7
BRANCH   6  19
ATOM     19  C   UNL A   1      31.463  24.901  23.369  1.00  0.00     0.085 C 
BRANCH  19  20
ATOM     20  C   UNL A   1      31.358  24.424  24.782  1.00  0.00     0.037 A 
ATOM     21  C   UNL A   1      31.888  24.896  25.964  1.00  0.00     0.134 A 
ATOM     22  N   UNL A   1      30.659  23.297  25.140  1.00  0.00    -0.348 N 
ATOM     23  N   UNL A   1      31.531  24.093  27.013  1.00  0.00    -0.245 NA
ATOM     24  C   UNL A   1      30.798  23.137  26.488  1.00  0.00     0.196 A 
ATOM     25  H   UNL A   1      30.149  22.712  24.535  1.00  0.00     0.167 HD
ENDBRANCH  19  20
ENDBRANCH   6  19
ENDBRANCH   3   6
ENDBRANCH   1   2
BRANCH   1  26
ATOM     26  C   UNL A   1      33.487  29.044  23.493  1.00  0.00     0.042 C 
BRANCH  26  27
ATOM     27  C   UNL A   1      33.482  28.960  25.017  1.00  0.00     0.118 C 
BRANCH  27  28
ATOM     28  N   UNL A   1      32.904  30.136  25.659  1.00  0.00    -0.352 N 
ATOM     29  C   UNL A   1      33.271  30.908  26.735  1.00  0.00     0.251 C 
ATOM     30  H   UNL A   1      32.074  30.443  25.229  1.00  0.00     0.163 HD
ATOM     31  O   UNL A   1      32.459  31.738  27.146  1.00  0.00    -0.269 OA
BRANCH  29  32
ATOM     32  C   UNL A   1      34.557  30.748  27.463  1.00  0.00     0.039 A 
ATOM     33  C   UNL A   1      34.867  29.483  27.995  1.00  0.00     0.014 A 
ATOM     34  C   UNL A   1      35.437  31.801  27.691  1.00  0.00     0.014 A 
ATOM     35  C   UNL A   1      36.074  29.259  28.670  1.00  0.00     0.010 A 
ATOM     36  C   UNL A   1      36.669  31.568  28.304  1.00  0.00     0.010 A 
ATOM     37  C   UNL A   1      36.995  30.299  28.810  1.00  0.00    -0.014 A 
BRANCH  37  38
ATOM     38  C   UNL A   1      38.253  30.157  29.586  1.00  0.00     0.031 A 
ATOM     39  C   UNL A   1      39.328  29.255  29.045  1.00  0.00     0.074 A 
ATOM     40  C   UNL A   1      38.394  30.724  30.799  1.00  0.00     0.049 A 
ATOM     41  N   UNL A   1      40.369  28.742  29.647  1.00  0.00    -0.248 NA
ATOM     42  C   UNL A   1      39.175  28.835  27.642  1.00  0.00     0.031 C 
ATOM     43  C   UNL A   1      37.429  31.617  31.440  1.00  0.00     0.029 A 
ATOM     44  N   UNL A   1      39.400  30.597  31.726  1.00  0.00    -0.354 N 
ATOM     45  C   UNL A   1      40.955  27.892  28.718  1.00  0.00     0.074 A 
ATOM     46  C   UNL A   1      40.148  27.945  27.520  1.00  0.00     0.031 C 
ATOM     47  C   UNL A   1      37.884  31.947  32.662  1.00  0.00     0.029 A 
ATOM     48  C   UNL A   1      39.148  31.256  32.905  1.00  0.00     0.049 A 
ATOM     49  H   UNL A   1      40.223  30.084  31.561  1.00  0.00     0.167 HD
ATOM     50  C   UNL A   1      42.071  27.136  28.855  1.00  0.00     0.037 A 
ATOM     51  C   UNL A   1      39.846  31.273  34.057  1.00  0.00     0.037 A 
ATOM     52  C   UNL A   1      42.910  27.144  30.022  1.00  0.00     0.049 A 
ATOM     53  C   UNL A   1      41.116  30.467  34.163  1.00  0.00     0.074 A 
ATOM     54  C   UNL A   1      44.094  26.460  30.240  1.00  0.00     0.029 A 
ATOM     55  N   UNL A   1      42.664  27.894  31.161  1.00  0.00    -0.354 N 
ATOM     56  N   UNL A   1      41.668  29.670  33.280  1.00  0.00    -0.248 NA
ATOM     57  C   UNL A   1      41.861  30.565  35.428  1.00  0.00     0.031 C 
ATOM     58  C   UNL A   1      44.556  26.786  31.519  1.00  0.00     0.029 A 
ATOM     59  C   UNL A   1      43.677  27.695  32.083  1.00  0.00     0.049 A 
ATOM     60  H   UNL A   1      41.884  28.480  31.295  1.00  0.00     0.167 HD
ATOM     61  C   UNL A   1      42.835  29.198  33.868  1.00  0.00     0.074 A 
ATOM     62  C   UNL A   1      42.918  29.803  35.180  1.00  0.00     0.031 C 
ATOM     63  C   UNL A   1      43.754  28.337  33.369  1.00  0.00     0.037 A 
BRANCH  50  64
ATOM     64  C   UNL A   1      42.441  26.236  27.716  1.00  0.00     0.064 A 
ATOM     65  C   UNL A   1      43.416  26.599  26.776  1.00  0.00     0.173 A 
ATOM     66  C   UNL A   1      41.830  24.981  27.578  1.00  0.00     0.173 A 
ATOM     67  F   UNL A   1      44.016  27.797  26.854  1.00  0.00    -0.203 F 
ATOM     68  C   UNL A   1      43.744  25.751  25.721  1.00  0.00     0.198 A 
ATOM     69  C   UNL A   1      42.180  24.123  26.539  1.00  0.00     0.198 A 
ATOM     70  F   UNL A   1      40.892  24.585  28.452  1.00  0.00    -0.203 F 
ATOM     71  F   UNL A   1      44.640  26.141  24.805  1.00  0.00    -0.200 F 
ATOM     72  C   UNL A   1      43.132  24.512  25.607  1.00  0.00     0.200 A 
ATOM     73  F   UNL A   1      41.593  22.923  26.435  1.00  0.00    -0.200 F 
ATOM     74  F   UNL A   1      43.451  23.696  24.593  1.00  0.00    -0.200 F 
ENDBRANCH  50  64
BRANCH  51  75
ATOM     75  C   UNL A   1      39.371  32.078  35.212  1.00  0.00     0.064 A 
ATOM     76  C   UNL A   1      38.581  31.495  36.213  1.00  0.00     0.173 A 
ATOM     77  C   UNL A   1      39.660  33.445  35.324  1.00  0.00     0.173 A 
ATOM     78  F   UNL A   1      38.257  30.195  36.136  1.00  0.00    -0.203 F 
ATOM     79  C   UNL A   1      38.076  32.253  37.267  1.00  0.00     0.198 A 
ATOM     80  C   UNL A   1      39.176  34.198  36.392  1.00  0.00     0.198 A 
ATOM     81  F   UNL A   1      40.413  34.049  34.393  1.00  0.00    -0.203 F 
ATOM     82  F   UNL A   1      37.281  31.681  38.181  1.00  0.00    -0.200 F 
ATOM     83  C   UNL A   1      38.377  33.604  37.357  1.00  0.00     0.200 A 
ATOM     84  F   UNL A   1      39.476  35.501  36.481  1.00  0.00    -0.200 F 
ATOM     85  F   UNL A   1      37.887  34.334  38.368  1.00  0.00    -0.200 F 
ENDBRANCH  51  75
BRANCH  63  86
ATOM     86  C   UNL A   1      44.957  28.044  34.214  1.00  0.00     0.064 A 
ATOM     87  C   UNL A   1      44.983  26.963  35.104  1.00  0.00     0.173 A 
ATOM     88  C   UNL A   1      46.116  28.824  34.086  1.00  0.00     0.173 A 
ATOM     89  F   UNL A   1      43.893  26.198  35.270  1.00  0.00    -0.203 F 
ATOM     90  C   UNL A   1      46.124  26.681  35.851  1.00  0.00     0.198 A 
ATOM     91  C   UNL A   1      47.262  28.526  34.817  1.00  0.00     0.198 A 
ATOM     92  F   UNL A   1      46.139  29.867  33.241  1.00  0.00    -0.203 F 
ATOM     93  F   UNL A   1      46.119  25.662  36.720  1.00  0.00    -0.200 F 
ATOM     94  C   UNL A   1      47.264  27.458  35.700  1.00  0.00     0.200 A 
ATOM     95  F   UNL A   1      48.366  29.272  34.663  1.00  0.00    -0.200 F 
ATOM     96  F   UNL A   1      48.364  27.179  36.412  1.00  0.00    -0.200 F 
ENDBRANCH  63  86
ENDBRANCH  37  38
ENDBRANCH  29  32
ENDBRANCH  27  28
ENDBRANCH  26  27
ENDBRANCH   1  26
TORSDOF 16
ENDMDL
MODEL 3
REMARK VINA RESULT:     -11.8      2.031      3.261
REMARK SMILES CCn1cnc(S(=O)(=O)N[C@H](Cc2cnc[nH]2)C(=O)NCCCNC(=O)c2ccc(-c3c4nc(c(-c5c(F)c(F)c(F)c(F)c5F)c5ccc([nH]5)c(-c5c(F)c(F)c(F)c(F)c5F)c5nc(c(-c6c(F)c(F)c(F)c(F)c6F)c6ccc3[nH]6)C=C5)C=C4)cc2)c1
REMARK SMILES IDX 21 1 20 2 18 3 19 4 11 6 10 7 7 9 8 10 9 11 6 12 3 13 4 14
REMARK SMILES IDX 90 15 5 16 2 17 1 18 12 19 13 20 14 21 17 22 15 23 16 24
REMARK SMILES IDX 22 26 23 27 24 28 25 29 26 31 27 32 28 33 89 34 29 35 88 36
REMARK SMILES IDX 30 37 31 38 32 39 82 40 33 41 87 42 81 43 83 44 34 45 86 46
REMARK SMILES IDX 80 47 79 48 35 50 67 51 47 52 66 53 48 54 51 55 65 56 84 57
REMARK SMILES IDX 49 58 50 59 64 61 85 62 52 63 36 64 37 65 45 66 38 67 39 68
REMARK SMILES IDX 43 69 46 70 40 71 41 72 44 73 42 74 68 75 69 76 77 77 70 78
REMARK SMILES IDX 71 79 75 80 78 81 72 82 73 83 76 84 74 85 53 86 54 87 62 88
REMARK SMILES IDX 55 89 56 90 60 91 63 92 57 93 58 94 61 95 59 96
REMARK H PARENT 20 5 10 8 17 25 24 30 83 49 51 60
REMARK Flexibility Score: inf
ROOT
ATOM      1  C   UNL A   1      31.483  30.477  25.487  1.00  0.00     0.117 C 
ENDROOT
BRANCH   1   2
ATOM      2  N   UNL A   1      30.522  30.455  24.399  1.00  0.00    -0.355 N 
ATOM      3  C   UNL A   1      30.156  29.415  23.585  1.00  0.00     0.238 C 
ATOM      4  O   UNL A   1      29.198  29.600  22.831  1.00  0.00    -0.273 OA
ATOM      5  H   UNL A   1      30.066  31.309  24.221  1.00  0.00     0.163 HD
BRANCH   3   6
ATOM      6  C   UNL A   1      30.879  28.050  23.631  1.00  0.00     0.165 C 
BRANCH   6   7
ATOM      7  N   UNL A   1      31.902  28.103  22.545  1.00  0.00    -0.197 NA
ATOM      8  H   UNL A   1      31.540  27.515  21.794  1.00  0.00     0.142 HD
BRANCH   7   9
ATOM      9  S   UNL A   1      33.506  27.647  22.749  1.00  0.00     0.260 S 
ATOM     10  O   UNL A   1      34.011  28.175  23.999  1.00  0.00    -0.205 OA
ATOM     11  O   UNL A   1      34.148  27.895  21.482  1.00  0.00    -0.205 OA
BRANCH   9  12
ATOM     12  C   UNL A   1      33.512  25.907  22.895  1.00  0.00     0.188 A 
ATOM     13  N   UNL A   1      33.979  23.913  23.641  1.00  0.00    -0.336 N 
ATOM     14  C   UNL A   1      33.441  23.830  22.386  1.00  0.00     0.201 A 
ATOM     15  C   UNL A   1      33.917  25.221  24.026  1.00  0.00     0.129 A 
ATOM     16  N   UNL A   1      33.207  25.021  21.881  1.00  0.00    -0.224 NA
BRANCH  13  17
ATOM     17  C   UNL A   1      34.589  22.837  24.397  1.00  0.00     0.120 C 
ATOM     18  C   UNL A   1      33.796  21.537  24.363  1.00  0.00     0.027 C 
ENDBRANCH  13  17
ENDBRANCH   9  12
ENDBRANCH   7   9
ENDBRANCH   6   7
BRANCH   6  19
ATOM     19  C   UNL A   1      29.855  26.902  23.626  1.00  0.00     0.085 C 
BRANCH  19  20
ATOM     20  C   UNL A   1      30.203  25.849  24.629  1.00  0.00     0.037 A 
ATOM     21  C   UNL A   1      30.439  25.900  25.986  1.00  0.00     0.134 A 
ATOM     22  N   UNL A   1      30.387  24.529  24.293  1.00  0.00    -0.348 N 
ATOM     23  N   UNL A   1      30.757  24.659  26.472  1.00  0.00    -0.245 NA
ATOM     24  C   UNL A   1      30.723  23.857  25.432  1.00  0.00     0.196 A 
ATOM     25  H   UNL A   1      30.291  24.139  23.395  1.00  0.00     0.167 HD
ENDBRANCH  19  20
ENDBRANCH   6  19
ENDBRANCH   3   6
ENDBRANCH   1   2
BRANCH   1  26
ATOM     26  C   UNL A   1      31.281  31.642  26.449  1.00  0.00     0.042 C 
BRANCH  26  27
ATOM     27  C   UNL A   1      32.583  32.248  26.964  1.00  0.00     0.118 C 
BRANCH  27  28
ATOM     28  N   UNL A   1      32.434  33.618  27.445  1.00  0.00    -0.352 N 
ATOM     29  C   UNL A   1      33.073  34.363  28.406  1.00  0.00     0.251 C 
ATOM     30  H   UNL A   1      31.722  34.115  26.981  1.00  0.00     0.163 HD
ATOM     31  O   UNL A   1      32.581  35.452  28.706  1.00  0.00    -0.269 OA
BRANCH  29  32
ATOM     32  C   UNL A   1      34.276  33.897  29.145  1.00  0.00     0.039 A 
ATOM     33  C   UNL A   1      35.526  34.435  28.787  1.00  0.00     0.014 A 
ATOM     34  C   UNL A   1      34.231  32.917  30.131  1.00  0.00     0.014 A 
ATOM     35  C   UNL A   1      36.695  34.059  29.460  1.00  0.00     0.010 A 
ATOM     36  C   UNL A   1      35.381  32.586  30.848  1.00  0.00     0.010 A 
ATOM     37  C   UNL A   1      36.626  33.143  30.514  1.00  0.00    -0.014 A 
BRANCH  37  38
ATOM     38  C   UNL A   1      37.832  32.635  31.214  1.00  0.00     0.031 A 
ATOM     39  C   UNL A   1      38.598  31.503  30.586  1.00  0.00     0.074 A 
ATOM     40  C   UNL A   1      38.174  33.088  32.434  1.00  0.00     0.049 A 
ATOM     41  N   UNL A   1      39.488  30.703  31.113  1.00  0.00    -0.248 NA
ATOM     42  C   UNL A   1      38.275  31.203  29.181  1.00  0.00     0.031 C 
ATOM     43  C   UNL A   1      37.516  34.176  33.155  1.00  0.00     0.029 A 
ATOM     44  N   UNL A   1      39.149  32.654  33.300  1.00  0.00    -0.354 N 
ATOM     45  C   UNL A   1      39.781  29.769  30.128  1.00  0.00     0.074 A 
ATOM     46  C   UNL A   1      38.965  30.091  28.978  1.00  0.00     0.031 C 
ATOM     47  C   UNL A   1      38.097  34.317  34.360  1.00  0.00     0.029 A 
ATOM     48  C   UNL A   1      39.138  33.303  34.512  1.00  0.00     0.049 A 
ATOM     49  H   UNL A   1      39.795  31.947  33.074  1.00  0.00     0.167 HD
ATOM     50  C   UNL A   1      40.656  28.737  30.179  1.00  0.00     0.037 A 
ATOM     51  C   UNL A   1      39.865  33.079  35.623  1.00  0.00     0.037 A 
ATOM     52  C   UNL A   1      41.518  28.467  31.297  1.00  0.00     0.049 A 
ATOM     53  C   UNL A   1      40.874  31.959  35.634  1.00  0.00     0.074 A 
ATOM     54  C   UNL A   1      42.481  27.482  31.428  1.00  0.00     0.029 A 
ATOM     55  N   UNL A   1      41.534  29.204  32.472  1.00  0.00    -0.354 N 
ATOM     56  N   UNL A   1      41.150  31.084  34.697  1.00  0.00    -0.248 NA
ATOM     57  C   UNL A   1      41.673  31.796  36.858  1.00  0.00     0.031 C 
ATOM     58  C   UNL A   1      43.071  27.614  32.689  1.00  0.00     0.029 A 
ATOM     59  C   UNL A   1      42.496  28.700  33.329  1.00  0.00     0.049 A 
ATOM     60  H   UNL A   1      40.948  29.970  32.667  1.00  0.00     0.167 HD
ATOM     61  C   UNL A   1      42.171  30.291  35.204  1.00  0.00     0.074 A 
ATOM     62  C   UNL A   1      42.473  30.792  36.528  1.00  0.00     0.031 C 
ATOM     63  C   UNL A   1      42.801  29.238  34.629  1.00  0.00     0.037 A 
BRANCH  50  64
ATOM     64  C   UNL A   1      40.719  27.823  28.994  1.00  0.00     0.064 A 
ATOM     65  C   UNL A   1      41.626  28.034  27.946  1.00  0.00     0.173 A 
ATOM     66  C   UNL A   1      39.875  26.705  28.916  1.00  0.00     0.173 A 
ATOM     67  F   UNL A   1      42.442  29.101  27.964  1.00  0.00    -0.203 F 
ATOM     68  C   UNL A   1      41.667  27.177  26.849  1.00  0.00     0.198 A 
ATOM     69  C   UNL A   1      39.938  25.833  27.833  1.00  0.00     0.198 A 
ATOM     70  F   UNL A   1      38.989  26.457  29.894  1.00  0.00    -0.203 F 
ATOM     71  F   UNL A   1      42.506  27.428  25.836  1.00  0.00    -0.200 F 
ATOM     72  C   UNL A   1      40.828  26.073  26.797  1.00  0.00     0.200 A 
ATOM     73  F   UNL A   1      39.132  24.763  27.788  1.00  0.00    -0.200 F 
ATOM     74  F   UNL A   1      40.871  25.247  25.744  1.00  0.00    -0.200 F 
ENDBRANCH  50  64
BRANCH  51  75
ATOM     75  C   UNL A   1      39.676  33.930  36.828  1.00  0.00     0.064 A 
ATOM     76  C   UNL A   1      38.859  33.502  37.883  1.00  0.00     0.173 A 
ATOM     77  C   UNL A   1      40.273  35.193  36.935  1.00  0.00     0.173 A 
ATOM     78  F   UNL A   1      38.246  32.310  37.814  1.00  0.00    -0.203 F 
ATOM     79  C   UNL A   1      38.623  34.317  38.989  1.00  0.00     0.198 A 
ATOM     80  C   UNL A   1      40.057  35.997  38.053  1.00  0.00     0.198 A 
ATOM     81  F   UNL A   1      41.065  35.648  35.953  1.00  0.00    -0.203 F 
ATOM     82  F   UNL A   1      37.796  33.904  39.958  1.00  0.00    -0.200 F 
ATOM     83  C   UNL A   1      39.226  35.563  39.074  1.00  0.00     0.200 A 
ATOM     84  F   UNL A   1      40.648  37.198  38.137  1.00  0.00    -0.200 F 
ATOM     85  F   UNL A   1      38.995  36.348  40.134  1.00  0.00    -0.200 F 
ENDBRANCH  51  75
BRANCH  63  86
ATOM     86  C   UNL A   1      43.916  28.596  35.397  1.00  0.00     0.064 A 
ATOM     87  C   UNL A   1      43.679  27.554  36.302  1.00  0.00     0.173 A 
ATOM     88  C   UNL A   1      45.243  28.994  35.178  1.00  0.00     0.173 A 
ATOM     89  F   UNL A   1      42.425  27.150  36.553  1.00  0.00    -0.203 F 
ATOM     90  C   UNL A   1      44.733  26.941  36.975  1.00  0.00     0.198 A 
ATOM     91  C   UNL A   1      46.296  28.364  35.835  1.00  0.00     0.198 A 
ATOM     92  F   UNL A   1      45.519  29.984  34.315  1.00  0.00    -0.203 F 
ATOM     93  F   UNL A   1      44.483  25.968  37.861  1.00  0.00    -0.200 F 
ATOM     94  C   UNL A   1      46.040  27.341  36.735  1.00  0.00     0.200 A 
ATOM     95  F   UNL A   1      47.559  28.745  35.595  1.00  0.00    -0.200 F 
ATOM     96  F   UNL A   1      47.053  26.744  37.377  1.00  0.00    -0.200 F 
ENDBRANCH  63  86
ENDBRANCH  37  38
ENDBRANCH  29  32
ENDBRANCH  27  28
ENDBRANCH  26  27
ENDBRANCH   1  26
TORSDOF 16
ENDMDL
