MODEL 1
REMARK VINA RESULT:      -9.4      0.000      0.000
REMARK SMILES CCC[C@@](C)(C/C=C/c1ccccc1)C(=O)NCCCNC(=O)c1ccc(-c2c3nc(c(-c4c(F)c(F)c(F)c(F)c4F)c4ccc([nH]4)c(-c4c(F)c(F)c(F)c(F)c4F)c4nc(c(-c5c(F)c(F)c(F)c(F)c5F)c5ccc2[nH]5)C=C4)C=C3)cc1
REMARK SMILES IDX 18 1 17 2 15 3 16 4 4 6 5 7 3 8 2 9 1 10 6 11 7 12 8 13 9 14
REMARK SMILES IDX 10 15 14 16 11 17 13 18 12 19 19 20 20 21 21 22 22 23 23 25
REMARK SMILES IDX 24 26 25 27 86 28 26 29 85 30 27 31 28 32 29 33 79 34 30 35
REMARK SMILES IDX 84 36 78 37 80 38 31 39 83 40 77 41 76 42 32 44 64 45 44 46
REMARK SMILES IDX 63 47 45 48 48 49 62 50 81 51 46 52 47 53 61 55 82 56 49 57
REMARK SMILES IDX 33 58 34 59 42 60 35 61 36 62 40 63 43 64 37 65 38 66 41 67
REMARK SMILES IDX 39 68 65 69 66 70 74 71 67 72 68 73 72 74 75 75 69 76 70 77
REMARK SMILES IDX 73 78 71 79 50 80 51 81 59 82 52 83 53 84 57 85 60 86 54 87
REMARK SMILES IDX 55 88 58 89 56 90
REMARK H PARENT 17 5 21 24 80 43 48 54
REMARK Flexibility Score: inf
ROOT
ATOM      1  C   UNL A   1      34.416  34.908  29.520  1.00  0.00     0.117 C 
ENDROOT
BRANCH   1   2
ATOM      2  N   UNL A   1      33.856  34.689  30.839  1.00  0.00    -0.356 N 
ATOM      3  C   UNL A   1      34.280  34.007  31.932  1.00  0.00     0.226 C 
ATOM      4  O   UNL A   1      33.401  33.783  32.770  1.00  0.00    -0.274 OA
ATOM      5  H   UNL A   1      32.983  35.125  30.968  1.00  0.00     0.163 HD
BRANCH   3   6
ATOM      6  C   UNL A   1      35.728  33.501  32.116  1.00  0.00     0.050 C 
ATOM      7  C   UNL A   1      36.247  32.745  30.876  1.00  0.00     0.022 C 
BRANCH   6   8
ATOM      8  C   UNL A   1      36.687  34.724  32.360  1.00  0.00     0.016 C 
BRANCH   8   9
ATOM      9  C   UNL A   1      38.174  34.577  31.985  1.00  0.00    -0.002 C 
ATOM     10  C   UNL A   1      39.142  34.547  33.157  1.00  0.00     0.004 C 
ENDBRANCH   8   9
ENDBRANCH   6   8
BRANCH   6  11
ATOM     11  C   UNL A   1      35.769  32.564  33.367  1.00  0.00     0.044 C 
BRANCH  11  12
ATOM     12  C   UNL A   1      36.656  31.354  33.191  1.00  0.00    -0.025 C 
ATOM     13  C   UNL A   1      37.782  31.124  33.884  1.00  0.00     0.004 C 
BRANCH  13  14
ATOM     14  C   UNL A   1      38.711  30.030  33.570  1.00  0.00    -0.026 A 
ATOM     15  C   UNL A   1      40.064  30.147  33.905  1.00  0.00     0.008 A 
ATOM     16  C   UNL A   1      38.288  28.905  32.847  1.00  0.00     0.008 A 
ATOM     17  C   UNL A   1      40.970  29.142  33.555  1.00  0.00     0.001 A 
ATOM     18  C   UNL A   1      39.193  27.899  32.498  1.00  0.00     0.001 A 
ATOM     19  C   UNL A   1      40.533  28.017  32.855  1.00  0.00     0.000 A 
ENDBRANCH  13  14
ENDBRANCH  11  12
ENDBRANCH   6  11
ENDBRANCH   3   6
ENDBRANCH   1   2
BRANCH   1  20
ATOM     20  C   UNL A   1      33.718  34.059  28.466  1.00  0.00     0.042 C 
BRANCH  20  21
ATOM     21  C   UNL A   1      34.530  32.862  27.995  1.00  0.00     0.118 C 
BRANCH  21  22
ATOM     22  N   UNL A   1      33.715  31.665  27.846  1.00  0.00    -0.352 N 
ATOM     23  C   UNL A   1      34.098  30.351  27.761  1.00  0.00     0.251 C 
ATOM     24  H   UNL A   1      32.744  31.822  27.798  1.00  0.00     0.163 HD
ATOM     25  O   UNL A   1      33.286  29.495  27.408  1.00  0.00    -0.269 OA
BRANCH  23  26
ATOM     26  C   UNL A   1      35.489  29.961  28.071  1.00  0.00     0.039 A 
ATOM     27  C   UNL A   1      36.463  30.066  27.075  1.00  0.00     0.014 A 
ATOM     28  C   UNL A   1      35.833  29.484  29.339  1.00  0.00     0.014 A 
ATOM     29  C   UNL A   1      37.791  29.754  27.370  1.00  0.00     0.010 A 
ATOM     30  C   UNL A   1      37.168  29.264  29.658  1.00  0.00     0.010 A 
ATOM     31  C   UNL A   1      38.161  29.388  28.675  1.00  0.00    -0.014 A 
BRANCH  31  32
ATOM     32  C   UNL A   1      39.578  29.118  29.031  1.00  0.00     0.031 A 
ATOM     33  C   UNL A   1      40.368  30.139  29.801  1.00  0.00     0.074 A 
ATOM     34  C   UNL A   1      40.170  27.987  28.601  1.00  0.00     0.049 A 
ATOM     35  N   UNL A   1      41.634  30.125  30.139  1.00  0.00    -0.248 NA
ATOM     36  C   UNL A   1      39.650  31.351  30.225  1.00  0.00     0.031 C 
ATOM     37  C   UNL A   1      39.522  26.942  27.806  1.00  0.00     0.029 A 
ATOM     38  N   UNL A   1      41.454  27.531  28.764  1.00  0.00    -0.354 N 
ATOM     39  C   UNL A   1      41.862  31.328  30.795  1.00  0.00     0.074 A 
ATOM     40  C   UNL A   1      40.623  32.073  30.758  1.00  0.00     0.031 C 
ATOM     41  C   UNL A   1      40.403  25.957  27.571  1.00  0.00     0.029 A 
ATOM     42  C   UNL A   1      41.690  26.320  28.160  1.00  0.00     0.049 A 
ATOM     43  H   UNL A   1      42.141  28.025  29.268  1.00  0.00     0.167 HD
ATOM     44  C   UNL A   1      42.996  31.760  31.397  1.00  0.00     0.037 A 
ATOM     45  C   UNL A   1      42.819  25.590  28.080  1.00  0.00     0.037 A 
ATOM     46  C   UNL A   1      44.219  31.004  31.451  1.00  0.00     0.049 A 
ATOM     47  C   UNL A   1      44.069  26.099  28.746  1.00  0.00     0.074 A 
ATOM     48  C   UNL A   1      45.405  31.326  32.088  1.00  0.00     0.029 A 
ATOM     49  N   UNL A   1      44.415  29.774  30.840  1.00  0.00    -0.354 N 
ATOM     50  N   UNL A   1      44.254  27.205  29.426  1.00  0.00    -0.248 NA
ATOM     51  C   UNL A   1      45.267  25.256  28.639  1.00  0.00     0.031 C 
ATOM     52  C   UNL A   1      46.335  30.317  31.817  1.00  0.00     0.029 A 
ATOM     53  C   UNL A   1      45.711  29.336  31.063  1.00  0.00     0.049 A 
ATOM     54  H   UNL A   1      43.734  29.284  30.324  1.00  0.00     0.167 HD
ATOM     55  C   UNL A   1      45.575  27.175  29.852  1.00  0.00     0.074 A 
ATOM     56  C   UNL A   1      46.141  25.935  29.367  1.00  0.00     0.031 C 
ATOM     57  C   UNL A   1      46.257  28.093  30.580  1.00  0.00     0.037 A 
BRANCH  44  58
ATOM     58  C   UNL A   1      42.966  33.114  32.047  1.00  0.00     0.064 A 
ATOM     59  C   UNL A   1      42.721  33.267  33.421  1.00  0.00     0.173 A 
ATOM     60  C   UNL A   1      43.222  34.271  31.295  1.00  0.00     0.173 A 
ATOM     61  F   UNL A   1      42.460  32.195  34.183  1.00  0.00    -0.203 F 
ATOM     62  C   UNL A   1      42.701  34.528  34.010  1.00  0.00     0.198 A 
ATOM     63  C   UNL A   1      43.235  35.528  31.895  1.00  0.00     0.198 A 
ATOM     64  F   UNL A   1      43.468  34.183  29.980  1.00  0.00    -0.203 F 
ATOM     65  F   UNL A   1      42.412  34.652  35.313  1.00  0.00    -0.200 F 
ATOM     66  C   UNL A   1      42.965  35.656  33.249  1.00  0.00     0.200 A 
ATOM     67  F   UNL A   1      43.506  36.616  31.161  1.00  0.00    -0.200 F 
ATOM     68  F   UNL A   1      42.955  36.869  33.820  1.00  0.00    -0.200 F 
ENDBRANCH  44  58
BRANCH  45  69
ATOM     69  C   UNL A   1      42.815  24.288  27.360  1.00  0.00     0.064 A 
ATOM     70  C   UNL A   1      42.502  23.097  28.029  1.00  0.00     0.173 A 
ATOM     71  C   UNL A   1      43.129  24.208  25.996  1.00  0.00     0.173 A 
ATOM     72  F   UNL A   1      42.215  23.120  29.339  1.00  0.00    -0.203 F 
ATOM     73  C   UNL A   1      42.528  21.871  27.367  1.00  0.00     0.198 A 
ATOM     74  C   UNL A   1      43.122  22.985  25.327  1.00  0.00     0.198 A 
ATOM     75  F   UNL A   1      43.428  25.319  25.307  1.00  0.00    -0.203 F 
ATOM     76  F   UNL A   1      42.274  20.742  28.042  1.00  0.00    -0.200 F 
ATOM     77  C   UNL A   1      42.832  21.817  26.015  1.00  0.00     0.200 A 
ATOM     78  F   UNL A   1      43.401  22.940  24.017  1.00  0.00    -0.200 F 
ATOM     79  F   UNL A   1      42.852  20.639  25.377  1.00  0.00    -0.200 F 
ENDBRANCH  45  69
BRANCH  57  80
ATOM     80  C   UNL A   1      47.681  27.774  30.933  1.00  0.00     0.064 A 
ATOM     81  C   UNL A   1      48.012  27.054  32.090  1.00  0.00     0.173 A 
ATOM     82  C   UNL A   1      48.725  28.158  30.078  1.00  0.00     0.173 A 
ATOM     83  F   UNL A   1      47.052  26.677  32.948  1.00  0.00    -0.203 F 
ATOM     84  C   UNL A   1      49.338  26.753  32.390  1.00  0.00     0.198 A 
ATOM     85  C   UNL A   1      50.047  27.826  30.364  1.00  0.00     0.198 A 
ATOM     86  F   UNL A   1      48.464  28.843  28.954  1.00  0.00    -0.203 F 
ATOM     87  F   UNL A   1      49.634  26.106  33.526  1.00  0.00    -0.200 F 
ATOM     88  C   UNL A   1      50.352  27.130  31.524  1.00  0.00     0.200 A 
ATOM     89  F   UNL A   1      51.024  28.179  29.517  1.00  0.00    -0.200 F 
ATOM     90  F   UNL A   1      51.626  26.831  31.810  1.00  0.00    -0.200 F 
ENDBRANCH  57  80
ENDBRANCH  31  32
ENDBRANCH  23  26
ENDBRANCH  21  22
ENDBRANCH  20  21
ENDBRANCH   1  20
TORSDOF 15
ENDMDL
MODEL 2
REMARK VINA RESULT:      -9.4      4.628      9.301
REMARK SMILES CCC[C@@](C)(C/C=C/c1ccccc1)C(=O)NCCCNC(=O)c1ccc(-c2c3nc(c(-c4c(F)c(F)c(F)c(F)c4F)c4ccc([nH]4)c(-c4c(F)c(F)c(F)c(F)c4F)c4nc(c(-c5c(F)c(F)c(F)c(F)c5F)c5ccc2[nH]5)C=C4)C=C3)cc1
REMARK SMILES IDX 18 1 17 2 15 3 16 4 4 6 5 7 3 8 2 9 1 10 6 11 7 12 8 13 9 14
REMARK SMILES IDX 10 15 14 16 11 17 13 18 12 19 19 20 20 21 21 22 22 23 23 25
REMARK SMILES IDX 24 26 25 27 86 28 26 29 85 30 27 31 28 32 29 33 79 34 30 35
REMARK SMILES IDX 84 36 78 37 80 38 31 39 83 40 77 41 76 42 32 44 64 45 44 46
REMARK SMILES IDX 63 47 45 48 48 49 62 50 81 51 46 52 47 53 61 55 82 56 49 57
REMARK SMILES IDX 33 58 34 59 42 60 35 61 36 62 40 63 43 64 37 65 38 66 41 67
REMARK SMILES IDX 39 68 65 69 66 70 74 71 67 72 68 73 72 74 75 75 69 76 70 77
REMARK SMILES IDX 73 78 71 79 50 80 51 81 59 82 52 83 53 84 57 85 60 86 54 87
REMARK SMILES IDX 55 88 58 89 56 90
REMARK H PARENT 17 5 21 24 80 43 48 54
REMARK Flexibility Score: inf
ROOT
ATOM      1  C   UNL A   1      36.786  20.816  24.800  1.00  0.00     0.117 C 
ENDROOT
BRANCH   1   2
ATOM      2  N   UNL A   1      35.462  20.263  25.012  1.00  0.00    -0.356 N 
ATOM      3  C   UNL A   1      34.227  20.814  25.122  1.00  0.00     0.226 C 
ATOM      4  O   UNL A   1      33.373  20.064  25.606  1.00  0.00    -0.274 OA
ATOM      5  H   UNL A   1      35.459  19.282  25.095  1.00  0.00     0.163 HD
BRANCH   3   6
ATOM      6  C   UNL A   1      33.901  22.270  24.725  1.00  0.00     0.050 C 
ATOM      7  C   UNL A   1      34.304  22.585  23.269  1.00  0.00     0.022 C 
BRANCH   6   8
ATOM      8  C   UNL A   1      32.352  22.517  24.850  1.00  0.00     0.016 C 
BRANCH   8   9
ATOM      9  C   UNL A   1      31.574  22.955  23.594  1.00  0.00    -0.002 C 
ATOM     10  C   UNL A   1      30.917  24.323  23.677  1.00  0.00     0.004 C 
ENDBRANCH   8   9
ENDBRANCH   6   8
BRANCH   6  11
ATOM     11  C   UNL A   1      34.651  23.231  25.703  1.00  0.00     0.044 C 
BRANCH  11  12
ATOM     12  C   UNL A   1      33.848  24.446  26.098  1.00  0.00    -0.025 C 
ATOM     13  C   UNL A   1      34.017  25.676  25.586  1.00  0.00     0.004 C 
BRANCH  13  14
ATOM     14  C   UNL A   1      33.340  26.868  26.115  1.00  0.00    -0.026 A 
ATOM     15  C   UNL A   1      34.069  28.042  26.332  1.00  0.00     0.008 A 
ATOM     16  C   UNL A   1      31.993  26.825  26.502  1.00  0.00     0.008 A 
ATOM     17  C   UNL A   1      33.452  29.164  26.894  1.00  0.00     0.001 A 
ATOM     18  C   UNL A   1      31.376  27.946  27.062  1.00  0.00     0.001 A 
ATOM     19  C   UNL A   1      32.106  29.117  27.255  1.00  0.00     0.000 A 
ENDBRANCH  13  14
ENDBRANCH  11  12
ENDBRANCH   6  11
ENDBRANCH   3   6
ENDBRANCH   1   2
BRANCH   1  20
ATOM     20  C   UNL A   1      37.868  19.757  24.968  1.00  0.00     0.042 C 
BRANCH  20  21
ATOM     21  C   UNL A   1      39.082  20.229  25.753  1.00  0.00     0.118 C 
BRANCH  21  22
ATOM     22  N   UNL A   1      40.106  19.200  25.858  1.00  0.00    -0.352 N 
ATOM     23  C   UNL A   1      41.459  19.328  26.046  1.00  0.00     0.251 C 
ATOM     24  H   UNL A   1      39.781  18.274  25.781  1.00  0.00     0.163 HD
ATOM     25  O   UNL A   1      42.198  18.357  25.881  1.00  0.00    -0.269 OA
BRANCH  23  26
ATOM     26  C   UNL A   1      42.036  20.633  26.428  1.00  0.00     0.039 A 
ATOM     27  C   UNL A   1      42.491  21.494  25.425  1.00  0.00     0.014 A 
ATOM     28  C   UNL A   1      42.137  21.008  27.770  1.00  0.00     0.014 A 
ATOM     29  C   UNL A   1      42.987  22.754  25.767  1.00  0.00     0.010 A 
ATOM     30  C   UNL A   1      42.542  22.295  28.102  1.00  0.00     0.010 A 
ATOM     31  C   UNL A   1      42.980  23.180  27.105  1.00  0.00    -0.014 A 
BRANCH  31  32
ATOM     32  C   UNL A   1      43.438  24.540  27.487  1.00  0.00     0.031 A 
ATOM     33  C   UNL A   1      42.434  25.598  27.853  1.00  0.00     0.074 A 
ATOM     34  C   UNL A   1      44.750  24.841  27.437  1.00  0.00     0.049 A 
ATOM     35  N   UNL A   1      42.627  26.862  28.138  1.00  0.00    -0.248 NA
ATOM     36  C   UNL A   1      41.020  25.189  27.875  1.00  0.00     0.031 C 
ATOM     37  C   UNL A   1      45.817  23.915  27.051  1.00  0.00     0.029 A 
ATOM     38  N   UNL A   1      45.411  26.015  27.702  1.00  0.00    -0.354 N 
ATOM     39  C   UNL A   1      41.364  27.397  28.353  1.00  0.00     0.074 A 
ATOM     40  C   UNL A   1      40.408  26.339  28.110  1.00  0.00     0.031 C 
ATOM     41  C   UNL A   1      46.998  24.548  27.127  1.00  0.00     0.029 A 
ATOM     42  C   UNL A   1      46.770  25.935  27.523  1.00  0.00     0.049 A 
ATOM     43  H   UNL A   1      44.953  26.837  27.993  1.00  0.00     0.167 HD
ATOM     44  C   UNL A   1      41.033  28.651  28.743  1.00  0.00     0.037 A 
ATOM     45  C   UNL A   1      47.724  26.876  27.655  1.00  0.00     0.037 A 
ATOM     46  C   UNL A   1      41.990  29.693  29.006  1.00  0.00     0.049 A 
ATOM     47  C   UNL A   1      47.329  28.266  28.077  1.00  0.00     0.074 A 
ATOM     48  C   UNL A   1      41.762  30.979  29.465  1.00  0.00     0.029 A 
ATOM     49  N   UNL A   1      43.361  29.569  28.830  1.00  0.00    -0.354 N 
ATOM     50  N   UNL A   1      46.137  28.742  28.348  1.00  0.00    -0.248 NA
ATOM     51  C   UNL A   1      48.411  29.249  28.217  1.00  0.00     0.031 C 
ATOM     52  C   UNL A   1      42.988  31.650  29.514  1.00  0.00     0.029 A 
ATOM     53  C   UNL A   1      43.988  30.764  29.145  1.00  0.00     0.049 A 
ATOM     54  H   UNL A   1      43.820  28.754  28.525  1.00  0.00     0.167 HD
ATOM     55  C   UNL A   1      46.330  30.066  28.720  1.00  0.00     0.074 A 
ATOM     56  C   UNL A   1      47.755  30.313  28.654  1.00  0.00     0.031 C 
ATOM     57  C   UNL A   1      45.410  30.992  29.082  1.00  0.00     0.037 A 
BRANCH  44  58
ATOM     58  C   UNL A   1      39.574  28.966  28.911  1.00  0.00     0.064 A 
ATOM     59  C   UNL A   1      38.774  29.359  27.827  1.00  0.00     0.173 A 
ATOM     60  C   UNL A   1      38.959  28.839  30.166  1.00  0.00     0.173 A 
ATOM     61  F   UNL A   1      39.315  29.505  26.608  1.00  0.00    -0.203 F 
ATOM     62  C   UNL A   1      37.422  29.643  27.998  1.00  0.00     0.198 A 
ATOM     63  C   UNL A   1      37.598  29.092  30.326  1.00  0.00     0.198 A 
ATOM     64  F   UNL A   1      39.673  28.462  31.236  1.00  0.00    -0.203 F 
ATOM     65  F   UNL A   1      36.692  30.067  26.957  1.00  0.00    -0.200 F 
ATOM     66  C   UNL A   1      36.834  29.502  29.245  1.00  0.00     0.200 A 
ATOM     67  F   UNL A   1      37.027  28.940  31.530  1.00  0.00    -0.200 F 
ATOM     68  F   UNL A   1      35.530  29.767  29.406  1.00  0.00    -0.200 F 
ENDBRANCH  44  58
BRANCH  45  69
ATOM     69  C   UNL A   1      49.149  26.532  27.405  1.00  0.00     0.064 A 
ATOM     70  C   UNL A   1      50.021  26.258  28.467  1.00  0.00     0.173 A 
ATOM     71  C   UNL A   1      49.670  26.478  26.104  1.00  0.00     0.173 A 
ATOM     72  F   UNL A   1      49.575  26.318  29.731  1.00  0.00    -0.203 F 
ATOM     73  C   UNL A   1      51.364  25.966  28.241  1.00  0.00     0.198 A 
ATOM     74  C   UNL A   1      51.006  26.154  25.876  1.00  0.00     0.198 A 
ATOM     75  F   UNL A   1      48.877  26.724  25.051  1.00  0.00    -0.203 F 
ATOM     76  F   UNL A   1      52.186  25.757  29.278  1.00  0.00    -0.200 F 
ATOM     77  C   UNL A   1      51.855  25.908  26.946  1.00  0.00     0.200 A 
ATOM     78  F   UNL A   1      51.472  26.083  24.622  1.00  0.00    -0.200 F 
ATOM     79  F   UNL A   1      53.146  25.623  26.727  1.00  0.00    -0.200 F 
ENDBRANCH  45  69
BRANCH  57  80
ATOM     80  C   UNL A   1      45.915  32.350  29.477  1.00  0.00     0.064 A 
ATOM     81  C   UNL A   1      46.304  32.640  30.793  1.00  0.00     0.173 A 
ATOM     82  C   UNL A   1      46.054  33.361  28.514  1.00  0.00     0.173 A 
ATOM     83  F   UNL A   1      46.178  31.712  31.754  1.00  0.00    -0.203 F 
ATOM     84  C   UNL A   1      46.787  33.900  31.135  1.00  0.00     0.198 A 
ATOM     85  C   UNL A   1      46.569  34.609  28.853  1.00  0.00     0.198 A 
ATOM     86  F   UNL A   1      45.703  33.135  27.239  1.00  0.00    -0.203 F 
ATOM     87  F   UNL A   1      47.106  34.169  32.409  1.00  0.00    -0.200 F 
ATOM     88  C   UNL A   1      46.928  34.879  30.165  1.00  0.00     0.200 A 
ATOM     89  F   UNL A   1      46.718  35.550  27.909  1.00  0.00    -0.200 F 
ATOM     90  F   UNL A   1      47.403  36.088  30.494  1.00  0.00    -0.200 F 
ENDBRANCH  57  80
ENDBRANCH  31  32
ENDBRANCH  23  26
ENDBRANCH  21  22
ENDBRANCH  20  21
ENDBRANCH   1  20
TORSDOF 15
ENDMDL
MODEL 3
REMARK VINA RESULT:      -9.3      4.565      9.376
REMARK SMILES CCC[C@@](C)(C/C=C/c1ccccc1)C(=O)NCCCNC(=O)c1ccc(-c2c3nc(c(-c4c(F)c(F)c(F)c(F)c4F)c4ccc([nH]4)c(-c4c(F)c(F)c(F)c(F)c4F)c4nc(c(-c5c(F)c(F)c(F)c(F)c5F)c5ccc2[nH]5)C=C4)C=C3)cc1
REMARK SMILES IDX 18 1 17 2 15 3 16 4 4 6 5 7 3 8 2 9 1 10 6 11 7 12 8 13 9 14
REMARK SMILES IDX 10 15 14 16 11 17 13 18 12 19 19 20 20 21 21 22 22 23 23 25
REMARK SMILES IDX 24 26 25 27 86 28 26 29 85 30 27 31 28 32 29 33 79 34 30 35
REMARK SMILES IDX 84 36 78 37 80 38 31 39 83 40 77 41 76 42 32 44 64 45 44 46
REMARK SMILES IDX 63 47 45 48 48 49 62 50 81 51 46 52 47 53 61 55 82 56 49 57
REMARK SMILES IDX 33 58 34 59 42 60 35 61 36 62 40 63 43 64 37 65 38 66 41 67
REMARK SMILES IDX 39 68 65 69 66 70 74 71 67 72 68 73 72 74 75 75 69 76 70 77
REMARK SMILES IDX 73 78 71 79 50 80 51 81 59 82 52 83 53 84 57 85 60 86 54 87
REMARK SMILES IDX 55 88 58 89 56 90
REMARK H PARENT 17 5 21 24 80 43 48 54
REMARK Flexibility Score: inf
ROOT
ATOM      1  C   UNL A   1      36.858  20.817  24.930  1.00  0.00     0.117 C 
ENDROOT
BRANCH   1   2
ATOM      2  N   UNL A   1      35.546  20.206  25.008  1.00  0.00    -0.356 N 
ATOM      3  C   UNL A   1      34.286  20.705  25.074  1.00  0.00     0.226 C 
ATOM      4  O   UNL A   1      33.431  19.892  25.440  1.00  0.00    -0.274 OA
ATOM      5  H   UNL A   1      35.575  19.222  25.015  1.00  0.00     0.163 HD
BRANCH   3   6
ATOM      6  C   UNL A   1      33.931  22.177  24.768  1.00  0.00     0.050 C 
ATOM      7  C   UNL A   1      34.452  22.630  23.388  1.00  0.00     0.022 C 
BRANCH   6   8
ATOM      8  C   UNL A   1      32.368  22.353  24.764  1.00  0.00     0.016 C 
BRANCH   8   9
ATOM      9  C   UNL A   1      31.690  22.865  23.479  1.00  0.00    -0.002 C 
ATOM     10  C   UNL A   1      30.978  24.202  23.604  1.00  0.00     0.004 C 
ENDBRANCH   8   9
ENDBRANCH   6   8
BRANCH   6  11
ATOM     11  C   UNL A   1      34.543  23.078  25.889  1.00  0.00     0.044 C 
BRANCH  11  12
ATOM     12  C   UNL A   1      33.738  24.321  26.178  1.00  0.00    -0.025 C 
ATOM     13  C   UNL A   1      34.050  25.554  25.745  1.00  0.00     0.004 C 
BRANCH  13  14
ATOM     14  C   UNL A   1      33.344  26.764  26.187  1.00  0.00    -0.026 A 
ATOM     15  C   UNL A   1      34.032  27.980  26.268  1.00  0.00     0.008 A 
ATOM     16  C   UNL A   1      32.014  26.708  26.627  1.00  0.00     0.008 A 
ATOM     17  C   UNL A   1      33.390  29.126  26.747  1.00  0.00     0.001 A 
ATOM     18  C   UNL A   1      31.371  27.853  27.104  1.00  0.00     0.001 A 
ATOM     19  C   UNL A   1      32.060  29.062  27.161  1.00  0.00     0.000 A 
ENDBRANCH  13  14
ENDBRANCH  11  12
ENDBRANCH   6  11
ENDBRANCH   3   6
ENDBRANCH   1   2
BRANCH   1  20
ATOM     20  C   UNL A   1      37.967  19.776  25.018  1.00  0.00     0.042 C 
BRANCH  20  21
ATOM     21  C   UNL A   1      39.149  20.198  25.877  1.00  0.00     0.118 C 
BRANCH  21  22
ATOM     22  N   UNL A   1      40.201  19.193  25.901  1.00  0.00    -0.352 N 
ATOM     23  C   UNL A   1      41.556  19.348  26.049  1.00  0.00     0.251 C 
ATOM     24  H   UNL A   1      39.896  18.263  25.794  1.00  0.00     0.163 HD
ATOM     25  O   UNL A   1      42.313  18.405  25.815  1.00  0.00    -0.269 OA
BRANCH  23  26
ATOM     26  C   UNL A   1      42.113  20.650  26.470  1.00  0.00     0.039 A 
ATOM     27  C   UNL A   1      42.536  21.556  25.493  1.00  0.00     0.014 A 
ATOM     28  C   UNL A   1      42.228  20.977  27.823  1.00  0.00     0.014 A 
ATOM     29  C   UNL A   1      43.011  22.812  25.873  1.00  0.00     0.010 A 
ATOM     30  C   UNL A   1      42.613  22.260  28.196  1.00  0.00     0.010 A 
ATOM     31  C   UNL A   1      43.017  23.189  27.226  1.00  0.00    -0.014 A 
BRANCH  31  32
ATOM     32  C   UNL A   1      43.455  24.543  27.651  1.00  0.00     0.031 A 
ATOM     33  C   UNL A   1      42.432  25.590  27.997  1.00  0.00     0.074 A 
ATOM     34  C   UNL A   1      44.767  24.850  27.657  1.00  0.00     0.049 A 
ATOM     35  N   UNL A   1      42.609  26.849  28.313  1.00  0.00    -0.248 NA
ATOM     36  C   UNL A   1      41.021  25.177  27.957  1.00  0.00     0.031 C 
ATOM     37  C   UNL A   1      45.851  23.935  27.296  1.00  0.00     0.029 A 
ATOM     38  N   UNL A   1      45.411  26.021  27.969  1.00  0.00    -0.354 N 
ATOM     39  C   UNL A   1      41.337  27.376  28.489  1.00  0.00     0.074 A 
ATOM     40  C   UNL A   1      40.395  26.320  28.190  1.00  0.00     0.031 C 
ATOM     41  C   UNL A   1      47.026  24.570  27.430  1.00  0.00     0.029 A 
ATOM     42  C   UNL A   1      46.777  25.949  27.842  1.00  0.00     0.049 A 
ATOM     43  H   UNL A   1      44.939  26.835  28.258  1.00  0.00     0.167 HD
ATOM     44  C   UNL A   1      40.985  28.621  28.889  1.00  0.00     0.037 A 
ATOM     45  C   UNL A   1      47.721  26.891  28.028  1.00  0.00     0.037 A 
ATOM     46  C   UNL A   1      41.927  29.662  29.209  1.00  0.00     0.049 A 
ATOM     47  C   UNL A   1      47.303  28.271  28.461  1.00  0.00     0.074 A 
ATOM     48  C   UNL A   1      41.676  30.937  29.682  1.00  0.00     0.029 A 
ATOM     49  N   UNL A   1      43.304  29.546  29.083  1.00  0.00    -0.354 N 
ATOM     50  N   UNL A   1      46.100  28.738  28.694  1.00  0.00    -0.248 NA
ATOM     51  C   UNL A   1      48.376  29.255  28.661  1.00  0.00     0.031 C 
ATOM     52  C   UNL A   1      42.896  31.612  29.791  1.00  0.00     0.029 A 
ATOM     53  C   UNL A   1      43.914  30.737  29.445  1.00  0.00     0.049 A 
ATOM     54  H   UNL A   1      43.778  28.738  28.782  1.00  0.00     0.167 HD
ATOM     55  C   UNL A   1      46.273  30.055  29.098  1.00  0.00     0.074 A 
ATOM     56  C   UNL A   1      47.698  30.309  29.092  1.00  0.00     0.031 C 
ATOM     57  C   UNL A   1      45.335  30.971  29.442  1.00  0.00     0.037 A 
BRANCH  44  58
ATOM     58  C   UNL A   1      39.519  28.928  29.007  1.00  0.00     0.064 A 
ATOM     59  C   UNL A   1      38.841  28.831  30.232  1.00  0.00     0.173 A 
ATOM     60  C   UNL A   1      38.790  29.358  27.888  1.00  0.00     0.173 A 
ATOM     61  F   UNL A   1      39.489  28.414  31.330  1.00  0.00    -0.203 F 
ATOM     62  C   UNL A   1      37.484  29.123  30.326  1.00  0.00     0.198 A 
ATOM     63  C   UNL A   1      37.439  29.682  27.993  1.00  0.00     0.198 A 
ATOM     64  F   UNL A   1      39.388  29.474  26.693  1.00  0.00    -0.203 F 
ATOM     65  F   UNL A   1      36.847  28.972  31.495  1.00  0.00    -0.200 F 
ATOM     66  C   UNL A   1      36.786  29.555  29.208  1.00  0.00     0.200 A 
ATOM     67  F   UNL A   1      36.770  30.115  26.915  1.00  0.00    -0.200 F 
ATOM     68  F   UNL A   1      35.480  29.844  29.303  1.00  0.00    -0.200 F 
ENDBRANCH  44  58
BRANCH  45  69
ATOM     69  C   UNL A   1      49.156  26.557  27.828  1.00  0.00     0.064 A 
ATOM     70  C   UNL A   1      49.700  26.461  26.540  1.00  0.00     0.173 A 
ATOM     71  C   UNL A   1      50.010  26.320  28.915  1.00  0.00     0.173 A 
ATOM     72  F   UNL A   1      48.918  26.658  25.467  1.00  0.00    -0.203 F 
ATOM     73  C   UNL A   1      51.035  26.116  26.344  1.00  0.00     0.198 A 
ATOM     74  C   UNL A   1      51.354  26.008  28.720  1.00  0.00     0.198 A 
ATOM     75  F   UNL A   1      49.543  26.407  30.169  1.00  0.00    -0.203 F 
ATOM     76  F   UNL A   1      51.516  25.983  25.101  1.00  0.00    -0.200 F 
ATOM     77  C   UNL A   1      51.864  25.897  27.435  1.00  0.00     0.200 A 
ATOM     78  F   UNL A   1      52.154  25.812  29.777  1.00  0.00    -0.200 F 
ATOM     79  F   UNL A   1      53.150  25.570  27.248  1.00  0.00    -0.200 F 
ENDBRANCH  45  69
BRANCH  57  80
ATOM     80  C   UNL A   1      45.820  32.323  29.881  1.00  0.00     0.064 A 
ATOM     81  C   UNL A   1      45.977  33.382  28.975  1.00  0.00     0.173 A 
ATOM     82  C   UNL A   1      46.088  32.573  31.236  1.00  0.00     0.173 A 
ATOM     83  F   UNL A   1      45.749  33.190  27.667  1.00  0.00    -0.203 F 
ATOM     84  C   UNL A   1      46.410  34.633  29.406  1.00  0.00     0.198 A 
ATOM     85  C   UNL A   1      46.487  33.835  31.667  1.00  0.00     0.198 A 
ATOM     86  F   UNL A   1      45.946  31.597  32.145  1.00  0.00    -0.203 F 
ATOM     87  F   UNL A   1      46.601  35.616  28.514  1.00  0.00    -0.200 F 
ATOM     88  C   UNL A   1      46.656  34.861  30.750  1.00  0.00     0.200 A 
ATOM     89  F   UNL A   1      46.710  34.056  32.971  1.00  0.00    -0.200 F 
ATOM     90  F   UNL A   1      47.063  36.069  31.164  1.00  0.00    -0.200 F 
ENDBRANCH  57  80
ENDBRANCH  31  32
ENDBRANCH  23  26
ENDBRANCH  21  22
ENDBRANCH  20  21
ENDBRANCH   1  20
TORSDOF 15
ENDMDL
