MODEL 1
REMARK VINA RESULT:     -14.1      0.000      0.000
REMARK SMILES CC(C)c1cccc2c1N[C@H](c1ccc(C(=O)NCCCNC(=O)c3ccc(-c4c5nc(c(-c6c(F)c(F)c(F)c(F)c6F)c6ccc([nH]6)c(-c6c(F)c(F)c(F)c(F)c6F)c6nc(c(-c7c(F)c(F)c(F)c(F)c7F)c7ccc4[nH]7)C=C6)C=C5)cc3)cc1)[C@H]1CC=C[C@H]21
REMARK SMILES IDX 20 1 19 2 18 3 16 4 17 5 15 7 12 8 13 9 89 10 14 11 88 12
REMARK SMILES IDX 11 13 4 14 5 15 9 16 6 17 8 18 10 19 7 20 94 21 90 23 93 24
REMARK SMILES IDX 91 25 92 26 2 27 1 28 3 29 21 30 22 31 23 32 24 34 25 35
REMARK SMILES IDX 26 36 87 37 27 38 86 39 28 40 29 41 30 42 80 43 31 44 85 45
REMARK SMILES IDX 79 46 81 47 32 48 84 49 78 50 77 51 33 53 65 54 45 55 64 56
REMARK SMILES IDX 46 57 49 58 63 59 82 60 47 61 48 62 62 64 83 65 50 66 34 67
REMARK SMILES IDX 35 68 43 69 36 70 37 71 41 72 44 73 38 74 39 75 42 76 40 77
REMARK SMILES IDX 66 78 67 79 75 80 68 81 69 82 73 83 76 84 70 85 71 86 74 87
REMARK SMILES IDX 72 88 51 89 52 90 60 91 53 92 54 93 58 94 61 95 55 96 56 97
REMARK SMILES IDX 59 98 57 99
REMARK H PARENT 18 6 10 22 22 33 81 52 49 63
REMARK Flexibility Score: inf
ROOT
ATOM      1  C   UNL A   1      31.650  28.849  25.590  1.00  0.00     0.042 C 
ENDROOT
BRANCH   1   2
ATOM      2  C   UNL A   1      31.465  28.159  24.248  1.00  0.00     0.118 C 
BRANCH   2   3
ATOM      3  N   UNL A   1      30.083  27.801  23.950  1.00  0.00    -0.352 N 
ATOM      4  C   UNL A   1      29.443  26.585  24.055  1.00  0.00     0.251 C 
ATOM      5  O   UNL A   1      28.274  26.477  23.695  1.00  0.00    -0.269 OA
ATOM      6  H   UNL A   1      29.521  28.541  23.625  1.00  0.00     0.163 HD
BRANCH   4   7
ATOM      7  C   UNL A   1      30.186  25.397  24.526  1.00  0.00     0.039 A 
ATOM      8  C   UNL A   1      32.100  23.508  25.397  1.00  0.00    -0.025 A 
ATOM      9  C   UNL A   1      31.778  23.656  24.033  1.00  0.00     0.006 A 
ATOM     10  C   UNL A   1      31.241  24.153  26.301  1.00  0.00     0.006 A 
ATOM     11  C   UNL A   1      30.845  24.602  23.595  1.00  0.00     0.014 A 
ATOM     12  C   UNL A   1      30.291  25.084  25.876  1.00  0.00     0.014 A 
BRANCH   8  13
ATOM     13  C   UNL A   1      33.298  22.660  25.877  1.00  0.00     0.114 C 
ATOM     14  C   UNL A   1      33.922  19.032  24.682  1.00  0.00    -0.022 A 
ATOM     15  C   UNL A   1      35.050  18.213  24.400  1.00  0.00     0.006 A 
ATOM     16  C   UNL A   1      34.154  20.349  25.157  1.00  0.00     0.042 A 
ATOM     17  C   UNL A   1      36.356  18.657  24.550  1.00  0.00     0.001 A 
ATOM     18  C   UNL A   1      35.504  20.788  25.290  1.00  0.00    -0.017 A 
ATOM     19  N   UNL A   1      33.127  21.252  25.429  1.00  0.00    -0.377 N 
ATOM     20  C   UNL A   1      36.584  19.942  25.000  1.00  0.00     0.006 A 
ATOM     21  C   UNL A   1      35.727  22.136  25.911  1.00  0.00     0.049 C 
ATOM     22  H   UNL A   1      32.206  20.928  25.315  1.00  0.00     0.161 HD
ATOM     23  C   UNL A   1      34.682  23.129  25.383  1.00  0.00     0.031 C 
ATOM     24  C   UNL A   1      36.997  22.898  25.676  1.00  0.00    -0.023 C 
ATOM     25  C   UNL A   1      35.279  24.477  25.810  1.00  0.00     0.034 C 
ATOM     26  C   UNL A   1      36.749  24.213  25.674  1.00  0.00    -0.030 C 
BRANCH  14  27
ATOM     27  C   UNL A   1      32.586  18.323  24.419  1.00  0.00     0.015 C 
ATOM     28  C   UNL A   1      32.129  18.042  22.989  1.00  0.00     0.012 C 
ATOM     29  C   UNL A   1      32.492  17.023  25.234  1.00  0.00     0.012 C 
ENDBRANCH  14  27
ENDBRANCH   8  13
ENDBRANCH   4   7
ENDBRANCH   2   3
ENDBRANCH   1   2
BRANCH   1  30
ATOM     30  C   UNL A   1      32.871  29.751  25.672  1.00  0.00     0.118 C 
BRANCH  30  31
ATOM     31  N   UNL A   1      32.609  31.033  26.318  1.00  0.00    -0.352 N 
ATOM     32  C   UNL A   1      33.316  31.764  27.249  1.00  0.00     0.251 C 
ATOM     33  H   UNL A   1      31.766  31.456  26.036  1.00  0.00     0.163 HD
ATOM     34  O   UNL A   1      32.809  32.768  27.730  1.00  0.00    -0.269 OA
BRANCH  32  35
ATOM     35  C   UNL A   1      34.655  31.327  27.717  1.00  0.00     0.039 A 
ATOM     36  C   UNL A   1      34.934  29.993  27.994  1.00  0.00     0.014 A 
ATOM     37  C   UNL A   1      35.664  32.284  27.880  1.00  0.00     0.014 A 
ATOM     38  C   UNL A   1      36.101  29.655  28.669  1.00  0.00     0.010 A 
ATOM     39  C   UNL A   1      36.895  31.919  28.437  1.00  0.00     0.010 A 
ATOM     40  C   UNL A   1      37.097  30.614  28.910  1.00  0.00    -0.014 A 
BRANCH  40  41
ATOM     41  C   UNL A   1      38.312  30.227  29.682  1.00  0.00     0.031 A 
ATOM     42  C   UNL A   1      38.488  30.672  31.112  1.00  0.00     0.074 A 
ATOM     43  C   UNL A   1      39.217  29.398  29.126  1.00  0.00     0.049 A 
ATOM     44  N   UNL A   1      39.469  30.412  31.944  1.00  0.00    -0.248 NA
ATOM     45  C   UNL A   1      37.435  31.524  31.687  1.00  0.00     0.031 C 
ATOM     46  C   UNL A   1      39.157  28.881  27.758  1.00  0.00     0.029 A 
ATOM     47  N   UNL A   1      40.342  28.810  29.650  1.00  0.00    -0.354 N 
ATOM     48  C   UNL A   1      39.162  31.086  33.119  1.00  0.00     0.074 A 
ATOM     49  C   UNL A   1      37.922  31.792  32.891  1.00  0.00     0.031 C 
ATOM     50  C   UNL A   1      40.147  27.996  27.575  1.00  0.00     0.029 A 
ATOM     51  C   UNL A   1      40.961  27.941  28.784  1.00  0.00     0.049 A 
ATOM     52  H   UNL A   1      40.673  28.994  30.558  1.00  0.00     0.167 HD
ATOM     53  C   UNL A   1      39.845  31.101  34.289  1.00  0.00     0.037 A 
ATOM     54  C   UNL A   1      42.070  27.192  28.937  1.00  0.00     0.037 A 
ATOM     55  C   UNL A   1      41.055  30.362  34.536  1.00  0.00     0.049 A 
ATOM     56  C   UNL A   1      42.827  27.259  30.232  1.00  0.00     0.074 A 
ATOM     57  C   UNL A   1      41.800  30.293  35.700  1.00  0.00     0.029 A 
ATOM     58  N   UNL A   1      41.690  29.554  33.605  1.00  0.00    -0.354 N 
ATOM     59  N   UNL A   1      42.530  27.912  31.328  1.00  0.00    -0.248 NA
ATOM     60  C   UNL A   1      44.085  26.502  30.303  1.00  0.00     0.031 C 
ATOM     61  C   UNL A   1      42.908  29.474  35.462  1.00  0.00     0.029 A 
ATOM     62  C   UNL A   1      42.831  29.000  34.162  1.00  0.00     0.049 A 
ATOM     63  H   UNL A   1      41.377  29.398  32.685  1.00  0.00     0.167 HD
ATOM     64  C   UNL A   1      43.561  27.647  32.218  1.00  0.00     0.074 A 
ATOM     65  C   UNL A   1      44.477  26.750  31.546  1.00  0.00     0.031 C 
ATOM     66  C   UNL A   1      43.737  28.116  33.477  1.00  0.00     0.037 A 
BRANCH  53  67
ATOM     67  C   UNL A   1      39.306  31.947  35.407  1.00  0.00     0.064 A 
ATOM     68  C   UNL A   1      38.457  31.415  36.387  1.00  0.00     0.173 A 
ATOM     69  C   UNL A   1      39.706  33.286  35.540  1.00  0.00     0.173 A 
ATOM     70  F   UNL A   1      38.036  30.144  36.299  1.00  0.00    -0.203 F 
ATOM     71  C   UNL A   1      38.016  32.197  37.453  1.00  0.00     0.198 A 
ATOM     72  C   UNL A   1      39.285  34.056  36.620  1.00  0.00     0.198 A 
ATOM     73  F   UNL A   1      40.524  33.840  34.633  1.00  0.00    -0.203 F 
ATOM     74  F   UNL A   1      37.181  31.676  38.364  1.00  0.00    -0.200 F 
ATOM     75  C   UNL A   1      38.438  33.512  37.574  1.00  0.00     0.200 A 
ATOM     76  F   UNL A   1      39.704  35.323  36.743  1.00  0.00    -0.200 F 
ATOM     77  F   UNL A   1      38.027  34.257  38.609  1.00  0.00    -0.200 F 
ENDBRANCH  53  67
BRANCH  54  78
ATOM     78  C   UNL A   1      42.529  26.322  27.824  1.00  0.00     0.064 A 
ATOM     79  C   UNL A   1      42.042  25.017  27.682  1.00  0.00     0.173 A 
ATOM     80  C   UNL A   1      43.444  26.786  26.866  1.00  0.00     0.173 A 
ATOM     81  F   UNL A   1      41.184  24.520  28.584  1.00  0.00    -0.203 F 
ATOM     82  C   UNL A   1      42.454  24.207  26.624  1.00  0.00     0.198 A 
ATOM     83  C   UNL A   1      43.831  25.987  25.793  1.00  0.00     0.198 A 
ATOM     84  F   UNL A   1      43.939  28.030  26.958  1.00  0.00    -0.203 F 
ATOM     85  F   UNL A   1      41.996  22.951  26.527  1.00  0.00    -0.200 F 
ATOM     86  C   UNL A   1      43.339  24.697  25.676  1.00  0.00     0.200 A 
ATOM     87  F   UNL A   1      44.675  26.471  24.872  1.00  0.00    -0.200 F 
ATOM     88  F   UNL A   1      43.723  23.923  24.651  1.00  0.00    -0.200 F 
ENDBRANCH  54  78
BRANCH  66  89
ATOM     89  C   UNL A   1      44.967  27.676  34.211  1.00  0.00     0.064 A 
ATOM     90  C   UNL A   1      46.133  28.456  34.205  1.00  0.00     0.173 A 
ATOM     91  C   UNL A   1      44.962  26.504  34.980  1.00  0.00     0.173 A 
ATOM     92  F   UNL A   1      46.189  29.579  33.472  1.00  0.00    -0.203 F 
ATOM     93  C   UNL A   1      47.254  28.071  34.934  1.00  0.00     0.198 A 
ATOM     94  C   UNL A   1      46.076  26.134  35.727  1.00  0.00     0.198 A 
ATOM     95  F   UNL A   1      43.869  25.728  35.023  1.00  0.00    -0.203 F 
ATOM     96  F   UNL A   1      48.368  28.814  34.889  1.00  0.00    -0.200 F 
ATOM     97  C   UNL A   1      47.221  26.915  35.702  1.00  0.00     0.200 A 
ATOM     98  F   UNL A   1      46.040  25.025  36.478  1.00  0.00    -0.200 F 
ATOM     99  F   UNL A   1      48.298  26.554  36.414  1.00  0.00    -0.200 F 
ENDBRANCH  66  89
ENDBRANCH  40  41
ENDBRANCH  32  35
ENDBRANCH  30  31
ENDBRANCH   1  30
TORSDOF 12
ENDMDL
MODEL 2
REMARK VINA RESULT:     -13.7      4.236     10.021
REMARK SMILES CC(C)c1cccc2c1N[C@H](c1ccc(C(=O)NCCCNC(=O)c3ccc(-c4c5nc(c(-c6c(F)c(F)c(F)c(F)c6F)c6ccc([nH]6)c(-c6c(F)c(F)c(F)c(F)c6F)c6nc(c(-c7c(F)c(F)c(F)c(F)c7F)c7ccc4[nH]7)C=C6)C=C5)cc3)cc1)[C@H]1CC=C[C@H]21
REMARK SMILES IDX 20 1 19 2 18 3 16 4 17 5 15 7 12 8 13 9 89 10 14 11 88 12
REMARK SMILES IDX 11 13 4 14 5 15 9 16 6 17 8 18 10 19 7 20 94 21 90 23 93 24
REMARK SMILES IDX 91 25 92 26 2 27 1 28 3 29 21 30 22 31 23 32 24 34 25 35
REMARK SMILES IDX 26 36 87 37 27 38 86 39 28 40 29 41 30 42 80 43 31 44 85 45
REMARK SMILES IDX 79 46 81 47 32 48 84 49 78 50 77 51 33 53 65 54 45 55 64 56
REMARK SMILES IDX 46 57 49 58 63 59 82 60 47 61 48 62 62 64 83 65 50 66 34 67
REMARK SMILES IDX 35 68 43 69 36 70 37 71 41 72 44 73 38 74 39 75 42 76 40 77
REMARK SMILES IDX 66 78 67 79 75 80 68 81 69 82 73 83 76 84 70 85 71 86 74 87
REMARK SMILES IDX 72 88 51 89 52 90 60 91 53 92 54 93 58 94 61 95 55 96 56 97
REMARK SMILES IDX 59 98 57 99
REMARK H PARENT 18 6 10 22 22 33 81 52 49 63
REMARK Flexibility Score: inf
ROOT
ATOM      1  C   UNL A   1      36.071  21.432  25.528  1.00  0.00     0.042 C 
ENDROOT
BRANCH   1   2
ATOM      2  C   UNL A   1      34.927  21.910  24.647  1.00  0.00     0.118 C 
BRANCH   2   3
ATOM      3  N   UNL A   1      33.697  21.141  24.802  1.00  0.00    -0.352 N 
ATOM      4  C   UNL A   1      32.385  21.564  24.801  1.00  0.00     0.251 C 
ATOM      5  O   UNL A   1      31.484  20.757  25.007  1.00  0.00    -0.269 OA
ATOM      6  H   UNL A   1      33.823  20.172  24.925  1.00  0.00     0.163 HD
BRANCH   4   7
ATOM      7  C   UNL A   1      32.072  22.998  24.629  1.00  0.00     0.039 A 
ATOM      8  C   UNL A   1      32.069  25.820  24.468  1.00  0.00    -0.025 A 
ATOM      9  C   UNL A   1      31.722  25.150  25.658  1.00  0.00     0.006 A 
ATOM     10  C   UNL A   1      32.154  25.019  23.318  1.00  0.00     0.006 A 
ATOM     11  C   UNL A   1      31.740  23.754  25.749  1.00  0.00     0.014 A 
ATOM     12  C   UNL A   1      32.153  23.625  23.391  1.00  0.00     0.014 A 
BRANCH   8  13
ATOM     13  C   UNL A   1      32.302  27.346  24.416  1.00  0.00     0.114 C 
ATOM     14  C   UNL A   1      29.496  29.878  23.582  1.00  0.00    -0.022 A 
ATOM     15  C   UNL A   1      29.141  31.198  23.975  1.00  0.00     0.006 A 
ATOM     16  C   UNL A   1      30.680  29.315  24.126  1.00  0.00     0.042 A 
ATOM     17  C   UNL A   1      29.889  31.940  24.878  1.00  0.00     0.001 A 
ATOM     18  C   UNL A   1      31.425  30.090  25.062  1.00  0.00    -0.017 A 
ATOM     19  N   UNL A   1      31.106  28.017  23.843  1.00  0.00    -0.377 N 
ATOM     20  C   UNL A   1      31.034  31.389  25.417  1.00  0.00     0.006 A 
ATOM     21  C   UNL A   1      32.736  29.526  25.527  1.00  0.00     0.049 C 
ATOM     22  H   UNL A   1      30.565  27.500  23.205  1.00  0.00     0.161 HD
ATOM     23  C   UNL A   1      32.593  28.017  25.775  1.00  0.00     0.031 C 
ATOM     24  C   UNL A   1      33.359  29.974  26.816  1.00  0.00    -0.023 C 
ATOM     25  C   UNL A   1      33.863  27.704  26.577  1.00  0.00     0.034 C 
ATOM     26  C   UNL A   1      34.035  28.962  27.374  1.00  0.00    -0.030 C 
BRANCH  14  27
ATOM     27  C   UNL A   1      28.501  29.260  22.590  1.00  0.00     0.015 C 
ATOM     28  C   UNL A   1      27.214  28.610  23.091  1.00  0.00     0.012 C 
ATOM     29  C   UNL A   1      28.151  30.261  21.477  1.00  0.00     0.012 C 
ENDBRANCH  14  27
ENDBRANCH   8  13
ENDBRANCH   4   7
ENDBRANCH   2   3
ENDBRANCH   1   2
BRANCH   1  30
ATOM     30  C   UNL A   1      37.448  21.561  24.899  1.00  0.00     0.118 C 
BRANCH  30  31
ATOM     31  N   UNL A   1      38.413  20.586  25.397  1.00  0.00    -0.352 N 
ATOM     32  C   UNL A   1      39.550  20.716  26.165  1.00  0.00     0.251 C 
ATOM     33  H   UNL A   1      38.213  19.658  25.134  1.00  0.00     0.163 HD
ATOM     34  O   UNL A   1      40.265  19.739  26.344  1.00  0.00    -0.269 OA
BRANCH  32  35
ATOM     35  C   UNL A   1      39.952  22.027  26.732  1.00  0.00     0.039 A 
ATOM     36  C   UNL A   1      39.335  23.211  26.346  1.00  0.00     0.014 A 
ATOM     37  C   UNL A   1      40.978  22.070  27.684  1.00  0.00     0.014 A 
ATOM     38  C   UNL A   1      39.900  24.433  26.694  1.00  0.00     0.010 A 
ATOM     39  C   UNL A   1      41.461  23.302  28.142  1.00  0.00     0.010 A 
ATOM     40  C   UNL A   1      40.978  24.498  27.591  1.00  0.00    -0.014 A 
BRANCH  40  41
ATOM     41  C   UNL A   1      41.591  25.821  27.902  1.00  0.00     0.031 A 
ATOM     42  C   UNL A   1      42.967  26.169  27.394  1.00  0.00     0.074 A 
ATOM     43  C   UNL A   1      40.872  26.748  28.566  1.00  0.00     0.049 A 
ATOM     44  N   UNL A   1      43.648  27.279  27.546  1.00  0.00    -0.248 NA
ATOM     45  C   UNL A   1      43.680  25.140  26.619  1.00  0.00     0.031 C 
ATOM     46  C   UNL A   1      39.523  26.544  29.097  1.00  0.00     0.029 A 
ATOM     47  N   UNL A   1      41.153  28.055  28.874  1.00  0.00    -0.354 N 
ATOM     48  C   UNL A   1      44.867  27.070  26.914  1.00  0.00     0.074 A 
ATOM     49  C   UNL A   1      44.851  25.720  26.398  1.00  0.00     0.031 C 
ATOM     50  C   UNL A   1      39.064  27.703  29.592  1.00  0.00     0.029 A 
ATOM     51  C   UNL A   1      40.113  28.711  29.488  1.00  0.00     0.049 A 
ATOM     52  H   UNL A   1      42.017  28.482  28.675  1.00  0.00     0.167 HD
ATOM     53  C   UNL A   1      45.901  27.933  26.762  1.00  0.00     0.037 A 
ATOM     54  C   UNL A   1      40.016  29.978  29.932  1.00  0.00     0.037 A 
ATOM     55  C   UNL A   1      45.902  29.294  27.231  1.00  0.00     0.049 A 
ATOM     56  C   UNL A   1      41.191  30.900  29.784  1.00  0.00     0.074 A 
ATOM     57  C   UNL A   1      46.894  30.250  27.096  1.00  0.00     0.029 A 
ATOM     58  N   UNL A   1      44.857  29.894  27.917  1.00  0.00    -0.354 N 
ATOM     59  N   UNL A   1      42.341  30.682  29.195  1.00  0.00    -0.248 NA
ATOM     60  C   UNL A   1      41.064  32.237  30.381  1.00  0.00     0.031 C 
ATOM     61  C   UNL A   1      46.463  31.418  27.734  1.00  0.00     0.029 A 
ATOM     62  C   UNL A   1      45.189  31.201  28.231  1.00  0.00     0.049 A 
ATOM     63  H   UNL A   1      44.006  29.455  28.146  1.00  0.00     0.167 HD
ATOM     64  C   UNL A   1      43.074  31.850  29.350  1.00  0.00     0.074 A 
ATOM     65  C   UNL A   1      42.229  32.785  30.062  1.00  0.00     0.031 C 
ATOM     66  C   UNL A   1      44.340  32.117  28.948  1.00  0.00     0.037 A 
BRANCH  53  67
ATOM     67  C   UNL A   1      47.131  27.439  26.056  1.00  0.00     0.064 A 
ATOM     68  C   UNL A   1      47.306  27.612  24.676  1.00  0.00     0.173 A 
ATOM     69  C   UNL A   1      48.179  26.853  26.783  1.00  0.00     0.173 A 
ATOM     70  F   UNL A   1      46.329  28.156  23.934  1.00  0.00    -0.203 F 
ATOM     71  C   UNL A   1      48.480  27.205  24.047  1.00  0.00     0.198 A 
ATOM     72  C   UNL A   1      49.361  26.471  26.155  1.00  0.00     0.198 A 
ATOM     73  F   UNL A   1      48.065  26.673  28.107  1.00  0.00    -0.203 F 
ATOM     74  F   UNL A   1      48.615  27.354  22.721  1.00  0.00    -0.200 F 
ATOM     75  C   UNL A   1      49.510  26.644  24.788  1.00  0.00     0.200 A 
ATOM     76  F   UNL A   1      50.361  25.942  26.875  1.00  0.00    -0.200 F 
ATOM     77  F   UNL A   1      50.646  26.269  24.183  1.00  0.00    -0.200 F 
ENDBRANCH  53  67
BRANCH  54  78
ATOM     78  C   UNL A   1      38.754  30.440  30.568  1.00  0.00     0.064 A 
ATOM     79  C   UNL A   1      37.672  30.869  29.791  1.00  0.00     0.173 A 
ATOM     80  C   UNL A   1      38.598  30.436  31.963  1.00  0.00     0.173 A 
ATOM     81  F   UNL A   1      37.780  30.912  28.455  1.00  0.00    -0.203 F 
ATOM     82  C   UNL A   1      36.478  31.280  30.385  1.00  0.00     0.198 A 
ATOM     83  C   UNL A   1      37.396  30.819  32.553  1.00  0.00     0.198 A 
ATOM     84  F   UNL A   1      39.606  30.034  32.750  1.00  0.00    -0.203 F 
ATOM     85  F   UNL A   1      35.468  31.715  29.620  1.00  0.00    -0.200 F 
ATOM     86  C   UNL A   1      36.339  31.244  31.764  1.00  0.00     0.200 A 
ATOM     87  F   UNL A   1      37.261  30.767  33.885  1.00  0.00    -0.200 F 
ATOM     88  F   UNL A   1      35.187  31.625  32.333  1.00  0.00    -0.200 F 
ENDBRANCH  54  78
BRANCH  66  89
ATOM     89  C   UNL A   1      44.895  33.470  29.271  1.00  0.00     0.064 A 
ATOM     90  C   UNL A   1      45.650  33.686  30.433  1.00  0.00     0.173 A 
ATOM     91  C   UNL A   1      44.730  34.543  28.383  1.00  0.00     0.173 A 
ATOM     92  F   UNL A   1      45.823  32.693  31.319  1.00  0.00    -0.203 F 
ATOM     93  C   UNL A   1      46.210  34.931  30.700  1.00  0.00     0.198 A 
ATOM     94  C   UNL A   1      45.312  35.780  28.641  1.00  0.00     0.198 A 
ATOM     95  F   UNL A   1      44.021  34.385  27.255  1.00  0.00    -0.203 F 
ATOM     96  F   UNL A   1      46.902  35.125  31.831  1.00  0.00    -0.200 F 
ATOM     97  C   UNL A   1      46.048  35.975  29.800  1.00  0.00     0.200 A 
ATOM     98  F   UNL A   1      45.165  36.784  27.765  1.00  0.00    -0.200 F 
ATOM     99  F   UNL A   1      46.601  37.170  30.052  1.00  0.00    -0.200 F 
ENDBRANCH  66  89
ENDBRANCH  40  41
ENDBRANCH  32  35
ENDBRANCH  30  31
ENDBRANCH   1  30
TORSDOF 12
ENDMDL
MODEL 3
REMARK VINA RESULT:     -13.4      2.862      4.029
REMARK SMILES CC(C)c1cccc2c1N[C@H](c1ccc(C(=O)NCCCNC(=O)c3ccc(-c4c5nc(c(-c6c(F)c(F)c(F)c(F)c6F)c6ccc([nH]6)c(-c6c(F)c(F)c(F)c(F)c6F)c6nc(c(-c7c(F)c(F)c(F)c(F)c7F)c7ccc4[nH]7)C=C6)C=C5)cc3)cc1)[C@H]1CC=C[C@H]21
REMARK SMILES IDX 20 1 19 2 18 3 16 4 17 5 15 7 12 8 13 9 89 10 14 11 88 12
REMARK SMILES IDX 11 13 4 14 5 15 9 16 6 17 8 18 10 19 7 20 94 21 90 23 93 24
REMARK SMILES IDX 91 25 92 26 2 27 1 28 3 29 21 30 22 31 23 32 24 34 25 35
REMARK SMILES IDX 26 36 87 37 27 38 86 39 28 40 29 41 30 42 80 43 31 44 85 45
REMARK SMILES IDX 79 46 81 47 32 48 84 49 78 50 77 51 33 53 65 54 45 55 64 56
REMARK SMILES IDX 46 57 49 58 63 59 82 60 47 61 48 62 62 64 83 65 50 66 34 67
REMARK SMILES IDX 35 68 43 69 36 70 37 71 41 72 44 73 38 74 39 75 42 76 40 77
REMARK SMILES IDX 66 78 67 79 75 80 68 81 69 82 73 83 76 84 70 85 71 86 74 87
REMARK SMILES IDX 72 88 51 89 52 90 60 91 53 92 54 93 58 94 61 95 55 96 56 97
REMARK SMILES IDX 59 98 57 99
REMARK H PARENT 18 6 10 22 22 33 81 52 49 63
REMARK Flexibility Score: inf
ROOT
ATOM      1  C   UNL A   1      32.942  28.879  25.572  1.00  0.00     0.042 C 
ENDROOT
BRANCH   1   2
ATOM      2  C   UNL A   1      31.496  28.410  25.571  1.00  0.00     0.118 C 
BRANCH   2   3
ATOM      3  N   UNL A   1      30.894  28.344  24.244  1.00  0.00    -0.352 N 
ATOM      4  C   UNL A   1      30.828  27.294  23.354  1.00  0.00     0.251 C 
ATOM      5  O   UNL A   1      30.321  27.460  22.249  1.00  0.00    -0.269 OA
ATOM      6  H   UNL A   1      30.469  29.178  23.937  1.00  0.00     0.163 HD
BRANCH   4   7
ATOM      7  C   UNL A   1      31.436  25.992  23.703  1.00  0.00     0.039 A 
ATOM      8  C   UNL A   1      32.994  23.855  24.700  1.00  0.00    -0.025 A 
ATOM      9  C   UNL A   1      33.304  24.485  23.478  1.00  0.00     0.006 A 
ATOM     10  C   UNL A   1      31.740  24.168  25.249  1.00  0.00     0.006 A 
ATOM     11  C   UNL A   1      32.546  25.555  22.989  1.00  0.00     0.014 A 
ATOM     12  C   UNL A   1      30.964  25.220  24.757  1.00  0.00     0.014 A 
BRANCH   8  13
ATOM     13  C   UNL A   1      33.953  22.852  25.379  1.00  0.00     0.114 C 
ATOM     14  C   UNL A   1      34.032  19.085  24.496  1.00  0.00    -0.022 A 
ATOM     15  C   UNL A   1      35.014  18.061  24.411  1.00  0.00     0.006 A 
ATOM     16  C   UNL A   1      34.446  20.376  24.916  1.00  0.00     0.042 A 
ATOM     17  C   UNL A   1      36.354  18.280  24.698  1.00  0.00     0.001 A 
ATOM     18  C   UNL A   1      35.829  20.581  25.193  1.00  0.00    -0.017 A 
ATOM     19  N   UNL A   1      33.579  21.465  25.000  1.00  0.00    -0.377 N 
ATOM     20  C   UNL A   1      36.761  19.538  25.095  1.00  0.00     0.006 A 
ATOM     21  C   UNL A   1      36.224  21.916  25.754  1.00  0.00     0.049 C 
ATOM     22  H   UNL A   1      32.632  21.298  24.790  1.00  0.00     0.161 HD
ATOM     23  C   UNL A   1      35.447  23.030  25.038  1.00  0.00     0.031 C 
ATOM     24  C   UNL A   1      37.631  22.422  25.636  1.00  0.00    -0.023 C 
ATOM     25  C   UNL A   1      36.229  24.283  25.454  1.00  0.00     0.034 C 
ATOM     26  C   UNL A   1      37.631  23.755  25.522  1.00  0.00    -0.030 C 
BRANCH  14  27
ATOM     27  C   UNL A   1      32.627  18.601  24.109  1.00  0.00     0.015 C 
ATOM     28  C   UNL A   1      32.267  18.369  22.644  1.00  0.00     0.012 C 
ATOM     29  C   UNL A   1      32.240  17.353  24.919  1.00  0.00     0.012 C 
ENDBRANCH  14  27
ENDBRANCH   8  13
ENDBRANCH   4   7
ENDBRANCH   2   3
ENDBRANCH   1   2
BRANCH   1  30
ATOM     30  C   UNL A   1      33.632  28.796  26.924  1.00  0.00     0.118 C 
BRANCH  30  31
ATOM     31  N   UNL A   1      33.702  30.074  27.624  1.00  0.00    -0.352 N 
ATOM     32  C   UNL A   1      34.707  30.683  28.344  1.00  0.00     0.251 C 
ATOM     33  H   UNL A   1      32.873  30.603  27.571  1.00  0.00     0.163 HD
ATOM     34  O   UNL A   1      34.467  31.720  28.947  1.00  0.00    -0.269 OA
BRANCH  32  35
ATOM     35  C   UNL A   1      36.057  30.076  28.449  1.00  0.00     0.039 A 
ATOM     36  C   UNL A   1      36.464  29.388  29.586  1.00  0.00     0.014 A 
ATOM     37  C   UNL A   1      36.942  30.197  27.371  1.00  0.00     0.014 A 
ATOM     38  C   UNL A   1      37.804  29.060  29.755  1.00  0.00     0.010 A 
ATOM     39  C   UNL A   1      38.262  29.744  27.490  1.00  0.00     0.010 A 
ATOM     40  C   UNL A   1      38.727  29.241  28.714  1.00  0.00    -0.014 A 
BRANCH  40  41
ATOM     41  C   UNL A   1      40.165  28.926  28.948  1.00  0.00     0.031 A 
ATOM     42  C   UNL A   1      41.025  29.838  29.787  1.00  0.00     0.074 A 
ATOM     43  C   UNL A   1      40.678  27.770  28.482  1.00  0.00     0.049 A 
ATOM     44  N   UNL A   1      42.288  29.711  30.116  1.00  0.00    -0.248 NA
ATOM     45  C   UNL A   1      40.393  31.054  30.323  1.00  0.00     0.031 C 
ATOM     46  C   UNL A   1      39.949  26.792  27.672  1.00  0.00     0.029 A 
ATOM     47  N   UNL A   1      41.914  27.199  28.653  1.00  0.00    -0.354 N 
ATOM     48  C   UNL A   1      42.602  30.836  30.869  1.00  0.00     0.074 A 
ATOM     49  C   UNL A   1      41.411  31.652  30.927  1.00  0.00     0.031 C 
ATOM     50  C   UNL A   1      40.720  25.712  27.484  1.00  0.00     0.029 A 
ATOM     51  C   UNL A   1      42.026  25.951  28.089  1.00  0.00     0.049 A 
ATOM     52  H   UNL A   1      42.651  27.642  29.132  1.00  0.00     0.167 HD
ATOM     53  C   UNL A   1      43.774  31.152  31.470  1.00  0.00     0.037 A 
ATOM     54  C   UNL A   1      43.066  25.096  28.050  1.00  0.00     0.037 A 
ATOM     55  C   UNL A   1      44.948  30.319  31.455  1.00  0.00     0.049 A 
ATOM     56  C   UNL A   1      44.363  25.490  28.693  1.00  0.00     0.074 A 
ATOM     57  C   UNL A   1      46.171  30.544  32.062  1.00  0.00     0.029 A 
ATOM     58  N   UNL A   1      45.041  29.097  30.806  1.00  0.00    -0.354 N 
ATOM     59  N   UNL A   1      44.647  26.563  29.389  1.00  0.00    -0.248 NA
ATOM     60  C   UNL A   1      45.492  24.563  28.527  1.00  0.00     0.031 C 
ATOM     61  C   UNL A   1      47.017  29.475  31.749  1.00  0.00     0.029 A 
ATOM     62  C   UNL A   1      46.308  28.566  30.980  1.00  0.00     0.049 A 
ATOM     63  H   UNL A   1      44.314  28.670  30.297  1.00  0.00     0.167 HD
ATOM     64  C   UNL A   1      45.983  26.443  29.743  1.00  0.00     0.074 A 
ATOM     65  C   UNL A   1      46.447  25.179  29.211  1.00  0.00     0.031 C 
ATOM     66  C   UNL A   1      46.758  27.311  30.438  1.00  0.00     0.037 A 
BRANCH  53  67
ATOM     67  C   UNL A   1      43.858  32.459  32.205  1.00  0.00     0.064 A 
ATOM     68  C   UNL A   1      44.229  33.645  31.555  1.00  0.00     0.173 A 
ATOM     69  C   UNL A   1      43.488  32.539  33.556  1.00  0.00     0.173 A 
ATOM     70  F   UNL A   1      44.602  33.620  30.266  1.00  0.00    -0.203 F 
ATOM     71  C   UNL A   1      44.241  34.860  32.235  1.00  0.00     0.198 A 
ATOM     72  C   UNL A   1      43.476  33.758  34.226  1.00  0.00     0.198 A 
ATOM     73  F   UNL A   1      43.117  31.434  34.222  1.00  0.00    -0.203 F 
ATOM     74  F   UNL A   1      44.627  35.977  31.602  1.00  0.00    -0.200 F 
ATOM     75  C   UNL A   1      43.855  34.918  33.566  1.00  0.00     0.200 A 
ATOM     76  F   UNL A   1      43.091  33.815  35.508  1.00  0.00    -0.200 F 
ATOM     77  F   UNL A   1      43.851  36.091  34.214  1.00  0.00    -0.200 F 
ENDBRANCH  53  67
BRANCH  54  78
ATOM     78  C   UNL A   1      42.915  23.786  27.364  1.00  0.00     0.064 A 
ATOM     79  C   UNL A   1      42.334  22.694  28.019  1.00  0.00     0.173 A 
ATOM     80  C   UNL A   1      43.325  23.608  26.034  1.00  0.00     0.173 A 
ATOM     81  F   UNL A   1      41.947  22.807  29.299  1.00  0.00    -0.203 F 
ATOM     82  C   UNL A   1      42.170  21.470  27.371  1.00  0.00     0.198 A 
ATOM     83  C   UNL A   1      43.134  22.395  25.378  1.00  0.00     0.198 A 
ATOM     84  F   UNL A   1      43.886  24.625  25.363  1.00  0.00    -0.203 F 
ATOM     85  F   UNL A   1      41.639  20.431  28.030  1.00  0.00    -0.200 F 
ATOM     86  C   UNL A   1      42.561  21.326  26.048  1.00  0.00     0.200 A 
ATOM     87  F   UNL A   1      43.498  22.266  24.095  1.00  0.00    -0.200 F 
ATOM     88  F   UNL A   1      42.388  20.155  25.420  1.00  0.00    -0.200 F 
ENDBRANCH  54  78
BRANCH  66  89
ATOM     89  C   UNL A   1      48.190  26.931  30.660  1.00  0.00     0.064 A 
ATOM     90  C   UNL A   1      48.559  26.080  31.712  1.00  0.00     0.173 A 
ATOM     91  C   UNL A   1      49.191  27.364  29.780  1.00  0.00     0.173 A 
ATOM     92  F   UNL A   1      47.638  25.651  32.588  1.00  0.00    -0.203 F 
ATOM     93  C   UNL A   1      49.883  25.685  31.880  1.00  0.00     0.198 A 
ATOM     94  C   UNL A   1      50.510  26.948  29.936  1.00  0.00     0.198 A 
ATOM     95  F   UNL A   1      48.886  28.174  28.755  1.00  0.00    -0.203 F 
ATOM     96  F   UNL A   1      50.220  24.897  32.910  1.00  0.00    -0.200 F 
ATOM     97  C   UNL A   1      50.856  26.113  30.987  1.00  0.00     0.200 A 
ATOM     98  F   UNL A   1      51.446  27.351  29.066  1.00  0.00    -0.200 F 
ATOM     99  F   UNL A   1      52.128  25.720  31.143  1.00  0.00    -0.200 F 
ENDBRANCH  66  89
ENDBRANCH  40  41
ENDBRANCH  32  35
ENDBRANCH  30  31
ENDBRANCH   1  30
TORSDOF 12
ENDMDL
