MODEL 1
REMARK VINA RESULT:     -13.7      0.000      0.000
REMARK SMILES CCN(c1cccc(C)c1)c1nc(OCC(=O)NCCCNC(=O)c2ccc(-c3c4nc(c(-c5c(F)c(F)c(F)c(F)c5F)c5ccc([nH]5)c(-c5c(F)c(F)c(F)c(F)c5F)c5nc(c(-c6c(F)c(F)c(F)c(F)c6F)c6ccc3[nH]6)C=C5)C=C4)cc2)cc(-c2ccc(C)cc2)n1
REMARK SMILES IDX 19 1 18 2 16 3 17 4 15 6 14 7 13 8 11 9 12 10 97 11 89 12
REMARK SMILES IDX 88 13 3 14 2 15 1 16 4 17 5 18 10 19 6 20 8 21 7 22 9 23
REMARK SMILES IDX 90 24 91 25 96 26 92 27 95 28 93 29 94 30 20 31 21 32 22 33
REMARK SMILES IDX 23 34 24 36 25 37 26 38 87 39 27 40 86 41 28 42 29 43 30 44
REMARK SMILES IDX 80 45 31 46 85 47 79 48 81 49 32 50 84 51 78 52 77 53 33 55
REMARK SMILES IDX 65 56 45 57 64 58 46 59 49 60 63 61 82 62 47 63 48 64 62 66
REMARK SMILES IDX 83 67 50 68 34 69 35 70 43 71 36 72 37 73 41 74 44 75 38 76
REMARK SMILES IDX 39 77 42 78 40 79 66 80 67 81 75 82 68 83 69 84 73 85 76 86
REMARK SMILES IDX 70 87 71 88 74 89 72 90 51 91 52 92 60 93 53 94 54 95 58 96
REMARK SMILES IDX 61 97 55 98 56 99 59 100 57 101
REMARK H PARENT 18 5 22 35 81 54 49 65
REMARK Flexibility Score: inf
ROOT
ATOM      1  C   UNL A   1      36.186  21.742  25.168  1.00  0.00     0.117 C 
ENDROOT
BRANCH   1   2
ATOM      2  N   UNL A   1      35.606  21.938  26.488  1.00  0.00    -0.353 N 
ATOM      3  C   UNL A   1      34.474  22.625  26.825  1.00  0.00     0.258 C 
ATOM      4  O   UNL A   1      34.139  22.662  28.010  1.00  0.00    -0.271 OA
ATOM      5  H   UNL A   1      36.092  21.521  27.235  1.00  0.00     0.163 HD
BRANCH   3   6
ATOM      6  C   UNL A   1      33.647  23.331  25.739  1.00  0.00     0.331 C 
BRANCH   6   7
ATOM      7  O   UNL A   1      32.526  24.077  26.182  1.00  0.00    -0.467 OA
BRANCH   7   8
ATOM      8  C   UNL A   1      32.452  25.394  25.821  1.00  0.00     0.219 A 
ATOM      9  C   UNL A   1      31.652  26.828  24.193  1.00  0.00     0.233 A 
ATOM     10  N   UNL A   1      31.745  25.583  24.698  1.00  0.00    -0.177 NA
ATOM     11  N   UNL A   1      32.250  27.880  24.772  1.00  0.00    -0.212 NA
ATOM     12  C   UNL A   1      32.901  27.676  25.931  1.00  0.00     0.080 A 
ATOM     13  C   UNL A   1      33.024  26.432  26.504  1.00  0.00     0.097 A 
BRANCH   9  14
ATOM     14  N   UNL A   1      30.887  27.017  23.030  1.00  0.00    -0.311 N 
BRANCH  14  15
ATOM     15  C   UNL A   1      31.348  26.308  21.831  1.00  0.00     0.122 C 
ATOM     16  C   UNL A   1      32.841  26.462  21.567  1.00  0.00     0.028 C 
ENDBRANCH  14  15
BRANCH  14  17
ATOM     17  C   UNL A   1      29.729  27.815  22.959  1.00  0.00     0.044 A 
ATOM     18  C   UNL A   1      28.499  27.419  23.501  1.00  0.00     0.026 A 
ATOM     19  C   UNL A   1      29.779  29.076  22.332  1.00  0.00     0.029 A 
ATOM     20  C   UNL A   1      27.365  28.236  23.410  1.00  0.00     0.002 A 
ATOM     21  C   UNL A   1      28.649  29.903  22.224  1.00  0.00    -0.049 A 
ATOM     22  C   UNL A   1      27.438  29.469  22.767  1.00  0.00     0.003 A 
ATOM     23  C   UNL A   1      28.753  31.219  21.512  1.00  0.00     0.044 C 
ENDBRANCH  14  17
ENDBRANCH   9  14
BRANCH  12  24
ATOM     24  C   UNL A   1      33.444  28.857  26.606  1.00  0.00     0.000 A 
ATOM     25  C   UNL A   1      32.677  30.025  26.744  1.00  0.00     0.010 A 
ATOM     26  C   UNL A   1      34.779  28.883  27.038  1.00  0.00     0.010 A 
ATOM     27  C   UNL A   1      33.237  31.195  27.261  1.00  0.00     0.004 A 
ATOM     28  C   UNL A   1      35.344  30.057  27.545  1.00  0.00     0.004 A 
ATOM     29  C   UNL A   1      34.580  31.225  27.649  1.00  0.00    -0.051 A 
ATOM     30  C   UNL A   1      35.214  32.496  28.130  1.00  0.00     0.044 C 
ENDBRANCH  12  24
ENDBRANCH   7   8
ENDBRANCH   6   7
ENDBRANCH   3   6
ENDBRANCH   1   2
BRANCH   1  31
ATOM     31  C   UNL A   1      37.175  22.839  24.790  1.00  0.00     0.042 C 
BRANCH  31  32
ATOM     32  C   UNL A   1      37.829  23.508  25.991  1.00  0.00     0.118 C 
BRANCH  32  33
ATOM     33  N   UNL A   1      39.271  23.292  26.092  1.00  0.00    -0.352 N 
ATOM     34  C   UNL A   1      40.249  24.160  26.541  1.00  0.00     0.251 C 
ATOM     35  H   UNL A   1      39.590  22.407  25.801  1.00  0.00     0.163 HD
ATOM     36  O   UNL A   1      41.431  23.826  26.531  1.00  0.00    -0.269 OA
BRANCH  34  37
ATOM     37  C   UNL A   1      39.849  25.448  27.153  1.00  0.00     0.039 A 
ATOM     38  C   UNL A   1      40.284  26.631  26.547  1.00  0.00     0.014 A 
ATOM     39  C   UNL A   1      39.240  25.487  28.405  1.00  0.00     0.014 A 
ATOM     40  C   UNL A   1      40.344  27.803  27.299  1.00  0.00     0.010 A 
ATOM     41  C   UNL A   1      39.377  26.622  29.181  1.00  0.00     0.010 A 
ATOM     42  C   UNL A   1      39.996  27.758  28.651  1.00  0.00    -0.014 A 
BRANCH  42  43
ATOM     43  C   UNL A   1      40.330  28.820  29.591  1.00  0.00     0.031 A 
ATOM     44  C   UNL A   1      39.324  29.821  29.991  1.00  0.00     0.074 A 
ATOM     45  C   UNL A   1      41.566  28.898  30.132  1.00  0.00     0.049 A 
ATOM     46  N   UNL A   1      39.621  31.035  30.319  1.00  0.00    -0.248 NA
ATOM     47  C   UNL A   1      37.898  29.537  30.037  1.00  0.00     0.031 C 
ATOM     48  C   UNL A   1      41.992  29.764  31.229  1.00  0.00     0.029 A 
ATOM     49  N   UNL A   1      42.759  28.336  29.652  1.00  0.00    -0.354 N 
ATOM     50  C   UNL A   1      38.499  31.602  30.868  1.00  0.00     0.074 A 
ATOM     51  C   UNL A   1      37.435  30.655  30.607  1.00  0.00     0.031 C 
ATOM     52  C   UNL A   1      43.318  29.944  31.148  1.00  0.00     0.029 A 
ATOM     53  C   UNL A   1      43.772  29.288  29.938  1.00  0.00     0.049 A 
ATOM     54  H   UNL A   1      42.870  27.464  29.209  1.00  0.00     0.167 HD
ATOM     55  C   UNL A   1      38.609  32.748  31.601  1.00  0.00     0.037 A 
ATOM     56  C   UNL A   1      44.516  29.856  28.945  1.00  0.00     0.037 A 
ATOM     57  C   UNL A   1      39.991  33.212  31.700  1.00  0.00     0.049 A 
ATOM     58  C   UNL A   1      44.397  31.361  28.849  1.00  0.00     0.074 A 
ATOM     59  C   UNL A   1      40.965  33.128  32.681  1.00  0.00     0.029 A 
ATOM     60  N   UNL A   1      40.644  33.641  30.558  1.00  0.00    -0.354 N 
ATOM     61  N   UNL A   1      43.653  32.091  29.630  1.00  0.00    -0.248 NA
ATOM     62  C   UNL A   1      45.014  32.144  27.777  1.00  0.00     0.031 C 
ATOM     63  C   UNL A   1      42.202  33.562  32.127  1.00  0.00     0.029 A 
ATOM     64  C   UNL A   1      41.979  33.897  30.806  1.00  0.00     0.049 A 
ATOM     65  H   UNL A   1      40.212  33.749  29.681  1.00  0.00     0.167 HD
ATOM     66  C   UNL A   1      43.613  33.374  29.150  1.00  0.00     0.074 A 
ATOM     67  C   UNL A   1      44.483  33.360  27.990  1.00  0.00     0.031 C 
ATOM     68  C   UNL A   1      42.826  34.338  29.711  1.00  0.00     0.037 A 
BRANCH  55  69
ATOM     69  C   UNL A   1      37.483  33.303  32.438  1.00  0.00     0.064 A 
ATOM     70  C   UNL A   1      36.458  34.082  31.861  1.00  0.00     0.173 A 
ATOM     71  C   UNL A   1      37.377  33.124  33.829  1.00  0.00     0.173 A 
ATOM     72  F   UNL A   1      36.354  34.236  30.535  1.00  0.00    -0.203 F 
ATOM     73  C   UNL A   1      35.495  34.741  32.628  1.00  0.00     0.198 A 
ATOM     74  C   UNL A   1      36.451  33.828  34.604  1.00  0.00     0.198 A 
ATOM     75  F   UNL A   1      38.142  32.229  34.472  1.00  0.00    -0.203 F 
ATOM     76  F   UNL A   1      34.554  35.478  32.022  1.00  0.00    -0.200 F 
ATOM     77  C   UNL A   1      35.519  34.651  34.004  1.00  0.00     0.200 A 
ATOM     78  F   UNL A   1      36.472  33.707  35.940  1.00  0.00    -0.200 F 
ATOM     79  F   UNL A   1      34.634  35.332  34.744  1.00  0.00    -0.200 F 
ENDBRANCH  55  69
BRANCH  56  80
ATOM     80  C   UNL A   1      44.702  28.931  27.797  1.00  0.00     0.064 A 
ATOM     81  C   UNL A   1      45.449  27.757  28.022  1.00  0.00     0.173 A 
ATOM     82  C   UNL A   1      43.823  28.947  26.709  1.00  0.00     0.173 A 
ATOM     83  F   UNL A   1      46.317  27.699  29.046  1.00  0.00    -0.203 F 
ATOM     84  C   UNL A   1      45.181  26.591  27.312  1.00  0.00     0.198 A 
ATOM     85  C   UNL A   1      43.590  27.788  25.973  1.00  0.00     0.198 A 
ATOM     86  F   UNL A   1      43.091  30.037  26.442  1.00  0.00    -0.203 F 
ATOM     87  F   UNL A   1      45.771  25.441  27.668  1.00  0.00    -0.200 F 
ATOM     88  C   UNL A   1      44.224  26.600  26.312  1.00  0.00     0.200 A 
ATOM     89  F   UNL A   1      42.668  27.796  25.000  1.00  0.00    -0.200 F 
ATOM     90  F   UNL A   1      43.877  25.454  25.710  1.00  0.00    -0.200 F 
ENDBRANCH  56  80
BRANCH  68  91
ATOM     91  C   UNL A   1      42.776  35.773  29.254  1.00  0.00     0.064 A 
ATOM     92  C   UNL A   1      42.178  36.165  28.045  1.00  0.00     0.173 A 
ATOM     93  C   UNL A   1      43.433  36.799  29.972  1.00  0.00     0.173 A 
ATOM     94  F   UNL A   1      41.621  35.262  27.226  1.00  0.00    -0.203 F 
ATOM     95  C   UNL A   1      42.166  37.499  27.627  1.00  0.00     0.198 A 
ATOM     96  C   UNL A   1      43.468  38.118  29.525  1.00  0.00     0.198 A 
ATOM     97  F   UNL A   1      44.051  36.558  31.136  1.00  0.00    -0.203 F 
ATOM     98  F   UNL A   1      41.527  37.835  26.498  1.00  0.00    -0.200 F 
ATOM     99  C   UNL A   1      42.815  38.474  28.364  1.00  0.00     0.200 A 
ATOM    100  F   UNL A   1      44.131  39.042  30.234  1.00  0.00    -0.200 F 
ATOM    101  F   UNL A   1      42.817  39.748  27.952  1.00  0.00    -0.200 F 
ENDBRANCH  68  91
ENDBRANCH  42  43
ENDBRANCH  34  37
ENDBRANCH  32  33
ENDBRANCH  31  32
ENDBRANCH   1  31
TORSDOF 16
ENDMDL
MODEL 2
REMARK VINA RESULT:     -13.6      3.933     10.339
REMARK SMILES CCN(c1cccc(C)c1)c1nc(OCC(=O)NCCCNC(=O)c2ccc(-c3c4nc(c(-c5c(F)c(F)c(F)c(F)c5F)c5ccc([nH]5)c(-c5c(F)c(F)c(F)c(F)c5F)c5nc(c(-c6c(F)c(F)c(F)c(F)c6F)c6ccc3[nH]6)C=C5)C=C4)cc2)cc(-c2ccc(C)cc2)n1
REMARK SMILES IDX 19 1 18 2 16 3 17 4 15 6 14 7 13 8 11 9 12 10 97 11 89 12
REMARK SMILES IDX 88 13 3 14 2 15 1 16 4 17 5 18 10 19 6 20 8 21 7 22 9 23
REMARK SMILES IDX 90 24 91 25 96 26 92 27 95 28 93 29 94 30 20 31 21 32 22 33
REMARK SMILES IDX 23 34 24 36 25 37 26 38 87 39 27 40 86 41 28 42 29 43 30 44
REMARK SMILES IDX 80 45 31 46 85 47 79 48 81 49 32 50 84 51 78 52 77 53 33 55
REMARK SMILES IDX 65 56 45 57 64 58 46 59 49 60 63 61 82 62 47 63 48 64 62 66
REMARK SMILES IDX 83 67 50 68 34 69 35 70 43 71 36 72 37 73 41 74 44 75 38 76
REMARK SMILES IDX 39 77 42 78 40 79 66 80 67 81 75 82 68 83 69 84 73 85 76 86
REMARK SMILES IDX 70 87 71 88 74 89 72 90 51 91 52 92 60 93 53 94 54 95 58 96
REMARK SMILES IDX 61 97 55 98 56 99 59 100 57 101
REMARK H PARENT 18 5 22 35 81 54 49 65
REMARK Flexibility Score: inf
ROOT
ATOM      1  C   UNL A   1      32.475  29.745  26.054  1.00  0.00     0.117 C 
ENDROOT
BRANCH   1   2
ATOM      2  N   UNL A   1      33.128  29.699  24.754  1.00  0.00    -0.353 N 
ATOM      3  C   UNL A   1      33.505  28.603  24.031  1.00  0.00     0.258 C 
ATOM      4  O   UNL A   1      34.037  28.776  22.932  1.00  0.00    -0.271 OA
ATOM      5  H   UNL A   1      33.323  30.571  24.342  1.00  0.00     0.163 HD
BRANCH   3   6
ATOM      6  C   UNL A   1      33.266  27.190  24.587  1.00  0.00     0.331 C 
BRANCH   6   7
ATOM      7  O   UNL A   1      33.412  26.117  23.674  1.00  0.00    -0.467 OA
BRANCH   7   8
ATOM      8  C   UNL A   1      33.882  24.927  24.156  1.00  0.00     0.219 A 
ATOM      9  C   UNL A   1      33.237  22.798  24.790  1.00  0.00     0.233 A 
ATOM     10  N   UNL A   1      32.922  23.997  24.263  1.00  0.00    -0.177 NA
ATOM     11  N   UNL A   1      34.475  22.510  25.220  1.00  0.00    -0.212 NA
ATOM     12  C   UNL A   1      35.434  23.436  25.046  1.00  0.00     0.080 A 
ATOM     13  C   UNL A   1      35.181  24.675  24.504  1.00  0.00     0.097 A 
BRANCH   9  14
ATOM     14  N   UNL A   1      32.228  21.824  24.873  1.00  0.00    -0.311 N 
BRANCH  14  15
ATOM     15  C   UNL A   1      30.991  22.230  25.550  1.00  0.00     0.122 C 
ATOM     16  C   UNL A   1      31.228  22.984  26.853  1.00  0.00     0.028 C 
ENDBRANCH  14  15
BRANCH  14  17
ATOM     17  C   UNL A   1      32.333  20.522  24.345  1.00  0.00     0.044 A 
ATOM     18  C   UNL A   1      32.241  20.250  22.973  1.00  0.00     0.026 A 
ATOM     19  C   UNL A   1      32.549  19.428  25.205  1.00  0.00     0.029 A 
ATOM     20  C   UNL A   1      32.346  18.943  22.482  1.00  0.00     0.002 A 
ATOM     21  C   UNL A   1      32.646  18.110  24.728  1.00  0.00    -0.049 A 
ATOM     22  C   UNL A   1      32.540  17.877  23.357  1.00  0.00     0.003 A 
ATOM     23  C   UNL A   1      32.839  16.980  25.695  1.00  0.00     0.044 C 
ENDBRANCH  14  17
ENDBRANCH   9  14
BRANCH  12  24
ATOM     24  C   UNL A   1      36.801  23.056  25.412  1.00  0.00     0.000 A 
ATOM     25  C   UNL A   1      37.288  21.767  25.140  1.00  0.00     0.010 A 
ATOM     26  C   UNL A   1      37.618  23.937  26.135  1.00  0.00     0.010 A 
ATOM     27  C   UNL A   1      38.537  21.358  25.612  1.00  0.00     0.004 A 
ATOM     28  C   UNL A   1      38.865  23.525  26.617  1.00  0.00     0.004 A 
ATOM     29  C   UNL A   1      39.328  22.228  26.368  1.00  0.00    -0.051 A 
ATOM     30  C   UNL A   1      40.634  21.774  26.946  1.00  0.00     0.044 C 
ENDBRANCH  12  24
ENDBRANCH   7   8
ENDBRANCH   6   7
ENDBRANCH   3   6
ENDBRANCH   1   2
BRANCH   1  31
ATOM     31  C   UNL A   1      33.404  29.343  27.194  1.00  0.00     0.042 C 
BRANCH  31  32
ATOM     32  C   UNL A   1      34.702  30.139  27.231  1.00  0.00     0.118 C 
BRANCH  32  33
ATOM     33  N   UNL A   1      34.945  30.842  28.489  1.00  0.00    -0.352 N 
ATOM     34  C   UNL A   1      35.946  30.632  29.419  1.00  0.00     0.251 C 
ATOM     35  H   UNL A   1      34.310  31.562  28.703  1.00  0.00     0.163 HD
ATOM     36  O   UNL A   1      35.988  31.298  30.451  1.00  0.00    -0.269 OA
BRANCH  34  37
ATOM     37  C   UNL A   1      37.041  29.686  29.105  1.00  0.00     0.039 A 
ATOM     38  C   UNL A   1      37.393  28.739  30.072  1.00  0.00     0.014 A 
ATOM     39  C   UNL A   1      37.837  29.863  27.976  1.00  0.00     0.014 A 
ATOM     40  C   UNL A   1      38.663  28.163  30.035  1.00  0.00     0.010 A 
ATOM     41  C   UNL A   1      39.126  29.363  27.981  1.00  0.00     0.010 A 
ATOM     42  C   UNL A   1      39.562  28.572  29.048  1.00  0.00    -0.014 A 
BRANCH  42  43
ATOM     43  C   UNL A   1      40.991  28.291  29.112  1.00  0.00     0.031 A 
ATOM     44  C   UNL A   1      41.558  27.096  28.461  1.00  0.00     0.074 A 
ATOM     45  C   UNL A   1      41.830  29.133  29.756  1.00  0.00     0.049 A 
ATOM     46  N   UNL A   1      42.604  26.477  28.898  1.00  0.00    -0.248 NA
ATOM     47  C   UNL A   1      40.978  26.493  27.270  1.00  0.00     0.031 C 
ATOM     48  C   UNL A   1      43.291  29.103  29.735  1.00  0.00     0.029 A 
ATOM     49  N   UNL A   1      41.518  30.084  30.739  1.00  0.00    -0.354 N 
ATOM     50  C   UNL A   1      42.993  25.587  27.930  1.00  0.00     0.074 A 
ATOM     51  C   UNL A   1      41.912  25.583  26.967  1.00  0.00     0.031 C 
ATOM     52  C   UNL A   1      43.752  29.714  30.835  1.00  0.00     0.029 A 
ATOM     53  C   UNL A   1      42.605  30.062  31.651  1.00  0.00     0.049 A 
ATOM     54  H   UNL A   1      40.713  30.648  30.787  1.00  0.00     0.167 HD
ATOM     55  C   UNL A   1      44.245  25.044  27.973  1.00  0.00     0.037 A 
ATOM     56  C   UNL A   1      42.426  29.743  32.965  1.00  0.00     0.037 A 
ATOM     57  C   UNL A   1      45.024  25.537  29.107  1.00  0.00     0.049 A 
ATOM     58  C   UNL A   1      43.193  28.525  33.430  1.00  0.00     0.074 A 
ATOM     59  C   UNL A   1      46.017  26.493  29.248  1.00  0.00     0.029 A 
ATOM     60  N   UNL A   1      44.623  25.219  30.392  1.00  0.00    -0.354 N 
ATOM     61  N   UNL A   1      43.970  27.810  32.667  1.00  0.00    -0.248 NA
ATOM     62  C   UNL A   1      43.041  27.945  34.765  1.00  0.00     0.031 C 
ATOM     63  C   UNL A   1      46.243  26.706  30.636  1.00  0.00     0.029 A 
ATOM     64  C   UNL A   1      45.378  25.888  31.337  1.00  0.00     0.049 A 
ATOM     65  H   UNL A   1      43.893  24.595  30.606  1.00  0.00     0.167 HD
ATOM     66  C   UNL A   1      44.346  26.675  33.337  1.00  0.00     0.074 A 
ATOM     67  C   UNL A   1      43.742  26.806  34.648  1.00  0.00     0.031 C 
ATOM     68  C   UNL A   1      45.081  25.688  32.744  1.00  0.00     0.037 A 
BRANCH  55  69
ATOM     69  C   UNL A   1      44.842  24.256  26.833  1.00  0.00     0.064 A 
ATOM     70  C   UNL A   1      44.565  22.882  26.671  1.00  0.00     0.173 A 
ATOM     71  C   UNL A   1      45.723  24.799  25.881  1.00  0.00     0.173 A 
ATOM     72  F   UNL A   1      43.651  22.255  27.421  1.00  0.00    -0.203 F 
ATOM     73  C   UNL A   1      45.225  22.092  25.727  1.00  0.00     0.198 A 
ATOM     74  C   UNL A   1      46.427  23.999  24.974  1.00  0.00     0.198 A 
ATOM     75  F   UNL A   1      45.896  26.124  25.773  1.00  0.00    -0.203 F 
ATOM     76  F   UNL A   1      44.929  20.788  25.629  1.00  0.00    -0.200 F 
ATOM     77  C   UNL A   1      46.190  22.642  24.909  1.00  0.00     0.200 A 
ATOM     78  F   UNL A   1      47.342  24.556  24.167  1.00  0.00    -0.200 F 
ATOM     79  F   UNL A   1      46.866  21.872  24.046  1.00  0.00    -0.200 F 
ENDBRANCH  55  69
BRANCH  56  80
ATOM     80  C   UNL A   1      41.085  30.155  33.456  1.00  0.00     0.064 A 
ATOM     81  C   UNL A   1      40.830  31.537  33.566  1.00  0.00     0.173 A 
ATOM     82  C   UNL A   1      39.987  29.294  33.360  1.00  0.00     0.173 A 
ATOM     83  F   UNL A   1      41.852  32.402  33.676  1.00  0.00    -0.203 F 
ATOM     84  C   UNL A   1      39.547  32.044  33.390  1.00  0.00     0.198 A 
ATOM     85  C   UNL A   1      38.698  29.806  33.227  1.00  0.00     0.198 A 
ATOM     86  F   UNL A   1      40.167  27.970  33.258  1.00  0.00    -0.203 F 
ATOM     87  F   UNL A   1      39.356  33.370  33.315  1.00  0.00    -0.200 F 
ATOM     88  C   UNL A   1      38.487  31.177  33.184  1.00  0.00     0.200 A 
ATOM     89  F   UNL A   1      37.670  28.968  33.033  1.00  0.00    -0.200 F 
ATOM     90  F   UNL A   1      37.273  31.664  32.894  1.00  0.00    -0.200 F 
ENDBRANCH  56  80
BRANCH  68  91
ATOM     91  C   UNL A   1      45.559  24.443  33.444  1.00  0.00     0.064 A 
ATOM     92  C   UNL A   1      44.715  23.353  33.716  1.00  0.00     0.173 A 
ATOM     93  C   UNL A   1      46.868  24.348  33.970  1.00  0.00     0.173 A 
ATOM     94  F   UNL A   1      43.422  23.376  33.363  1.00  0.00    -0.203 F 
ATOM     95  C   UNL A   1      45.172  22.217  34.390  1.00  0.00     0.198 A 
ATOM     96  C   UNL A   1      47.305  23.238  34.689  1.00  0.00     0.198 A 
ATOM     97  F   UNL A   1      47.770  25.322  33.789  1.00  0.00    -0.203 F 
ATOM     98  F   UNL A   1      44.349  21.175  34.569  1.00  0.00    -0.200 F 
ATOM     99  C   UNL A   1      46.465  22.161  34.881  1.00  0.00     0.200 A 
ATOM    100  F   UNL A   1      48.549  23.217  35.188  1.00  0.00    -0.200 F 
ATOM    101  F   UNL A   1      46.896  21.079  35.542  1.00  0.00    -0.200 F 
ENDBRANCH  68  91
ENDBRANCH  42  43
ENDBRANCH  34  37
ENDBRANCH  32  33
ENDBRANCH  31  32
ENDBRANCH   1  31
TORSDOF 16
ENDMDL
MODEL 3
REMARK VINA RESULT:     -13.1      3.785      9.694
REMARK SMILES CCN(c1cccc(C)c1)c1nc(OCC(=O)NCCCNC(=O)c2ccc(-c3c4nc(c(-c5c(F)c(F)c(F)c(F)c5F)c5ccc([nH]5)c(-c5c(F)c(F)c(F)c(F)c5F)c5nc(c(-c6c(F)c(F)c(F)c(F)c6F)c6ccc3[nH]6)C=C5)C=C4)cc2)cc(-c2ccc(C)cc2)n1
REMARK SMILES IDX 19 1 18 2 16 3 17 4 15 6 14 7 13 8 11 9 12 10 97 11 89 12
REMARK SMILES IDX 88 13 3 14 2 15 1 16 4 17 5 18 10 19 6 20 8 21 7 22 9 23
REMARK SMILES IDX 90 24 91 25 96 26 92 27 95 28 93 29 94 30 20 31 21 32 22 33
REMARK SMILES IDX 23 34 24 36 25 37 26 38 87 39 27 40 86 41 28 42 29 43 30 44
REMARK SMILES IDX 80 45 31 46 85 47 79 48 81 49 32 50 84 51 78 52 77 53 33 55
REMARK SMILES IDX 65 56 45 57 64 58 46 59 49 60 63 61 82 62 47 63 48 64 62 66
REMARK SMILES IDX 83 67 50 68 34 69 35 70 43 71 36 72 37 73 41 74 44 75 38 76
REMARK SMILES IDX 39 77 42 78 40 79 66 80 67 81 75 82 68 83 69 84 73 85 76 86
REMARK SMILES IDX 70 87 71 88 74 89 72 90 51 91 52 92 60 93 53 94 54 95 58 96
REMARK SMILES IDX 61 97 55 98 56 99 59 100 57 101
REMARK H PARENT 18 5 22 35 81 54 49 65
REMARK Flexibility Score: inf
ROOT
ATOM      1  C   UNL A   1      34.242  32.726  28.426  1.00  0.00     0.117 C 
ENDROOT
BRANCH   1   2
ATOM      2  N   UNL A   1      35.049  31.560  28.754  1.00  0.00    -0.353 N 
ATOM      3  C   UNL A   1      35.071  30.342  28.138  1.00  0.00     0.258 C 
ATOM      4  O   UNL A   1      35.844  29.480  28.562  1.00  0.00    -0.271 OA
ATOM      5  H   UNL A   1      35.659  31.664  29.520  1.00  0.00     0.163 HD
BRANCH   3   6
ATOM      6  C   UNL A   1      34.146  30.064  26.942  1.00  0.00     0.331 C 
BRANCH   6   7
ATOM      7  O   UNL A   1      32.867  29.531  27.240  1.00  0.00    -0.467 OA
BRANCH   7   8
ATOM      8  C   UNL A   1      32.089  29.114  26.196  1.00  0.00     0.219 A 
ATOM      9  C   UNL A   1      31.464  27.248  24.980  1.00  0.00     0.233 A 
ATOM     10  N   UNL A   1      32.132  27.785  26.019  1.00  0.00    -0.177 NA
ATOM     11  N   UNL A   1      30.767  27.999  24.114  1.00  0.00    -0.212 NA
ATOM     12  C   UNL A   1      30.688  29.322  24.348  1.00  0.00     0.080 A 
ATOM     13  C   UNL A   1      31.338  29.930  25.397  1.00  0.00     0.097 A 
BRANCH   9  14
ATOM     14  N   UNL A   1      31.496  25.853  24.821  1.00  0.00    -0.311 N 
BRANCH  14  15
ATOM     15  C   UNL A   1      30.324  25.250  24.175  1.00  0.00     0.122 C 
ATOM     16  C   UNL A   1      30.658  24.036  23.315  1.00  0.00     0.028 C 
ENDBRANCH  14  15
BRANCH  14  17
ATOM     17  C   UNL A   1      32.565  25.029  25.222  1.00  0.00     0.044 A 
ATOM     18  C   UNL A   1      33.815  25.044  24.589  1.00  0.00     0.026 A 
ATOM     19  C   UNL A   1      32.406  24.149  26.311  1.00  0.00     0.029 A 
ATOM     20  C   UNL A   1      34.855  24.208  25.012  1.00  0.00     0.002 A 
ATOM     21  C   UNL A   1      33.437  23.298  26.741  1.00  0.00    -0.049 A 
ATOM     22  C   UNL A   1      34.665  23.334  26.079  1.00  0.00     0.003 A 
ATOM     23  C   UNL A   1      33.198  22.355  27.883  1.00  0.00     0.044 C 
ENDBRANCH  14  17
ENDBRANCH   9  14
BRANCH  12  24
ATOM     24  C   UNL A   1      29.825  30.105  23.460  1.00  0.00     0.000 A 
ATOM     25  C   UNL A   1      29.619  29.713  22.127  1.00  0.00     0.010 A 
ATOM     26  C   UNL A   1      29.269  31.318  23.890  1.00  0.00     0.010 A 
ATOM     27  C   UNL A   1      28.913  30.530  21.240  1.00  0.00     0.004 A 
ATOM     28  C   UNL A   1      28.572  32.142  23.001  1.00  0.00     0.004 A 
ATOM     29  C   UNL A   1      28.399  31.758  21.666  1.00  0.00    -0.051 A 
ATOM     30  C   UNL A   1      27.709  32.678  20.705  1.00  0.00     0.044 C 
ENDBRANCH  12  24
ENDBRANCH   7   8
ENDBRANCH   6   7
ENDBRANCH   3   6
ENDBRANCH   1   2
BRANCH   1  31
ATOM     31  C   UNL A   1      34.285  33.796  29.512  1.00  0.00     0.042 C 
BRANCH  31  32
ATOM     32  C   UNL A   1      34.494  33.235  30.911  1.00  0.00     0.118 C 
BRANCH  32  33
ATOM     33  N   UNL A   1      34.003  34.093  31.987  1.00  0.00    -0.352 N 
ATOM     34  C   UNL A   1      34.659  34.513  33.130  1.00  0.00     0.251 C 
ATOM     35  H   UNL A   1      33.079  34.416  31.885  1.00  0.00     0.163 HD
ATOM     36  O   UNL A   1      34.082  35.215  33.957  1.00  0.00    -0.269 OA
BRANCH  34  37
ATOM     37  C   UNL A   1      36.100  34.216  33.288  1.00  0.00     0.039 A 
ATOM     38  C   UNL A   1      37.016  34.968  32.545  1.00  0.00     0.014 A 
ATOM     39  C   UNL A   1      36.526  33.089  33.987  1.00  0.00     0.014 A 
ATOM     40  C   UNL A   1      38.285  34.450  32.296  1.00  0.00     0.010 A 
ATOM     41  C   UNL A   1      37.751  32.529  33.674  1.00  0.00     0.010 A 
ATOM     42  C   UNL A   1      38.600  33.175  32.770  1.00  0.00    -0.014 A 
BRANCH  42  43
ATOM     43  C   UNL A   1      39.751  32.415  32.298  1.00  0.00     0.031 A 
ATOM     44  C   UNL A   1      39.576  31.242  31.422  1.00  0.00     0.074 A 
ATOM     45  C   UNL A   1      41.006  32.783  32.638  1.00  0.00     0.049 A 
ATOM     46  N   UNL A   1      40.382  30.232  31.418  1.00  0.00    -0.248 NA
ATOM     47  C   UNL A   1      38.465  31.106  30.492  1.00  0.00     0.031 C 
ATOM     48  C   UNL A   1      42.255  32.259  32.088  1.00  0.00     0.029 A 
ATOM     49  N   UNL A   1      41.413  33.583  33.717  1.00  0.00    -0.354 N 
ATOM     50  C   UNL A   1      40.070  29.459  30.328  1.00  0.00     0.074 A 
ATOM     51  C   UNL A   1      38.828  30.005  29.823  1.00  0.00     0.031 C 
ATOM     52  C   UNL A   1      43.237  32.459  32.978  1.00  0.00     0.029 A 
ATOM     53  C   UNL A   1      42.634  33.020  34.170  1.00  0.00     0.049 A 
ATOM     54  H   UNL A   1      40.948  34.369  34.083  1.00  0.00     0.167 HD
ATOM     55  C   UNL A   1      40.959  28.523  29.885  1.00  0.00     0.037 A 
ATOM     56  C   UNL A   1      42.770  32.543  35.442  1.00  0.00     0.037 A 
ATOM     57  C   UNL A   1      42.182  28.498  30.685  1.00  0.00     0.049 A 
ATOM     58  C   UNL A   1      43.112  31.072  35.531  1.00  0.00     0.074 A 
ATOM     59  C   UNL A   1      43.457  29.013  30.508  1.00  0.00     0.029 A 
ATOM     60  N   UNL A   1      42.117  28.103  32.009  1.00  0.00    -0.354 N 
ATOM     61  N   UNL A   1      43.269  30.290  34.501  1.00  0.00    -0.248 NA
ATOM     62  C   UNL A   1      43.177  30.342  36.798  1.00  0.00     0.031 C 
ATOM     63  C   UNL A   1      44.173  28.873  31.730  1.00  0.00     0.029 A 
ATOM     64  C   UNL A   1      43.328  28.286  32.651  1.00  0.00     0.049 A 
ATOM     65  H   UNL A   1      41.311  27.739  32.439  1.00  0.00     0.167 HD
ATOM     66  C   UNL A   1      43.367  28.991  34.928  1.00  0.00     0.074 A 
ATOM     67  C   UNL A   1      43.307  29.074  36.374  1.00  0.00     0.031 C 
ATOM     68  C   UNL A   1      43.437  27.941  34.057  1.00  0.00     0.037 A 
BRANCH  55  69
ATOM     69  C   UNL A   1      40.813  27.805  28.566  1.00  0.00     0.064 A 
ATOM     70  C   UNL A   1      40.014  26.648  28.449  1.00  0.00     0.173 A 
ATOM     71  C   UNL A   1      41.466  28.196  27.384  1.00  0.00     0.173 A 
ATOM     72  F   UNL A   1      39.235  26.226  29.453  1.00  0.00    -0.203 F 
ATOM     73  C   UNL A   1      39.985  25.872  27.288  1.00  0.00     0.198 A 
ATOM     74  C   UNL A   1      41.486  27.390  26.241  1.00  0.00     0.198 A 
ATOM     75  F   UNL A   1      42.069  29.390  27.288  1.00  0.00    -0.203 F 
ATOM     76  F   UNL A   1      39.216  24.776  27.241  1.00  0.00    -0.200 F 
ATOM     77  C   UNL A   1      40.758  26.219  26.199  1.00  0.00     0.200 A 
ATOM     78  F   UNL A   1      42.221  27.757  25.180  1.00  0.00    -0.200 F 
ATOM     79  F   UNL A   1      40.779  25.442  25.107  1.00  0.00    -0.200 F 
ENDBRANCH  55  69
BRANCH  56  80
ATOM     80  C   UNL A   1      41.922  33.291  36.405  1.00  0.00     0.064 A 
ATOM     81  C   UNL A   1      42.404  34.530  36.871  1.00  0.00     0.173 A 
ATOM     82  C   UNL A   1      40.546  33.052  36.489  1.00  0.00     0.173 A 
ATOM     83  F   UNL A   1      43.720  34.799  36.825  1.00  0.00    -0.203 F 
ATOM     84  C   UNL A   1      41.529  35.554  37.219  1.00  0.00     0.198 A 
ATOM     85  C   UNL A   1      39.676  34.068  36.880  1.00  0.00     0.198 A 
ATOM     86  F   UNL A   1      40.029  31.890  36.067  1.00  0.00    -0.203 F 
ATOM     87  F   UNL A   1      42.005  36.781  37.481  1.00  0.00    -0.200 F 
ATOM     88  C   UNL A   1      40.163  35.331  37.188  1.00  0.00     0.200 A 
ATOM     89  F   UNL A   1      38.353  33.853  36.856  1.00  0.00    -0.200 F 
ATOM     90  F   UNL A   1      39.316  36.347  37.404  1.00  0.00    -0.200 F 
ENDBRANCH  56  80
BRANCH  68  91
ATOM     91  C   UNL A   1      43.590  26.500  34.469  1.00  0.00     0.064 A 
ATOM     92  C   UNL A   1      44.812  25.812  34.385  1.00  0.00     0.173 A 
ATOM     93  C   UNL A   1      42.477  25.722  34.860  1.00  0.00     0.173 A 
ATOM     94  F   UNL A   1      45.914  26.417  33.920  1.00  0.00    -0.203 F 
ATOM     95  C   UNL A   1      44.927  24.467  34.747  1.00  0.00     0.198 A 
ATOM     96  C   UNL A   1      42.584  24.367  35.168  1.00  0.00     0.198 A 
ATOM     97  F   UNL A   1      41.252  26.254  34.973  1.00  0.00    -0.203 F 
ATOM     98  F   UNL A   1      46.126  23.870  34.712  1.00  0.00    -0.200 F 
ATOM     99  C   UNL A   1      43.813  23.744  35.134  1.00  0.00     0.200 A 
ATOM    100  F   UNL A   1      41.487  23.674  35.506  1.00  0.00    -0.200 F 
ATOM    101  F   UNL A   1      43.922  22.450  35.464  1.00  0.00    -0.200 F 
ENDBRANCH  68  91
ENDBRANCH  42  43
ENDBRANCH  34  37
ENDBRANCH  32  33
ENDBRANCH  31  32
ENDBRANCH   1  31
TORSDOF 16
ENDMDL
