MODEL 1
REMARK VINA RESULT:     -11.3      0.000      0.000
REMARK SMILES C[C@H](NC(=O)N(CC(=O)NCCCNC(=O)c1ccc(-c2c3nc(c(-c4c(F)c(F)c(F)c(F)c4F)c4ccc([nH]4)c(-c4c(F)c(F)c(F)c(F)c4F)c4nc(c(-c5c(F)c(F)c(F)c(F)c5F)c5ccc2[nH]5)C=C4)C=C3)cc1)CC(F)(F)F)[C@@H]1CCCO1
REMARK SMILES IDX 11 1 10 2 8 3 9 4 7 6 6 7 4 8 3 9 5 11 2 12 1 13 85 14 86 15
REMARK SMILES IDX 89 16 87 17 88 18 80 19 81 20 82 21 83 22 84 23 12 24 13 25
REMARK SMILES IDX 14 26 15 27 16 29 17 30 18 31 79 32 19 33 78 34 20 35 21 36
REMARK SMILES IDX 22 37 72 38 23 39 77 40 71 41 73 42 24 43 76 44 70 45 69 46
REMARK SMILES IDX 25 48 57 49 37 50 56 51 38 52 41 53 55 54 74 55 39 56 40 57
REMARK SMILES IDX 54 59 75 60 42 61 26 62 27 63 35 64 28 65 29 66 33 67 36 68
REMARK SMILES IDX 30 69 31 70 34 71 32 72 58 73 59 74 67 75 60 76 61 77 65 78
REMARK SMILES IDX 68 79 62 80 63 81 66 82 64 83 43 84 44 85 52 86 45 87 46 88
REMARK SMILES IDX 50 89 53 90 47 91 48 92 51 93 49 94
REMARK H PARENT 10 5 3 10 14 28 73 47 41 58
REMARK Flexibility Score: inf
ROOT
ATOM      1  C   UNL A   1      31.732  30.746  26.739  1.00  0.00     0.117 C 
ENDROOT
BRANCH   1   2
ATOM      2  N   UNL A   1      32.964  30.334  27.384  1.00  0.00    -0.354 N 
ATOM      3  C   UNL A   1      33.855  29.360  27.058  1.00  0.00     0.239 C 
ATOM      4  O   UNL A   1      34.827  29.202  27.801  1.00  0.00    -0.273 OA
ATOM      5  H   UNL A   1      33.192  30.845  28.194  1.00  0.00     0.163 HD
BRANCH   3   6
ATOM      6  C   UNL A   1      33.765  28.599  25.733  1.00  0.00     0.221 C 
BRANCH   6   7
ATOM      7  N   UNL A   1      32.951  27.381  25.668  1.00  0.00    -0.306 N 
BRANCH   7   8
ATOM      8  C   UNL A   1      31.590  27.238  25.689  1.00  0.00     0.318 C 
ATOM      9  N   UNL A   1      30.775  27.639  24.695  1.00  0.00    -0.333 N 
ATOM     10  H   UNL A   1      29.828  27.491  24.918  1.00  0.00     0.165 HD
ATOM     11  O   UNL A   1      31.037  26.692  26.648  1.00  0.00    -0.249 OA
BRANCH   9  12
ATOM     12  C   UNL A   1      30.935  28.239  23.366  1.00  0.00     0.109 C 
ATOM     13  C   UNL A   1      30.895  27.176  22.262  1.00  0.00     0.034 C 
BRANCH  12  14
ATOM     14  C   UNL A   1      29.887  29.340  23.084  1.00  0.00     0.140 C 
ATOM     15  C   UNL A   1      28.462  28.822  23.208  1.00  0.00     0.036 C 
ATOM     16  O   UNL A   1      29.968  29.821  21.729  1.00  0.00    -0.376 OA
ATOM     17  C   UNL A   1      27.689  29.864  22.441  1.00  0.00     0.031 C 
ATOM     18  C   UNL A   1      28.654  30.257  21.337  1.00  0.00     0.160 C 
ENDBRANCH  12  14
ENDBRANCH   9  12
ENDBRANCH   7   8
BRANCH   7  19
ATOM     19  C   UNL A   1      33.731  26.122  25.536  1.00  0.00     0.237 C 
BRANCH  19  20
ATOM     20  C   UNL A   1      33.800  25.457  24.157  1.00  0.00     0.406 C 
ATOM     21  F   UNL A   1      32.685  24.780  23.827  1.00  0.00    -0.169 F 
ATOM     22  F   UNL A   1      33.993  26.401  23.201  1.00  0.00    -0.169 F 
ATOM     23  F   UNL A   1      34.843  24.599  24.071  1.00  0.00    -0.169 F 
ENDBRANCH  19  20
ENDBRANCH   7  19
ENDBRANCH   6   7
ENDBRANCH   3   6
ENDBRANCH   1   2
BRANCH   1  24
ATOM     24  C   UNL A   1      31.489  32.243  26.860  1.00  0.00     0.042 C 
BRANCH  24  25
ATOM     25  C   UNL A   1      32.763  33.046  27.068  1.00  0.00     0.118 C 
BRANCH  25  26
ATOM     26  N   UNL A   1      32.495  34.355  27.648  1.00  0.00    -0.352 N 
ATOM     27  C   UNL A   1      33.036  34.926  28.773  1.00  0.00     0.251 C 
ATOM     28  H   UNL A   1      31.837  34.906  27.167  1.00  0.00     0.163 HD
ATOM     29  O   UNL A   1      32.545  35.944  29.245  1.00  0.00    -0.269 OA
BRANCH  27  30
ATOM     30  C   UNL A   1      34.207  34.296  29.418  1.00  0.00     0.039 A 
ATOM     31  C   UNL A   1      33.998  33.381  30.451  1.00  0.00     0.014 A 
ATOM     32  C   UNL A   1      35.504  34.611  29.005  1.00  0.00     0.014 A 
ATOM     33  C   UNL A   1      35.092  32.745  31.039  1.00  0.00     0.010 A 
ATOM     34  C   UNL A   1      36.585  33.914  29.531  1.00  0.00     0.010 A 
ATOM     35  C   UNL A   1      36.392  32.986  30.564  1.00  0.00    -0.014 A 
BRANCH  35  36
ATOM     36  C   UNL A   1      37.561  32.286  31.151  1.00  0.00     0.031 A 
ATOM     37  C   UNL A   1      38.063  32.672  32.515  1.00  0.00     0.074 A 
ATOM     38  C   UNL A   1      38.199  31.338  30.438  1.00  0.00     0.049 A 
ATOM     39  N   UNL A   1      39.086  32.203  33.185  1.00  0.00    -0.248 NA
ATOM     40  C   UNL A   1      37.336  33.747  33.210  1.00  0.00     0.031 C 
ATOM     41  C   UNL A   1      37.839  30.916  29.083  1.00  0.00     0.029 A 
ATOM     42  N   UNL A   1      39.285  30.560  30.750  1.00  0.00    -0.354 N 
ATOM     43  C   UNL A   1      39.129  32.932  34.367  1.00  0.00     0.074 A 
ATOM     44  C   UNL A   1      38.071  33.915  34.299  1.00  0.00     0.031 C 
ATOM     45  C   UNL A   1      38.670  29.937  28.692  1.00  0.00     0.029 A 
ATOM     46  C   UNL A   1      39.644  29.689  29.751  1.00  0.00     0.049 A 
ATOM     47  H   UNL A   1      39.762  30.621  31.609  1.00  0.00     0.167 HD
ATOM     48  C   UNL A   1      39.960  32.776  35.425  1.00  0.00     0.037 A 
ATOM     49  C   UNL A   1      40.649  28.794  29.696  1.00  0.00     0.037 A 
ATOM     50  C   UNL A   1      40.997  31.781  35.496  1.00  0.00     0.049 A 
ATOM     51  C   UNL A   1      41.563  28.648  30.883  1.00  0.00     0.074 A 
ATOM     52  C   UNL A   1      41.852  31.500  36.546  1.00  0.00     0.029 A 
ATOM     53  N   UNL A   1      41.324  30.908  34.469  1.00  0.00    -0.354 N 
ATOM     54  N   UNL A   1      41.543  29.285  32.028  1.00  0.00    -0.248 NA
ATOM     55  C   UNL A   1      42.635  27.649  30.772  1.00  0.00     0.031 C 
ATOM     56  C   UNL A   1      42.733  30.494  36.135  1.00  0.00     0.029 A 
ATOM     57  C   UNL A   1      42.387  30.105  34.851  1.00  0.00     0.049 A 
ATOM     58  H   UNL A   1      40.868  30.865  33.597  1.00  0.00     0.167 HD
ATOM     59  C   UNL A   1      42.576  28.748  32.783  1.00  0.00     0.074 A 
ATOM     60  C   UNL A   1      43.191  27.716  31.972  1.00  0.00     0.031 C 
ATOM     61  C   UNL A   1      42.981  29.077  34.035  1.00  0.00     0.037 A 
BRANCH  48  62
ATOM     62  C   UNL A   1      39.777  33.700  36.595  1.00  0.00     0.064 A 
ATOM     63  C   UNL A   1      40.418  34.946  36.659  1.00  0.00     0.173 A 
ATOM     64  C   UNL A   1      38.918  33.352  37.650  1.00  0.00     0.173 A 
ATOM     65  F   UNL A   1      41.257  35.325  35.683  1.00  0.00    -0.203 F 
ATOM     66  C   UNL A   1      40.232  35.796  37.748  1.00  0.00     0.198 A 
ATOM     67  C   UNL A   1      38.708  34.218  38.720  1.00  0.00     0.198 A 
ATOM     68  F   UNL A   1      38.274  32.175  37.638  1.00  0.00    -0.203 F 
ATOM     69  F   UNL A   1      40.896  36.958  37.810  1.00  0.00    -0.200 F 
ATOM     70  C   UNL A   1      39.371  35.435  38.772  1.00  0.00     0.200 A 
ATOM     71  F   UNL A   1      37.864  33.874  39.702  1.00  0.00    -0.200 F 
ATOM     72  F   UNL A   1      39.184  36.257  39.814  1.00  0.00    -0.200 F 
ENDBRANCH  48  62
BRANCH  49  73
ATOM     73  C   UNL A   1      40.831  27.952  28.483  1.00  0.00     0.064 A 
ATOM     74  C   UNL A   1      41.613  28.397  27.408  1.00  0.00     0.173 A 
ATOM     75  C   UNL A   1      40.223  26.694  28.369  1.00  0.00     0.173 A 
ATOM     76  F   UNL A   1      42.201  29.602  27.461  1.00  0.00    -0.203 F 
ATOM     77  C   UNL A   1      41.756  27.629  26.255  1.00  0.00     0.198 A 
ATOM     78  C   UNL A   1      40.392  25.912  27.229  1.00  0.00     0.198 A 
ATOM     79  F   UNL A   1      39.468  26.219  29.371  1.00  0.00    -0.203 F 
ATOM     80  F   UNL A   1      42.464  28.102  25.220  1.00  0.00    -0.200 F 
ATOM     81  C   UNL A   1      41.151  26.385  26.168  1.00  0.00     0.200 A 
ATOM     82  F   UNL A   1      39.817  24.705  27.154  1.00  0.00    -0.200 F 
ATOM     83  F   UNL A   1      41.289  25.645  25.059  1.00  0.00    -0.200 F 
ENDBRANCH  49  73
BRANCH  61  84
ATOM     84  C   UNL A   1      44.118  28.290  34.621  1.00  0.00     0.064 A 
ATOM     85  C   UNL A   1      43.906  27.088  35.312  1.00  0.00     0.173 A 
ATOM     86  C   UNL A   1      45.442  28.727  34.452  1.00  0.00     0.173 A 
ATOM     87  F   UNL A   1      42.660  26.635  35.512  1.00  0.00    -0.203 F 
ATOM     88  C   UNL A   1      44.976  26.368  35.838  1.00  0.00     0.198 A 
ATOM     89  C   UNL A   1      46.510  27.986  34.949  1.00  0.00     0.198 A 
ATOM     90  F   UNL A   1      45.700  29.866  33.792  1.00  0.00    -0.203 F 
ATOM     91  F   UNL A   1      44.746  25.250  36.540  1.00  0.00    -0.200 F 
ATOM     92  C   UNL A   1      46.276  26.812  35.649  1.00  0.00     0.200 A 
ATOM     93  F   UNL A   1      47.766  28.408  34.750  1.00  0.00    -0.200 F 
ATOM     94  F   UNL A   1      47.303  26.113  36.147  1.00  0.00    -0.200 F 
ENDBRANCH  61  84
ENDBRANCH  35  36
ENDBRANCH  27  30
ENDBRANCH  25  26
ENDBRANCH  24  25
ENDBRANCH   1  24
TORSDOF 16
ENDMDL
MODEL 2
REMARK VINA RESULT:     -11.1      0.902      7.551
REMARK SMILES C[C@H](NC(=O)N(CC(=O)NCCCNC(=O)c1ccc(-c2c3nc(c(-c4c(F)c(F)c(F)c(F)c4F)c4ccc([nH]4)c(-c4c(F)c(F)c(F)c(F)c4F)c4nc(c(-c5c(F)c(F)c(F)c(F)c5F)c5ccc2[nH]5)C=C4)C=C3)cc1)CC(F)(F)F)[C@@H]1CCCO1
REMARK SMILES IDX 11 1 10 2 8 3 9 4 7 6 6 7 4 8 3 9 5 11 2 12 1 13 85 14 86 15
REMARK SMILES IDX 89 16 87 17 88 18 80 19 81 20 82 21 83 22 84 23 12 24 13 25
REMARK SMILES IDX 14 26 15 27 16 29 17 30 18 31 79 32 19 33 78 34 20 35 21 36
REMARK SMILES IDX 22 37 72 38 23 39 77 40 71 41 73 42 24 43 76 44 70 45 69 46
REMARK SMILES IDX 25 48 57 49 37 50 56 51 38 52 41 53 55 54 74 55 39 56 40 57
REMARK SMILES IDX 54 59 75 60 42 61 26 62 27 63 35 64 28 65 29 66 33 67 36 68
REMARK SMILES IDX 30 69 31 70 34 71 32 72 58 73 59 74 67 75 60 76 61 77 65 78
REMARK SMILES IDX 68 79 62 80 63 81 66 82 64 83 43 84 44 85 52 86 45 87 46 88
REMARK SMILES IDX 50 89 53 90 47 91 48 92 51 93 49 94
REMARK H PARENT 10 5 3 10 14 28 73 47 41 58
REMARK Flexibility Score: inf
ROOT
ATOM      1  C   UNL A   1      31.666  30.795  26.127  1.00  0.00     0.117 C 
ENDROOT
BRANCH   1   2
ATOM      2  N   UNL A   1      33.006  30.320  26.410  1.00  0.00    -0.354 N 
ATOM      3  C   UNL A   1      33.438  29.163  26.979  1.00  0.00     0.239 C 
ATOM      4  O   UNL A   1      34.654  29.015  27.125  1.00  0.00    -0.273 OA
ATOM      5  H   UNL A   1      33.725  30.940  26.147  1.00  0.00     0.163 HD
BRANCH   3   6
ATOM      6  C   UNL A   1      32.480  28.005  27.272  1.00  0.00     0.221 C 
BRANCH   6   7
ATOM      7  N   UNL A   1      32.135  27.078  26.190  1.00  0.00    -0.306 N 
BRANCH   7   8
ATOM      8  C   UNL A   1      30.907  26.666  25.750  1.00  0.00     0.318 C 
ATOM      9  N   UNL A   1      30.349  27.067  24.592  1.00  0.00    -0.333 N 
ATOM     10  H   UNL A   1      29.444  26.698  24.475  1.00  0.00     0.165 HD
ATOM     11  O   UNL A   1      30.247  25.859  26.411  1.00  0.00    -0.249 OA
BRANCH   9  12
ATOM     12  C   UNL A   1      30.741  27.914  23.460  1.00  0.00     0.109 C 
ATOM     13  C   UNL A   1      31.528  27.119  22.412  1.00  0.00     0.034 C 
BRANCH  12  14
ATOM     14  C   UNL A   1      29.533  28.616  22.799  1.00  0.00     0.140 C 
ATOM     15  C   UNL A   1      29.373  30.053  23.273  1.00  0.00     0.036 C 
ATOM     16  O   UNL A   1      28.287  27.989  23.157  1.00  0.00    -0.376 OA
ATOM     17  C   UNL A   1      27.939  30.338  22.909  1.00  0.00     0.031 C 
ATOM     18  C   UNL A   1      27.261  28.997  23.126  1.00  0.00     0.160 C 
ENDBRANCH  12  14
ENDBRANCH   9  12
ENDBRANCH   7   8
BRANCH   7  19
ATOM     19  C   UNL A   1      33.304  26.525  25.454  1.00  0.00     0.237 C 
BRANCH  19  20
ATOM     20  C   UNL A   1      33.602  25.028  25.594  1.00  0.00     0.406 C 
ATOM     21  F   UNL A   1      33.108  24.282  24.589  1.00  0.00    -0.169 F 
ATOM     22  F   UNL A   1      34.944  24.826  25.622  1.00  0.00    -0.169 F 
ATOM     23  F   UNL A   1      33.111  24.532  26.754  1.00  0.00    -0.169 F 
ENDBRANCH  19  20
ENDBRANCH   7  19
ENDBRANCH   6   7
ENDBRANCH   3   6
ENDBRANCH   1   2
BRANCH   1  24
ATOM     24  C   UNL A   1      31.428  32.202  26.651  1.00  0.00     0.042 C 
BRANCH  24  25
ATOM     25  C   UNL A   1      32.672  32.843  27.246  1.00  0.00     0.118 C 
BRANCH  25  26
ATOM     26  N   UNL A   1      32.443  34.227  27.634  1.00  0.00    -0.352 N 
ATOM     27  C   UNL A   1      32.990  34.932  28.676  1.00  0.00     0.251 C 
ATOM     28  H   UNL A   1      31.808  34.726  27.071  1.00  0.00     0.163 HD
ATOM     29  O   UNL A   1      32.529  36.022  28.994  1.00  0.00    -0.269 OA
BRANCH  27  30
ATOM     30  C   UNL A   1      34.133  34.362  29.420  1.00  0.00     0.039 A 
ATOM     31  C   UNL A   1      33.887  33.654  30.596  1.00  0.00     0.014 A 
ATOM     32  C   UNL A   1      35.441  34.530  28.957  1.00  0.00     0.014 A 
ATOM     33  C   UNL A   1      34.951  33.071  31.285  1.00  0.00     0.010 A 
ATOM     34  C   UNL A   1      36.489  33.877  29.595  1.00  0.00     0.010 A 
ATOM     35  C   UNL A   1      36.257  33.155  30.774  1.00  0.00    -0.014 A 
BRANCH  35  36
ATOM     36  C   UNL A   1      37.394  32.505  31.473  1.00  0.00     0.031 A 
ATOM     37  C   UNL A   1      38.115  31.352  30.830  1.00  0.00     0.074 A 
ATOM     38  C   UNL A   1      37.746  32.922  32.703  1.00  0.00     0.049 A 
ATOM     39  N   UNL A   1      39.107  30.634  31.291  1.00  0.00    -0.248 NA
ATOM     40  C   UNL A   1      37.640  30.931  29.501  1.00  0.00     0.031 C 
ATOM     41  C   UNL A   1      37.088  33.993  33.453  1.00  0.00     0.029 A 
ATOM     42  N   UNL A   1      38.742  32.493  33.545  1.00  0.00    -0.354 N 
ATOM     43  C   UNL A   1      39.363  29.675  30.318  1.00  0.00     0.074 A 
ATOM     44  C   UNL A   1      38.385  29.861  29.270  1.00  0.00     0.031 C 
ATOM     45  C   UNL A   1      37.714  34.158  34.629  1.00  0.00     0.029 A 
ATOM     46  C   UNL A   1      38.793  33.179  34.734  1.00  0.00     0.049 A 
ATOM     47  H   UNL A   1      39.361  31.762  33.318  1.00  0.00     0.167 HD
ATOM     48  C   UNL A   1      40.344  28.742  30.291  1.00  0.00     0.037 A 
ATOM     49  C   UNL A   1      39.614  33.030  35.790  1.00  0.00     0.037 A 
ATOM     50  C   UNL A   1      41.328  28.576  31.328  1.00  0.00     0.049 A 
ATOM     51  C   UNL A   1      40.690  31.979  35.737  1.00  0.00     0.074 A 
ATOM     52  C   UNL A   1      42.400  27.702  31.368  1.00  0.00     0.029 A 
ATOM     53  N   UNL A   1      41.356  29.298  32.513  1.00  0.00    -0.354 N 
ATOM     54  N   UNL A   1      40.976  31.133  34.777  1.00  0.00    -0.248 NA
ATOM     55  C   UNL A   1      41.565  31.869  36.911  1.00  0.00     0.031 C 
ATOM     56  C   UNL A   1      43.043  27.856  32.600  1.00  0.00     0.029 A 
ATOM     57  C   UNL A   1      42.411  28.869  33.303  1.00  0.00     0.049 A 
ATOM     58  H   UNL A   1      40.719  30.009  32.755  1.00  0.00     0.167 HD
ATOM     59  C   UNL A   1      42.076  30.412  35.218  1.00  0.00     0.074 A 
ATOM     60  C   UNL A   1      42.420  30.934  36.524  1.00  0.00     0.031 C 
ATOM     61  C   UNL A   1      42.744  29.407  34.597  1.00  0.00     0.037 A 
BRANCH  48  62
ATOM     62  C   UNL A   1      40.405  27.831  29.098  1.00  0.00     0.064 A 
ATOM     63  C   UNL A   1      39.660  26.643  29.038  1.00  0.00     0.173 A 
ATOM     64  C   UNL A   1      41.187  28.169  27.983  1.00  0.00     0.173 A 
ATOM     65  F   UNL A   1      38.903  26.267  30.081  1.00  0.00    -0.203 F 
ATOM     66  C   UNL A   1      39.721  25.812  27.923  1.00  0.00     0.198 A 
ATOM     67  C   UNL A   1      41.218  27.353  26.854  1.00  0.00     0.198 A 
ATOM     68  F   UNL A   1      41.914  29.296  27.982  1.00  0.00    -0.203 F 
ATOM     69  F   UNL A   1      39.041  24.657  27.911  1.00  0.00    -0.200 F 
ATOM     70  C   UNL A   1      40.492  26.172  26.829  1.00  0.00     0.200 A 
ATOM     71  F   UNL A   1      41.953  27.710  25.792  1.00  0.00    -0.200 F 
ATOM     72  F   UNL A   1      40.541  25.377  25.751  1.00  0.00    -0.200 F 
ENDBRANCH  48  62
BRANCH  49  73
ATOM     73  C   UNL A   1      39.467  33.912  36.978  1.00  0.00     0.064 A 
ATOM     74  C   UNL A   1      38.717  33.503  38.090  1.00  0.00     0.173 A 
ATOM     75  C   UNL A   1      40.062  35.181  37.025  1.00  0.00     0.173 A 
ATOM     76  F   UNL A   1      38.113  32.306  38.087  1.00  0.00    -0.203 F 
ATOM     77  C   UNL A   1      38.545  34.341  39.190  1.00  0.00     0.198 A 
ATOM     78  C   UNL A   1      39.916  36.006  38.139  1.00  0.00     0.198 A 
ATOM     79  F   UNL A   1      40.794  35.619  35.989  1.00  0.00    -0.203 F 
ATOM     80  F   UNL A   1      37.778  33.947  40.216  1.00  0.00    -0.200 F 
ATOM     81  C   UNL A   1      39.149  35.588  39.216  1.00  0.00     0.200 A 
ATOM     82  F   UNL A   1      40.512  37.204  38.166  1.00  0.00    -0.200 F 
ATOM     83  F   UNL A   1      38.984  36.394  40.275  1.00  0.00    -0.200 F 
ENDBRANCH  49  73
BRANCH  61  84
ATOM     84  C   UNL A   1      43.936  28.831  35.306  1.00  0.00     0.064 A 
ATOM     85  C   UNL A   1      45.233  29.315  35.083  1.00  0.00     0.173 A 
ATOM     86  C   UNL A   1      43.771  27.807  36.253  1.00  0.00     0.173 A 
ATOM     87  F   UNL A   1      45.447  30.282  34.179  1.00  0.00    -0.203 F 
ATOM     88  C   UNL A   1      46.324  28.775  35.759  1.00  0.00     0.198 A 
ATOM     89  C   UNL A   1      44.859  27.294  36.952  1.00  0.00     0.198 A 
ATOM     90  F   UNL A   1      42.550  27.314  36.510  1.00  0.00    -0.203 F 
ATOM     91  F   UNL A   1      47.561  29.216  35.491  1.00  0.00    -0.200 F 
ATOM     92  C   UNL A   1      46.136  27.772  36.699  1.00  0.00     0.200 A 
ATOM     93  F   UNL A   1      44.672  26.338  37.871  1.00  0.00    -0.200 F 
ATOM     94  F   UNL A   1      47.185  27.261  37.355  1.00  0.00    -0.200 F 
ENDBRANCH  61  84
ENDBRANCH  35  36
ENDBRANCH  27  30
ENDBRANCH  25  26
ENDBRANCH  24  25
ENDBRANCH   1  24
TORSDOF 16
ENDMDL
MODEL 3
REMARK VINA RESULT:     -11.1      1.471      3.197
REMARK SMILES C[C@H](NC(=O)N(CC(=O)NCCCNC(=O)c1ccc(-c2c3nc(c(-c4c(F)c(F)c(F)c(F)c4F)c4ccc([nH]4)c(-c4c(F)c(F)c(F)c(F)c4F)c4nc(c(-c5c(F)c(F)c(F)c(F)c5F)c5ccc2[nH]5)C=C4)C=C3)cc1)CC(F)(F)F)[C@@H]1CCCO1
REMARK SMILES IDX 11 1 10 2 8 3 9 4 7 6 6 7 4 8 3 9 5 11 2 12 1 13 85 14 86 15
REMARK SMILES IDX 89 16 87 17 88 18 80 19 81 20 82 21 83 22 84 23 12 24 13 25
REMARK SMILES IDX 14 26 15 27 16 29 17 30 18 31 79 32 19 33 78 34 20 35 21 36
REMARK SMILES IDX 22 37 72 38 23 39 77 40 71 41 73 42 24 43 76 44 70 45 69 46
REMARK SMILES IDX 25 48 57 49 37 50 56 51 38 52 41 53 55 54 74 55 39 56 40 57
REMARK SMILES IDX 54 59 75 60 42 61 26 62 27 63 35 64 28 65 29 66 33 67 36 68
REMARK SMILES IDX 30 69 31 70 34 71 32 72 58 73 59 74 67 75 60 76 61 77 65 78
REMARK SMILES IDX 68 79 62 80 63 81 66 82 64 83 43 84 44 85 52 86 45 87 46 88
REMARK SMILES IDX 50 89 53 90 47 91 48 92 51 93 49 94
REMARK H PARENT 10 5 3 10 14 28 73 47 41 58
REMARK Flexibility Score: inf
ROOT
ATOM      1  C   UNL A   1      31.416  30.650  25.877  1.00  0.00     0.117 C 
ENDROOT
BRANCH   1   2
ATOM      2  N   UNL A   1      30.772  30.463  24.591  1.00  0.00    -0.354 N 
ATOM      3  C   UNL A   1      30.792  29.408  23.733  1.00  0.00     0.239 C 
ATOM      4  O   UNL A   1      30.162  29.517  22.677  1.00  0.00    -0.273 OA
ATOM      5  H   UNL A   1      30.231  31.228  24.288  1.00  0.00     0.163 HD
BRANCH   3   6
ATOM      6  C   UNL A   1      31.418  28.066  24.122  1.00  0.00     0.221 C 
BRANCH   6   7
ATOM      7  N   UNL A   1      32.836  27.835  23.833  1.00  0.00    -0.306 N 
BRANCH   7   8
ATOM      8  C   UNL A   1      33.418  27.182  22.780  1.00  0.00     0.318 C 
ATOM      9  N   UNL A   1      33.508  25.842  22.682  1.00  0.00    -0.333 N 
ATOM     10  H   UNL A   1      34.001  25.567  21.876  1.00  0.00     0.165 HD
ATOM     11  O   UNL A   1      33.881  27.821  21.831  1.00  0.00    -0.249 OA
BRANCH   9  12
ATOM     12  C   UNL A   1      33.061  24.687  23.467  1.00  0.00     0.109 C 
ATOM     13  C   UNL A   1      31.624  24.289  23.111  1.00  0.00     0.034 C 
BRANCH  12  14
ATOM     14  C   UNL A   1      34.002  23.469  23.319  1.00  0.00     0.140 C 
ATOM     15  C   UNL A   1      34.234  22.757  24.643  1.00  0.00     0.036 C 
ATOM     16  O   UNL A   1      35.322  23.862  22.896  1.00  0.00    -0.376 OA
ATOM     17  C   UNL A   1      35.493  21.981  24.356  1.00  0.00     0.031 C 
ATOM     18  C   UNL A   1      36.257  22.903  23.423  1.00  0.00     0.160 C 
ENDBRANCH  12  14
ENDBRANCH   9  12
ENDBRANCH   7   8
BRANCH   7  19
ATOM     19  C   UNL A   1      33.774  28.420  24.829  1.00  0.00     0.237 C 
BRANCH  19  20
ATOM     20  C   UNL A   1      33.920  27.714  26.181  1.00  0.00     0.406 C 
ATOM     21  F   UNL A   1      34.218  26.405  26.078  1.00  0.00    -0.169 F 
ATOM     22  F   UNL A   1      34.915  28.296  26.899  1.00  0.00    -0.169 F 
ATOM     23  F   UNL A   1      32.793  27.822  26.922  1.00  0.00    -0.169 F 
ENDBRANCH  19  20
ENDBRANCH   7  19
ENDBRANCH   6   7
ENDBRANCH   3   6
ENDBRANCH   1   2
BRANCH   1  24
ATOM     24  C   UNL A   1      31.267  32.072  26.396  1.00  0.00     0.042 C 
BRANCH  24  25
ATOM     25  C   UNL A   1      32.499  32.579  27.128  1.00  0.00     0.118 C 
BRANCH  25  26
ATOM     26  N   UNL A   1      32.375  33.980  27.505  1.00  0.00    -0.352 N 
ATOM     27  C   UNL A   1      33.043  34.672  28.483  1.00  0.00     0.251 C 
ATOM     28  H   UNL A   1      31.721  34.502  26.986  1.00  0.00     0.163 HD
ATOM     29  O   UNL A   1      32.667  35.790  28.815  1.00  0.00    -0.269 OA
BRANCH  27  30
ATOM     30  C   UNL A   1      34.214  34.055  29.141  1.00  0.00     0.039 A 
ATOM     31  C   UNL A   1      34.004  33.164  30.194  1.00  0.00     0.014 A 
ATOM     32  C   UNL A   1      35.511  34.358  28.720  1.00  0.00     0.014 A 
ATOM     33  C   UNL A   1      35.097  32.539  30.795  1.00  0.00     0.010 A 
ATOM     34  C   UNL A   1      36.592  33.671  29.260  1.00  0.00     0.010 A 
ATOM     35  C   UNL A   1      36.398  32.766  30.313  1.00  0.00    -0.014 A 
BRANCH  35  36
ATOM     36  C   UNL A   1      37.566  32.077  30.915  1.00  0.00     0.031 A 
ATOM     37  C   UNL A   1      38.041  32.461  32.290  1.00  0.00     0.074 A 
ATOM     38  C   UNL A   1      38.227  31.142  30.207  1.00  0.00     0.049 A 
ATOM     39  N   UNL A   1      39.059  32.001  32.973  1.00  0.00    -0.248 NA
ATOM     40  C   UNL A   1      37.289  33.523  32.980  1.00  0.00     0.031 C 
ATOM     41  C   UNL A   1      37.895  30.724  28.844  1.00  0.00     0.029 A 
ATOM     42  N   UNL A   1      39.318  30.376  30.531  1.00  0.00    -0.354 N 
ATOM     43  C   UNL A   1      39.074  32.723  34.160  1.00  0.00     0.074 A 
ATOM     44  C   UNL A   1      38.005  33.693  34.081  1.00  0.00     0.031 C 
ATOM     45  C   UNL A   1      38.744  29.758  28.460  1.00  0.00     0.029 A 
ATOM     46  C   UNL A   1      39.704  29.516  29.533  1.00  0.00     0.049 A 
ATOM     47  H   UNL A   1      39.781  30.437  31.399  1.00  0.00     0.167 HD
ATOM     48  C   UNL A   1      39.889  32.571  35.231  1.00  0.00     0.037 A 
ATOM     49  C   UNL A   1      40.721  28.635  29.489  1.00  0.00     0.037 A 
ATOM     50  C   UNL A   1      40.938  31.589  35.312  1.00  0.00     0.049 A 
ATOM     51  C   UNL A   1      41.618  28.492  30.689  1.00  0.00     0.074 A 
ATOM     52  C   UNL A   1      41.779  31.312  36.374  1.00  0.00     0.029 A 
ATOM     53  N   UNL A   1      41.293  30.726  34.285  1.00  0.00    -0.354 N 
ATOM     54  N   UNL A   1      41.572  29.122  31.838  1.00  0.00    -0.248 NA
ATOM     55  C   UNL A   1      42.703  27.507  30.590  1.00  0.00     0.031 C 
ATOM     56  C   UNL A   1      42.679  30.320  35.972  1.00  0.00     0.029 A 
ATOM     57  C   UNL A   1      42.359  29.934  34.680  1.00  0.00     0.049 A 
ATOM     58  H   UNL A   1      40.851  30.683  33.406  1.00  0.00     0.167 HD
ATOM     59  C   UNL A   1      42.599  28.592  32.606  1.00  0.00     0.074 A 
ATOM     60  C   UNL A   1      43.240  27.574  31.799  1.00  0.00     0.031 C 
ATOM     61  C   UNL A   1      42.979  28.919  33.867  1.00  0.00     0.037 A 
BRANCH  48  62
ATOM     62  C   UNL A   1      39.676  33.485  36.403  1.00  0.00     0.064 A 
ATOM     63  C   UNL A   1      40.300  34.739  36.486  1.00  0.00     0.173 A 
ATOM     64  C   UNL A   1      38.804  33.120  37.441  1.00  0.00     0.173 A 
ATOM     65  F   UNL A   1      41.151  35.134  35.526  1.00  0.00    -0.203 F 
ATOM     66  C   UNL A   1      40.087  35.579  37.576  1.00  0.00     0.198 A 
ATOM     67  C   UNL A   1      38.566  33.976  38.513  1.00  0.00     0.198 A 
ATOM     68  F   UNL A   1      38.175  31.935  37.412  1.00  0.00    -0.203 F 
ATOM     69  F   UNL A   1      40.735  36.748  37.656  1.00  0.00    -0.200 F 
ATOM     70  C   UNL A   1      39.213  35.200  38.584  1.00  0.00     0.200 A 
ATOM     71  F   UNL A   1      37.710  33.616  39.479  1.00  0.00    -0.200 F 
ATOM     72  F   UNL A   1      38.999  36.014  39.627  1.00  0.00    -0.200 F 
ENDBRANCH  48  62
BRANCH  49  73
ATOM     73  C   UNL A   1      40.933  27.803  28.274  1.00  0.00     0.064 A 
ATOM     74  C   UNL A   1      40.364  26.525  28.168  1.00  0.00     0.173 A 
ATOM     75  C   UNL A   1      41.713  28.259  27.202  1.00  0.00     0.173 A 
ATOM     76  F   UNL A   1      39.626  26.035  29.175  1.00  0.00    -0.203 F 
ATOM     77  C   UNL A   1      40.591  25.727  27.049  1.00  0.00     0.198 A 
ATOM     78  C   UNL A   1      41.913  27.473  26.069  1.00  0.00     0.198 A 
ATOM     79  F   UNL A   1      42.277  29.476  27.251  1.00  0.00    -0.203 F 
ATOM     80  F   UNL A   1      40.081  24.489  26.997  1.00  0.00    -0.200 F 
ATOM     81  C   UNL A   1      41.360  26.203  25.998  1.00  0.00     0.200 A 
ATOM     82  F   UNL A   1      42.645  27.942  25.051  1.00  0.00    -0.200 F 
ATOM     83  F   UNL A   1      41.577  25.435  24.922  1.00  0.00    -0.200 F 
ENDBRANCH  49  73
BRANCH  61  84
ATOM     84  C   UNL A   1      44.117  28.143  34.466  1.00  0.00     0.064 A 
ATOM     85  C   UNL A   1      45.443  28.591  34.381  1.00  0.00     0.173 A 
ATOM     86  C   UNL A   1      43.869  26.955  35.172  1.00  0.00     0.173 A 
ATOM     87  F   UNL A   1      45.735  29.713  33.706  1.00  0.00    -0.203 F 
ATOM     88  C   UNL A   1      46.482  27.863  34.954  1.00  0.00     0.198 A 
ATOM     89  C   UNL A   1      44.905  26.248  35.773  1.00  0.00     0.198 A 
ATOM     90  F   UNL A   1      42.617  26.487  35.290  1.00  0.00    -0.203 F 
ATOM     91  F   UNL A   1      47.747  28.282  34.814  1.00  0.00    -0.200 F 
ATOM     92  C   UNL A   1      46.212  26.698  35.657  1.00  0.00     0.200 A 
ATOM     93  F   UNL A   1      44.641  25.133  36.466  1.00  0.00    -0.200 F 
ATOM     94  F   UNL A   1      47.212  26.004  36.215  1.00  0.00    -0.200 F 
ENDBRANCH  61  84
ENDBRANCH  35  36
ENDBRANCH  27  30
ENDBRANCH  25  26
ENDBRANCH  24  25
ENDBRANCH   1  24
TORSDOF 16
ENDMDL
