MODEL 1
REMARK VINA RESULT:     -13.2      0.000      0.000
REMARK SMILES C[C@@H](NC(=O)CNC(=O)N1CC(=O)Nc2ccccc21)C(=O)NCCCNC(=O)c1ccc(-c2c3nc(c(-c4c(F)c(F)c(F)c(F)c4F)c4ccc([nH]4)c(-c4c(F)c(F)c(F)c(F)c4F)c4nc(c(-c5c(F)c(F)c(F)c(F)c5F)c5ccc2[nH]5)C=C4)C=C3)cc1
REMARK SMILES IDX 24 1 23 2 21 3 22 4 2 6 1 7 3 8 4 9 5 11 6 12 7 13 8 14 9 16
REMARK SMILES IDX 10 17 11 18 20 19 12 20 15 21 19 22 13 23 14 24 16 25 18 26
REMARK SMILES IDX 17 28 25 29 26 30 27 31 28 32 29 34 30 35 31 36 92 37 32 38
REMARK SMILES IDX 91 39 33 40 34 41 35 42 85 43 36 44 90 45 84 46 86 47 37 48
REMARK SMILES IDX 89 49 83 50 82 51 38 53 70 54 50 55 69 56 51 57 54 58 68 59
REMARK SMILES IDX 87 60 52 61 53 62 67 64 88 65 55 66 39 67 40 68 48 69 41 70
REMARK SMILES IDX 42 71 46 72 49 73 43 74 44 75 47 76 45 77 71 78 72 79 80 80
REMARK SMILES IDX 73 81 74 82 78 83 81 84 75 85 76 86 79 87 77 88 56 89 57 90
REMARK SMILES IDX 65 91 58 92 59 93 63 94 66 95 60 96 61 97 64 98 62 99
REMARK H PARENT 23 5 3 10 7 15 14 27 27 33 86 52 54 63
REMARK Flexibility Score: inf
ROOT
ATOM      1  C   UNL A   1      32.302  29.174  25.685  1.00  0.00     0.117 C 
ENDROOT
BRANCH   1   2
ATOM      2  N   UNL A   1      33.311  29.403  24.668  1.00  0.00    -0.354 N 
ATOM      3  C   UNL A   1      33.363  28.929  23.392  1.00  0.00     0.242 C 
ATOM      4  O   UNL A   1      34.407  29.076  22.756  1.00  0.00    -0.273 OA
ATOM      5  H   UNL A   1      34.061  29.981  24.936  1.00  0.00     0.163 HD
BRANCH   3   6
ATOM      6  C   UNL A   1      32.237  28.060  22.821  1.00  0.00     0.168 C 
ATOM      7  C   UNL A   1      31.113  29.028  22.443  1.00  0.00     0.041 C 
BRANCH   6   8
ATOM      8  N   UNL A   1      32.614  27.222  21.681  1.00  0.00    -0.343 N 
ATOM      9  C   UNL A   1      32.673  25.860  21.586  1.00  0.00     0.240 C 
ATOM     10  H   UNL A   1      32.861  27.712  20.864  1.00  0.00     0.164 HD
ATOM     11  O   UNL A   1      33.034  25.381  20.510  1.00  0.00    -0.273 OA
BRANCH   9  12
ATOM     12  C   UNL A   1      32.439  24.968  22.814  1.00  0.00     0.218 C 
BRANCH  12  13
ATOM     13  N   UNL A   1      31.931  23.633  22.493  1.00  0.00    -0.329 N 
ATOM     14  C   UNL A   1      32.339  22.438  23.034  1.00  0.00     0.322 C 
ATOM     15  H   UNL A   1      31.219  23.587  21.815  1.00  0.00     0.165 HD
ATOM     16  O   UNL A   1      32.205  21.421  22.356  1.00  0.00    -0.248 OA
BRANCH  14  17
ATOM     17  N   UNL A   1      32.927  22.500  24.276  1.00  0.00    -0.283 N 
ATOM     18  C   UNL A   1      32.132  22.336  25.490  1.00  0.00     0.227 C 
ATOM     19  C   UNL A   1      34.317  22.749  24.475  1.00  0.00     0.070 A 
ATOM     20  C   UNL A   1      32.411  23.424  26.509  1.00  0.00     0.244 C 
ATOM     21  C   UNL A   1      34.683  23.475  25.628  1.00  0.00     0.065 A 
ATOM     22  C   UNL A   1      35.303  22.441  23.536  1.00  0.00     0.028 A 
ATOM     23  O   UNL A   1      31.583  23.783  27.343  1.00  0.00    -0.273 OA
ATOM     24  N   UNL A   1      33.708  23.863  26.564  1.00  0.00    -0.323 N 
ATOM     25  C   UNL A   1      35.994  23.914  25.814  1.00  0.00     0.028 A 
ATOM     26  C   UNL A   1      36.624  22.861  23.735  1.00  0.00     0.002 A 
ATOM     27  H   UNL A   1      33.968  24.475  27.290  1.00  0.00     0.170 HD
ATOM     28  C   UNL A   1      36.965  23.606  24.865  1.00  0.00     0.002 A 
ENDBRANCH  14  17
ENDBRANCH  12  13
ENDBRANCH   9  12
ENDBRANCH   6   8
ENDBRANCH   3   6
ENDBRANCH   1   2
BRANCH   1  29
ATOM     29  C   UNL A   1      31.796  30.470  26.284  1.00  0.00     0.042 C 
BRANCH  29  30
ATOM     30  C   UNL A   1      32.880  31.246  27.015  1.00  0.00     0.118 C 
BRANCH  30  31
ATOM     31  N   UNL A   1      32.545  32.646  27.235  1.00  0.00    -0.352 N 
ATOM     32  C   UNL A   1      33.214  33.572  28.002  1.00  0.00     0.251 C 
ATOM     33  H   UNL A   1      31.737  32.971  26.778  1.00  0.00     0.163 HD
ATOM     34  O   UNL A   1      32.767  34.704  28.149  1.00  0.00    -0.269 OA
BRANCH  32  35
ATOM     35  C   UNL A   1      34.446  33.162  28.704  1.00  0.00     0.039 A 
ATOM     36  C   UNL A   1      34.326  32.422  29.881  1.00  0.00     0.014 A 
ATOM     37  C   UNL A   1      35.705  33.436  28.163  1.00  0.00     0.014 A 
ATOM     38  C   UNL A   1      35.471  31.900  30.481  1.00  0.00     0.010 A 
ATOM     39  C   UNL A   1      36.832  32.826  28.703  1.00  0.00     0.010 A 
ATOM     40  C   UNL A   1      36.730  32.067  29.878  1.00  0.00    -0.014 A 
BRANCH  40  41
ATOM     41  C   UNL A   1      37.945  31.482  30.500  1.00  0.00     0.031 A 
ATOM     42  C   UNL A   1      38.339  31.881  31.895  1.00  0.00     0.074 A 
ATOM     43  C   UNL A   1      38.695  30.600  29.811  1.00  0.00     0.049 A 
ATOM     44  N   UNL A   1      39.332  31.447  32.631  1.00  0.00    -0.248 NA
ATOM     45  C   UNL A   1      37.530  32.926  32.542  1.00  0.00     0.031 C 
ATOM     46  C   UNL A   1      38.455  30.181  28.429  1.00  0.00     0.029 A 
ATOM     47  N   UNL A   1      39.809  29.890  30.183  1.00  0.00    -0.354 N 
ATOM     48  C   UNL A   1      39.264  32.166  33.816  1.00  0.00     0.074 A 
ATOM     49  C   UNL A   1      38.185  33.117  33.675  1.00  0.00     0.031 C 
ATOM     50  C   UNL A   1      39.365  29.256  28.085  1.00  0.00     0.029 A 
ATOM     51  C   UNL A   1      40.269  29.035  29.211  1.00  0.00     0.049 A 
ATOM     52  H   UNL A   1      40.238  29.983  31.064  1.00  0.00     0.167 HD
ATOM     53  C   UNL A   1      40.010  32.024  34.937  1.00  0.00     0.037 A 
ATOM     54  C   UNL A   1      41.294  28.162  29.233  1.00  0.00     0.037 A 
ATOM     55  C   UNL A   1      41.071  31.063  35.082  1.00  0.00     0.049 A 
ATOM     56  C   UNL A   1      42.100  28.013  30.496  1.00  0.00     0.074 A 
ATOM     57  C   UNL A   1      41.860  30.808  36.190  1.00  0.00     0.029 A 
ATOM     58  N   UNL A   1      41.495  30.201  34.082  1.00  0.00    -0.354 N 
ATOM     59  N   UNL A   1      41.973  28.639  31.640  1.00  0.00    -0.248 NA
ATOM     60  C   UNL A   1      43.181  27.018  30.474  1.00  0.00     0.031 C 
ATOM     61  C   UNL A   1      42.791  29.822  35.845  1.00  0.00     0.029 A 
ATOM     62  C   UNL A   1      42.543  29.422  34.542  1.00  0.00     0.049 A 
ATOM     63  H   UNL A   1      41.107  30.150  33.178  1.00  0.00     0.167 HD
ATOM     64  C   UNL A   1      42.927  28.087  32.486  1.00  0.00     0.074 A 
ATOM     65  C   UNL A   1      43.615  27.066  31.725  1.00  0.00     0.031 C 
ATOM     66  C   UNL A   1      43.207  28.397  33.776  1.00  0.00     0.037 A 
BRANCH  53  67
ATOM     67  C   UNL A   1      39.694  32.926  36.095  1.00  0.00     0.064 A 
ATOM     68  C   UNL A   1      38.700  32.601  37.032  1.00  0.00     0.173 A 
ATOM     69  C   UNL A   1      40.405  34.120  36.284  1.00  0.00     0.173 A 
ATOM     70  F   UNL A   1      37.979  31.478  36.890  1.00  0.00    -0.203 F 
ATOM     71  C   UNL A   1      38.406  33.454  38.093  1.00  0.00     0.198 A 
ATOM     72  C   UNL A   1      40.133  34.954  37.365  1.00  0.00     0.198 A 
ATOM     73  F   UNL A   1      41.367  34.479  35.420  1.00  0.00    -0.203 F 
ATOM     74  F   UNL A   1      37.414  33.150  38.940  1.00  0.00    -0.200 F 
ATOM     75  C   UNL A   1      39.128  34.625  38.263  1.00  0.00     0.200 A 
ATOM     76  F   UNL A   1      40.840  36.079  37.537  1.00  0.00    -0.200 F 
ATOM     77  F   UNL A   1      38.850  35.441  39.288  1.00  0.00    -0.200 F 
ENDBRANCH  53  67
BRANCH  54  78
ATOM     78  C   UNL A   1      41.588  27.324  28.039  1.00  0.00     0.064 A 
ATOM     79  C   UNL A   1      40.993  26.066  27.875  1.00  0.00     0.173 A 
ATOM     80  C   UNL A   1      42.484  27.755  27.050  1.00  0.00     0.173 A 
ATOM     81  F   UNL A   1      40.144  25.600  28.804  1.00  0.00    -0.203 F 
ATOM     82  C   UNL A   1      41.304  25.257  26.783  1.00  0.00     0.198 A 
ATOM     83  C   UNL A   1      42.770  26.959  25.942  1.00  0.00     0.198 A 
ATOM     84  F   UNL A   1      43.075  28.954  27.154  1.00  0.00    -0.203 F 
ATOM     85  F   UNL A   1      40.763  24.035  26.681  1.00  0.00    -0.200 F 
ATOM     86  C   UNL A   1      42.189  25.706  25.815  1.00  0.00     0.200 A 
ATOM     87  F   UNL A   1      43.614  27.403  25.000  1.00  0.00    -0.200 F 
ATOM     88  F   UNL A   1      42.488  24.929  24.766  1.00  0.00    -0.200 F 
ENDBRANCH  54  78
BRANCH  66  89
ATOM     89  C   UNL A   1      44.266  27.583  34.465  1.00  0.00     0.064 A 
ATOM     90  C   UNL A   1      45.615  27.964  34.464  1.00  0.00     0.173 A 
ATOM     91  C   UNL A   1      43.916  26.410  35.154  1.00  0.00     0.173 A 
ATOM     92  F   UNL A   1      46.005  29.070  33.811  1.00  0.00    -0.203 F 
ATOM     93  C   UNL A   1      46.582  27.180  35.089  1.00  0.00     0.198 A 
ATOM     94  C   UNL A   1      44.879  25.648  35.808  1.00  0.00     0.198 A 
ATOM     95  F   UNL A   1      42.638  26.006  35.196  1.00  0.00    -0.203 F 
ATOM     96  F   UNL A   1      47.873  27.529  35.019  1.00  0.00    -0.200 F 
ATOM     97  C   UNL A   1      46.212  26.026  35.765  1.00  0.00     0.200 A 
ATOM     98  F   UNL A   1      44.517  24.544  36.476  1.00  0.00    -0.200 F 
ATOM     99  F   UNL A   1      47.143  25.273  36.367  1.00  0.00    -0.200 F 
ENDBRANCH  66  89
ENDBRANCH  40  41
ENDBRANCH  32  35
ENDBRANCH  30  31
ENDBRANCH  29  30
ENDBRANCH   1  29
TORSDOF 14
ENDMDL
MODEL 2
REMARK VINA RESULT:     -13.2      0.068      1.110
REMARK SMILES C[C@@H](NC(=O)CNC(=O)N1CC(=O)Nc2ccccc21)C(=O)NCCCNC(=O)c1ccc(-c2c3nc(c(-c4c(F)c(F)c(F)c(F)c4F)c4ccc([nH]4)c(-c4c(F)c(F)c(F)c(F)c4F)c4nc(c(-c5c(F)c(F)c(F)c(F)c5F)c5ccc2[nH]5)C=C4)C=C3)cc1
REMARK SMILES IDX 24 1 23 2 21 3 22 4 2 6 1 7 3 8 4 9 5 11 6 12 7 13 8 14 9 16
REMARK SMILES IDX 10 17 11 18 20 19 12 20 15 21 19 22 13 23 14 24 16 25 18 26
REMARK SMILES IDX 17 28 25 29 26 30 27 31 28 32 29 34 30 35 31 36 92 37 32 38
REMARK SMILES IDX 91 39 33 40 34 41 35 42 85 43 36 44 90 45 84 46 86 47 37 48
REMARK SMILES IDX 89 49 83 50 82 51 38 53 70 54 50 55 69 56 51 57 54 58 68 59
REMARK SMILES IDX 87 60 52 61 53 62 67 64 88 65 55 66 39 67 40 68 48 69 41 70
REMARK SMILES IDX 42 71 46 72 49 73 43 74 44 75 47 76 45 77 71 78 72 79 80 80
REMARK SMILES IDX 73 81 74 82 78 83 81 84 75 85 76 86 79 87 77 88 56 89 57 90
REMARK SMILES IDX 65 91 58 92 59 93 63 94 66 95 60 96 61 97 64 98 62 99
REMARK H PARENT 23 5 3 10 7 15 14 27 27 33 86 52 54 63
REMARK Flexibility Score: inf
ROOT
ATOM      1  C   UNL A   1      32.313  29.159  25.722  1.00  0.00     0.117 C 
ENDROOT
BRANCH   1   2
ATOM      2  N   UNL A   1      33.316  29.393  24.700  1.00  0.00    -0.354 N 
ATOM      3  C   UNL A   1      33.360  28.924  23.422  1.00  0.00     0.242 C 
ATOM      4  O   UNL A   1      34.400  29.074  22.780  1.00  0.00    -0.273 OA
ATOM      5  H   UNL A   1      34.067  29.969  24.967  1.00  0.00     0.163 HD
BRANCH   3   6
ATOM      6  C   UNL A   1      32.230  28.058  22.854  1.00  0.00     0.168 C 
ATOM      7  C   UNL A   1      31.102  29.028  22.492  1.00  0.00     0.041 C 
BRANCH   6   8
ATOM      8  N   UNL A   1      32.599  27.230  21.705  1.00  0.00    -0.343 N 
ATOM      9  C   UNL A   1      32.655  25.868  21.598  1.00  0.00     0.240 C 
ATOM     10  H   UNL A   1      32.841  27.726  20.890  1.00  0.00     0.164 HD
ATOM     11  O   UNL A   1      33.009  25.397  20.515  1.00  0.00    -0.273 OA
BRANCH   9  12
ATOM     12  C   UNL A   1      32.427  24.966  22.819  1.00  0.00     0.218 C 
BRANCH  12  13
ATOM     13  N   UNL A   1      31.919  23.633  22.490  1.00  0.00    -0.329 N 
ATOM     14  C   UNL A   1      32.326  22.435  23.025  1.00  0.00     0.322 C 
ATOM     15  H   UNL A   1      31.209  23.591  21.810  1.00  0.00     0.165 HD
ATOM     16  O   UNL A   1      32.193  21.422  22.341  1.00  0.00    -0.248 OA
BRANCH  14  17
ATOM     17  N   UNL A   1      32.912  22.490  24.268  1.00  0.00    -0.283 N 
ATOM     18  C   UNL A   1      32.116  22.314  25.480  1.00  0.00     0.227 C 
ATOM     19  C   UNL A   1      34.301  22.742  24.472  1.00  0.00     0.070 A 
ATOM     20  C   UNL A   1      32.389  23.396  26.508  1.00  0.00     0.244 C 
ATOM     21  C   UNL A   1      34.662  23.461  25.631  1.00  0.00     0.065 A 
ATOM     22  C   UNL A   1      35.290  22.444  23.532  1.00  0.00     0.028 A 
ATOM     23  O   UNL A   1      31.558  23.745  27.342  1.00  0.00    -0.273 OA
ATOM     24  N   UNL A   1      33.684  23.838  26.568  1.00  0.00    -0.323 N 
ATOM     25  C   UNL A   1      35.971  23.903  25.822  1.00  0.00     0.028 A 
ATOM     26  C   UNL A   1      36.608  22.868  23.737  1.00  0.00     0.002 A 
ATOM     27  H   UNL A   1      33.941  24.446  27.299  1.00  0.00     0.170 HD
ATOM     28  C   UNL A   1      36.945  23.605  24.872  1.00  0.00     0.002 A 
ENDBRANCH  14  17
ENDBRANCH  12  13
ENDBRANCH   9  12
ENDBRANCH   6   8
ENDBRANCH   3   6
ENDBRANCH   1   2
BRANCH   1  29
ATOM     29  C   UNL A   1      31.809  30.453  26.328  1.00  0.00     0.042 C 
BRANCH  29  30
ATOM     30  C   UNL A   1      32.899  31.237  27.039  1.00  0.00     0.118 C 
BRANCH  30  31
ATOM     31  N   UNL A   1      32.560  32.636  27.259  1.00  0.00    -0.352 N 
ATOM     32  C   UNL A   1      33.228  33.564  28.025  1.00  0.00     0.251 C 
ATOM     33  H   UNL A   1      31.751  32.959  26.803  1.00  0.00     0.163 HD
ATOM     34  O   UNL A   1      32.777  34.696  28.172  1.00  0.00    -0.269 OA
BRANCH  32  35
ATOM     35  C   UNL A   1      34.462  33.158  28.726  1.00  0.00     0.039 A 
ATOM     36  C   UNL A   1      34.345  32.412  29.899  1.00  0.00     0.014 A 
ATOM     37  C   UNL A   1      35.720  33.441  28.186  1.00  0.00     0.014 A 
ATOM     38  C   UNL A   1      35.493  31.894  30.497  1.00  0.00     0.010 A 
ATOM     39  C   UNL A   1      36.849  32.836  28.724  1.00  0.00     0.010 A 
ATOM     40  C   UNL A   1      36.752  32.071  29.896  1.00  0.00    -0.014 A 
BRANCH  40  41
ATOM     41  C   UNL A   1      37.969  31.489  30.516  1.00  0.00     0.031 A 
ATOM     42  C   UNL A   1      38.370  31.898  31.906  1.00  0.00     0.074 A 
ATOM     43  C   UNL A   1      38.716  30.603  29.829  1.00  0.00     0.049 A 
ATOM     44  N   UNL A   1      39.367  31.468  32.640  1.00  0.00    -0.248 NA
ATOM     45  C   UNL A   1      37.565  32.948  32.550  1.00  0.00     0.031 C 
ATOM     46  C   UNL A   1      38.469  30.175  28.451  1.00  0.00     0.029 A 
ATOM     47  N   UNL A   1      39.831  29.895  30.201  1.00  0.00    -0.354 N 
ATOM     48  C   UNL A   1      39.305  32.195  33.821  1.00  0.00     0.074 A 
ATOM     49  C   UNL A   1      38.225  33.146  33.679  1.00  0.00     0.031 C 
ATOM     50  C   UNL A   1      39.377  29.247  28.109  1.00  0.00     0.029 A 
ATOM     51  C   UNL A   1      40.287  29.033  29.232  1.00  0.00     0.049 A 
ATOM     52  H   UNL A   1      40.265  29.994  31.079  1.00  0.00     0.167 HD
ATOM     53  C   UNL A   1      40.056  32.061  34.939  1.00  0.00     0.037 A 
ATOM     54  C   UNL A   1      41.312  28.161  29.255  1.00  0.00     0.037 A 
ATOM     55  C   UNL A   1      41.118  31.101  35.085  1.00  0.00     0.049 A 
ATOM     56  C   UNL A   1      42.124  28.020  30.515  1.00  0.00     0.074 A 
ATOM     57  C   UNL A   1      41.912  30.853  36.191  1.00  0.00     0.029 A 
ATOM     58  N   UNL A   1      41.537  30.232  34.089  1.00  0.00    -0.354 N 
ATOM     59  N   UNL A   1      42.003  28.653  31.656  1.00  0.00    -0.248 NA
ATOM     60  C   UNL A   1      43.204  27.024  30.495  1.00  0.00     0.031 C 
ATOM     61  C   UNL A   1      42.841  29.865  35.848  1.00  0.00     0.029 A 
ATOM     62  C   UNL A   1      42.587  29.456  34.549  1.00  0.00     0.049 A 
ATOM     63  H   UNL A   1      41.144  30.175  33.188  1.00  0.00     0.167 HD
ATOM     64  C   UNL A   1      42.961  28.107  32.500  1.00  0.00     0.074 A 
ATOM     65  C   UNL A   1      43.645  27.081  31.743  1.00  0.00     0.031 C 
ATOM     66  C   UNL A   1      43.247  28.426  33.787  1.00  0.00     0.037 A 
BRANCH  53  67
ATOM     67  C   UNL A   1      39.745  32.971  36.093  1.00  0.00     0.064 A 
ATOM     68  C   UNL A   1      38.778  32.638  37.054  1.00  0.00     0.173 A 
ATOM     69  C   UNL A   1      40.436  34.181  36.252  1.00  0.00     0.173 A 
ATOM     70  F   UNL A   1      38.077  31.499  36.941  1.00  0.00    -0.203 F 
ATOM     71  C   UNL A   1      38.489  33.498  38.110  1.00  0.00     0.198 A 
ATOM     72  C   UNL A   1      40.169  35.023  37.329  1.00  0.00     0.198 A 
ATOM     73  F   UNL A   1      41.373  34.548  35.365  1.00  0.00    -0.203 F 
ATOM     74  F   UNL A   1      37.520  33.184  38.982  1.00  0.00    -0.200 F 
ATOM     75  C   UNL A   1      39.191  34.684  38.252  1.00  0.00     0.200 A 
ATOM     76  F   UNL A   1      40.857  36.164  37.472  1.00  0.00    -0.200 F 
ATOM     77  F   UNL A   1      38.917  35.508  39.272  1.00  0.00    -0.200 F 
ENDBRANCH  53  67
BRANCH  54  78
ATOM     78  C   UNL A   1      41.600  27.315  28.065  1.00  0.00     0.064 A 
ATOM     79  C   UNL A   1      40.989  26.064  27.903  1.00  0.00     0.173 A 
ATOM     80  C   UNL A   1      42.505  27.730  27.079  1.00  0.00     0.173 A 
ATOM     81  F   UNL A   1      40.130  25.612  28.830  1.00  0.00    -0.203 F 
ATOM     82  C   UNL A   1      41.294  25.247  26.815  1.00  0.00     0.198 A 
ATOM     83  C   UNL A   1      42.786  26.927  25.974  1.00  0.00     0.198 A 
ATOM     84  F   UNL A   1      43.113  28.921  27.181  1.00  0.00    -0.203 F 
ATOM     85  F   UNL A   1      40.737  24.033  26.715  1.00  0.00    -0.200 F 
ATOM     86  C   UNL A   1      42.189  25.681  25.849  1.00  0.00     0.200 A 
ATOM     87  F   UNL A   1      43.640  27.356  25.036  1.00  0.00    -0.200 F 
ATOM     88  F   UNL A   1      42.482  24.896  24.804  1.00  0.00    -0.200 F 
ENDBRANCH  54  78
BRANCH  66  89
ATOM     89  C   UNL A   1      44.309  27.616  34.476  1.00  0.00     0.064 A 
ATOM     90  C   UNL A   1      44.015  26.415  35.137  1.00  0.00     0.173 A 
ATOM     91  C   UNL A   1      45.646  28.043  34.456  1.00  0.00     0.173 A 
ATOM     92  F   UNL A   1      42.751  25.967  35.195  1.00  0.00    -0.203 F 
ATOM     93  C   UNL A   1      45.012  25.693  35.789  1.00  0.00     0.198 A 
ATOM     94  C   UNL A   1      46.646  27.301  35.078  1.00  0.00     0.198 A 
ATOM     95  F   UNL A   1      45.984  29.179  33.829  1.00  0.00    -0.203 F 
ATOM     96  F   UNL A   1      44.697  24.583  36.469  1.00  0.00    -0.200 F 
ATOM     97  C   UNL A   1      46.327  26.134  35.754  1.00  0.00     0.200 A 
ATOM     98  F   UNL A   1      47.918  27.720  35.027  1.00  0.00    -0.200 F 
ATOM     99  F   UNL A   1      47.285  25.439  36.381  1.00  0.00    -0.200 F 
ENDBRANCH  66  89
ENDBRANCH  40  41
ENDBRANCH  32  35
ENDBRANCH  30  31
ENDBRANCH  29  30
ENDBRANCH   1  29
TORSDOF 14
ENDMDL
MODEL 3
REMARK VINA RESULT:     -13.2      1.018      1.952
REMARK SMILES C[C@@H](NC(=O)CNC(=O)N1CC(=O)Nc2ccccc21)C(=O)NCCCNC(=O)c1ccc(-c2c3nc(c(-c4c(F)c(F)c(F)c(F)c4F)c4ccc([nH]4)c(-c4c(F)c(F)c(F)c(F)c4F)c4nc(c(-c5c(F)c(F)c(F)c(F)c5F)c5ccc2[nH]5)C=C4)C=C3)cc1
REMARK SMILES IDX 24 1 23 2 21 3 22 4 2 6 1 7 3 8 4 9 5 11 6 12 7 13 8 14 9 16
REMARK SMILES IDX 10 17 11 18 20 19 12 20 15 21 19 22 13 23 14 24 16 25 18 26
REMARK SMILES IDX 17 28 25 29 26 30 27 31 28 32 29 34 30 35 31 36 92 37 32 38
REMARK SMILES IDX 91 39 33 40 34 41 35 42 85 43 36 44 90 45 84 46 86 47 37 48
REMARK SMILES IDX 89 49 83 50 82 51 38 53 70 54 50 55 69 56 51 57 54 58 68 59
REMARK SMILES IDX 87 60 52 61 53 62 67 64 88 65 55 66 39 67 40 68 48 69 41 70
REMARK SMILES IDX 42 71 46 72 49 73 43 74 44 75 47 76 45 77 71 78 72 79 80 80
REMARK SMILES IDX 73 81 74 82 78 83 81 84 75 85 76 86 79 87 77 88 56 89 57 90
REMARK SMILES IDX 65 91 58 92 59 93 63 94 66 95 60 96 61 97 64 98 62 99
REMARK H PARENT 23 5 3 10 7 15 14 27 27 33 86 52 54 63
REMARK Flexibility Score: inf
ROOT
ATOM      1  C   UNL A   1      31.409  29.314  25.277  1.00  0.00     0.117 C 
ENDROOT
BRANCH   1   2
ATOM      2  N   UNL A   1      30.911  29.694  23.968  1.00  0.00    -0.354 N 
ATOM      3  C   UNL A   1      30.787  28.934  22.845  1.00  0.00     0.242 C 
ATOM      4  O   UNL A   1      30.533  29.500  21.782  1.00  0.00    -0.273 OA
ATOM      5  H   UNL A   1      30.623  30.631  23.880  1.00  0.00     0.163 HD
BRANCH   3   6
ATOM      6  C   UNL A   1      31.148  27.444  22.851  1.00  0.00     0.168 C 
ATOM      7  C   UNL A   1      29.841  26.699  23.132  1.00  0.00     0.041 C 
BRANCH   6   8
ATOM      8  N   UNL A   1      31.781  26.952  21.626  1.00  0.00    -0.343 N 
ATOM      9  C   UNL A   1      32.444  25.778  21.401  1.00  0.00     0.240 C 
ATOM     10  H   UNL A   1      31.720  27.556  20.850  1.00  0.00     0.164 HD
ATOM     11  O   UNL A   1      32.904  25.592  20.273  1.00  0.00    -0.273 OA
BRANCH   9  12
ATOM     12  C   UNL A   1      32.727  24.795  22.546  1.00  0.00     0.218 C 
BRANCH  12  13
ATOM     13  N   UNL A   1      32.100  23.484  22.376  1.00  0.00    -0.329 N 
ATOM     14  C   UNL A   1      32.360  22.341  23.092  1.00  0.00     0.322 C 
ATOM     15  H   UNL A   1      31.418  23.413  21.669  1.00  0.00     0.165 HD
ATOM     16  O   UNL A   1      32.153  21.258  22.548  1.00  0.00    -0.248 OA
BRANCH  14  17
ATOM     17  N   UNL A   1      32.896  22.515  24.347  1.00  0.00    -0.283 N 
ATOM     18  C   UNL A   1      32.050  22.464  25.536  1.00  0.00     0.227 C 
ATOM     19  C   UNL A   1      34.277  22.780  24.581  1.00  0.00     0.070 A 
ATOM     20  C   UNL A   1      32.291  23.642  26.462  1.00  0.00     0.244 C 
ATOM     21  C   UNL A   1      34.598  23.609  25.677  1.00  0.00     0.065 A 
ATOM     22  C   UNL A   1      35.301  22.386  23.716  1.00  0.00     0.028 A 
ATOM     23  O   UNL A   1      31.430  24.076  27.223  1.00  0.00    -0.273 OA
ATOM     24  N   UNL A   1      33.587  24.082  26.531  1.00  0.00    -0.323 N 
ATOM     25  C   UNL A   1      35.902  24.061  25.877  1.00  0.00     0.028 A 
ATOM     26  C   UNL A   1      36.614  22.821  23.932  1.00  0.00     0.002 A 
ATOM     27  H   UNL A   1      33.819  24.758  27.208  1.00  0.00     0.170 HD
ATOM     28  C   UNL A   1      36.911  23.666  25.001  1.00  0.00     0.002 A 
ENDBRANCH  14  17
ENDBRANCH  12  13
ENDBRANCH   9  12
ENDBRANCH   6   8
ENDBRANCH   3   6
ENDBRANCH   1   2
BRANCH   1  29
ATOM     29  C   UNL A   1      32.673  30.063  25.642  1.00  0.00     0.042 C 
BRANCH  29  30
ATOM     30  C   UNL A   1      32.649  30.605  27.062  1.00  0.00     0.118 C 
BRANCH  30  31
ATOM     31  N   UNL A   1      32.701  32.059  27.131  1.00  0.00    -0.352 N 
ATOM     32  C   UNL A   1      33.709  32.853  27.626  1.00  0.00     0.251 C 
ATOM     33  H   UNL A   1      31.915  32.534  26.779  1.00  0.00     0.163 HD
ATOM     34  O   UNL A   1      33.577  34.072  27.681  1.00  0.00    -0.269 OA
BRANCH  32  35
ATOM     35  C   UNL A   1      34.929  32.213  28.155  1.00  0.00     0.039 A 
ATOM     36  C   UNL A   1      36.099  32.969  28.227  1.00  0.00     0.014 A 
ATOM     37  C   UNL A   1      34.896  30.906  28.651  1.00  0.00     0.014 A 
ATOM     38  C   UNL A   1      37.222  32.434  28.857  1.00  0.00     0.010 A 
ATOM     39  C   UNL A   1      35.981  30.418  29.371  1.00  0.00     0.010 A 
ATOM     40  C   UNL A   1      37.162  31.168  29.467  1.00  0.00    -0.014 A 
BRANCH  40  41
ATOM     41  C   UNL A   1      38.348  30.614  30.167  1.00  0.00     0.031 A 
ATOM     42  C   UNL A   1      38.618  30.992  31.597  1.00  0.00     0.074 A 
ATOM     43  C   UNL A   1      39.184  29.781  29.518  1.00  0.00     0.049 A 
ATOM     44  N   UNL A   1      39.569  30.577  32.397  1.00  0.00    -0.248 NA
ATOM     45  C   UNL A   1      37.720  31.988  32.204  1.00  0.00     0.031 C 
ATOM     46  C   UNL A   1      39.067  29.389  28.112  1.00  0.00     0.029 A 
ATOM     47  N   UNL A   1      40.293  29.105  29.959  1.00  0.00    -0.354 N 
ATOM     48  C   UNL A   1      39.382  31.262  33.590  1.00  0.00     0.074 A 
ATOM     49  C   UNL A   1      38.279  32.174  33.388  1.00  0.00     0.031 C 
ATOM     50  C   UNL A   1      40.037  28.509  27.818  1.00  0.00     0.029 A 
ATOM     51  C   UNL A   1      40.861  28.294  29.005  1.00  0.00     0.049 A 
ATOM     52  H   UNL A   1      40.650  29.191  30.872  1.00  0.00     0.167 HD
ATOM     53  C   UNL A   1      40.045  31.119  34.762  1.00  0.00     0.037 A 
ATOM     54  C   UNL A   1      41.915  27.461  29.086  1.00  0.00     0.037 A 
ATOM     55  C   UNL A   1      41.130  30.197  34.966  1.00  0.00     0.049 A 
ATOM     56  C   UNL A   1      42.628  27.310  30.404  1.00  0.00     0.074 A 
ATOM     57  C   UNL A   1      41.841  29.943  36.125  1.00  0.00     0.029 A 
ATOM     58  N   UNL A   1      41.663  29.378  33.982  1.00  0.00    -0.354 N 
ATOM     59  N   UNL A   1      42.389  27.900  31.549  1.00  0.00    -0.248 NA
ATOM     60  C   UNL A   1      43.747  26.358  30.442  1.00  0.00     0.031 C 
ATOM     61  C   UNL A   1      42.835  29.004  35.831  1.00  0.00     0.029 A 
ATOM     62  C   UNL A   1      42.704  28.628  34.503  1.00  0.00     0.049 A 
ATOM     63  H   UNL A   1      41.348  29.336  33.050  1.00  0.00     0.167 HD
ATOM     64  C   UNL A   1      43.298  27.364  32.453  1.00  0.00     0.074 A 
ATOM     65  C   UNL A   1      44.083  26.390  31.724  1.00  0.00     0.031 C 
ATOM     66  C   UNL A   1      43.466  27.651  33.767  1.00  0.00     0.037 A 
BRANCH  53  67
ATOM     67  C   UNL A   1      39.605  31.978  35.913  1.00  0.00     0.064 A 
ATOM     68  C   UNL A   1      40.245  33.190  36.214  1.00  0.00     0.173 A 
ATOM     69  C   UNL A   1      38.518  31.595  36.713  1.00  0.00     0.173 A 
ATOM     70  F   UNL A   1      41.300  33.596  35.490  1.00  0.00    -0.203 F 
ATOM     71  C   UNL A   1      39.836  33.970  37.293  1.00  0.00     0.198 A 
ATOM     72  C   UNL A   1      38.090  32.394  37.770  1.00  0.00     0.198 A 
ATOM     73  F   UNL A   1      37.868  30.448  36.469  1.00  0.00    -0.203 F 
ATOM     74  F   UNL A   1      40.501  35.093  37.596  1.00  0.00    -0.200 F 
ATOM     75  C   UNL A   1      38.754  33.575  38.064  1.00  0.00     0.200 A 
ATOM     76  F   UNL A   1      37.035  32.019  38.508  1.00  0.00    -0.200 F 
ATOM     77  F   UNL A   1      38.357  34.329  39.098  1.00  0.00    -0.200 F 
ENDBRANCH  53  67
BRANCH  54  78
ATOM     78  C   UNL A   1      42.334  26.667  27.899  1.00  0.00     0.064 A 
ATOM     79  C   UNL A   1      43.297  27.155  27.006  1.00  0.00     0.173 A 
ATOM     80  C   UNL A   1      41.766  25.415  27.624  1.00  0.00     0.173 A 
ATOM     81  F   UNL A   1      43.856  28.357  27.215  1.00  0.00    -0.203 F 
ATOM     82  C   UNL A   1      43.656  26.436  25.867  1.00  0.00     0.198 A 
ATOM     83  C   UNL A   1      42.148  24.682  26.501  1.00  0.00     0.198 A 
ATOM     84  F   UNL A   1      40.844  24.898  28.449  1.00  0.00    -0.203 F 
ATOM     85  F   UNL A   1      44.538  26.953  25.001  1.00  0.00    -0.200 F 
ATOM     86  C   UNL A   1      43.084  25.198  25.617  1.00  0.00     0.200 A 
ATOM     87  F   UNL A   1      41.604  23.479  26.272  1.00  0.00    -0.200 F 
ATOM     88  F   UNL A   1      43.428  24.508  24.522  1.00  0.00    -0.200 F 
ENDBRANCH  54  78
BRANCH  66  89
ATOM     89  C   UNL A   1      44.501  26.860  34.517  1.00  0.00     0.064 A 
ATOM     90  C   UNL A   1      45.826  27.301  34.644  1.00  0.00     0.173 A 
ATOM     91  C   UNL A   1      44.151  25.648  35.134  1.00  0.00     0.173 A 
ATOM     92  F   UNL A   1      46.214  28.448  34.065  1.00  0.00    -0.203 F 
ATOM     93  C   UNL A   1      46.773  26.539  35.323  1.00  0.00     0.198 A 
ATOM     94  C   UNL A   1      45.092  24.906  35.843  1.00  0.00     0.198 A 
ATOM     95  F   UNL A   1      42.896  25.185  35.053  1.00  0.00    -0.203 F 
ATOM     96  F   UNL A   1      48.047  26.949  35.376  1.00  0.00    -0.200 F 
ATOM     97  C   UNL A   1      46.404  25.346  35.927  1.00  0.00     0.200 A 
ATOM     98  F   UNL A   1      44.728  23.763  36.440  1.00  0.00    -0.200 F 
ATOM     99  F   UNL A   1      47.316  24.614  36.581  1.00  0.00    -0.200 F 
ENDBRANCH  66  89
ENDBRANCH  40  41
ENDBRANCH  32  35
ENDBRANCH  30  31
ENDBRANCH  29  30
ENDBRANCH   1  29
TORSDOF 14
ENDMDL
