MODEL 1
REMARK VINA RESULT:     -12.8      0.000      0.000
REMARK SMILES Cc1ccc(C)n1-c1ccccc1S[C@H](C)C(=O)NCCCNC(=O)c1ccc(-c2c3nc(c(-c4c(F)c(F)c(F)c(F)c4F)c4ccc([nH]4)c(-c4c(F)c(F)c(F)c(F)c4F)c4nc(c(-c5c(F)c(F)c(F)c(F)c5F)c5ccc2[nH]5)C=C4)C=C3)cc1
REMARK SMILES IDX 20 1 19 2 17 3 18 4 15 6 16 7 14 8 13 9 8 10 9 11 10 12
REMARK SMILES IDX 12 13 11 14 7 15 1 16 2 17 3 18 4 19 5 20 6 21 21 22 22 23
REMARK SMILES IDX 23 24 24 25 25 27 26 28 27 29 88 30 28 31 87 32 29 33 30 34
REMARK SMILES IDX 31 35 81 36 32 37 86 38 80 39 82 40 33 41 85 42 79 43 78 44
REMARK SMILES IDX 34 46 66 47 46 48 65 49 47 50 50 51 64 52 83 53 48 54 49 55
REMARK SMILES IDX 63 57 84 58 51 59 35 60 36 61 44 62 37 63 38 64 42 65 45 66
REMARK SMILES IDX 39 67 40 68 43 69 41 70 67 71 68 72 76 73 69 74 70 75 74 76
REMARK SMILES IDX 77 77 71 78 72 79 75 80 73 81 52 82 53 83 61 84 54 85 55 86
REMARK SMILES IDX 59 87 62 88 56 89 57 90 60 91 58 92
REMARK H PARENT 19 5 23 26 82 45 50 56
REMARK Flexibility Score: inf
ROOT
ATOM      1  C   UNL A   1      33.688  26.539  25.508  1.00  0.00     0.117 C 
ENDROOT
BRANCH   1   2
ATOM      2  N   UNL A   1      32.642  25.813  26.206  1.00  0.00    -0.355 N 
ATOM      3  C   UNL A   1      31.758  24.843  25.872  1.00  0.00     0.233 C 
ATOM      4  O   UNL A   1      31.048  24.452  26.813  1.00  0.00    -0.274 OA
ATOM      5  H   UNL A   1      32.554  26.093  27.145  1.00  0.00     0.163 HD
BRANCH   3   6
ATOM      6  C   UNL A   1      31.479  24.298  24.471  1.00  0.00     0.137 C 
ATOM      7  C   UNL A   1      30.396  25.066  23.738  1.00  0.00     0.030 C 
BRANCH   6   8
ATOM      8  S   UNL A   1      32.916  23.598  23.586  1.00  0.00    -0.111 SA
BRANCH   8   9
ATOM      9  C   UNL A   1      33.180  21.871  23.996  1.00  0.00     0.032 A 
ATOM     10  C   UNL A   1      34.364  21.469  24.663  1.00  0.00     0.059 A 
ATOM     11  C   UNL A   1      34.666  20.109  24.863  1.00  0.00     0.028 A 
ATOM     12  C   UNL A   1      33.783  19.126  24.432  1.00  0.00     0.002 A 
ATOM     13  C   UNL A   1      32.283  20.855  23.648  1.00  0.00     0.017 A 
ATOM     14  C   UNL A   1      32.585  19.500  23.842  1.00  0.00     0.001 A 
BRANCH  10  15
ATOM     15  N   UNL A   1      35.326  22.411  25.130  1.00  0.00    -0.317 N 
ATOM     16  C   UNL A   1      36.615  22.707  22.942  1.00  0.00     0.065 C 
ATOM     17  C   UNL A   1      36.377  22.953  24.394  1.00  0.00     0.020 A 
ATOM     18  C   UNL A   1      37.086  23.799  25.227  1.00  0.00     0.023 A 
ATOM     19  C   UNL A   1      36.411  23.858  26.459  1.00  0.00     0.023 A 
ATOM     20  C   UNL A   1      35.308  23.030  26.378  1.00  0.00     0.020 A 
ATOM     21  C   UNL A   1      34.300  22.769  27.445  1.00  0.00     0.065 C 
ENDBRANCH  10  15
ENDBRANCH   8   9
ENDBRANCH   6   8
ENDBRANCH   3   6
ENDBRANCH   1   2
BRANCH   1  22
ATOM     22  C   UNL A   1      33.637  28.058  25.713  1.00  0.00     0.042 C 
BRANCH  22  23
ATOM     23  C   UNL A   1      34.038  28.563  27.115  1.00  0.00     0.118 C 
BRANCH  23  24
ATOM     24  N   UNL A   1      33.964  30.003  27.279  1.00  0.00    -0.352 N 
ATOM     25  C   UNL A   1      34.947  30.877  27.712  1.00  0.00     0.251 C 
ATOM     26  H   UNL A   1      33.098  30.414  27.051  1.00  0.00     0.163 HD
ATOM     27  O   UNL A   1      34.699  32.077  27.733  1.00  0.00    -0.269 OA
BRANCH  25  28
ATOM     28  C   UNL A   1      36.267  30.395  28.250  1.00  0.00     0.039 A 
ATOM     29  C   UNL A   1      37.306  30.231  27.348  1.00  0.00     0.014 A 
ATOM     30  C   UNL A   1      36.455  29.869  29.540  1.00  0.00     0.014 A 
ATOM     31  C   UNL A   1      38.514  29.597  27.744  1.00  0.00     0.010 A 
ATOM     32  C   UNL A   1      37.659  29.148  29.915  1.00  0.00     0.010 A 
ATOM     33  C   UNL A   1      38.729  28.965  29.019  1.00  0.00    -0.014 A 
BRANCH  33  34
ATOM     34  C   UNL A   1      39.783  27.773  29.018  1.00  0.00     0.031 A 
ATOM     35  C   UNL A   1      40.644  28.098  30.194  1.00  0.00     0.074 A 
ATOM     36  C   UNL A   1      40.222  26.687  28.269  1.00  0.00     0.049 A 
ATOM     37  N   UNL A   1      41.262  29.247  30.253  1.00  0.00    -0.248 NA
ATOM     38  C   UNL A   1      40.533  27.391  31.472  1.00  0.00     0.031 C 
ATOM     39  C   UNL A   1      39.786  26.283  26.923  1.00  0.00     0.029 A 
ATOM     40  N   UNL A   1      41.177  25.656  28.536  1.00  0.00    -0.354 N 
ATOM     41  C   UNL A   1      41.880  29.271  31.478  1.00  0.00     0.074 A 
ATOM     42  C   UNL A   1      41.188  28.254  32.256  1.00  0.00     0.031 C 
ATOM     43  C   UNL A   1      40.332  25.088  26.554  1.00  0.00     0.029 A 
ATOM     44  C   UNL A   1      41.228  24.572  27.588  1.00  0.00     0.049 A 
ATOM     45  H   UNL A   1      41.766  25.685  29.324  1.00  0.00     0.167 HD
ATOM     46  C   UNL A   1      43.219  29.528  31.450  1.00  0.00     0.037 A 
ATOM     47  C   UNL A   1      41.960  23.388  27.586  1.00  0.00     0.037 A 
ATOM     48  C   UNL A   1      43.996  28.334  31.625  1.00  0.00     0.049 A 
ATOM     49  C   UNL A   1      43.110  23.599  28.469  1.00  0.00     0.074 A 
ATOM     50  C   UNL A   1      43.924  27.276  32.510  1.00  0.00     0.029 A 
ATOM     51  N   UNL A   1      44.713  27.892  30.540  1.00  0.00    -0.354 N 
ATOM     52  N   UNL A   1      44.176  24.202  28.041  1.00  0.00    -0.248 NA
ATOM     53  C   UNL A   1      43.197  23.047  29.814  1.00  0.00     0.031 C 
ATOM     54  C   UNL A   1      44.197  26.125  31.738  1.00  0.00     0.029 A 
ATOM     55  C   UNL A   1      44.745  26.516  30.526  1.00  0.00     0.049 A 
ATOM     56  H   UNL A   1      45.142  28.474  29.871  1.00  0.00     0.167 HD
ATOM     57  C   UNL A   1      44.815  24.550  29.182  1.00  0.00     0.074 A 
ATOM     58  C   UNL A   1      44.356  23.601  30.179  1.00  0.00     0.031 C 
ATOM     59  C   UNL A   1      45.114  25.864  29.293  1.00  0.00     0.037 A 
BRANCH  46  60
ATOM     60  C   UNL A   1      43.582  30.674  30.547  1.00  0.00     0.064 A 
ATOM     61  C   UNL A   1      43.661  31.960  31.088  1.00  0.00     0.173 A 
ATOM     62  C   UNL A   1      43.665  30.554  29.144  1.00  0.00     0.173 A 
ATOM     63  F   UNL A   1      43.655  32.130  32.419  1.00  0.00    -0.203 F 
ATOM     64  C   UNL A   1      43.737  33.082  30.262  1.00  0.00     0.198 A 
ATOM     65  C   UNL A   1      43.671  31.677  28.322  1.00  0.00     0.198 A 
ATOM     66  F   UNL A   1      43.732  29.344  28.563  1.00  0.00    -0.203 F 
ATOM     67  F   UNL A   1      43.831  34.304  30.804  1.00  0.00    -0.200 F 
ATOM     68  C   UNL A   1      43.700  32.941  28.881  1.00  0.00     0.200 A 
ATOM     69  F   UNL A   1      43.644  31.529  26.989  1.00  0.00    -0.200 F 
ATOM     70  F   UNL A   1      43.710  34.024  28.092  1.00  0.00    -0.200 F 
ENDBRANCH  46  60
BRANCH  47  71
ATOM     71  C   UNL A   1      42.121  22.016  26.881  1.00  0.00     0.064 A 
ATOM     72  C   UNL A   1      43.015  21.853  25.761  1.00  0.00     0.173 A 
ATOM     73  C   UNL A   1      41.761  20.806  27.485  1.00  0.00     0.173 A 
ATOM     74  F   UNL A   1      43.412  22.893  25.016  1.00  0.00    -0.203 F 
ATOM     75  C   UNL A   1      43.597  20.632  25.390  1.00  0.00     0.198 A 
ATOM     76  C   UNL A   1      42.318  19.566  27.077  1.00  0.00     0.198 A 
ATOM     77  F   UNL A   1      40.934  20.807  28.538  1.00  0.00    -0.203 F 
ATOM     78  F   UNL A   1      44.530  20.597  24.424  1.00  0.00    -0.200 F 
ATOM     79  C   UNL A   1      43.262  19.486  26.064  1.00  0.00     0.200 A 
ATOM     80  F   UNL A   1      41.982  18.440  27.725  1.00  0.00    -0.200 F 
ATOM     81  F   UNL A   1      43.863  18.326  25.761  1.00  0.00    -0.200 F 
ENDBRANCH  47  71
BRANCH  59  82
ATOM     82  C   UNL A   1      45.623  26.582  28.047  1.00  0.00     0.064 A 
ATOM     83  C   UNL A   1      44.876  26.999  26.915  1.00  0.00     0.173 A 
ATOM     84  C   UNL A   1      47.003  26.836  27.990  1.00  0.00     0.173 A 
ATOM     85  F   UNL A   1      43.536  26.953  26.873  1.00  0.00    -0.203 F 
ATOM     86  C   UNL A   1      45.492  27.542  25.783  1.00  0.00     0.198 A 
ATOM     87  C   UNL A   1      47.601  27.447  26.889  1.00  0.00     0.198 A 
ATOM     88  F   UNL A   1      47.785  26.519  29.032  1.00  0.00    -0.203 F 
ATOM     89  F   UNL A   1      44.757  27.858  24.705  1.00  0.00    -0.200 F 
ATOM     90  C   UNL A   1      46.852  27.774  25.776  1.00  0.00     0.200 A 
ATOM     91  F   UNL A   1      48.911  27.727  26.922  1.00  0.00    -0.200 F 
ATOM     92  F   UNL A   1      47.437  28.336  24.708  1.00  0.00    -0.200 F 
ENDBRANCH  59  82
ENDBRANCH  33  34
ENDBRANCH  25  28
ENDBRANCH  23  24
ENDBRANCH  22  23
ENDBRANCH   1  22
TORSDOF 13
ENDMDL
MODEL 2
REMARK VINA RESULT:     -12.5      0.383      1.469
REMARK SMILES Cc1ccc(C)n1-c1ccccc1S[C@H](C)C(=O)NCCCNC(=O)c1ccc(-c2c3nc(c(-c4c(F)c(F)c(F)c(F)c4F)c4ccc([nH]4)c(-c4c(F)c(F)c(F)c(F)c4F)c4nc(c(-c5c(F)c(F)c(F)c(F)c5F)c5ccc2[nH]5)C=C4)C=C3)cc1
REMARK SMILES IDX 20 1 19 2 17 3 18 4 15 6 16 7 14 8 13 9 8 10 9 11 10 12
REMARK SMILES IDX 12 13 11 14 7 15 1 16 2 17 3 18 4 19 5 20 6 21 21 22 22 23
REMARK SMILES IDX 23 24 24 25 25 27 26 28 27 29 88 30 28 31 87 32 29 33 30 34
REMARK SMILES IDX 31 35 81 36 32 37 86 38 80 39 82 40 33 41 85 42 79 43 78 44
REMARK SMILES IDX 34 46 66 47 46 48 65 49 47 50 50 51 64 52 83 53 48 54 49 55
REMARK SMILES IDX 63 57 84 58 51 59 35 60 36 61 44 62 37 63 38 64 42 65 45 66
REMARK SMILES IDX 39 67 40 68 43 69 41 70 67 71 68 72 76 73 69 74 70 75 74 76
REMARK SMILES IDX 77 77 71 78 72 79 75 80 73 81 52 82 53 83 61 84 54 85 55 86
REMARK SMILES IDX 59 87 62 88 56 89 57 90 60 91 58 92
REMARK H PARENT 19 5 23 26 82 45 50 56
REMARK Flexibility Score: inf
ROOT
ATOM      1  C   UNL A   1      33.426  26.408  25.665  1.00  0.00     0.117 C 
ENDROOT
BRANCH   1   2
ATOM      2  N   UNL A   1      32.424  25.570  26.297  1.00  0.00    -0.355 N 
ATOM      3  C   UNL A   1      31.576  24.601  25.878  1.00  0.00     0.233 C 
ATOM      4  O   UNL A   1      30.899  24.086  26.782  1.00  0.00    -0.274 OA
ATOM      5  H   UNL A   1      32.340  25.749  27.261  1.00  0.00     0.163 HD
BRANCH   3   6
ATOM      6  C   UNL A   1      31.297  24.189  24.432  1.00  0.00     0.137 C 
ATOM      7  C   UNL A   1      30.241  25.047  23.762  1.00  0.00     0.030 C 
BRANCH   6   8
ATOM      8  S   UNL A   1      32.724  23.534  23.498  1.00  0.00    -0.111 SA
BRANCH   8   9
ATOM      9  C   UNL A   1      33.052  21.814  23.894  1.00  0.00     0.032 A 
ATOM     10  C   UNL A   1      34.211  21.460  24.629  1.00  0.00     0.059 A 
ATOM     11  C   UNL A   1      34.570  20.113  24.825  1.00  0.00     0.028 A 
ATOM     12  C   UNL A   1      33.769  19.096  24.321  1.00  0.00     0.002 A 
ATOM     13  C   UNL A   1      32.233  20.761  23.473  1.00  0.00     0.017 A 
ATOM     14  C   UNL A   1      32.592  19.420  23.662  1.00  0.00     0.001 A 
BRANCH  10  15
ATOM     15  N   UNL A   1      35.090  22.440  25.174  1.00  0.00    -0.317 N 
ATOM     16  C   UNL A   1      34.154  22.466  27.553  1.00  0.00     0.065 C 
ATOM     17  C   UNL A   1      35.063  22.946  26.472  1.00  0.00     0.020 A 
ATOM     18  C   UNL A   1      36.065  23.892  26.579  1.00  0.00     0.023 A 
ATOM     19  C   UNL A   1      36.782  23.901  25.370  1.00  0.00     0.023 A 
ATOM     20  C   UNL A   1      36.199  22.977  24.524  1.00  0.00     0.020 A 
ATOM     21  C   UNL A   1      36.616  22.645  23.132  1.00  0.00     0.065 C 
ENDBRANCH  10  15
ENDBRANCH   8   9
ENDBRANCH   6   8
ENDBRANCH   3   6
ENDBRANCH   1   2
BRANCH   1  22
ATOM     22  C   UNL A   1      33.241  27.908  25.924  1.00  0.00     0.042 C 
BRANCH  22  23
ATOM     23  C   UNL A   1      33.809  28.438  27.257  1.00  0.00     0.118 C 
BRANCH  23  24
ATOM     24  N   UNL A   1      33.703  29.875  27.427  1.00  0.00    -0.352 N 
ATOM     25  C   UNL A   1      34.671  30.770  27.851  1.00  0.00     0.251 C 
ATOM     26  H   UNL A   1      32.826  30.266  27.211  1.00  0.00     0.163 HD
ATOM     27  O   UNL A   1      34.395  31.964  27.879  1.00  0.00    -0.269 OA
BRANCH  25  28
ATOM     28  C   UNL A   1      36.009  30.318  28.370  1.00  0.00     0.039 A 
ATOM     29  C   UNL A   1      37.045  30.197  27.457  1.00  0.00     0.014 A 
ATOM     30  C   UNL A   1      36.223  29.776  29.650  1.00  0.00     0.014 A 
ATOM     31  C   UNL A   1      38.273  29.592  27.834  1.00  0.00     0.010 A 
ATOM     32  C   UNL A   1      37.450  29.084  30.003  1.00  0.00     0.010 A 
ATOM     33  C   UNL A   1      38.517  28.946  29.096  1.00  0.00    -0.014 A 
BRANCH  33  34
ATOM     34  C   UNL A   1      39.604  27.784  29.067  1.00  0.00     0.031 A 
ATOM     35  C   UNL A   1      40.522  28.169  30.180  1.00  0.00     0.074 A 
ATOM     36  C   UNL A   1      40.030  26.688  28.326  1.00  0.00     0.049 A 
ATOM     37  N   UNL A   1      41.108  29.337  30.169  1.00  0.00    -0.248 NA
ATOM     38  C   UNL A   1      40.507  27.500  31.483  1.00  0.00     0.031 C 
ATOM     39  C   UNL A   1      39.529  26.231  27.021  1.00  0.00     0.029 A 
ATOM     40  N   UNL A   1      41.030  25.693  28.566  1.00  0.00    -0.354 N 
ATOM     41  C   UNL A   1      41.795  29.416  31.354  1.00  0.00     0.074 A 
ATOM     42  C   UNL A   1      41.181  28.405  32.201  1.00  0.00     0.031 C 
ATOM     43  C   UNL A   1      40.088  25.040  26.656  1.00  0.00     0.029 A 
ATOM     44  C   UNL A   1      41.058  24.582  27.649  1.00  0.00     0.049 A 
ATOM     45  H   UNL A   1      41.663  25.763  29.316  1.00  0.00     0.167 HD
ATOM     46  C   UNL A   1      43.122  29.710  31.239  1.00  0.00     0.037 A 
ATOM     47  C   UNL A   1      41.823  23.419  27.638  1.00  0.00     0.037 A 
ATOM     48  C   UNL A   1      43.944  28.543  31.403  1.00  0.00     0.049 A 
ATOM     49  C   UNL A   1      43.016  23.690  28.445  1.00  0.00     0.074 A 
ATOM     50  C   UNL A   1      43.955  27.512  32.321  1.00  0.00     0.029 A 
ATOM     51  N   UNL A   1      44.609  28.089  30.290  1.00  0.00    -0.354 N 
ATOM     52  N   UNL A   1      44.036  24.309  27.937  1.00  0.00    -0.248 NA
ATOM     53  C   UNL A   1      43.197  23.183  29.798  1.00  0.00     0.031 C 
ATOM     54  C   UNL A   1      44.216  26.345  31.569  1.00  0.00     0.029 A 
ATOM     55  C   UNL A   1      44.681  26.714  30.315  1.00  0.00     0.049 A 
ATOM     56  H   UNL A   1      44.980  28.661  29.580  1.00  0.00     0.167 HD
ATOM     57  C   UNL A   1      44.731  24.709  29.027  1.00  0.00     0.074 A 
ATOM     58  C   UNL A   1      44.359  23.780  30.077  1.00  0.00     0.031 C 
ATOM     59  C   UNL A   1      44.997  26.035  29.082  1.00  0.00     0.037 A 
BRANCH  46  60
ATOM     60  C   UNL A   1      43.398  30.836  30.283  1.00  0.00     0.064 A 
ATOM     61  C   UNL A   1      43.486  30.555  28.917  1.00  0.00     0.173 A 
ATOM     62  C   UNL A   1      43.759  32.134  30.702  1.00  0.00     0.173 A 
ATOM     63  F   UNL A   1      43.092  29.360  28.451  1.00  0.00    -0.203 F 
ATOM     64  C   UNL A   1      43.989  31.499  28.021  1.00  0.00     0.198 A 
ATOM     65  C   UNL A   1      44.324  33.048  29.819  1.00  0.00     0.198 A 
ATOM     66  F   UNL A   1      43.571  32.518  31.976  1.00  0.00    -0.203 F 
ATOM     67  F   UNL A   1      44.047  31.213  26.713  1.00  0.00    -0.200 F 
ATOM     68  C   UNL A   1      44.445  32.727  28.479  1.00  0.00     0.200 A 
ATOM     69  F   UNL A   1      44.753  34.236  30.270  1.00  0.00    -0.200 F 
ATOM     70  F   UNL A   1      44.986  33.608  27.625  1.00  0.00    -0.200 F 
ENDBRANCH  46  60
BRANCH  47  71
ATOM     71  C   UNL A   1      41.983  22.031  26.965  1.00  0.00     0.064 A 
ATOM     72  C   UNL A   1      42.843  21.851  25.822  1.00  0.00     0.173 A 
ATOM     73  C   UNL A   1      41.662  20.833  27.613  1.00  0.00     0.173 A 
ATOM     74  F   UNL A   1      43.199  22.876  25.037  1.00  0.00    -0.203 F 
ATOM     75  C   UNL A   1      43.432  20.629  25.465  1.00  0.00     0.198 A 
ATOM     76  C   UNL A   1      42.225  19.591  27.221  1.00  0.00     0.198 A 
ATOM     77  F   UNL A   1      40.870  20.850  28.692  1.00  0.00    -0.203 F 
ATOM     78  F   UNL A   1      44.334  20.582  24.470  1.00  0.00    -0.200 F 
ATOM     79  C   UNL A   1      43.138  19.497  26.180  1.00  0.00     0.200 A 
ATOM     80  F   UNL A   1      41.930  18.478  27.910  1.00  0.00    -0.200 F 
ATOM     81  F   UNL A   1      43.748  18.338  25.889  1.00  0.00    -0.200 F 
ENDBRANCH  47  71
BRANCH  59  82
ATOM     82  C   UNL A   1      45.410  26.727  27.787  1.00  0.00     0.064 A 
ATOM     83  C   UNL A   1      44.582  27.111  26.701  1.00  0.00     0.173 A 
ATOM     84  C   UNL A   1      46.780  26.992  27.628  1.00  0.00     0.173 A 
ATOM     85  F   UNL A   1      43.243  27.052  26.753  1.00  0.00    -0.203 F 
ATOM     86  C   UNL A   1      45.112  27.633  25.517  1.00  0.00     0.198 A 
ATOM     87  C   UNL A   1      47.294  27.582  26.475  1.00  0.00     0.198 A 
ATOM     88  F   UNL A   1      47.636  26.707  28.621  1.00  0.00    -0.203 F 
ATOM     89  F   UNL A   1      44.301  27.917  24.486  1.00  0.00    -0.200 F 
ATOM     90  C   UNL A   1      46.466  27.877  25.409  1.00  0.00     0.200 A 
ATOM     91  F   UNL A   1      48.600  27.874  26.410  1.00  0.00    -0.200 F 
ATOM     92  F   UNL A   1      46.970  28.418  24.291  1.00  0.00    -0.200 F 
ENDBRANCH  59  82
ENDBRANCH  33  34
ENDBRANCH  25  28
ENDBRANCH  23  24
ENDBRANCH  22  23
ENDBRANCH   1  22
TORSDOF 13
ENDMDL
MODEL 3
REMARK VINA RESULT:     -12.4      4.029      9.492
REMARK SMILES Cc1ccc(C)n1-c1ccccc1S[C@H](C)C(=O)NCCCNC(=O)c1ccc(-c2c3nc(c(-c4c(F)c(F)c(F)c(F)c4F)c4ccc([nH]4)c(-c4c(F)c(F)c(F)c(F)c4F)c4nc(c(-c5c(F)c(F)c(F)c(F)c5F)c5ccc2[nH]5)C=C4)C=C3)cc1
REMARK SMILES IDX 20 1 19 2 17 3 18 4 15 6 16 7 14 8 13 9 8 10 9 11 10 12
REMARK SMILES IDX 12 13 11 14 7 15 1 16 2 17 3 18 4 19 5 20 6 21 21 22 22 23
REMARK SMILES IDX 23 24 24 25 25 27 26 28 27 29 88 30 28 31 87 32 29 33 30 34
REMARK SMILES IDX 31 35 81 36 32 37 86 38 80 39 82 40 33 41 85 42 79 43 78 44
REMARK SMILES IDX 34 46 66 47 46 48 65 49 47 50 50 51 64 52 83 53 48 54 49 55
REMARK SMILES IDX 63 57 84 58 51 59 35 60 36 61 44 62 37 63 38 64 42 65 45 66
REMARK SMILES IDX 39 67 40 68 43 69 41 70 67 71 68 72 76 73 69 74 70 75 74 76
REMARK SMILES IDX 77 77 71 78 72 79 75 80 73 81 52 82 53 83 61 84 54 85 55 86
REMARK SMILES IDX 59 87 62 88 56 89 57 90 60 91 58 92
REMARK H PARENT 19 5 23 26 82 45 50 56
REMARK Flexibility Score: inf
ROOT
ATOM      1  C   UNL A   1      34.761  22.869  25.778  1.00  0.00     0.117 C 
ENDROOT
BRANCH   1   2
ATOM      2  N   UNL A   1      33.530  22.553  25.075  1.00  0.00    -0.355 N 
ATOM      3  C   UNL A   1      32.621  23.259  24.362  1.00  0.00     0.233 C 
ATOM      4  O   UNL A   1      31.711  22.573  23.870  1.00  0.00    -0.274 OA
ATOM      5  H   UNL A   1      33.302  21.598  25.131  1.00  0.00     0.163 HD
BRANCH   3   6
ATOM      6  C   UNL A   1      32.547  24.780  24.220  1.00  0.00     0.137 C 
ATOM      7  C   UNL A   1      32.912  25.266  22.830  1.00  0.00     0.030 C 
BRANCH   6   8
ATOM      8  S   UNL A   1      31.261  25.614  25.213  1.00  0.00    -0.111 SA
BRANCH   8   9
ATOM      9  C   UNL A   1      30.645  27.095  24.406  1.00  0.00     0.032 A 
ATOM     10  C   UNL A   1      31.246  28.351  24.666  1.00  0.00     0.059 A 
ATOM     11  C   UNL A   1      30.692  29.545  24.165  1.00  0.00     0.028 A 
ATOM     12  C   UNL A   1      29.552  29.508  23.373  1.00  0.00     0.002 A 
ATOM     13  C   UNL A   1      29.546  27.094  23.540  1.00  0.00     0.017 A 
ATOM     14  C   UNL A   1      28.991  28.282  23.046  1.00  0.00     0.001 A 
BRANCH  10  15
ATOM     15  N   UNL A   1      32.412  28.480  25.475  1.00  0.00    -0.317 N 
ATOM     16  C   UNL A   1      31.283  28.235  27.756  1.00  0.00     0.065 C 
ATOM     17  C   UNL A   1      32.457  28.476  26.867  1.00  0.00     0.020 A 
ATOM     18  C   UNL A   1      33.774  28.653  27.250  1.00  0.00     0.023 A 
ATOM     19  C   UNL A   1      34.563  28.668  26.086  1.00  0.00     0.023 A 
ATOM     20  C   UNL A   1      33.721  28.522  25.000  1.00  0.00     0.020 A 
ATOM     21  C   UNL A   1      34.108  28.487  23.561  1.00  0.00     0.065 C 
ENDBRANCH  10  15
ENDBRANCH   8   9
ENDBRANCH   6   8
ENDBRANCH   3   6
ENDBRANCH   1   2
BRANCH   1  22
ATOM     22  C   UNL A   1      35.885  23.383  24.870  1.00  0.00     0.042 C 
BRANCH  22  23
ATOM     23  C   UNL A   1      37.151  23.896  25.588  1.00  0.00     0.118 C 
BRANCH  23  24
ATOM     24  N   UNL A   1      38.167  22.885  25.811  1.00  0.00    -0.352 N 
ATOM     25  C   UNL A   1      39.343  22.983  26.536  1.00  0.00     0.251 C 
ATOM     26  H   UNL A   1      37.998  22.011  25.389  1.00  0.00     0.163 HD
ATOM     27  O   UNL A   1      40.050  21.988  26.647  1.00  0.00    -0.269 OA
BRANCH  25  28
ATOM     28  C   UNL A   1      39.826  24.289  27.105  1.00  0.00     0.039 A 
ATOM     29  C   UNL A   1      39.311  24.686  28.330  1.00  0.00     0.014 A 
ATOM     30  C   UNL A   1      40.564  25.245  26.385  1.00  0.00     0.014 A 
ATOM     31  C   UNL A   1      39.567  25.989  28.833  1.00  0.00     0.010 A 
ATOM     32  C   UNL A   1      40.752  26.603  26.868  1.00  0.00     0.010 A 
ATOM     33  C   UNL A   1      40.239  27.033  28.106  1.00  0.00    -0.014 A 
BRANCH  33  34
ATOM     34  C   UNL A   1      39.824  28.516  28.506  1.00  0.00     0.031 A 
ATOM     35  C   UNL A   1      41.146  29.193  28.660  1.00  0.00     0.074 A 
ATOM     36  C   UNL A   1      38.733  29.300  28.864  1.00  0.00     0.049 A 
ATOM     37  N   UNL A   1      42.025  28.727  29.505  1.00  0.00    -0.248 NA
ATOM     38  C   UNL A   1      41.687  30.105  27.650  1.00  0.00     0.031 C 
ATOM     39  C   UNL A   1      37.349  28.865  29.101  1.00  0.00     0.029 A 
ATOM     40  N   UNL A   1      38.593  30.703  29.102  1.00  0.00    -0.354 N 
ATOM     41  C   UNL A   1      43.145  29.503  29.341  1.00  0.00     0.074 A 
ATOM     42  C   UNL A   1      42.966  30.129  28.040  1.00  0.00     0.031 C 
ATOM     43  C   UNL A   1      36.514  29.927  29.303  1.00  0.00     0.029 A 
ATOM     44  C   UNL A   1      37.247  31.191  29.268  1.00  0.00     0.049 A 
ATOM     45  H   UNL A   1      39.372  31.303  29.149  1.00  0.00     0.167 HD
ATOM     46  C   UNL A   1      43.629  30.075  30.480  1.00  0.00     0.037 A 
ATOM     47  C   UNL A   1      36.750  32.483  29.422  1.00  0.00     0.037 A 
ATOM     48  C   UNL A   1      43.275  31.464  30.572  1.00  0.00     0.049 A 
ATOM     49  C   UNL A   1      37.858  33.306  29.916  1.00  0.00     0.074 A 
ATOM     50  C   UNL A   1      43.320  32.515  29.679  1.00  0.00     0.029 A 
ATOM     51  N   UNL A   1      42.374  31.814  31.549  1.00  0.00    -0.354 N 
ATOM     52  N   UNL A   1      38.163  33.324  31.176  1.00  0.00    -0.248 NA
ATOM     53  C   UNL A   1      38.594  34.242  29.076  1.00  0.00     0.031 C 
ATOM     54  C   UNL A   1      42.130  33.243  29.898  1.00  0.00     0.029 A 
ATOM     55  C   UNL A   1      41.571  32.839  31.102  1.00  0.00     0.049 A 
ATOM     56  H   UNL A   1      42.313  31.394  32.438  1.00  0.00     0.167 HD
ATOM     57  C   UNL A   1      39.412  33.844  31.185  1.00  0.00     0.074 A 
ATOM     58  C   UNL A   1      39.505  34.633  29.971  1.00  0.00     0.031 C 
ATOM     59  C   UNL A   1      40.343  33.090  31.815  1.00  0.00     0.037 A 
BRANCH  46  60
ATOM     60  C   UNL A   1      43.698  29.120  31.639  1.00  0.00     0.064 A 
ATOM     61  C   UNL A   1      44.893  28.438  31.881  1.00  0.00     0.173 A 
ATOM     62  C   UNL A   1      42.567  28.729  32.386  1.00  0.00     0.173 A 
ATOM     63  F   UNL A   1      46.018  28.810  31.248  1.00  0.00    -0.203 F 
ATOM     64  C   UNL A   1      44.939  27.363  32.767  1.00  0.00     0.198 A 
ATOM     65  C   UNL A   1      42.599  27.614  33.217  1.00  0.00     0.198 A 
ATOM     66  F   UNL A   1      41.420  29.426  32.306  1.00  0.00    -0.203 F 
ATOM     67  F   UNL A   1      46.102  26.736  32.997  1.00  0.00    -0.200 F 
ATOM     68  C   UNL A   1      43.784  26.926  33.402  1.00  0.00     0.200 A 
ATOM     69  F   UNL A   1      41.479  27.207  33.832  1.00  0.00    -0.200 F 
ATOM     70  F   UNL A   1      43.819  25.853  34.205  1.00  0.00    -0.200 F 
ENDBRANCH  46  60
BRANCH  47  71
ATOM     71  C   UNL A   1      35.453  33.332  29.443  1.00  0.00     0.064 A 
ATOM     72  C   UNL A   1      34.719  33.542  30.667  1.00  0.00     0.173 A 
ATOM     73  C   UNL A   1      35.131  34.250  28.438  1.00  0.00     0.173 A 
ATOM     74  F   UNL A   1      34.843  32.720  31.716  1.00  0.00    -0.203 F 
ATOM     75  C   UNL A   1      33.875  34.638  30.900  1.00  0.00     0.198 A 
ATOM     76  C   UNL A   1      34.242  35.332  28.663  1.00  0.00     0.198 A 
ATOM     77  F   UNL A   1      35.736  34.173  27.246  1.00  0.00    -0.203 F 
ATOM     78  F   UNL A   1      33.345  34.832  32.119  1.00  0.00    -0.200 F 
ATOM     79  C   UNL A   1      33.651  35.549  29.900  1.00  0.00     0.200 A 
ATOM     80  F   UNL A   1      34.009  36.218  27.682  1.00  0.00    -0.200 F 
ATOM     81  F   UNL A   1      32.900  36.636  30.133  1.00  0.00    -0.200 F 
ENDBRANCH  47  71
BRANCH  59  82
ATOM     82  C   UNL A   1      39.938  32.411  33.120  1.00  0.00     0.064 A 
ATOM     83  C   UNL A   1      39.142  31.248  33.286  1.00  0.00     0.173 A 
ATOM     84  C   UNL A   1      40.374  33.022  34.306  1.00  0.00     0.173 A 
ATOM     85  F   UNL A   1      38.763  30.475  32.258  1.00  0.00    -0.203 F 
ATOM     86  C   UNL A   1      38.746  30.800  34.550  1.00  0.00     0.198 A 
ATOM     87  C   UNL A   1      40.039  32.527  35.565  1.00  0.00     0.198 A 
ATOM     88  F   UNL A   1      41.170  34.100  34.249  1.00  0.00    -0.203 F 
ATOM     89  F   UNL A   1      37.934  29.736  34.662  1.00  0.00    -0.200 F 
ATOM     90  C   UNL A   1      39.203  31.434  35.688  1.00  0.00     0.200 A 
ATOM     91  F   UNL A   1      40.543  33.111  36.659  1.00  0.00    -0.200 F 
ATOM     92  F   UNL A   1      38.860  30.978  36.901  1.00  0.00    -0.200 F 
ENDBRANCH  59  82
ENDBRANCH  33  34
ENDBRANCH  25  28
ENDBRANCH  23  24
ENDBRANCH  22  23
ENDBRANCH   1  22
TORSDOF 13
ENDMDL
