MODEL 1
REMARK VINA RESULT:     -11.3      0.000      0.000
REMARK SMILES COc1ccc(NCc2ccc(C(=O)NCCCNC(=O)c3ccc(-c4c5nc(c(-c6c(F)c(F)c(F)c(F)c6F)c6ccc([nH]6)c(-c6c(F)c(F)c(F)c(F)c6F)c6nc(c(-c7c(F)c(F)c(F)c(F)c7F)c7ccc4[nH]7)C=C6)C=C5)cc3)o2)cc1
REMARK SMILES IDX 16 1 15 2 13 3 14 4 12 6 9 7 10 8 85 9 11 10 8 11 7 12 6 14
REMARK SMILES IDX 3 15 4 16 87 17 5 18 86 19 2 20 1 21 17 22 18 23 19 24 20 25
REMARK SMILES IDX 21 27 22 28 23 29 84 30 24 31 83 32 25 33 26 34 27 35 77 36
REMARK SMILES IDX 28 37 82 38 76 39 78 40 29 41 81 42 75 43 74 44 30 46 62 47
REMARK SMILES IDX 42 48 61 49 43 50 46 51 60 52 79 53 44 54 45 55 59 57 80 58
REMARK SMILES IDX 47 59 31 60 32 61 40 62 33 63 34 64 38 65 41 66 35 67 36 68
REMARK SMILES IDX 39 69 37 70 63 71 64 72 72 73 65 74 66 75 70 76 73 77 67 78
REMARK SMILES IDX 68 79 71 80 69 81 48 82 49 83 57 84 50 85 51 86 55 87 58 88
REMARK SMILES IDX 52 89 53 90 56 91 54 92
REMARK H PARENT 15 5 7 13 19 26 78 45 46 56
REMARK Flexibility Score: inf
ROOT
ATOM      1  C   UNL A   1      33.519  33.872  29.066  1.00  0.00     0.118 C 
ENDROOT
BRANCH   1   2
ATOM      2  N   UNL A   1      34.953  33.856  28.872  1.00  0.00    -0.349 N 
ATOM      3  C   UNL A   1      35.787  32.886  28.362  1.00  0.00     0.286 C 
ATOM      4  O   UNL A   1      36.965  33.222  28.228  1.00  0.00    -0.266 OA
ATOM      5  H   UNL A   1      35.412  34.680  29.152  1.00  0.00     0.163 HD
BRANCH   3   6
ATOM      6  C   UNL A   1      35.292  31.568  28.005  1.00  0.00     0.191 A 
ATOM      7  C   UNL A   1      33.879  30.233  26.936  1.00  0.00     0.124 A 
ATOM      8  C   UNL A   1      34.749  29.409  27.612  1.00  0.00     0.048 A 
ATOM      9  O   UNL A   1      34.204  31.534  27.168  1.00  0.00    -0.454 OA
ATOM     10  C   UNL A   1      35.667  30.262  28.276  1.00  0.00     0.056 A 
BRANCH   7  11
ATOM     11  C   UNL A   1      32.735  29.989  26.010  1.00  0.00     0.188 C 
BRANCH  11  12
ATOM     12  N   UNL A   1      33.128  29.702  24.640  1.00  0.00    -0.378 N 
ATOM     13  H   UNL A   1      33.279  30.474  24.050  1.00  0.00     0.161 HD
BRANCH  12  14
ATOM     14  C   UNL A   1      33.310  28.450  24.089  1.00  0.00     0.035 A 
ATOM     15  C   UNL A   1      33.661  25.937  22.814  1.00  0.00     0.119 A 
ATOM     16  C   UNL A   1      33.604  26.032  24.201  1.00  0.00     0.048 A 
ATOM     17  C   UNL A   1      33.504  27.092  22.055  1.00  0.00     0.048 A 
ATOM     18  C   UNL A   1      33.428  27.271  24.827  1.00  0.00     0.029 A 
ATOM     19  C   UNL A   1      33.328  28.329  22.690  1.00  0.00     0.029 A 
BRANCH  15  20
ATOM     20  O   UNL A   1      33.842  24.675  22.323  1.00  0.00    -0.497 OA
ATOM     21  C   UNL A   1      34.268  23.698  23.265  1.00  0.00     0.278 C 
ENDBRANCH  15  20
ENDBRANCH  12  14
ENDBRANCH  11  12
ENDBRANCH   7  11
ENDBRANCH   3   6
ENDBRANCH   1   2
BRANCH   1  22
ATOM     22  C   UNL A   1      32.919  35.239  28.743  1.00  0.00     0.042 C 
BRANCH  22  23
ATOM     23  C   UNL A   1      33.376  36.346  29.693  1.00  0.00     0.118 C 
BRANCH  23  24
ATOM     24  N   UNL A   1      32.507  36.463  30.855  1.00  0.00    -0.352 N 
ATOM     25  C   UNL A   1      32.560  35.843  32.077  1.00  0.00     0.251 C 
ATOM     26  H   UNL A   1      31.756  37.091  30.745  1.00  0.00     0.163 HD
ATOM     27  O   UNL A   1      31.594  35.927  32.831  1.00  0.00    -0.269 OA
BRANCH  25  28
ATOM     28  C   UNL A   1      33.751  35.076  32.505  1.00  0.00     0.039 A 
ATOM     29  C   UNL A   1      35.012  35.667  32.360  1.00  0.00     0.014 A 
ATOM     30  C   UNL A   1      33.653  33.758  32.960  1.00  0.00     0.014 A 
ATOM     31  C   UNL A   1      36.165  34.955  32.698  1.00  0.00     0.010 A 
ATOM     32  C   UNL A   1      34.800  33.068  33.353  1.00  0.00     0.010 A 
ATOM     33  C   UNL A   1      36.067  33.653  33.214  1.00  0.00    -0.014 A 
BRANCH  33  34
ATOM     34  C   UNL A   1      37.282  32.882  33.585  1.00  0.00     0.031 A 
ATOM     35  C   UNL A   1      37.992  33.168  34.881  1.00  0.00     0.074 A 
ATOM     36  C   UNL A   1      37.780  31.968  32.732  1.00  0.00     0.049 A 
ATOM     37  N   UNL A   1      39.111  32.669  35.341  1.00  0.00    -0.248 NA
ATOM     38  C   UNL A   1      37.373  34.168  35.767  1.00  0.00     0.031 C 
ATOM     39  C   UNL A   1      37.209  31.628  31.428  1.00  0.00     0.029 A 
ATOM     40  N   UNL A   1      38.891  31.166  32.827  1.00  0.00    -0.354 N 
ATOM     41  C   UNL A   1      39.345  33.311  36.550  1.00  0.00     0.074 A 
ATOM     42  C   UNL A   1      38.267  34.259  36.741  1.00  0.00     0.031 C 
ATOM     43  C   UNL A   1      37.968  30.684  30.847  1.00  0.00     0.029 A 
ATOM     44  C   UNL A   1      39.094  30.373  31.723  1.00  0.00     0.049 A 
ATOM     45  H   UNL A   1      39.486  31.161  33.611  1.00  0.00     0.167 HD
ATOM     46  C   UNL A   1      40.357  33.118  37.427  1.00  0.00     0.037 A 
ATOM     47  C   UNL A   1      40.081  29.500  31.448  1.00  0.00     0.037 A 
ATOM     48  C   UNL A   1      41.401  32.141  37.262  1.00  0.00     0.049 A 
ATOM     49  C   UNL A   1      41.170  29.274  32.462  1.00  0.00     0.074 A 
ATOM     50  C   UNL A   1      42.434  31.825  38.127  1.00  0.00     0.029 A 
ATOM     51  N   UNL A   1      41.539  31.315  36.157  1.00  0.00    -0.354 N 
ATOM     52  N   UNL A   1      41.346  29.847  33.628  1.00  0.00    -0.248 NA
ATOM     53  C   UNL A   1      42.191  28.271  32.127  1.00  0.00     0.031 C 
ATOM     54  C   UNL A   1      43.214  30.827  37.533  1.00  0.00     0.029 A 
ATOM     55  C   UNL A   1      42.643  30.494  36.316  1.00  0.00     0.049 A 
ATOM     56  H   UNL A   1      40.939  31.311  35.375  1.00  0.00     0.167 HD
ATOM     57  C   UNL A   1      42.474  29.253  34.177  1.00  0.00     0.074 A 
ATOM     58  C   UNL A   1      42.936  28.268  33.222  1.00  0.00     0.031 C 
ATOM     59  C   UNL A   1      43.073  29.502  35.366  1.00  0.00     0.037 A 
BRANCH  46  60
ATOM     60  C   UNL A   1      40.390  33.973  38.659  1.00  0.00     0.064 A 
ATOM     61  C   UNL A   1      41.097  35.184  38.693  1.00  0.00     0.173 A 
ATOM     62  C   UNL A   1      39.656  33.608  39.797  1.00  0.00     0.173 A 
ATOM     63  F   UNL A   1      41.823  35.571  37.634  1.00  0.00    -0.203 F 
ATOM     64  C   UNL A   1      41.079  35.990  39.829  1.00  0.00     0.198 A 
ATOM     65  C   UNL A   1      39.620  34.429  40.921  1.00  0.00     0.198 A 
ATOM     66  F   UNL A   1      38.959  32.462  39.812  1.00  0.00    -0.203 F 
ATOM     67  F   UNL A   1      41.787  37.128  39.850  1.00  0.00    -0.200 F 
ATOM     68  C   UNL A   1      40.335  35.617  40.937  1.00  0.00     0.200 A 
ATOM     69  F   UNL A   1      38.891  34.072  41.988  1.00  0.00    -0.200 F 
ATOM     70  F   UNL A   1      40.308  36.401  42.024  1.00  0.00    -0.200 F 
ENDBRANCH  46  60
BRANCH  47  71
ATOM     71  C   UNL A   1      40.079  28.754  30.163  1.00  0.00     0.064 A 
ATOM     72  C   UNL A   1      39.443  27.510  30.056  1.00  0.00     0.173 A 
ATOM     73  C   UNL A   1      40.726  29.258  29.027  1.00  0.00     0.173 A 
ATOM     74  F   UNL A   1      38.828  26.979  31.124  1.00  0.00    -0.203 F 
ATOM     75  C   UNL A   1      39.477  26.784  28.868  1.00  0.00     0.198 A 
ATOM     76  C   UNL A   1      40.738  28.543  27.831  1.00  0.00     0.198 A 
ATOM     77  F   UNL A   1      41.344  30.447  29.077  1.00  0.00    -0.203 F 
ATOM     78  F   UNL A   1      38.905  25.575  28.807  1.00  0.00    -0.200 F 
ATOM     79  C   UNL A   1      40.122  27.303  27.755  1.00  0.00     0.200 A 
ATOM     80  F   UNL A   1      41.351  29.054  26.754  1.00  0.00    -0.200 F 
ATOM     81  F   UNL A   1      40.157  26.604  26.612  1.00  0.00    -0.200 F 
ENDBRANCH  47  71
BRANCH  59  82
ATOM     82  C   UNL A   1      44.263  28.663  35.725  1.00  0.00     0.064 A 
ATOM     83  C   UNL A   1      44.127  27.460  36.433  1.00  0.00     0.173 A 
ATOM     84  C   UNL A   1      45.550  29.051  35.323  1.00  0.00     0.173 A 
ATOM     85  F   UNL A   1      42.919  27.056  36.852  1.00  0.00    -0.203 F 
ATOM     86  C   UNL A   1      45.242  26.687  36.746  1.00  0.00     0.198 A 
ATOM     87  C   UNL A   1      46.659  28.262  35.614  1.00  0.00     0.198 A 
ATOM     88  F   UNL A   1      45.729  30.191  34.639  1.00  0.00    -0.203 F 
ATOM     89  F   UNL A   1      45.095  25.563  37.459  1.00  0.00    -0.200 F 
ATOM     90  C   UNL A   1      46.504  27.085  36.331  1.00  0.00     0.200 A 
ATOM     91  F   UNL A   1      47.876  28.643  35.205  1.00  0.00    -0.200 F 
ATOM     92  F   UNL A   1      47.575  26.337  36.628  1.00  0.00    -0.200 F 
ENDBRANCH  59  82
ENDBRANCH  33  34
ENDBRANCH  25  28
ENDBRANCH  23  24
ENDBRANCH  22  23
ENDBRANCH   1  22
TORSDOF 14
ENDMDL
MODEL 2
REMARK VINA RESULT:     -11.2      5.758     11.196
REMARK SMILES COc1ccc(NCc2ccc(C(=O)NCCCNC(=O)c3ccc(-c4c5nc(c(-c6c(F)c(F)c(F)c(F)c6F)c6ccc([nH]6)c(-c6c(F)c(F)c(F)c(F)c6F)c6nc(c(-c7c(F)c(F)c(F)c(F)c7F)c7ccc4[nH]7)C=C6)C=C5)cc3)o2)cc1
REMARK SMILES IDX 16 1 15 2 13 3 14 4 12 6 9 7 10 8 85 9 11 10 8 11 7 12 6 14
REMARK SMILES IDX 3 15 4 16 87 17 5 18 86 19 2 20 1 21 17 22 18 23 19 24 20 25
REMARK SMILES IDX 21 27 22 28 23 29 84 30 24 31 83 32 25 33 26 34 27 35 77 36
REMARK SMILES IDX 28 37 82 38 76 39 78 40 29 41 81 42 75 43 74 44 30 46 62 47
REMARK SMILES IDX 42 48 61 49 43 50 46 51 60 52 79 53 44 54 45 55 59 57 80 58
REMARK SMILES IDX 47 59 31 60 32 61 40 62 33 63 34 64 38 65 41 66 35 67 36 68
REMARK SMILES IDX 39 69 37 70 63 71 64 72 72 73 65 74 66 75 70 76 73 77 67 78
REMARK SMILES IDX 68 79 71 80 69 81 48 82 49 83 57 84 50 85 51 86 55 87 58 88
REMARK SMILES IDX 52 89 53 90 56 91 54 92
REMARK H PARENT 15 5 7 13 19 26 78 45 46 56
REMARK Flexibility Score: inf
ROOT
ATOM      1  C   UNL A   1      42.273  20.372  27.707  1.00  0.00     0.118 C 
ENDROOT
BRANCH   1   2
ATOM      2  N   UNL A   1      42.155  19.099  27.030  1.00  0.00    -0.349 N 
ATOM      3  C   UNL A   1      42.939  18.511  26.063  1.00  0.00     0.286 C 
ATOM      4  O   UNL A   1      42.627  17.357  25.762  1.00  0.00    -0.266 OA
ATOM      5  H   UNL A   1      41.380  18.559  27.308  1.00  0.00     0.163 HD
BRANCH   3   6
ATOM      6  C   UNL A   1      44.056  19.215  25.459  1.00  0.00     0.191 A 
ATOM      7  C   UNL A   1      44.915  20.929  24.343  1.00  0.00     0.124 A 
ATOM      8  C   UNL A   1      45.967  20.089  24.625  1.00  0.00     0.048 A 
ATOM      9  O   UNL A   1      43.763  20.408  24.846  1.00  0.00    -0.454 OA
ATOM     10  C   UNL A   1      45.422  19.004  25.359  1.00  0.00     0.056 A 
BRANCH   7  11
ATOM     11  C   UNL A   1      44.806  22.255  23.666  1.00  0.00     0.188 C 
BRANCH  11  12
ATOM     12  N   UNL A   1      45.471  23.339  24.370  1.00  0.00    -0.378 N 
ATOM     13  H   UNL A   1      45.986  23.974  23.823  1.00  0.00     0.161 HD
BRANCH  12  14
ATOM     14  C   UNL A   1      45.448  23.563  25.731  1.00  0.00     0.035 A 
ATOM     15  C   UNL A   1      45.249  23.989  28.532  1.00  0.00     0.119 A 
ATOM     16  C   UNL A   1      46.417  24.302  27.843  1.00  0.00     0.048 A 
ATOM     17  C   UNL A   1      44.161  23.498  27.819  1.00  0.00     0.048 A 
ATOM     18  C   UNL A   1      46.512  24.095  26.462  1.00  0.00     0.029 A 
ATOM     19  C   UNL A   1      44.264  23.293  26.435  1.00  0.00     0.029 A 
BRANCH  15  20
ATOM     20  O   UNL A   1      45.282  24.232  29.876  1.00  0.00    -0.497 OA
ATOM     21  C   UNL A   1      44.136  23.815  30.610  1.00  0.00     0.278 C 
ENDBRANCH  15  20
ENDBRANCH  12  14
ENDBRANCH  11  12
ENDBRANCH   7  11
ENDBRANCH   3   6
ENDBRANCH   1   2
BRANCH   1  22
ATOM     22  C   UNL A   1      41.020  21.228  27.528  1.00  0.00     0.042 C 
BRANCH  22  23
ATOM     23  C   UNL A   1      40.946  21.924  26.168  1.00  0.00     0.118 C 
BRANCH  23  24
ATOM     24  N   UNL A   1      39.574  22.210  25.775  1.00  0.00    -0.352 N 
ATOM     25  C   UNL A   1      38.748  23.252  26.107  1.00  0.00     0.251 C 
ATOM     26  H   UNL A   1      39.173  21.545  25.170  1.00  0.00     0.163 HD
ATOM     27  O   UNL A   1      37.553  23.177  25.835  1.00  0.00    -0.269 OA
BRANCH  25  28
ATOM     28  C   UNL A   1      39.263  24.462  26.787  1.00  0.00     0.039 A 
ATOM     29  C   UNL A   1      38.869  24.703  28.108  1.00  0.00     0.014 A 
ATOM     30  C   UNL A   1      40.049  25.404  26.116  1.00  0.00     0.014 A 
ATOM     31  C   UNL A   1      39.286  25.863  28.766  1.00  0.00     0.010 A 
ATOM     32  C   UNL A   1      40.514  26.533  26.792  1.00  0.00     0.010 A 
ATOM     33  C   UNL A   1      40.127  26.781  28.117  1.00  0.00    -0.014 A 
BRANCH  33  34
ATOM     34  C   UNL A   1      40.585  28.018  28.802  1.00  0.00     0.031 A 
ATOM     35  C   UNL A   1      42.011  28.138  29.268  1.00  0.00     0.074 A 
ATOM     36  C   UNL A   1      39.707  29.006  29.055  1.00  0.00     0.049 A 
ATOM     37  N   UNL A   1      42.579  29.093  29.960  1.00  0.00    -0.248 NA
ATOM     38  C   UNL A   1      42.912  27.022  28.935  1.00  0.00     0.031 C 
ATOM     39  C   UNL A   1      38.290  28.993  28.691  1.00  0.00     0.029 A 
ATOM     40  N   UNL A   1      39.875  30.210  29.695  1.00  0.00    -0.354 N 
ATOM     41  C   UNL A   1      43.890  28.684  30.168  1.00  0.00     0.074 A 
ATOM     42  C   UNL A   1      44.027  27.379  29.556  1.00  0.00     0.031 C 
ATOM     43  C   UNL A   1      37.719  30.136  29.105  1.00  0.00     0.029 A 
ATOM     44  C   UNL A   1      38.720  30.948  29.790  1.00  0.00     0.049 A 
ATOM     45  H   UNL A   1      40.741  30.515  30.052  1.00  0.00     0.167 HD
ATOM     46  C   UNL A   1      44.890  29.342  30.799  1.00  0.00     0.037 A 
ATOM     47  C   UNL A   1      38.496  32.142  30.370  1.00  0.00     0.037 A 
ATOM     48  C   UNL A   1      44.767  30.660  31.364  1.00  0.00     0.049 A 
ATOM     49  C   UNL A   1      39.637  32.870  31.026  1.00  0.00     0.074 A 
ATOM     50  C   UNL A   1      45.742  31.436  31.966  1.00  0.00     0.029 A 
ATOM     51  N   UNL A   1      43.595  31.400  31.387  1.00  0.00    -0.354 N 
ATOM     52  N   UNL A   1      40.887  32.496  31.164  1.00  0.00    -0.248 NA
ATOM     53  C   UNL A   1      39.342  34.192  31.596  1.00  0.00     0.031 C 
ATOM     54  C   UNL A   1      45.153  32.636  32.380  1.00  0.00     0.029 A 
ATOM     55  C   UNL A   1      43.821  32.622  32.000  1.00  0.00     0.049 A 
ATOM     56  H   UNL A   1      42.730  31.102  31.022  1.00  0.00     0.167 HD
ATOM     57  C   UNL A   1      41.530  33.546  31.805  1.00  0.00     0.074 A 
ATOM     58  C   UNL A   1      40.537  34.577  32.020  1.00  0.00     0.031 C 
ATOM     59  C   UNL A   1      42.827  33.646  32.182  1.00  0.00     0.037 A 
BRANCH  46  60
ATOM     60  C   UNL A   1      46.220  28.655  30.911  1.00  0.00     0.064 A 
ATOM     61  C   UNL A   1      47.214  28.818  29.936  1.00  0.00     0.173 A 
ATOM     62  C   UNL A   1      46.524  27.876  32.037  1.00  0.00     0.173 A 
ATOM     63  F   UNL A   1      46.967  29.545  28.836  1.00  0.00    -0.203 F 
ATOM     64  C   UNL A   1      48.460  28.213  30.078  1.00  0.00     0.198 A 
ATOM     65  C   UNL A   1      47.779  27.293  32.187  1.00  0.00     0.198 A 
ATOM     66  F   UNL A   1      45.608  27.694  33.001  1.00  0.00    -0.203 F 
ATOM     67  F   UNL A   1      49.384  28.357  29.118  1.00  0.00    -0.200 F 
ATOM     68  C   UNL A   1      48.744  27.459  31.205  1.00  0.00     0.200 A 
ATOM     69  F   UNL A   1      48.056  26.573  33.283  1.00  0.00    -0.200 F 
ATOM     70  F   UNL A   1      49.949  26.887  31.346  1.00  0.00    -0.200 F 
ENDBRANCH  46  60
BRANCH  47  71
ATOM     71  C   UNL A   1      37.136  32.740  30.341  1.00  0.00     0.064 A 
ATOM     72  C   UNL A   1      36.208  32.464  31.354  1.00  0.00     0.173 A 
ATOM     73  C   UNL A   1      36.732  33.580  29.293  1.00  0.00     0.173 A 
ATOM     74  F   UNL A   1      36.544  31.649  32.365  1.00  0.00    -0.203 F 
ATOM     75  C   UNL A   1      34.916  32.984  31.308  1.00  0.00     0.198 A 
ATOM     76  C   UNL A   1      35.448  34.120  29.262  1.00  0.00     0.198 A 
ATOM     77  F   UNL A   1      37.586  33.879  28.304  1.00  0.00    -0.203 F 
ATOM     78  F   UNL A   1      34.033  32.664  32.262  1.00  0.00    -0.200 F 
ATOM     79  C   UNL A   1      34.539  33.814  30.263  1.00  0.00     0.200 A 
ATOM     80  F   UNL A   1      35.091  34.932  28.257  1.00  0.00    -0.200 F 
ATOM     81  F   UNL A   1      33.296  34.313  30.217  1.00  0.00    -0.200 F 
ENDBRANCH  47  71
BRANCH  59  82
ATOM     82  C   UNL A   1      43.260  34.932  32.819  1.00  0.00     0.064 A 
ATOM     83  C   UNL A   1      43.709  36.018  32.052  1.00  0.00     0.173 A 
ATOM     84  C   UNL A   1      43.189  35.091  34.211  1.00  0.00     0.173 A 
ATOM     85  F   UNL A   1      43.808  35.907  30.719  1.00  0.00    -0.203 F 
ATOM     86  C   UNL A   1      44.094  37.209  32.661  1.00  0.00     0.198 A 
ATOM     87  C   UNL A   1      43.550  36.293  34.813  1.00  0.00     0.198 A 
ATOM     88  F   UNL A   1      42.761  34.084  34.986  1.00  0.00    -0.203 F 
ATOM     89  F   UNL A   1      44.560  38.219  31.914  1.00  0.00    -0.200 F 
ATOM     90  C   UNL A   1      44.008  37.348  34.038  1.00  0.00     0.200 A 
ATOM     91  F   UNL A   1      43.458  36.429  36.142  1.00  0.00    -0.200 F 
ATOM     92  F   UNL A   1      44.374  38.498  34.621  1.00  0.00    -0.200 F 
ENDBRANCH  59  82
ENDBRANCH  33  34
ENDBRANCH  25  28
ENDBRANCH  23  24
ENDBRANCH  22  23
ENDBRANCH   1  22
TORSDOF 14
ENDMDL
MODEL 3
REMARK VINA RESULT:     -11.1      6.801     11.617
REMARK SMILES COc1ccc(NCc2ccc(C(=O)NCCCNC(=O)c3ccc(-c4c5nc(c(-c6c(F)c(F)c(F)c(F)c6F)c6ccc([nH]6)c(-c6c(F)c(F)c(F)c(F)c6F)c6nc(c(-c7c(F)c(F)c(F)c(F)c7F)c7ccc4[nH]7)C=C6)C=C5)cc3)o2)cc1
REMARK SMILES IDX 16 1 15 2 13 3 14 4 12 6 9 7 10 8 85 9 11 10 8 11 7 12 6 14
REMARK SMILES IDX 3 15 4 16 87 17 5 18 86 19 2 20 1 21 17 22 18 23 19 24 20 25
REMARK SMILES IDX 21 27 22 28 23 29 84 30 24 31 83 32 25 33 26 34 27 35 77 36
REMARK SMILES IDX 28 37 82 38 76 39 78 40 29 41 81 42 75 43 74 44 30 46 62 47
REMARK SMILES IDX 42 48 61 49 43 50 46 51 60 52 79 53 44 54 45 55 59 57 80 58
REMARK SMILES IDX 47 59 31 60 32 61 40 62 33 63 34 64 38 65 41 66 35 67 36 68
REMARK SMILES IDX 39 69 37 70 63 71 64 72 72 73 65 74 66 75 70 76 73 77 67 78
REMARK SMILES IDX 68 79 71 80 69 81 48 82 49 83 57 84 50 85 51 86 55 87 58 88
REMARK SMILES IDX 52 89 53 90 56 91 54 92
REMARK H PARENT 15 5 7 13 19 26 78 45 46 56
REMARK Flexibility Score: inf
ROOT
ATOM      1  C   UNL A   1      36.617  19.563  24.944  1.00  0.00     0.118 C 
ENDROOT
BRANCH   1   2
ATOM      2  N   UNL A   1      36.275  18.164  25.076  1.00  0.00    -0.349 N 
ATOM      3  C   UNL A   1      35.145  17.469  24.707  1.00  0.00     0.286 C 
ATOM      4  O   UNL A   1      35.204  16.248  24.862  1.00  0.00    -0.266 OA
ATOM      5  H   UNL A   1      36.969  17.613  25.504  1.00  0.00     0.163 HD
BRANCH   3   6
ATOM      6  C   UNL A   1      33.979  18.145  24.165  1.00  0.00     0.191 A 
ATOM      7  C   UNL A   1      32.497  19.795  24.172  1.00  0.00     0.124 A 
ATOM      8  C   UNL A   1      32.164  18.985  23.111  1.00  0.00     0.048 A 
ATOM      9  O   UNL A   1      33.591  19.295  24.808  1.00  0.00    -0.454 OA
ATOM     10  C   UNL A   1      33.127  17.943  23.092  1.00  0.00     0.056 A 
BRANCH   7  11
ATOM     11  C   UNL A   1      31.945  21.075  24.706  1.00  0.00     0.188 C 
BRANCH  11  12
ATOM     12  N   UNL A   1      32.631  22.265  24.229  1.00  0.00    -0.378 N 
ATOM     13  H   UNL A   1      32.114  22.876  23.657  1.00  0.00     0.161 HD
BRANCH  12  14
ATOM     14  C   UNL A   1      33.937  22.618  24.501  1.00  0.00     0.035 A 
ATOM     15  C   UNL A   1      36.654  23.333  24.909  1.00  0.00     0.119 A 
ATOM     16  C   UNL A   1      35.808  23.100  25.989  1.00  0.00     0.048 A 
ATOM     17  C   UNL A   1      36.158  23.172  23.620  1.00  0.00     0.048 A 
ATOM     18  C   UNL A   1      34.469  22.744  25.785  1.00  0.00     0.029 A 
ATOM     19  C   UNL A   1      34.816  22.816  23.425  1.00  0.00     0.029 A 
BRANCH  15  20
ATOM     20  O   UNL A   1      37.935  23.679  25.237  1.00  0.00    -0.497 OA
ATOM     21  C   UNL A   1      38.131  24.144  26.567  1.00  0.00     0.278 C 
ENDBRANCH  15  20
ENDBRANCH  12  14
ENDBRANCH  11  12
ENDBRANCH   7  11
ENDBRANCH   3   6
ENDBRANCH   1   2
BRANCH   1  22
ATOM     22  C   UNL A   1      38.089  19.756  24.582  1.00  0.00     0.042 C 
BRANCH  22  23
ATOM     23  C   UNL A   1      38.974  20.089  25.783  1.00  0.00     0.118 C 
BRANCH  23  24
ATOM     24  N   UNL A   1      40.069  19.141  25.934  1.00  0.00    -0.352 N 
ATOM     25  C   UNL A   1      41.415  19.347  26.090  1.00  0.00     0.251 C 
ATOM     26  H   UNL A   1      39.796  18.195  25.923  1.00  0.00     0.163 HD
ATOM     27  O   UNL A   1      42.181  18.394  25.977  1.00  0.00    -0.269 OA
BRANCH  25  28
ATOM     28  C   UNL A   1      41.963  20.689  26.387  1.00  0.00     0.039 A 
ATOM     29  C   UNL A   1      42.211  21.027  27.723  1.00  0.00     0.014 A 
ATOM     30  C   UNL A   1      42.150  21.646  25.386  1.00  0.00     0.014 A 
ATOM     31  C   UNL A   1      42.675  22.303  28.051  1.00  0.00     0.010 A 
ATOM     32  C   UNL A   1      42.668  22.901  25.707  1.00  0.00     0.010 A 
ATOM     33  C   UNL A   1      42.923  23.247  27.043  1.00  0.00    -0.014 A 
BRANCH  33  34
ATOM     34  C   UNL A   1      43.421  24.608  27.372  1.00  0.00     0.031 A 
ATOM     35  C   UNL A   1      42.487  25.632  27.959  1.00  0.00     0.074 A 
ATOM     36  C   UNL A   1      44.694  24.940  27.091  1.00  0.00     0.049 A 
ATOM     37  N   UNL A   1      42.705  26.893  28.231  1.00  0.00    -0.248 NA
ATOM     38  C   UNL A   1      41.116  25.183  28.255  1.00  0.00     0.031 C 
ATOM     39  C   UNL A   1      45.687  24.051  26.485  1.00  0.00     0.029 A 
ATOM     40  N   UNL A   1      45.369  26.124  27.263  1.00  0.00    -0.354 N 
ATOM     41  C   UNL A   1      41.498  27.395  28.701  1.00  0.00     0.074 A 
ATOM     42  C   UNL A   1      40.541  26.310  28.650  1.00  0.00     0.031 C 
ATOM     43  C   UNL A   1      46.845  24.717  26.342  1.00  0.00     0.029 A 
ATOM     44  C   UNL A   1      46.669  26.086  26.818  1.00  0.00     0.049 A 
ATOM     45  H   UNL A   1      44.961  26.923  27.667  1.00  0.00     0.167 HD
ATOM     46  C   UNL A   1      41.219  28.642  29.148  1.00  0.00     0.037 A 
ATOM     47  C   UNL A   1      47.608  27.050  26.792  1.00  0.00     0.037 A 
ATOM     48  C   UNL A   1      42.182  29.706  29.245  1.00  0.00     0.049 A 
ATOM     49  C   UNL A   1      47.281  28.414  27.336  1.00  0.00     0.074 A 
ATOM     50  C   UNL A   1      42.010  30.985  29.746  1.00  0.00     0.029 A 
ATOM     51  N   UNL A   1      43.504  29.610  28.840  1.00  0.00    -0.354 N 
ATOM     52  N   UNL A   1      46.151  28.858  27.832  1.00  0.00    -0.248 NA
ATOM     53  C   UNL A   1      48.363  29.409  27.328  1.00  0.00     0.031 C 
ATOM     54  C   UNL A   1      43.221  31.672  29.618  1.00  0.00     0.029 A 
ATOM     55  C   UNL A   1      44.157  30.810  29.073  1.00  0.00     0.049 A 
ATOM     56  H   UNL A   1      43.919  28.808  28.445  1.00  0.00     0.167 HD
ATOM     57  C   UNL A   1      46.395  30.167  28.223  1.00  0.00     0.074 A 
ATOM     58  C   UNL A   1      47.782  30.444  27.917  1.00  0.00     0.031 C 
ATOM     59  C   UNL A   1      45.545  31.059  28.785  1.00  0.00     0.037 A 
BRANCH  46  60
ATOM     60  C   UNL A   1      39.811  28.932  29.578  1.00  0.00     0.064 A 
ATOM     61  C   UNL A   1      38.852  29.411  28.675  1.00  0.00     0.173 A 
ATOM     62  C   UNL A   1      39.402  28.670  30.894  1.00  0.00     0.173 A 
ATOM     63  F   UNL A   1      39.196  29.688  27.408  1.00  0.00    -0.203 F 
ATOM     64  C   UNL A   1      37.537  29.631  29.078  1.00  0.00     0.198 A 
ATOM     65  C   UNL A   1      38.081  28.868  31.287  1.00  0.00     0.198 A 
ATOM     66  F   UNL A   1      40.281  28.205  31.795  1.00  0.00    -0.203 F 
ATOM     67  F   UNL A   1      36.644  30.119  28.206  1.00  0.00    -0.200 F 
ATOM     68  C   UNL A   1      37.151  29.351  30.380  1.00  0.00     0.200 A 
ATOM     69  F   UNL A   1      37.707  28.586  32.543  1.00  0.00    -0.200 F 
ATOM     70  F   UNL A   1      35.882  29.551  30.763  1.00  0.00    -0.200 F 
ENDBRANCH  46  60
BRANCH  47  71
ATOM     71  C   UNL A   1      48.960  26.757  26.249  1.00  0.00     0.064 A 
ATOM     72  C   UNL A   1      49.281  27.058  24.919  1.00  0.00     0.173 A 
ATOM     73  C   UNL A   1      49.948  26.155  27.041  1.00  0.00     0.173 A 
ATOM     74  F   UNL A   1      48.361  27.616  24.118  1.00  0.00    -0.203 F 
ATOM     75  C   UNL A   1      50.532  26.743  24.391  1.00  0.00     0.198 A 
ATOM     76  C   UNL A   1      51.207  25.864  26.520  1.00  0.00     0.198 A 
ATOM     77  F   UNL A   1      49.691  25.854  28.322  1.00  0.00    -0.203 F 
ATOM     78  F   UNL A   1      50.796  26.996  23.103  1.00  0.00    -0.200 F 
ATOM     79  C   UNL A   1      51.495  26.150  25.194  1.00  0.00     0.200 A 
ATOM     80  F   UNL A   1      52.139  25.303  27.302  1.00  0.00    -0.200 F 
ATOM     81  F   UNL A   1      52.697  25.845  24.686  1.00  0.00    -0.200 F 
ENDBRANCH  47  71
BRANCH  59  82
ATOM     82  C   UNL A   1      46.102  32.401  29.153  1.00  0.00     0.064 A 
ATOM     83  C   UNL A   1      46.063  33.484  28.261  1.00  0.00     0.173 A 
ATOM     84  C   UNL A   1      46.649  32.616  30.427  1.00  0.00     0.173 A 
ATOM     85  F   UNL A   1      45.564  33.323  27.027  1.00  0.00    -0.203 F 
ATOM     86  C   UNL A   1      46.573  34.727  28.626  1.00  0.00     0.198 A 
ATOM     87  C   UNL A   1      47.134  33.867  30.797  1.00  0.00     0.198 A 
ATOM     88  F   UNL A   1      46.704  31.612  31.317  1.00  0.00    -0.203 F 
ATOM     89  F   UNL A   1      46.564  35.736  27.745  1.00  0.00    -0.200 F 
ATOM     90  C   UNL A   1      47.101  34.919  29.894  1.00  0.00     0.200 A 
ATOM     91  F   UNL A   1      47.635  34.053  32.025  1.00  0.00    -0.200 F 
ATOM     92  F   UNL A   1      47.587  36.117  30.244  1.00  0.00    -0.200 F 
ENDBRANCH  59  82
ENDBRANCH  33  34
ENDBRANCH  25  28
ENDBRANCH  23  24
ENDBRANCH  22  23
ENDBRANCH   1  22
TORSDOF 14
ENDMDL
