MODEL 1
REMARK VINA RESULT:     -12.8      0.000      0.000
REMARK SMILES O=C(NCCCNC(=O)C1CC[NH+]([C@@H]2CCO[C@]3(CCOC3)C2)CC1)c1ccc(-c2c3nc(c(-c4c(F)c(F)c(F)c(F)c4F)c4ccc([nH]4)c(-c4c(F)c(F)c(F)c(F)c4F)c4nc(c(-c5c(F)c(F)c(F)c(F)c5F)c5ccc2[nH]5)C=C4)C=C3)cc1
REMARK SMILES IDX 4 1 3 2 1 3 2 4 26 6 27 7 88 8 28 9 87 10 29 11 30 12 31 13
REMARK SMILES IDX 81 14 32 15 86 16 80 17 82 18 33 19 85 20 79 21 78 22 34 24
REMARK SMILES IDX 66 25 46 26 65 27 47 28 50 29 64 30 83 31 48 32 49 33 63 35
REMARK SMILES IDX 84 36 51 37 35 38 36 39 44 40 37 41 38 42 42 43 45 44 39 45
REMARK SMILES IDX 40 46 43 47 41 48 67 49 68 50 76 51 69 52 70 53 74 54 77 55
REMARK SMILES IDX 71 56 72 57 75 58 73 59 52 60 53 61 61 62 54 63 55 64 59 65
REMARK SMILES IDX 62 66 56 67 57 68 60 69 58 70 5 71 6 72 7 73 8 74 9 76 10 77
REMARK SMILES IDX 11 78 25 79 12 80 24 81 13 82 14 84 15 85 23 86 16 87 18 88
REMARK SMILES IDX 17 89 19 90 22 91 20 92 21 93
REMARK H PARENT 3 5 82 23 50 34 7 75 13 83
REMARK Flexibility Score: inf
ROOT
ATOM      1  C   UNL A   1      39.139  20.244  25.788  1.00  0.00     0.118 C 
ENDROOT
BRANCH   1   2
ATOM      2  N   UNL A   1      40.205  19.266  25.914  1.00  0.00    -0.352 N 
ATOM      3  O   UNL A   1      42.294  18.460  25.877  1.00  0.00    -0.269 OA
ATOM      4  C   UNL A   1      41.554  19.428  26.075  1.00  0.00     0.251 C 
ATOM      5  H   UNL A   1      39.908  18.329  25.878  1.00  0.00     0.163 HD
BRANCH   4   6
ATOM      6  C   UNL A   1      42.154  20.721  26.475  1.00  0.00     0.039 A 
ATOM      7  C   UNL A   1      42.548  21.676  25.534  1.00  0.00     0.014 A 
ATOM      8  C   UNL A   1      42.203  21.038  27.838  1.00  0.00     0.014 A 
ATOM      9  C   UNL A   1      43.074  22.900  25.950  1.00  0.00     0.010 A 
ATOM     10  C   UNL A   1      42.657  22.293  28.253  1.00  0.00     0.010 A 
ATOM     11  C   UNL A   1      43.104  23.233  27.313  1.00  0.00    -0.014 A 
BRANCH  11  12
ATOM     12  C   UNL A   1      43.518  24.591  27.750  1.00  0.00     0.031 A 
ATOM     13  C   UNL A   1      42.493  25.629  28.102  1.00  0.00     0.074 A 
ATOM     14  C   UNL A   1      44.828  24.902  27.775  1.00  0.00     0.049 A 
ATOM     15  N   UNL A   1      42.663  26.894  28.396  1.00  0.00    -0.248 NA
ATOM     16  C   UNL A   1      41.090  25.191  28.114  1.00  0.00     0.031 C 
ATOM     17  C   UNL A   1      45.916  23.982  27.439  1.00  0.00     0.029 A 
ATOM     18  N   UNL A   1      45.467  26.078  28.077  1.00  0.00    -0.354 N 
ATOM     19  C   UNL A   1      41.390  27.409  28.600  1.00  0.00     0.074 A 
ATOM     20  C   UNL A   1      40.456  26.325  28.378  1.00  0.00     0.031 C 
ATOM     21  C   UNL A   1      47.087  24.623  27.562  1.00  0.00     0.029 A 
ATOM     22  C   UNL A   1      46.830  26.013  27.924  1.00  0.00     0.049 A 
ATOM     23  H   UNL A   1      44.994  26.888  28.376  1.00  0.00     0.167 HD
ATOM     24  C   UNL A   1      41.037  28.672  28.942  1.00  0.00     0.037 A 
ATOM     25  C   UNL A   1      47.769  26.972  28.027  1.00  0.00     0.037 A 
ATOM     26  C   UNL A   1      41.975  29.742  29.172  1.00  0.00     0.049 A 
ATOM     27  C   UNL A   1      47.354  28.370  28.384  1.00  0.00     0.074 A 
ATOM     28  C   UNL A   1      41.720  31.044  29.568  1.00  0.00     0.029 A 
ATOM     29  N   UNL A   1      43.350  29.633  29.017  1.00  0.00    -0.354 N 
ATOM     30  N   UNL A   1      46.152  28.839  28.611  1.00  0.00    -0.248 NA
ATOM     31  C   UNL A   1      48.422  29.371  28.501  1.00  0.00     0.031 C 
ATOM     32  C   UNL A   1      42.936  31.734  29.607  1.00  0.00     0.029 A 
ATOM     33  C   UNL A   1      43.954  30.851  29.287  1.00  0.00     0.049 A 
ATOM     34  H   UNL A   1      43.827  28.812  28.755  1.00  0.00     0.167 HD
ATOM     35  C   UNL A   1      46.317  30.182  28.916  1.00  0.00     0.074 A 
ATOM     36  C   UNL A   1      47.738  30.453  28.852  1.00  0.00     0.031 C 
ATOM     37  C   UNL A   1      45.373  31.104  29.226  1.00  0.00     0.037 A 
BRANCH  24  38
ATOM     38  C   UNL A   1      39.571  28.974  29.059  1.00  0.00     0.064 A 
ATOM     39  C   UNL A   1      38.894  28.899  30.286  1.00  0.00     0.173 A 
ATOM     40  C   UNL A   1      38.835  29.359  27.927  1.00  0.00     0.173 A 
ATOM     41  F   UNL A   1      39.548  28.524  31.395  1.00  0.00    -0.203 F 
ATOM     42  C   UNL A   1      37.529  29.164  30.368  1.00  0.00     0.198 A 
ATOM     43  C   UNL A   1      37.477  29.650  28.019  1.00  0.00     0.198 A 
ATOM     44  F   UNL A   1      39.434  29.453  26.731  1.00  0.00    -0.203 F 
ATOM     45  F   UNL A   1      36.893  29.030  31.540  1.00  0.00    -0.200 F 
ATOM     46  C   UNL A   1      36.823  29.543  29.237  1.00  0.00     0.200 A 
ATOM     47  F   UNL A   1      36.799  30.028  26.926  1.00  0.00    -0.200 F 
ATOM     48  F   UNL A   1      35.509  29.794  29.318  1.00  0.00    -0.200 F 
ENDBRANCH  24  38
BRANCH  25  49
ATOM     49  C   UNL A   1      49.190  26.624  27.774  1.00  0.00     0.064 A 
ATOM     50  C   UNL A   1      50.079  26.407  28.833  1.00  0.00     0.173 A 
ATOM     51  C   UNL A   1      49.670  26.442  26.467  1.00  0.00     0.173 A 
ATOM     52  F   UNL A   1      49.670  26.586  30.097  1.00  0.00    -0.203 F 
ATOM     53  C   UNL A   1      51.396  26.018  28.596  1.00  0.00     0.198 A 
ATOM     54  C   UNL A   1      50.978  26.028  26.233  1.00  0.00     0.198 A 
ATOM     55  F   UNL A   1      48.852  26.630  25.420  1.00  0.00    -0.203 F 
ATOM     56  F   UNL A   1      52.233  25.834  29.626  1.00  0.00    -0.200 F 
ATOM     57  C   UNL A   1      51.841  25.819  27.298  1.00  0.00     0.200 A 
ATOM     58  F   UNL A   1      51.398  25.819  24.978  1.00  0.00    -0.200 F 
ATOM     59  F   UNL A   1      53.101  25.423  27.073  1.00  0.00    -0.200 F 
ENDBRANCH  25  49
BRANCH  37  60
ATOM     60  C   UNL A   1      45.843  32.487  29.562  1.00  0.00     0.064 A 
ATOM     61  C   UNL A   1      45.948  33.486  28.584  1.00  0.00     0.173 A 
ATOM     62  C   UNL A   1      46.129  32.833  30.891  1.00  0.00     0.173 A 
ATOM     63  F   UNL A   1      45.700  33.199  27.296  1.00  0.00    -0.203 F 
ATOM     64  C   UNL A   1      46.330  34.780  28.924  1.00  0.00     0.198 A 
ATOM     65  C   UNL A   1      46.487  34.133  31.231  1.00  0.00     0.198 A 
ATOM     66  F   UNL A   1      46.040  31.912  31.862  1.00  0.00    -0.203 F 
ATOM     67  F   UNL A   1      46.451  35.714  27.971  1.00  0.00    -0.200 F 
ATOM     68  C   UNL A   1      46.590  35.105  30.248  1.00  0.00     0.200 A 
ATOM     69  F   UNL A   1      46.728  34.447  32.512  1.00  0.00    -0.200 F 
ATOM     70  F   UNL A   1      46.943  36.356  30.576  1.00  0.00    -0.200 F 
ENDBRANCH  37  60
ENDBRANCH  11  12
ENDBRANCH   4   6
ENDBRANCH   1   2
BRANCH   1  71
ATOM     71  C   UNL A   1      37.924  19.686  25.056  1.00  0.00     0.042 C 
BRANCH  71  72
ATOM     72  C   UNL A   1      36.726  20.630  25.003  1.00  0.00     0.117 C 
BRANCH  72  73
ATOM     73  N   UNL A   1      36.898  21.693  24.037  1.00  0.00    -0.356 N 
ATOM     74  C   UNL A   1      36.133  22.694  23.568  1.00  0.00     0.223 C 
ATOM     75  H   UNL A   1      37.793  21.679  23.623  1.00  0.00     0.163 HD
ATOM     76  O   UNL A   1      36.736  23.467  22.805  1.00  0.00    -0.275 OA
BRANCH  74  77
ATOM     77  C   UNL A   1      34.641  22.937  23.819  1.00  0.00     0.089 C 
ATOM     78  C   UNL A   1      33.727  23.767  22.920  1.00  0.00     0.075 C 
ATOM     79  C   UNL A   1      34.514  23.468  25.248  1.00  0.00     0.075 C 
ATOM     80  C   UNL A   1      33.769  25.289  23.144  1.00  0.00     0.263 C 
ATOM     81  C   UNL A   1      34.868  24.948  25.262  1.00  0.00     0.263 C 
ATOM     82  N   UNL A   1      33.828  25.698  24.558  1.00  0.00    -0.332 N 
ATOM     83  H   UNL A   1      32.963  25.439  25.031  1.00  0.00     0.348 HD
BRANCH  82  84
ATOM     84  C   UNL A   1      33.849  27.175  24.712  1.00  0.00     0.189 C 
ATOM     85  C   UNL A   1      33.904  27.749  26.134  1.00  0.00     0.093 C 
ATOM     86  C   UNL A   1      32.704  27.871  23.943  1.00  0.00     0.103 C 
ATOM     87  C   UNL A   1      32.551  27.795  26.828  1.00  0.00     0.167 C 
ATOM     88  C   UNL A   1      31.365  27.936  24.698  1.00  0.00     0.099 C 
ATOM     89  O   UNL A   1      31.539  28.399  26.041  1.00  0.00    -0.372 OA
ATOM     90  C   UNL A   1      30.539  26.661  24.545  1.00  0.00     0.066 C 
ATOM     91  C   UNL A   1      30.412  28.946  24.040  1.00  0.00     0.195 C 
ATOM     92  C   UNL A   1      29.582  26.921  23.390  1.00  0.00     0.163 C 
ATOM     93  O   UNL A   1      29.770  28.268  22.961  1.00  0.00    -0.378 OA
ENDBRANCH  82  84
ENDBRANCH  74  77
ENDBRANCH  72  73
ENDBRANCH  71  72
ENDBRANCH   1  71
TORSDOF 11
ENDMDL
MODEL 2
REMARK VINA RESULT:     -12.8      0.152      1.967
REMARK SMILES O=C(NCCCNC(=O)C1CC[NH+]([C@@H]2CCO[C@]3(CCOC3)C2)CC1)c1ccc(-c2c3nc(c(-c4c(F)c(F)c(F)c(F)c4F)c4ccc([nH]4)c(-c4c(F)c(F)c(F)c(F)c4F)c4nc(c(-c5c(F)c(F)c(F)c(F)c5F)c5ccc2[nH]5)C=C4)C=C3)cc1
REMARK SMILES IDX 4 1 3 2 1 3 2 4 26 6 27 7 88 8 28 9 87 10 29 11 30 12 31 13
REMARK SMILES IDX 81 14 32 15 86 16 80 17 82 18 33 19 85 20 79 21 78 22 34 24
REMARK SMILES IDX 66 25 46 26 65 27 47 28 50 29 64 30 83 31 48 32 49 33 63 35
REMARK SMILES IDX 84 36 51 37 35 38 36 39 44 40 37 41 38 42 42 43 45 44 39 45
REMARK SMILES IDX 40 46 43 47 41 48 67 49 68 50 76 51 69 52 70 53 74 54 77 55
REMARK SMILES IDX 71 56 72 57 75 58 73 59 52 60 53 61 61 62 54 63 55 64 59 65
REMARK SMILES IDX 62 66 56 67 57 68 60 69 58 70 5 71 6 72 7 73 8 74 9 76 10 77
REMARK SMILES IDX 11 78 25 79 12 80 24 81 13 82 14 84 15 85 23 86 16 87 18 88
REMARK SMILES IDX 17 89 19 90 22 91 20 92 21 93
REMARK H PARENT 3 5 82 23 50 34 7 75 13 83
REMARK Flexibility Score: inf
ROOT
ATOM      1  C   UNL A   1      39.026  20.235  25.753  1.00  0.00     0.118 C 
ENDROOT
BRANCH   1   2
ATOM      2  N   UNL A   1      40.077  19.243  25.895  1.00  0.00    -0.352 N 
ATOM      3  O   UNL A   1      42.155  18.406  25.884  1.00  0.00    -0.269 OA
ATOM      4  C   UNL A   1      41.427  19.386  26.070  1.00  0.00     0.251 C 
ATOM      5  H   UNL A   1      39.767  18.310  25.859  1.00  0.00     0.163 HD
BRANCH   4   6
ATOM      6  C   UNL A   1      42.040  20.672  26.471  1.00  0.00     0.039 A 
ATOM      7  C   UNL A   1      42.421  21.635  25.532  1.00  0.00     0.014 A 
ATOM      8  C   UNL A   1      42.117  20.975  27.836  1.00  0.00     0.014 A 
ATOM      9  C   UNL A   1      42.961  22.852  25.950  1.00  0.00     0.010 A 
ATOM     10  C   UNL A   1      42.585  22.223  28.255  1.00  0.00     0.010 A 
ATOM     11  C   UNL A   1      43.019  23.171  27.315  1.00  0.00    -0.014 A 
BRANCH  11  12
ATOM     12  C   UNL A   1      43.448  24.522  27.758  1.00  0.00     0.031 A 
ATOM     13  C   UNL A   1      42.435  25.574  28.102  1.00  0.00     0.074 A 
ATOM     14  C   UNL A   1      44.762  24.814  27.795  1.00  0.00     0.049 A 
ATOM     15  N   UNL A   1      42.620  26.837  28.398  1.00  0.00    -0.248 NA
ATOM     16  C   UNL A   1      41.026  25.156  28.100  1.00  0.00     0.031 C 
ATOM     17  C   UNL A   1      45.840  23.880  27.469  1.00  0.00     0.029 A 
ATOM     18  N   UNL A   1      45.415  25.981  28.105  1.00  0.00    -0.354 N 
ATOM     19  C   UNL A   1      41.352  27.370  28.591  1.00  0.00     0.074 A 
ATOM     20  C   UNL A   1      40.405  26.299  28.359  1.00  0.00     0.031 C 
ATOM     21  C   UNL A   1      47.019  24.504  27.603  1.00  0.00     0.029 A 
ATOM     22  C   UNL A   1      46.779  25.897  27.964  1.00  0.00     0.049 A 
ATOM     23  H   UNL A   1      44.951  26.797  28.400  1.00  0.00     0.167 HD
ATOM     24  C   UNL A   1      41.015  28.637  28.932  1.00  0.00     0.037 A 
ATOM     25  C   UNL A   1      47.729  26.843  28.077  1.00  0.00     0.037 A 
ATOM     26  C   UNL A   1      41.965  29.693  29.171  1.00  0.00     0.049 A 
ATOM     27  C   UNL A   1      47.331  28.245  28.432  1.00  0.00     0.074 A 
ATOM     28  C   UNL A   1      41.725  30.998  29.567  1.00  0.00     0.029 A 
ATOM     29  N   UNL A   1      43.340  29.565  29.029  1.00  0.00    -0.354 N 
ATOM     30  N   UNL A   1      46.134  28.732  28.648  1.00  0.00    -0.248 NA
ATOM     31  C   UNL A   1      48.413  29.231  28.560  1.00  0.00     0.031 C 
ATOM     32  C   UNL A   1      42.950  31.671  29.618  1.00  0.00     0.029 A 
ATOM     33  C   UNL A   1      43.959  30.774  29.306  1.00  0.00     0.049 A 
ATOM     34  H   UNL A   1      43.807  28.738  28.771  1.00  0.00     0.167 HD
ATOM     35  C   UNL A   1      46.315  30.072  28.957  1.00  0.00     0.074 A 
ATOM     36  C   UNL A   1      47.741  30.322  28.906  1.00  0.00     0.031 C 
ATOM     37  C   UNL A   1      45.381  31.006  29.259  1.00  0.00     0.037 A 
BRANCH  24  38
ATOM     38  C   UNL A   1      39.552  28.959  29.035  1.00  0.00     0.064 A 
ATOM     39  C   UNL A   1      38.798  29.346  27.916  1.00  0.00     0.173 A 
ATOM     40  C   UNL A   1      38.891  28.865  30.269  1.00  0.00     0.173 A 
ATOM     41  F   UNL A   1      39.384  29.463  26.715  1.00  0.00    -0.203 F 
ATOM     42  C   UNL A   1      37.446  29.659  28.037  1.00  0.00     0.198 A 
ATOM     43  C   UNL A   1      37.533  29.151  30.380  1.00  0.00     0.198 A 
ATOM     44  F   UNL A   1      39.562  28.494  31.369  1.00  0.00    -0.203 F 
ATOM     45  F   UNL A   1      36.760  30.080  26.965  1.00  0.00    -0.200 F 
ATOM     46  C   UNL A   1      36.814  29.558  29.267  1.00  0.00     0.200 A 
ATOM     47  F   UNL A   1      36.921  29.042  31.568  1.00  0.00    -0.200 F 
ATOM     48  F   UNL A   1      35.513  29.862  29.381  1.00  0.00    -0.200 F 
ENDBRANCH  24  38
BRANCH  25  49
ATOM     49  C   UNL A   1      49.148  26.475  27.837  1.00  0.00     0.064 A 
ATOM     50  C   UNL A   1      49.653  26.359  26.537  1.00  0.00     0.173 A 
ATOM     51  C   UNL A   1      50.040  26.292  28.905  1.00  0.00     0.173 A 
ATOM     52  F   UNL A   1      48.835  26.508  25.485  1.00  0.00    -0.203 F 
ATOM     53  C   UNL A   1      50.999  26.076  26.312  1.00  0.00     0.198 A 
ATOM     54  C   UNL A   1      51.389  26.035  28.679  1.00  0.00     0.198 A 
ATOM     55  F   UNL A   1      49.603  26.401  30.169  1.00  0.00    -0.203 F 
ATOM     56  F   UNL A   1      51.455  25.952  25.058  1.00  0.00    -0.200 F 
ATOM     57  C   UNL A   1      51.867  25.925  27.382  1.00  0.00     0.200 A 
ATOM     58  F   UNL A   1      52.228  25.908  29.717  1.00  0.00    -0.200 F 
ATOM     59  F   UNL A   1      53.166  25.676  27.165  1.00  0.00    -0.200 F 
ENDBRANCH  25  49
BRANCH  37  60
ATOM     60  C   UNL A   1      45.868  32.383  29.601  1.00  0.00     0.064 A 
ATOM     61  C   UNL A   1      46.240  32.728  30.908  1.00  0.00     0.173 A 
ATOM     62  C   UNL A   1      46.026  33.346  28.594  1.00  0.00     0.173 A 
ATOM     63  F   UNL A   1      46.093  31.845  31.907  1.00  0.00    -0.203 F 
ATOM     64  C   UNL A   1      46.746  33.992  31.194  1.00  0.00     0.198 A 
ATOM     65  C   UNL A   1      46.554  34.601  28.880  1.00  0.00     0.198 A 
ATOM     66  F   UNL A   1      45.687  33.061  27.327  1.00  0.00    -0.203 F 
ATOM     67  F   UNL A   1      47.070  34.313  32.455  1.00  0.00    -0.200 F 
ATOM     68  C   UNL A   1      46.911  34.924  30.180  1.00  0.00     0.200 A 
ATOM     69  F   UNL A   1      46.723  35.496  27.896  1.00  0.00    -0.200 F 
ATOM     70  F   UNL A   1      47.413  36.136  30.456  1.00  0.00    -0.200 F 
ENDBRANCH  37  60
ENDBRANCH  11  12
ENDBRANCH   4   6
ENDBRANCH   1   2
BRANCH   1  71
ATOM     71  C   UNL A   1      37.797  19.680  25.043  1.00  0.00     0.042 C 
BRANCH  71  72
ATOM     72  C   UNL A   1      36.613  20.641  24.979  1.00  0.00     0.117 C 
BRANCH  72  73
ATOM     73  N   UNL A   1      36.814  21.709  24.025  1.00  0.00    -0.356 N 
ATOM     74  C   UNL A   1      36.073  22.729  23.559  1.00  0.00     0.223 C 
ATOM     75  H   UNL A   1      37.712  21.682  23.618  1.00  0.00     0.163 HD
ATOM     76  O   UNL A   1      36.697  23.498  22.808  1.00  0.00    -0.275 OA
BRANCH  74  77
ATOM     77  C   UNL A   1      34.584  23.000  23.800  1.00  0.00     0.089 C 
ATOM     78  C   UNL A   1      33.699  23.872  22.912  1.00  0.00     0.075 C 
ATOM     79  C   UNL A   1      34.451  23.496  25.240  1.00  0.00     0.075 C 
ATOM     80  C   UNL A   1      33.772  25.387  23.177  1.00  0.00     0.263 C 
ATOM     81  C   UNL A   1      34.838  24.966  25.298  1.00  0.00     0.263 C 
ATOM     82  N   UNL A   1      33.824  25.757  24.602  1.00  0.00    -0.332 N 
ATOM     83  H   UNL A   1      32.947  25.505  25.058  1.00  0.00     0.348 HD
BRANCH  82  84
ATOM     84  C   UNL A   1      33.876  27.229  24.795  1.00  0.00     0.189 C 
ATOM     85  C   UNL A   1      33.875  27.766  26.232  1.00  0.00     0.093 C 
ATOM     86  C   UNL A   1      32.788  27.975  23.989  1.00  0.00     0.103 C 
ATOM     87  C   UNL A   1      32.491  27.831  26.861  1.00  0.00     0.167 C 
ATOM     88  C   UNL A   1      31.416  28.058  24.679  1.00  0.00     0.099 C 
ATOM     89  O   UNL A   1      31.535  28.482  26.040  1.00  0.00    -0.372 OA
ATOM     90  C   UNL A   1      30.565  26.810  24.452  1.00  0.00     0.066 C 
ATOM     91  C   UNL A   1      30.523  29.109  24.001  1.00  0.00     0.195 C 
ATOM     92  C   UNL A   1      29.674  27.124  23.259  1.00  0.00     0.163 C 
ATOM     93  O   UNL A   1      29.918  28.476  22.875  1.00  0.00    -0.378 OA
ENDBRANCH  82  84
ENDBRANCH  74  77
ENDBRANCH  72  73
ENDBRANCH  71  72
ENDBRANCH   1  71
TORSDOF 11
ENDMDL
MODEL 3
REMARK VINA RESULT:     -12.7      5.368     10.746
REMARK SMILES O=C(NCCCNC(=O)C1CC[NH+]([C@@H]2CCO[C@]3(CCOC3)C2)CC1)c1ccc(-c2c3nc(c(-c4c(F)c(F)c(F)c(F)c4F)c4ccc([nH]4)c(-c4c(F)c(F)c(F)c(F)c4F)c4nc(c(-c5c(F)c(F)c(F)c(F)c5F)c5ccc2[nH]5)C=C4)C=C3)cc1
REMARK SMILES IDX 4 1 3 2 1 3 2 4 26 6 27 7 88 8 28 9 87 10 29 11 30 12 31 13
REMARK SMILES IDX 81 14 32 15 86 16 80 17 82 18 33 19 85 20 79 21 78 22 34 24
REMARK SMILES IDX 66 25 46 26 65 27 47 28 50 29 64 30 83 31 48 32 49 33 63 35
REMARK SMILES IDX 84 36 51 37 35 38 36 39 44 40 37 41 38 42 42 43 45 44 39 45
REMARK SMILES IDX 40 46 43 47 41 48 67 49 68 50 76 51 69 52 70 53 74 54 77 55
REMARK SMILES IDX 71 56 72 57 75 58 73 59 52 60 53 61 61 62 54 63 55 64 59 65
REMARK SMILES IDX 62 66 56 67 57 68 60 69 58 70 5 71 6 72 7 73 8 74 9 76 10 77
REMARK SMILES IDX 11 78 25 79 12 80 24 81 13 82 14 84 15 85 23 86 16 87 18 88
REMARK SMILES IDX 17 89 19 90 22 91 20 92 21 93
REMARK H PARENT 3 5 82 23 50 34 7 75 13 83
REMARK Flexibility Score: inf
ROOT
ATOM      1  C   UNL A   1      32.599  32.633  27.251  1.00  0.00     0.118 C 
ENDROOT
BRANCH   1   2
ATOM      2  N   UNL A   1      32.461  34.029  27.626  1.00  0.00    -0.352 N 
ATOM      3  O   UNL A   1      32.549  35.842  28.938  1.00  0.00    -0.269 OA
ATOM      4  C   UNL A   1      33.029  34.743  28.646  1.00  0.00     0.251 C 
ATOM      5  H   UNL A   1      31.858  34.550  27.050  1.00  0.00     0.163 HD
BRANCH   4   6
ATOM      6  C   UNL A   1      34.193  34.241  29.411  1.00  0.00     0.039 A 
ATOM      7  C   UNL A   1      34.042  33.462  30.562  1.00  0.00     0.014 A 
ATOM      8  C   UNL A   1      35.474  34.450  28.885  1.00  0.00     0.014 A 
ATOM      9  C   UNL A   1      35.164  32.974  31.234  1.00  0.00     0.010 A 
ATOM     10  C   UNL A   1      36.592  33.896  29.515  1.00  0.00     0.010 A 
ATOM     11  C   UNL A   1      36.447  33.160  30.700  1.00  0.00    -0.014 A 
BRANCH  11  12
ATOM     12  C   UNL A   1      37.628  32.513  31.328  1.00  0.00     0.031 A 
ATOM     13  C   UNL A   1      38.325  31.368  30.653  1.00  0.00     0.074 A 
ATOM     14  C   UNL A   1      38.036  32.928  32.542  1.00  0.00     0.049 A 
ATOM     15  N   UNL A   1      39.297  30.611  31.098  1.00  0.00    -0.248 NA
ATOM     16  C   UNL A   1      37.861  31.020  29.303  1.00  0.00     0.031 C 
ATOM     17  C   UNL A   1      37.429  34.020  33.305  1.00  0.00     0.029 A 
ATOM     18  N   UNL A   1      39.042  32.473  33.357  1.00  0.00    -0.354 N 
ATOM     19  C   UNL A   1      39.541  29.681  30.097  1.00  0.00     0.074 A 
ATOM     20  C   UNL A   1      38.603  29.956  29.028  1.00  0.00     0.031 C 
ATOM     21  C   UNL A   1      38.078  34.157  34.469  1.00  0.00     0.029 A 
ATOM     22  C   UNL A   1      39.104  33.125  34.564  1.00  0.00     0.049 A 
ATOM     23  H   UNL A   1      39.659  31.750  33.100  1.00  0.00     0.167 HD
ATOM     24  C   UNL A   1      40.466  28.690  30.075  1.00  0.00     0.037 A 
ATOM     25  C   UNL A   1      39.876  32.897  35.642  1.00  0.00     0.037 A 
ATOM     26  C   UNL A   1      41.402  28.432  31.139  1.00  0.00     0.049 A 
ATOM     27  C   UNL A   1      40.878  31.780  35.606  1.00  0.00     0.074 A 
ATOM     28  C   UNL A   1      42.408  27.482  31.192  1.00  0.00     0.029 A 
ATOM     29  N   UNL A   1      41.441  29.123  32.342  1.00  0.00    -0.354 N 
ATOM     30  N   UNL A   1      41.127  30.929  34.641  1.00  0.00    -0.248 NA
ATOM     31  C   UNL A   1      41.706  31.590  36.804  1.00  0.00     0.031 C 
ATOM     32  C   UNL A   1      43.024  27.568  32.445  1.00  0.00     0.029 A 
ATOM     33  C   UNL A   1      42.438  28.604  33.153  1.00  0.00     0.049 A 
ATOM     34  H   UNL A   1      40.848  29.871  32.584  1.00  0.00     0.167 HD
ATOM     35  C   UNL A   1      42.151  30.115  35.103  1.00  0.00     0.074 A 
ATOM     36  C   UNL A   1      42.482  30.578  36.435  1.00  0.00     0.031 C 
ATOM     37  C   UNL A   1      42.762  29.081  34.475  1.00  0.00     0.037 A 
BRANCH  24  38
ATOM     38  C   UNL A   1      40.488  27.791  28.873  1.00  0.00     0.064 A 
ATOM     39  C   UNL A   1      41.301  28.061  27.761  1.00  0.00     0.173 A 
ATOM     40  C   UNL A   1      39.695  26.634  28.839  1.00  0.00     0.173 A 
ATOM     41  F   UNL A   1      42.069  29.160  27.737  1.00  0.00    -0.203 F 
ATOM     42  C   UNL A   1      41.292  27.224  26.648  1.00  0.00     0.198 A 
ATOM     43  C   UNL A   1      39.710  25.785  27.736  1.00  0.00     0.198 A 
ATOM     44  F   UNL A   1      38.904  26.326  29.877  1.00  0.00    -0.203 F 
ATOM     45  F   UNL A   1      42.034  27.532  25.575  1.00  0.00    -0.200 F 
ATOM     46  C   UNL A   1      40.501  26.086  26.637  1.00  0.00     0.200 A 
ATOM     47  F   UNL A   1      38.953  24.679  27.732  1.00  0.00    -0.200 F 
ATOM     48  F   UNL A   1      40.492  25.283  25.563  1.00  0.00    -0.200 F 
ENDBRANCH  24  38
BRANCH  25  49
ATOM     49  C   UNL A   1      39.709  33.752  36.845  1.00  0.00     0.064 A 
ATOM     50  C   UNL A   1      40.349  34.993  36.942  1.00  0.00     0.173 A 
ATOM     51  C   UNL A   1      38.857  33.370  37.893  1.00  0.00     0.173 A 
ATOM     52  F   UNL A   1      41.186  35.392  35.974  1.00  0.00    -0.203 F 
ATOM     53  C   UNL A   1      40.142  35.823  38.043  1.00  0.00     0.198 A 
ATOM     54  C   UNL A   1      38.631  34.211  38.978  1.00  0.00     0.198 A 
ATOM     55  F   UNL A   1      38.215  32.193  37.840  1.00  0.00    -0.203 F 
ATOM     56  F   UNL A   1      40.781  36.998  38.122  1.00  0.00    -0.200 F 
ATOM     57  C   UNL A   1      39.276  35.436  39.054  1.00  0.00     0.200 A 
ATOM     58  F   UNL A   1      37.778  33.841  39.944  1.00  0.00    -0.200 F 
ATOM     59  F   UNL A   1      39.059  36.245  40.100  1.00  0.00    -0.200 F 
ENDBRANCH  25  49
BRANCH  37  60
ATOM     60  C   UNL A   1      43.883  28.400  35.200  1.00  0.00     0.064 A 
ATOM     61  C   UNL A   1      45.205  28.859  35.110  1.00  0.00     0.173 A 
ATOM     62  C   UNL A   1      43.619  27.314  36.048  1.00  0.00     0.173 A 
ATOM     63  F   UNL A   1      45.509  29.884  34.299  1.00  0.00    -0.203 F 
ATOM     64  C   UNL A   1      46.223  28.249  35.837  1.00  0.00     0.198 A 
ATOM     65  C   UNL A   1      44.635  26.722  36.792  1.00  0.00     0.198 A 
ATOM     66  F   UNL A   1      42.369  26.841  36.170  1.00  0.00    -0.203 F 
ATOM     67  F   UNL A   1      47.484  28.684  35.715  1.00  0.00    -0.200 F 
ATOM     68  C   UNL A   1      45.936  27.188  36.684  1.00  0.00     0.200 A 
ATOM     69  F   UNL A   1      44.353  25.704  37.618  1.00  0.00    -0.200 F 
ATOM     70  F   UNL A   1      46.916  26.612  37.394  1.00  0.00    -0.200 F 
ENDBRANCH  37  60
ENDBRANCH  11  12
ENDBRANCH   4   6
ENDBRANCH   1   2
BRANCH   1  71
ATOM     71  C   UNL A   1      31.389  32.117  26.482  1.00  0.00     0.042 C 
BRANCH  71  72
ATOM     72  C   UNL A   1      31.564  30.724  25.883  1.00  0.00     0.117 C 
BRANCH  72  73
ATOM     73  N   UNL A   1      31.538  29.681  26.884  1.00  0.00    -0.356 N 
ATOM     74  C   UNL A   1      31.597  28.338  26.869  1.00  0.00     0.223 C 
ATOM     75  H   UNL A   1      31.457  30.042  27.797  1.00  0.00     0.163 HD
ATOM     76  O   UNL A   1      31.659  27.828  28.000  1.00  0.00    -0.275 OA
BRANCH  74  77
ATOM     77  C   UNL A   1      31.538  27.405  25.654  1.00  0.00     0.089 C 
ATOM     78  C   UNL A   1      31.005  25.974  25.676  1.00  0.00     0.075 C 
ATOM     79  C   UNL A   1      32.940  27.382  25.045  1.00  0.00     0.075 C 
ATOM     80  C   UNL A   1      31.996  24.898  26.154  1.00  0.00     0.263 C 
ATOM     81  C   UNL A   1      33.821  26.445  25.857  1.00  0.00     0.263 C 
ATOM     82  N   UNL A   1      33.372  25.068  25.655  1.00  0.00    -0.332 N 
ATOM     83  H   UNL A   1      33.392  24.939  24.643  1.00  0.00     0.348 HD
BRANCH  82  84
ATOM     84  C   UNL A   1      34.278  23.993  26.134  1.00  0.00     0.189 C 
ATOM     85  C   UNL A   1      35.761  24.078  25.752  1.00  0.00     0.093 C 
ATOM     86  C   UNL A   1      33.759  22.578  25.788  1.00  0.00     0.103 C 
ATOM     87  C   UNL A   1      36.061  23.570  24.349  1.00  0.00     0.167 C 
ATOM     88  C   UNL A   1      34.123  22.084  24.378  1.00  0.00     0.099 C 
ATOM     89  O   UNL A   1      35.509  22.291  24.088  1.00  0.00    -0.372 OA
ATOM     90  C   UNL A   1      33.148  22.578  23.310  1.00  0.00     0.066 C 
ATOM     91  C   UNL A   1      33.902  20.569  24.252  1.00  0.00     0.195 C 
ATOM     92  C   UNL A   1      32.125  21.465  23.134  1.00  0.00     0.163 C 
ATOM     93  O   UNL A   1      32.519  20.373  23.964  1.00  0.00    -0.378 OA
ENDBRANCH  82  84
ENDBRANCH  74  77
ENDBRANCH  72  73
ENDBRANCH  71  72
ENDBRANCH   1  71
TORSDOF 11
ENDMDL
