MODEL 1
REMARK VINA RESULT:     -13.6      0.000      0.000
REMARK SMILES C[C@@H](C(=O)NCCCNC(=O)c1ccc(-c2c3nc(c(-c4c(F)c(F)c(F)c(F)c4F)c4ccc([nH]4)c(-c4c(F)c(F)c(F)c(F)c4F)c4nc(c(-c5c(F)c(F)c(F)c(F)c5F)c5ccc2[nH]5)C=C4)C=C3)cc1)c1cc(/C=C/S(C)(=O)=O)cc(C(=O)c2ccccc2)c1
REMARK SMILES IDX 6 1 5 2 3 3 4 4 2 6 1 7 75 8 76 9 94 10 77 11 85 12 84 13
REMARK SMILES IDX 78 14 79 15 80 16 81 17 82 18 83 19 86 20 87 21 88 22 89 23
REMARK SMILES IDX 93 24 90 25 92 26 91 27 7 28 8 29 9 30 10 31 11 33 12 34
REMARK SMILES IDX 13 35 74 36 14 37 73 38 15 39 16 40 17 41 67 42 18 43 72 44
REMARK SMILES IDX 66 45 68 46 19 47 71 48 65 49 64 50 20 52 52 53 32 54 51 55
REMARK SMILES IDX 33 56 36 57 50 58 69 59 34 60 35 61 49 63 70 64 37 65 21 66
REMARK SMILES IDX 22 67 30 68 23 69 24 70 28 71 31 72 25 73 26 74 29 75 27 76
REMARK SMILES IDX 53 77 54 78 62 79 55 80 56 81 60 82 63 83 57 84 58 85 61 86
REMARK SMILES IDX 59 87 38 88 39 89 47 90 40 91 41 92 45 93 48 94 42 95 43 96
REMARK SMILES IDX 46 97 44 98
REMARK H PARENT 5 5 9 32 68 51 36 62
REMARK Flexibility Score: inf
ROOT
ATOM      1  C   UNL A   1      31.802  30.704  26.284  1.00  0.00     0.117 C 
ENDROOT
BRANCH   1   2
ATOM      2  N   UNL A   1      31.661  29.681  27.301  1.00  0.00    -0.356 N 
ATOM      3  C   UNL A   1      32.005  28.361  27.242  1.00  0.00     0.227 C 
ATOM      4  O   UNL A   1      31.355  27.600  27.960  1.00  0.00    -0.274 OA
ATOM      5  H   UNL A   1      31.260  29.978  28.150  1.00  0.00     0.163 HD
BRANCH   3   6
ATOM      6  C   UNL A   1      33.128  27.907  26.291  1.00  0.00     0.105 C 
ATOM      7  C   UNL A   1      34.213  28.999  26.314  1.00  0.00     0.023 C 
BRANCH   6   8
ATOM      8  C   UNL A   1      32.704  27.634  24.841  1.00  0.00    -0.035 A 
ATOM      9  C   UNL A   1      31.692  28.418  24.259  1.00  0.00     0.012 A 
ATOM     10  C   UNL A   1      33.237  26.602  24.065  1.00  0.00     0.016 A 
ATOM     11  C   UNL A   1      31.084  28.084  23.040  1.00  0.00    -0.024 A 
ATOM     12  C   UNL A   1      32.635  26.214  22.862  1.00  0.00     0.023 A 
ATOM     13  C   UNL A   1      31.560  26.959  22.353  1.00  0.00     0.020 A 
BRANCH  11  14
ATOM     14  C   UNL A   1      29.925  28.832  22.509  1.00  0.00     0.020 C 
ATOM     15  C   UNL A   1      29.533  30.039  22.948  1.00  0.00     0.106 C 
BRANCH  15  16
ATOM     16  S   UNL A   1      28.107  30.802  22.317  1.00  0.00     0.168 S 
ATOM     17  C   UNL A   1      28.575  32.516  22.396  1.00  0.00     0.163 C 
ATOM     18  O   UNL A   1      27.993  30.457  20.916  1.00  0.00    -0.225 OA
ATOM     19  O   UNL A   1      26.989  30.620  23.225  1.00  0.00    -0.225 OA
ENDBRANCH  15  16
ENDBRANCH  11  14
BRANCH  12  20
ATOM     20  C   UNL A   1      33.103  25.002  22.123  1.00  0.00     0.193 C 
ATOM     21  O   UNL A   1      33.278  25.051  20.909  1.00  0.00    -0.289 OA
BRANCH  20  22
ATOM     22  C   UNL A   1      33.391  23.731  22.838  1.00  0.00     0.022 A 
ATOM     23  C   UNL A   1      34.703  23.481  23.250  1.00  0.00     0.012 A 
ATOM     24  C   UNL A   1      32.377  22.808  23.129  1.00  0.00     0.012 A 
ATOM     25  C   UNL A   1      34.990  22.339  24.000  1.00  0.00     0.001 A 
ATOM     26  C   UNL A   1      32.669  21.671  23.886  1.00  0.00     0.001 A 
ATOM     27  C   UNL A   1      33.971  21.442  24.328  1.00  0.00     0.000 A 
ENDBRANCH  20  22
ENDBRANCH  12  20
ENDBRANCH   6   8
ENDBRANCH   3   6
ENDBRANCH   1   2
BRANCH   1  28
ATOM     28  C   UNL A   1      31.557  32.094  26.876  1.00  0.00     0.042 C 
BRANCH  28  29
ATOM     29  C   UNL A   1      32.826  32.896  27.143  1.00  0.00     0.118 C 
BRANCH  29  30
ATOM     30  N   UNL A   1      32.543  34.230  27.643  1.00  0.00    -0.352 N 
ATOM     31  C   UNL A   1      33.052  34.885  28.735  1.00  0.00     0.251 C 
ATOM     32  H   UNL A   1      31.886  34.742  27.118  1.00  0.00     0.163 HD
ATOM     33  O   UNL A   1      32.528  35.926  29.118  1.00  0.00    -0.269 OA
BRANCH  31  34
ATOM     34  C   UNL A   1      34.216  34.336  29.465  1.00  0.00     0.039 A 
ATOM     35  C   UNL A   1      33.987  33.600  30.630  1.00  0.00     0.014 A 
ATOM     36  C   UNL A   1      35.524  34.566  29.029  1.00  0.00     0.014 A 
ATOM     37  C   UNL A   1      35.065  33.049  31.325  1.00  0.00     0.010 A 
ATOM     38  C   UNL A   1      36.591  33.948  29.676  1.00  0.00     0.010 A 
ATOM     39  C   UNL A   1      36.375  33.188  30.835  1.00  0.00    -0.014 A 
BRANCH  39  40
ATOM     40  C   UNL A   1      37.522  32.539  31.520  1.00  0.00     0.031 A 
ATOM     41  C   UNL A   1      38.234  31.379  30.883  1.00  0.00     0.074 A 
ATOM     42  C   UNL A   1      37.888  32.963  32.746  1.00  0.00     0.049 A 
ATOM     43  N   UNL A   1      39.216  30.650  31.353  1.00  0.00    -0.248 NA
ATOM     44  C   UNL A   1      37.766  30.965  29.550  1.00  0.00     0.031 C 
ATOM     45  C   UNL A   1      37.248  34.048  33.490  1.00  0.00     0.029 A 
ATOM     46  N   UNL A   1      38.880  32.526  33.588  1.00  0.00    -0.354 N 
ATOM     47  C   UNL A   1      39.473  29.690  30.383  1.00  0.00     0.074 A 
ATOM     48  C   UNL A   1      38.510  29.892  29.323  1.00  0.00     0.031 C 
ATOM     49  C   UNL A   1      37.875  34.207  34.665  1.00  0.00     0.029 A 
ATOM     50  C   UNL A   1      38.932  33.207  34.780  1.00  0.00     0.049 A 
ATOM     51  H   UNL A   1      39.497  31.793  33.359  1.00  0.00     0.167 HD
ATOM     52  C   UNL A   1      40.440  28.741  30.369  1.00  0.00     0.037 A 
ATOM     53  C   UNL A   1      39.732  33.037  35.851  1.00  0.00     0.037 A 
ATOM     54  C   UNL A   1      41.408  28.555  31.419  1.00  0.00     0.049 A 
ATOM     55  C   UNL A   1      40.787  31.966  35.815  1.00  0.00     0.074 A 
ATOM     56  C   UNL A   1      42.462  27.659  31.471  1.00  0.00     0.029 A 
ATOM     57  N   UNL A   1      41.435  29.273  32.606  1.00  0.00    -0.354 N 
ATOM     58  N   UNL A   1      41.066  31.109  34.862  1.00  0.00    -0.248 NA
ATOM     59  C   UNL A   1      41.647  31.843  37.000  1.00  0.00     0.031 C 
ATOM     60  C   UNL A   1      43.088  27.791  32.714  1.00  0.00     0.029 A 
ATOM     61  C   UNL A   1      42.470  28.819  33.409  1.00  0.00     0.049 A 
ATOM     62  H   UNL A   1      40.811  29.997  32.843  1.00  0.00     0.167 HD
ATOM     63  C   UNL A   1      42.147  30.366  35.319  1.00  0.00     0.074 A 
ATOM     64  C   UNL A   1      42.486  30.887  36.627  1.00  0.00     0.031 C 
ATOM     65  C   UNL A   1      42.800  29.347  34.709  1.00  0.00     0.037 A 
BRANCH  52  66
ATOM     66  C   UNL A   1      40.501  27.823  29.181  1.00  0.00     0.064 A 
ATOM     67  C   UNL A   1      39.704  26.671  29.093  1.00  0.00     0.173 A 
ATOM     68  C   UNL A   1      41.329  28.129  28.089  1.00  0.00     0.173 A 
ATOM     69  F   UNL A   1      38.902  26.327  30.113  1.00  0.00    -0.203 F 
ATOM     70  C   UNL A   1      39.754  25.847  27.972  1.00  0.00     0.198 A 
ATOM     71  C   UNL A   1      41.351  27.321  26.955  1.00  0.00     0.198 A 
ATOM     72  F   UNL A   1      42.107  29.221  28.114  1.00  0.00    -0.203 F 
ATOM     73  F   UNL A   1      39.020  24.726  27.934  1.00  0.00    -0.200 F 
ATOM     74  C   UNL A   1      40.569  26.177  26.901  1.00  0.00     0.200 A 
ATOM     75  F   UNL A   1      42.127  27.651  25.913  1.00  0.00    -0.200 F 
ATOM     76  F   UNL A   1      40.606  25.389  25.817  1.00  0.00    -0.200 F 
ENDBRANCH  52  66
BRANCH  53  77
ATOM     77  C   UNL A   1      39.569  33.911  37.043  1.00  0.00     0.064 A 
ATOM     78  C   UNL A   1      40.168  35.177  37.100  1.00  0.00     0.173 A 
ATOM     79  C   UNL A   1      38.815  33.498  38.151  1.00  0.00     0.173 A 
ATOM     80  F   UNL A   1      40.915  35.610  36.073  1.00  0.00    -0.203 F 
ATOM     81  C   UNL A   1      40.040  35.985  38.227  1.00  0.00     0.198 A 
ATOM     82  C   UNL A   1      38.659  34.321  39.265  1.00  0.00     0.198 A 
ATOM     83  F   UNL A   1      38.215  32.299  38.146  1.00  0.00    -0.203 F 
ATOM     84  F   UNL A   1      40.664  37.170  38.273  1.00  0.00    -0.200 F 
ATOM     85  C   UNL A   1      39.280  35.561  39.305  1.00  0.00     0.200 A 
ATOM     86  F   UNL A   1      37.907  33.913  40.296  1.00  0.00    -0.200 F 
ATOM     87  F   UNL A   1      39.150  36.341  40.387  1.00  0.00    -0.200 F 
ENDBRANCH  53  77
BRANCH  65  88
ATOM     88  C   UNL A   1      43.974  28.747  35.431  1.00  0.00     0.064 A 
ATOM     89  C   UNL A   1      43.827  27.672  36.319  1.00  0.00     0.173 A 
ATOM     90  C   UNL A   1      45.271  29.234  35.200  1.00  0.00     0.173 A 
ATOM     91  F   UNL A   1      42.608  27.178  36.586  1.00  0.00    -0.203 F 
ATOM     92  C   UNL A   1      44.930  27.124  36.969  1.00  0.00     0.198 A 
ATOM     93  C   UNL A   1      46.374  28.661  35.824  1.00  0.00     0.198 A 
ATOM     94  F   UNL A   1      45.469  30.256  34.354  1.00  0.00    -0.203 F 
ATOM     95  F   UNL A   1      44.758  26.133  37.855  1.00  0.00    -0.200 F 
ATOM     96  C   UNL A   1      46.203  27.614  36.715  1.00  0.00     0.200 A 
ATOM     97  F   UNL A   1      47.605  29.124  35.563  1.00  0.00    -0.200 F 
ATOM     98  F   UNL A   1      47.263  27.080  37.336  1.00  0.00    -0.200 F 
ENDBRANCH  65  88
ENDBRANCH  39  40
ENDBRANCH  31  34
ENDBRANCH  29  30
ENDBRANCH  28  29
ENDBRANCH   1  28
TORSDOF 15
ENDMDL
MODEL 2
REMARK VINA RESULT:     -13.3      6.021     11.553
REMARK SMILES C[C@@H](C(=O)NCCCNC(=O)c1ccc(-c2c3nc(c(-c4c(F)c(F)c(F)c(F)c4F)c4ccc([nH]4)c(-c4c(F)c(F)c(F)c(F)c4F)c4nc(c(-c5c(F)c(F)c(F)c(F)c5F)c5ccc2[nH]5)C=C4)C=C3)cc1)c1cc(/C=C/S(C)(=O)=O)cc(C(=O)c2ccccc2)c1
REMARK SMILES IDX 6 1 5 2 3 3 4 4 2 6 1 7 75 8 76 9 94 10 77 11 85 12 84 13
REMARK SMILES IDX 78 14 79 15 80 16 81 17 82 18 83 19 86 20 87 21 88 22 89 23
REMARK SMILES IDX 93 24 90 25 92 26 91 27 7 28 8 29 9 30 10 31 11 33 12 34
REMARK SMILES IDX 13 35 74 36 14 37 73 38 15 39 16 40 17 41 67 42 18 43 72 44
REMARK SMILES IDX 66 45 68 46 19 47 71 48 65 49 64 50 20 52 52 53 32 54 51 55
REMARK SMILES IDX 33 56 36 57 50 58 69 59 34 60 35 61 49 63 70 64 37 65 21 66
REMARK SMILES IDX 22 67 30 68 23 69 24 70 28 71 31 72 25 73 26 74 29 75 27 76
REMARK SMILES IDX 53 77 54 78 62 79 55 80 56 81 60 82 63 83 57 84 58 85 61 86
REMARK SMILES IDX 59 87 38 88 39 89 47 90 40 91 41 92 45 93 48 94 42 95 43 96
REMARK SMILES IDX 46 97 44 98
REMARK H PARENT 5 5 9 32 68 51 36 62
REMARK Flexibility Score: inf
ROOT
ATOM      1  C   UNL A   1      37.150  20.815  24.996  1.00  0.00     0.117 C 
ENDROOT
BRANCH   1   2
ATOM      2  N   UNL A   1      37.344  21.751  23.906  1.00  0.00    -0.356 N 
ATOM      3  C   UNL A   1      36.687  22.920  23.654  1.00  0.00     0.227 C 
ATOM      4  O   UNL A   1      36.633  23.267  22.474  1.00  0.00    -0.274 OA
ATOM      5  H   UNL A   1      38.045  21.509  23.258  1.00  0.00     0.163 HD
BRANCH   3   6
ATOM      6  C   UNL A   1      36.043  23.700  24.817  1.00  0.00     0.105 C 
ATOM      7  C   UNL A   1      37.008  23.611  26.013  1.00  0.00     0.023 C 
BRANCH   6   8
ATOM      8  C   UNL A   1      34.647  23.226  25.245  1.00  0.00    -0.035 A 
ATOM      9  C   UNL A   1      34.303  21.871  25.097  1.00  0.00     0.012 A 
ATOM     10  C   UNL A   1      33.661  24.084  25.737  1.00  0.00     0.016 A 
ATOM     11  C   UNL A   1      32.987  21.405  25.236  1.00  0.00    -0.024 A 
ATOM     12  C   UNL A   1      32.329  23.668  25.852  1.00  0.00     0.023 A 
ATOM     13  C   UNL A   1      31.998  22.328  25.601  1.00  0.00     0.020 A 
BRANCH  11  14
ATOM     14  C   UNL A   1      32.613  20.007  24.937  1.00  0.00     0.020 C 
ATOM     15  C   UNL A   1      33.484  19.039  24.608  1.00  0.00     0.106 C 
BRANCH  15  16
ATOM     16  S   UNL A   1      32.938  17.445  24.192  1.00  0.00     0.168 S 
ATOM     17  C   UNL A   1      34.281  16.455  24.808  1.00  0.00     0.163 C 
ATOM     18  O   UNL A   1      31.779  17.140  25.004  1.00  0.00    -0.225 OA
ATOM     19  O   UNL A   1      32.907  17.278  22.751  1.00  0.00    -0.225 OA
ENDBRANCH  15  16
ENDBRANCH  11  14
BRANCH  12  20
ATOM     20  C   UNL A   1      31.248  24.636  26.213  1.00  0.00     0.193 C 
ATOM     21  O   UNL A   1      30.370  24.310  27.005  1.00  0.00    -0.289 OA
BRANCH  20  22
ATOM     22  C   UNL A   1      31.230  26.011  25.648  1.00  0.00     0.022 A 
ATOM     23  C   UNL A   1      30.650  26.208  24.392  1.00  0.00     0.012 A 
ATOM     24  C   UNL A   1      31.748  27.102  26.359  1.00  0.00     0.012 A 
ATOM     25  C   UNL A   1      30.537  27.499  23.873  1.00  0.00     0.001 A 
ATOM     26  C   UNL A   1      31.627  28.392  25.838  1.00  0.00     0.001 A 
ATOM     27  C   UNL A   1      31.015  28.590  24.601  1.00  0.00     0.000 A 
ENDBRANCH  20  22
ENDBRANCH  12  20
ENDBRANCH   6   8
ENDBRANCH   3   6
ENDBRANCH   1   2
BRANCH   1  28
ATOM     28  C   UNL A   1      38.276  19.778  25.027  1.00  0.00     0.042 C 
BRANCH  28  29
ATOM     29  C   UNL A   1      39.307  20.004  26.128  1.00  0.00     0.118 C 
BRANCH  29  30
ATOM     30  N   UNL A   1      40.404  19.054  26.062  1.00  0.00    -0.352 N 
ATOM     31  C   UNL A   1      41.757  19.275  26.041  1.00  0.00     0.251 C 
ATOM     32  H   UNL A   1      40.135  18.107  26.027  1.00  0.00     0.163 HD
ATOM     33  O   UNL A   1      42.519  18.354  25.764  1.00  0.00    -0.269 OA
BRANCH  31  34
ATOM     34  C   UNL A   1      42.303  20.619  26.332  1.00  0.00     0.039 A 
ATOM     35  C   UNL A   1      42.615  21.460  25.261  1.00  0.00     0.014 A 
ATOM     36  C   UNL A   1      42.538  21.041  27.644  1.00  0.00     0.014 A 
ATOM     37  C   UNL A   1      43.107  22.743  25.507  1.00  0.00     0.010 A 
ATOM     38  C   UNL A   1      42.951  22.348  27.889  1.00  0.00     0.010 A 
ATOM     39  C   UNL A   1      43.247  23.212  26.824  1.00  0.00    -0.014 A 
BRANCH  39  40
ATOM     40  C   UNL A   1      43.694  24.601  27.098  1.00  0.00     0.031 A 
ATOM     41  C   UNL A   1      42.720  25.630  27.601  1.00  0.00     0.074 A 
ATOM     42  C   UNL A   1      44.970  24.951  26.842  1.00  0.00     0.049 A 
ATOM     43  N   UNL A   1      42.911  26.904  27.841  1.00  0.00    -0.248 NA
ATOM     44  C   UNL A   1      41.342  25.176  27.842  1.00  0.00     0.031 C 
ATOM     45  C   UNL A   1      45.999  24.056  26.309  1.00  0.00     0.029 A 
ATOM     46  N   UNL A   1      45.618  26.153  26.983  1.00  0.00    -0.354 N 
ATOM     47  C   UNL A   1      41.680  27.402  28.250  1.00  0.00     0.074 A 
ATOM     48  C   UNL A   1      40.736  26.308  28.172  1.00  0.00     0.031 C 
ATOM     49  C   UNL A   1      47.152  24.733  26.190  1.00  0.00     0.029 A 
ATOM     50  C   UNL A   1      46.935  26.119  26.593  1.00  0.00     0.049 A 
ATOM     51  H   UNL A   1      45.180  26.963  27.331  1.00  0.00     0.167 HD
ATOM     52  C   UNL A   1      41.372  28.651  28.672  1.00  0.00     0.037 A 
ATOM     53  C   UNL A   1      47.860  27.097  26.551  1.00  0.00     0.037 A 
ATOM     54  C   UNL A   1      42.320  29.732  28.765  1.00  0.00     0.049 A 
ATOM     55  C   UNL A   1      47.487  28.479  27.013  1.00  0.00     0.074 A 
ATOM     56  C   UNL A   1      42.117  31.017  29.236  1.00  0.00     0.029 A 
ATOM     57  N   UNL A   1      43.648  29.655  28.371  1.00  0.00    -0.354 N 
ATOM     58  N   UNL A   1      46.337  28.921  27.462  1.00  0.00    -0.248 NA
ATOM     59  C   UNL A   1      48.544  29.500  26.970  1.00  0.00     0.031 C 
ATOM     60  C   UNL A   1      43.305  31.737  29.069  1.00  0.00     0.029 A 
ATOM     61  C   UNL A   1      44.268  30.880  28.561  1.00  0.00     0.049 A 
ATOM     62  H   UNL A   1      44.085  28.850  28.010  1.00  0.00     0.167 HD
ATOM     63  C   UNL A   1      46.538  30.257  27.782  1.00  0.00     0.074 A 
ATOM     64  C   UNL A   1      47.926  30.550  27.491  1.00  0.00     0.031 C 
ATOM     65  C   UNL A   1      45.653  31.159  28.271  1.00  0.00     0.037 A 
BRANCH  52  66
ATOM     66  C   UNL A   1      39.948  28.924  29.067  1.00  0.00     0.064 A 
ATOM     67  C   UNL A   1      38.983  29.318  28.127  1.00  0.00     0.173 A 
ATOM     68  C   UNL A   1      39.529  28.736  30.393  1.00  0.00     0.173 A 
ATOM     69  F   UNL A   1      39.331  29.523  26.847  1.00  0.00    -0.203 F 
ATOM     70  C   UNL A   1      37.661  29.541  28.505  1.00  0.00     0.198 A 
ATOM     71  C   UNL A   1      38.200  28.926  30.761  1.00  0.00     0.198 A 
ATOM     72  F   UNL A   1      40.408  28.353  31.332  1.00  0.00    -0.203 F 
ATOM     73  F   UNL A   1      36.769  29.964  27.599  1.00  0.00    -0.200 F 
ATOM     74  C   UNL A   1      37.269  29.336  29.819  1.00  0.00     0.200 A 
ATOM     75  F   UNL A   1      37.819  28.711  32.028  1.00  0.00    -0.200 F 
ATOM     76  F   UNL A   1      35.994  29.537  30.179  1.00  0.00    -0.200 F 
ENDBRANCH  52  66
BRANCH  53  77
ATOM     77  C   UNL A   1      49.233  26.798  26.063  1.00  0.00     0.064 A 
ATOM     78  C   UNL A   1      50.222  26.318  26.933  1.00  0.00     0.173 A 
ATOM     79  C   UNL A   1      49.585  26.988  24.719  1.00  0.00     0.173 A 
ATOM     80  F   UNL A   1      49.940  26.137  28.232  1.00  0.00    -0.203 F 
ATOM     81  C   UNL A   1      51.516  26.064  26.483  1.00  0.00     0.198 A 
ATOM     82  C   UNL A   1      50.870  26.702  24.263  1.00  0.00     0.198 A 
ATOM     83  F   UNL A   1      48.675  27.439  23.843  1.00  0.00    -0.203 F 
ATOM     84  F   UNL A   1      52.454  25.653  27.347  1.00  0.00    -0.200 F 
ATOM     85  C   UNL A   1      51.837  26.248  25.147  1.00  0.00     0.200 A 
ATOM     86  F   UNL A   1      51.169  26.863  22.967  1.00  0.00    -0.200 F 
ATOM     87  F   UNL A   1      53.079  25.997  24.713  1.00  0.00    -0.200 F 
ENDBRANCH  53  77
BRANCH  65  88
ATOM     88  C   UNL A   1      46.164  32.542  28.562  1.00  0.00     0.064 A 
ATOM     89  C   UNL A   1      46.107  33.569  27.609  1.00  0.00     0.173 A 
ATOM     90  C   UNL A   1      46.684  32.852  29.829  1.00  0.00     0.173 A 
ATOM     91  F   UNL A   1      45.632  33.323  26.378  1.00  0.00    -0.203 F 
ATOM     92  C   UNL A   1      46.577  34.847  27.904  1.00  0.00     0.198 A 
ATOM     93  C   UNL A   1      47.119  34.139  30.132  1.00  0.00     0.198 A 
ATOM     94  F   UNL A   1      46.754  31.909  30.781  1.00  0.00    -0.203 F 
ATOM     95  F   UNL A   1      46.562  35.797  26.959  1.00  0.00    -0.200 F 
ATOM     96  C   UNL A   1      47.075  35.133  29.167  1.00  0.00     0.200 A 
ATOM     97  F   UNL A   1      47.583  34.417  31.358  1.00  0.00    -0.200 F 
ATOM     98  F   UNL A   1      47.518  36.364  29.450  1.00  0.00    -0.200 F 
ENDBRANCH  65  88
ENDBRANCH  39  40
ENDBRANCH  31  34
ENDBRANCH  29  30
ENDBRANCH  28  29
ENDBRANCH   1  28
TORSDOF 15
ENDMDL
MODEL 3
REMARK VINA RESULT:     -13.2      5.916     11.110
REMARK SMILES C[C@@H](C(=O)NCCCNC(=O)c1ccc(-c2c3nc(c(-c4c(F)c(F)c(F)c(F)c4F)c4ccc([nH]4)c(-c4c(F)c(F)c(F)c(F)c4F)c4nc(c(-c5c(F)c(F)c(F)c(F)c5F)c5ccc2[nH]5)C=C4)C=C3)cc1)c1cc(/C=C/S(C)(=O)=O)cc(C(=O)c2ccccc2)c1
REMARK SMILES IDX 6 1 5 2 3 3 4 4 2 6 1 7 75 8 76 9 94 10 77 11 85 12 84 13
REMARK SMILES IDX 78 14 79 15 80 16 81 17 82 18 83 19 86 20 87 21 88 22 89 23
REMARK SMILES IDX 93 24 90 25 92 26 91 27 7 28 8 29 9 30 10 31 11 33 12 34
REMARK SMILES IDX 13 35 74 36 14 37 73 38 15 39 16 40 17 41 67 42 18 43 72 44
REMARK SMILES IDX 66 45 68 46 19 47 71 48 65 49 64 50 20 52 52 53 32 54 51 55
REMARK SMILES IDX 33 56 36 57 50 58 69 59 34 60 35 61 49 63 70 64 37 65 21 66
REMARK SMILES IDX 22 67 30 68 23 69 24 70 28 71 31 72 25 73 26 74 29 75 27 76
REMARK SMILES IDX 53 77 54 78 62 79 55 80 56 81 60 82 63 83 57 84 58 85 61 86
REMARK SMILES IDX 59 87 38 88 39 89 47 90 40 91 41 92 45 93 48 94 42 95 43 96
REMARK SMILES IDX 46 97 44 98
REMARK H PARENT 5 5 9 32 68 51 36 62
REMARK Flexibility Score: inf
ROOT
ATOM      1  C   UNL A   1      37.218  20.839  24.996  1.00  0.00     0.117 C 
ENDROOT
BRANCH   1   2
ATOM      2  N   UNL A   1      37.413  21.812  23.939  1.00  0.00    -0.356 N 
ATOM      3  C   UNL A   1      36.732  22.972  23.708  1.00  0.00     0.227 C 
ATOM      4  O   UNL A   1      36.695  23.354  22.538  1.00  0.00    -0.274 OA
ATOM      5  H   UNL A   1      38.134  21.608  23.301  1.00  0.00     0.163 HD
BRANCH   3   6
ATOM      6  C   UNL A   1      36.044  23.700  24.879  1.00  0.00     0.105 C 
ATOM      7  C   UNL A   1      36.985  23.600  26.093  1.00  0.00     0.023 C 
BRANCH   6   8
ATOM      8  C   UNL A   1      34.652  23.178  25.262  1.00  0.00    -0.035 A 
ATOM      9  C   UNL A   1      34.322  21.837  25.001  1.00  0.00     0.012 A 
ATOM     10  C   UNL A   1      33.657  23.982  25.822  1.00  0.00     0.016 A 
ATOM     11  C   UNL A   1      33.010  21.349  25.096  1.00  0.00    -0.024 A 
ATOM     12  C   UNL A   1      32.329  23.545  25.899  1.00  0.00     0.023 A 
ATOM     13  C   UNL A   1      32.011  22.228  25.536  1.00  0.00     0.020 A 
BRANCH  11  14
ATOM     14  C   UNL A   1      32.651  19.977  24.680  1.00  0.00     0.020 C 
ATOM     15  C   UNL A   1      33.497  18.934  24.682  1.00  0.00     0.106 C 
BRANCH  15  16
ATOM     16  S   UNL A   1      33.003  17.377  24.095  1.00  0.00     0.168 S 
ATOM     17  C   UNL A   1      34.513  16.454  24.267  1.00  0.00     0.163 C 
ATOM     18  O   UNL A   1      32.055  16.820  25.037  1.00  0.00    -0.225 OA
ATOM     19  O   UNL A   1      32.698  17.441  22.677  1.00  0.00    -0.225 OA
ENDBRANCH  15  16
ENDBRANCH  11  14
BRANCH  12  20
ATOM     20  C   UNL A   1      31.238  24.469  26.336  1.00  0.00     0.193 C 
ATOM     21  O   UNL A   1      30.403  24.091  27.152  1.00  0.00    -0.289 OA
BRANCH  20  22
ATOM     22  C   UNL A   1      31.158  25.860  25.821  1.00  0.00     0.022 A 
ATOM     23  C   UNL A   1      31.697  26.891  26.597  1.00  0.00     0.012 A 
ATOM     24  C   UNL A   1      30.588  26.148  24.574  1.00  0.00     0.012 A 
ATOM     25  C   UNL A   1      31.718  28.196  26.102  1.00  0.00     0.001 A 
ATOM     26  C   UNL A   1      30.617  27.455  24.081  1.00  0.00     0.001 A 
ATOM     27  C   UNL A   1      31.189  28.475  24.841  1.00  0.00     0.000 A 
ENDBRANCH  20  22
ENDBRANCH  12  20
ENDBRANCH   6   8
ENDBRANCH   3   6
ENDBRANCH   1   2
BRANCH   1  28
ATOM     28  C   UNL A   1      38.354  19.813  25.003  1.00  0.00     0.042 C 
BRANCH  28  29
ATOM     29  C   UNL A   1      39.375  20.015  26.119  1.00  0.00     0.118 C 
BRANCH  29  30
ATOM     30  N   UNL A   1      40.495  19.095  26.018  1.00  0.00    -0.352 N 
ATOM     31  C   UNL A   1      41.842  19.345  26.053  1.00  0.00     0.251 C 
ATOM     32  H   UNL A   1      40.248  18.148  25.907  1.00  0.00     0.163 HD
ATOM     33  O   UNL A   1      42.632  18.462  25.733  1.00  0.00    -0.269 OA
BRANCH  31  34
ATOM     34  C   UNL A   1      42.349  20.675  26.456  1.00  0.00     0.039 A 
ATOM     35  C   UNL A   1      42.775  21.558  25.460  1.00  0.00     0.014 A 
ATOM     36  C   UNL A   1      42.436  21.045  27.801  1.00  0.00     0.014 A 
ATOM     37  C   UNL A   1      43.233  22.829  25.809  1.00  0.00     0.010 A 
ATOM     38  C   UNL A   1      42.816  22.341  28.142  1.00  0.00     0.010 A 
ATOM     39  C   UNL A   1      43.225  23.245  27.152  1.00  0.00    -0.014 A 
BRANCH  39  40
ATOM     40  C   UNL A   1      43.636  24.622  27.528  1.00  0.00     0.031 A 
ATOM     41  C   UNL A   1      42.604  25.645  27.918  1.00  0.00     0.074 A 
ATOM     42  C   UNL A   1      44.937  24.967  27.467  1.00  0.00     0.049 A 
ATOM     43  N   UNL A   1      42.766  26.909  28.222  1.00  0.00    -0.248 NA
ATOM     44  C   UNL A   1      41.204  25.196  27.947  1.00  0.00     0.031 C 
ATOM     45  C   UNL A   1      46.027  24.079  27.060  1.00  0.00     0.029 A 
ATOM     46  N   UNL A   1      45.563  26.159  27.736  1.00  0.00    -0.354 N 
ATOM     47  C   UNL A   1      41.491  27.406  28.465  1.00  0.00     0.074 A 
ATOM     48  C   UNL A   1      40.563  26.324  28.220  1.00  0.00     0.031 C 
ATOM     49  C   UNL A   1      47.188  24.749  27.127  1.00  0.00     0.029 A 
ATOM     50  C   UNL A   1      46.923  26.124  27.536  1.00  0.00     0.049 A 
ATOM     51  H   UNL A   1      45.084  26.963  28.042  1.00  0.00     0.167 HD
ATOM     52  C   UNL A   1      41.132  28.645  28.876  1.00  0.00     0.037 A 
ATOM     53  C   UNL A   1      47.849  27.094  27.656  1.00  0.00     0.037 A 
ATOM     54  C   UNL A   1      42.063  29.714  29.136  1.00  0.00     0.049 A 
ATOM     55  C   UNL A   1      47.421  28.466  28.101  1.00  0.00     0.074 A 
ATOM     56  C   UNL A   1      41.801  30.987  29.611  1.00  0.00     0.029 A 
ATOM     57  N   UNL A   1      43.433  29.637  28.933  1.00  0.00    -0.354 N 
ATOM     58  N   UNL A   1      46.220  28.905  28.395  1.00  0.00    -0.248 NA
ATOM     59  C   UNL A   1      48.478  29.478  28.240  1.00  0.00     0.031 C 
ATOM     60  C   UNL A   1      43.003  31.700  29.637  1.00  0.00     0.029 A 
ATOM     61  C   UNL A   1      44.026  30.850  29.246  1.00  0.00     0.049 A 
ATOM     62  H   UNL A   1      43.913  28.838  28.614  1.00  0.00     0.167 HD
ATOM     63  C   UNL A   1      46.380  30.230  28.780  1.00  0.00     0.074 A 
ATOM     64  C   UNL A   1      47.797  30.518  28.699  1.00  0.00     0.031 C 
ATOM     65  C   UNL A   1      45.438  31.125  29.166  1.00  0.00     0.037 A 
BRANCH  52  66
ATOM     66  C   UNL A   1      39.668  28.919  29.072  1.00  0.00     0.064 A 
ATOM     67  C   UNL A   1      39.044  28.752  30.318  1.00  0.00     0.173 A 
ATOM     68  C   UNL A   1      38.889  29.409  28.012  1.00  0.00     0.173 A 
ATOM     69  F   UNL A   1      39.740  28.278  31.363  1.00  0.00    -0.203 F 
ATOM     70  C   UNL A   1      37.692  29.037  30.488  1.00  0.00     0.198 A 
ATOM     71  C   UNL A   1      37.545  29.725  28.194  1.00  0.00     0.198 A 
ATOM     72  F   UNL A   1      39.434  29.594  26.801  1.00  0.00    -0.203 F 
ATOM     73  F   UNL A   1      37.108  28.823  31.676  1.00  0.00    -0.200 F 
ATOM     74  C   UNL A   1      36.946  29.532  29.430  1.00  0.00     0.200 A 
ATOM     75  F   UNL A   1      36.829  30.219  27.174  1.00  0.00    -0.200 F 
ATOM     76  F   UNL A   1      35.647  29.818  29.599  1.00  0.00    -0.200 F 
ENDBRANCH  52  66
BRANCH  53  77
ATOM     77  C   UNL A   1      49.276  26.797  27.360  1.00  0.00     0.064 A 
ATOM     78  C   UNL A   1      49.785  26.912  26.059  1.00  0.00     0.173 A 
ATOM     79  C   UNL A   1      50.159  26.388  28.370  1.00  0.00     0.173 A 
ATOM     80  F   UNL A   1      48.975  27.281  25.055  1.00  0.00    -0.203 F 
ATOM     81  C   UNL A   1      51.114  26.607  25.776  1.00  0.00     0.198 A 
ATOM     82  C   UNL A   1      51.497  26.116  28.092  1.00  0.00     0.198 A 
ATOM     83  F   UNL A   1      49.725  26.269  29.634  1.00  0.00    -0.203 F 
ATOM     84  F   UNL A   1      51.560  26.678  24.514  1.00  0.00    -0.200 F 
ATOM     85  C   UNL A   1      51.971  26.216  26.793  1.00  0.00     0.200 A 
ATOM     86  F   UNL A   1      52.325  25.758  29.083  1.00  0.00    -0.200 F 
ATOM     87  F   UNL A   1      53.251  25.930  26.522  1.00  0.00    -0.200 F 
ENDBRANCH  53  77
BRANCH  65  88
ATOM     88  C   UNL A   1      45.909  32.494  29.568  1.00  0.00     0.064 A 
ATOM     89  C   UNL A   1      46.297  32.788  30.883  1.00  0.00     0.173 A 
ATOM     90  C   UNL A   1      46.009  33.518  28.612  1.00  0.00     0.173 A 
ATOM     91  F   UNL A   1      46.208  31.849  31.839  1.00  0.00    -0.203 F 
ATOM     92  C   UNL A   1      46.741  34.061  31.232  1.00  0.00     0.198 A 
ATOM     93  C   UNL A   1      46.486  34.778  28.957  1.00  0.00     0.198 A 
ATOM     94  F   UNL A   1      45.658  33.289  27.337  1.00  0.00    -0.203 F 
ATOM     95  F   UNL A   1      47.055  34.332  32.507  1.00  0.00    -0.200 F 
ATOM     96  C   UNL A   1      46.843  35.052  30.268  1.00  0.00     0.200 A 
ATOM     97  F   UNL A   1      46.601  35.729  28.019  1.00  0.00    -0.200 F 
ATOM     98  F   UNL A   1      47.278  36.274  30.604  1.00  0.00    -0.200 F 
ENDBRANCH  65  88
ENDBRANCH  39  40
ENDBRANCH  31  34
ENDBRANCH  29  30
ENDBRANCH  28  29
ENDBRANCH   1  28
TORSDOF 15
ENDMDL
