MODEL 1
REMARK VINA RESULT:     -12.4      0.000      0.000
REMARK SMILES CC[C@](C)(NC(=O)N1Cc2ccccc2C1)C(=O)NCCCNC(=O)c1ccc(-c2c3nc(c(-c4c(F)c(F)c(F)c(F)c4F)c4ccc([nH]4)c(-c4c(F)c(F)c(F)c(F)c4F)c4nc(c(-c5c(F)c(F)c(F)c(F)c5F)c5ccc2[nH]5)C=C4)C=C3)cc1
REMARK SMILES IDX 21 1 20 2 19 3 17 4 18 5 3 7 4 8 2 9 1 10 5 11 6 12 7 14
REMARK SMILES IDX 8 15 9 16 16 17 10 18 15 19 11 20 14 21 12 22 13 23 22 24
REMARK SMILES IDX 23 25 24 26 25 28 26 29 27 30 88 31 28 32 87 33 29 34 30 35
REMARK SMILES IDX 31 36 81 37 32 38 86 39 80 40 82 41 33 42 85 43 79 44 78 45
REMARK SMILES IDX 34 47 66 48 46 49 65 50 47 51 50 52 64 53 83 54 48 55 49 56
REMARK SMILES IDX 63 58 84 59 51 60 35 61 36 62 44 63 37 64 38 65 42 66 45 67
REMARK SMILES IDX 39 68 40 69 43 70 41 71 67 72 68 73 76 74 69 75 70 76 74 77
REMARK SMILES IDX 77 78 71 79 72 80 75 81 73 82 52 83 53 84 61 85 54 86 55 87
REMARK SMILES IDX 59 88 62 89 56 90 57 91 60 92 58 93
REMARK H PARENT 19 6 5 13 23 27 82 46 50 57
REMARK Flexibility Score: inf
ROOT
ATOM      1  C   UNL A   1      37.834  19.923  24.960  1.00  0.00     0.042 C 
ENDROOT
BRANCH   1   2
ATOM      2  C   UNL A   1      36.900  21.087  24.629  1.00  0.00     0.117 C 
BRANCH   2   3
ATOM      3  N   UNL A   1      36.064  21.624  25.692  1.00  0.00    -0.354 N 
ATOM      4  C   UNL A   1      34.711  21.767  25.859  1.00  0.00     0.245 C 
ATOM      5  O   UNL A   1      34.345  22.064  27.003  1.00  0.00    -0.272 OA
ATOM      6  H   UNL A   1      36.583  21.958  26.459  1.00  0.00     0.163 HD
BRANCH   4   7
ATOM      7  C   UNL A   1      33.669  21.503  24.733  1.00  0.00     0.117 C 
ATOM      8  C   UNL A   1      32.243  21.950  25.127  1.00  0.00     0.045 C 
BRANCH   7   9
ATOM      9  C   UNL A   1      33.650  19.953  24.511  1.00  0.00     0.035 C 
ATOM     10  C   UNL A   1      32.875  19.152  25.558  1.00  0.00     0.007 C 
ENDBRANCH   7   9
BRANCH   7  11
ATOM     11  N   UNL A   1      34.018  22.172  23.455  1.00  0.00    -0.324 N 
ATOM     12  C   UNL A   1      33.726  23.367  22.894  1.00  0.00     0.318 C 
ATOM     13  H   UNL A   1      34.594  21.615  22.882  1.00  0.00     0.166 HD
ATOM     14  O   UNL A   1      33.791  23.394  21.660  1.00  0.00    -0.249 OA
ATOM     15  N   UNL A   1      33.436  24.485  23.603  1.00  0.00    -0.316 N 
ATOM     16  C   UNL A   1      33.167  25.741  22.878  1.00  0.00     0.157 C 
ATOM     17  C   UNL A   1      33.540  24.742  25.034  1.00  0.00     0.157 C 
ATOM     18  C   UNL A   1      33.362  26.810  23.910  1.00  0.00    -0.023 A 
ATOM     19  C   UNL A   1      33.587  26.224  25.155  1.00  0.00    -0.023 A 
ATOM     20  C   UNL A   1      33.383  28.186  23.774  1.00  0.00     0.006 A 
ATOM     21  C   UNL A   1      33.877  26.976  26.281  1.00  0.00     0.006 A 
ATOM     22  C   UNL A   1      33.668  28.962  24.904  1.00  0.00     0.000 A 
ATOM     23  C   UNL A   1      33.924  28.360  26.147  1.00  0.00     0.000 A 
ENDBRANCH   7  11
ENDBRANCH   4   7
ENDBRANCH   2   3
ENDBRANCH   1   2
BRANCH   1  24
ATOM     24  C   UNL A   1      39.009  20.180  25.896  1.00  0.00     0.118 C 
BRANCH  24  25
ATOM     25  N   UNL A   1      40.082  19.209  25.790  1.00  0.00    -0.352 N 
ATOM     26  C   UNL A   1      41.426  19.338  26.051  1.00  0.00     0.251 C 
ATOM     27  H   UNL A   1      39.803  18.315  25.483  1.00  0.00     0.163 HD
ATOM     28  O   UNL A   1      42.173  18.387  25.856  1.00  0.00    -0.269 OA
BRANCH  26  29
ATOM     29  C   UNL A   1      41.995  20.624  26.519  1.00  0.00     0.039 A 
ATOM     30  C   UNL A   1      42.429  21.538  25.554  1.00  0.00     0.014 A 
ATOM     31  C   UNL A   1      42.132  20.929  27.876  1.00  0.00     0.014 A 
ATOM     32  C   UNL A   1      42.929  22.785  25.942  1.00  0.00     0.010 A 
ATOM     33  C   UNL A   1      42.586  22.194  28.263  1.00  0.00     0.010 A 
ATOM     34  C   UNL A   1      42.976  23.139  27.300  1.00  0.00    -0.014 A 
BRANCH  34  35
ATOM     35  C   UNL A   1      43.403  24.499  27.720  1.00  0.00     0.031 A 
ATOM     36  C   UNL A   1      42.385  25.555  28.047  1.00  0.00     0.074 A 
ATOM     37  C   UNL A   1      44.715  24.805  27.754  1.00  0.00     0.049 A 
ATOM     38  N   UNL A   1      42.567  26.817  28.349  1.00  0.00    -0.248 NA
ATOM     39  C   UNL A   1      40.975  25.141  28.017  1.00  0.00     0.031 C 
ATOM     40  C   UNL A   1      45.804  23.880  27.443  1.00  0.00     0.029 A 
ATOM     41  N   UNL A   1      45.355  25.984  28.051  1.00  0.00    -0.354 N 
ATOM     42  C   UNL A   1      41.298  27.350  28.533  1.00  0.00     0.074 A 
ATOM     43  C   UNL A   1      40.353  26.283  28.274  1.00  0.00     0.031 C 
ATOM     44  C   UNL A   1      46.977  24.523  27.568  1.00  0.00     0.029 A 
ATOM     45  C   UNL A   1      46.722  25.915  27.930  1.00  0.00     0.049 A 
ATOM     46  H   UNL A   1      44.880  26.802  28.324  1.00  0.00     0.167 HD
ATOM     47  C   UNL A   1      40.954  28.609  28.897  1.00  0.00     0.037 A 
ATOM     48  C   UNL A   1      47.664  26.866  28.075  1.00  0.00     0.037 A 
ATOM     49  C   UNL A   1      41.895  29.666  29.170  1.00  0.00     0.049 A 
ATOM     50  C   UNL A   1      47.253  28.266  28.445  1.00  0.00     0.074 A 
ATOM     51  C   UNL A   1      41.638  30.960  29.592  1.00  0.00     0.029 A 
ATOM     52  N   UNL A   1      43.270  29.553  29.043  1.00  0.00    -0.354 N 
ATOM     53  N   UNL A   1      46.053  28.744  28.670  1.00  0.00    -0.248 NA
ATOM     54  C   UNL A   1      48.328  29.260  28.586  1.00  0.00     0.031 C 
ATOM     55  C   UNL A   1      42.855  31.643  29.676  1.00  0.00     0.029 A 
ATOM     56  C   UNL A   1      43.874  30.761  29.356  1.00  0.00     0.049 A 
ATOM     57  H   UNL A   1      43.749  28.736  28.771  1.00  0.00     0.167 HD
ATOM     58  C   UNL A   1      46.230  30.078  29.009  1.00  0.00     0.074 A 
ATOM     59  C   UNL A   1      47.654  30.337  28.966  1.00  0.00     0.031 C 
ATOM     60  C   UNL A   1      45.294  31.003  29.330  1.00  0.00     0.037 A 
BRANCH  47  61
ATOM     61  C   UNL A   1      39.492  28.923  29.018  1.00  0.00     0.064 A 
ATOM     62  C   UNL A   1      38.825  28.855  30.250  1.00  0.00     0.173 A 
ATOM     63  C   UNL A   1      38.760  29.346  27.897  1.00  0.00     0.173 A 
ATOM     64  F   UNL A   1      39.478  28.450  31.349  1.00  0.00    -0.203 F 
ATOM     65  C   UNL A   1      37.473  29.175  30.351  1.00  0.00     0.198 A 
ATOM     66  C   UNL A   1      37.417  29.692  28.007  1.00  0.00     0.198 A 
ATOM     67  F   UNL A   1      39.353  29.437  26.697  1.00  0.00    -0.203 F 
ATOM     68  F   UNL A   1      36.846  29.064  31.530  1.00  0.00    -0.200 F 
ATOM     69  C   UNL A   1      36.772  29.600  29.232  1.00  0.00     0.200 A 
ATOM     70  F   UNL A   1      36.744  30.115  26.928  1.00  0.00    -0.200 F 
ATOM     71  F   UNL A   1      35.474  29.915  29.332  1.00  0.00    -0.200 F 
ENDBRANCH  47  61
BRANCH  48  72
ATOM     72  C   UNL A   1      49.097  26.528  27.875  1.00  0.00     0.064 A 
ATOM     73  C   UNL A   1      49.947  26.322  28.969  1.00  0.00     0.173 A 
ATOM     74  C   UNL A   1      49.645  26.408  26.589  1.00  0.00     0.173 A 
ATOM     75  F   UNL A   1      49.474  26.450  30.218  1.00  0.00    -0.203 F 
ATOM     76  C   UNL A   1      51.296  26.028  28.787  1.00  0.00     0.198 A 
ATOM     77  C   UNL A   1      50.988  26.086  26.408  1.00  0.00     0.198 A 
ATOM     78  F   UNL A   1      48.873  26.593  25.509  1.00  0.00    -0.203 F 
ATOM     79  F   UNL A   1      52.098  25.881  29.852  1.00  0.00    -0.200 F 
ATOM     80  C   UNL A   1      51.815  25.904  27.507  1.00  0.00     0.200 A 
ATOM     81  F   UNL A   1      51.483  25.955  25.169  1.00  0.00    -0.200 F 
ATOM     82  F   UNL A   1      53.112  25.616  27.332  1.00  0.00    -0.200 F 
ENDBRANCH  48  72
BRANCH  60  83
ATOM     83  C   UNL A   1      45.773  32.374  29.710  1.00  0.00     0.064 A 
ATOM     84  C   UNL A   1      45.889  33.403  28.766  1.00  0.00     0.173 A 
ATOM     85  C   UNL A   1      46.059  32.675  31.051  1.00  0.00     0.173 A 
ATOM     86  F   UNL A   1      45.640  33.162  27.470  1.00  0.00    -0.203 F 
ATOM     87  C   UNL A   1      46.287  34.683  29.148  1.00  0.00     0.198 A 
ATOM     88  C   UNL A   1      46.433  33.961  31.433  1.00  0.00     0.198 A 
ATOM     89  F   UNL A   1      45.960  31.726  31.993  1.00  0.00    -0.203 F 
ATOM     90  F   UNL A   1      46.423  35.645  28.224  1.00  0.00    -0.200 F 
ATOM     91  C   UNL A   1      46.549  34.963  30.482  1.00  0.00     0.200 A 
ATOM     92  F   UNL A   1      46.672  34.232  32.723  1.00  0.00    -0.200 F 
ATOM     93  F   UNL A   1      46.919  36.197  30.849  1.00  0.00    -0.200 F 
ENDBRANCH  60  83
ENDBRANCH  34  35
ENDBRANCH  26  29
ENDBRANCH  24  25
ENDBRANCH   1  24
TORSDOF 12
ENDMDL
MODEL 2
REMARK VINA RESULT:     -12.4      0.315      1.632
REMARK SMILES CC[C@](C)(NC(=O)N1Cc2ccccc2C1)C(=O)NCCCNC(=O)c1ccc(-c2c3nc(c(-c4c(F)c(F)c(F)c(F)c4F)c4ccc([nH]4)c(-c4c(F)c(F)c(F)c(F)c4F)c4nc(c(-c5c(F)c(F)c(F)c(F)c5F)c5ccc2[nH]5)C=C4)C=C3)cc1
REMARK SMILES IDX 21 1 20 2 19 3 17 4 18 5 3 7 4 8 2 9 1 10 5 11 6 12 7 14
REMARK SMILES IDX 8 15 9 16 16 17 10 18 15 19 11 20 14 21 12 22 13 23 22 24
REMARK SMILES IDX 23 25 24 26 25 28 26 29 27 30 88 31 28 32 87 33 29 34 30 35
REMARK SMILES IDX 31 36 81 37 32 38 86 39 80 40 82 41 33 42 85 43 79 44 78 45
REMARK SMILES IDX 34 47 66 48 46 49 65 50 47 51 50 52 64 53 83 54 48 55 49 56
REMARK SMILES IDX 63 58 84 59 51 60 35 61 36 62 44 63 37 64 38 65 42 66 45 67
REMARK SMILES IDX 39 68 40 69 43 70 41 71 67 72 68 73 76 74 69 75 70 76 74 77
REMARK SMILES IDX 77 78 71 79 72 80 75 81 73 82 52 83 53 84 61 85 54 86 55 87
REMARK SMILES IDX 59 88 62 89 56 90 57 91 60 92 58 93
REMARK H PARENT 19 6 5 13 23 27 82 46 50 57
REMARK Flexibility Score: inf
ROOT
ATOM      1  C   UNL A   1      37.895  19.901  24.996  1.00  0.00     0.042 C 
ENDROOT
BRANCH   1   2
ATOM      2  C   UNL A   1      37.003  21.085  24.623  1.00  0.00     0.117 C 
BRANCH   2   3
ATOM      3  N   UNL A   1      36.213  21.711  25.673  1.00  0.00    -0.354 N 
ATOM      4  C   UNL A   1      34.870  21.888  25.876  1.00  0.00     0.245 C 
ATOM      5  O   UNL A   1      34.549  22.273  27.008  1.00  0.00    -0.272 OA
ATOM      6  H   UNL A   1      36.764  22.091  26.395  1.00  0.00     0.163 HD
BRANCH   4   7
ATOM      7  C   UNL A   1      33.784  21.563  24.809  1.00  0.00     0.117 C 
ATOM      8  C   UNL A   1      32.369  22.002  25.248  1.00  0.00     0.045 C 
BRANCH   7   9
ATOM      9  C   UNL A   1      33.783  20.005  24.650  1.00  0.00     0.035 C 
ATOM     10  C   UNL A   1      32.528  19.414  24.007  1.00  0.00     0.007 C 
ENDBRANCH   7   9
BRANCH   7  11
ATOM     11  N   UNL A   1      34.064  22.184  23.491  1.00  0.00    -0.324 N 
ATOM     12  C   UNL A   1      33.726  23.350  22.896  1.00  0.00     0.318 C 
ATOM     13  H   UNL A   1      34.626  21.615  22.916  1.00  0.00     0.166 HD
ATOM     14  O   UNL A   1      33.737  23.328  21.660  1.00  0.00    -0.249 OA
ATOM     15  N   UNL A   1      33.446  24.492  23.572  1.00  0.00    -0.316 N 
ATOM     16  C   UNL A   1      33.122  25.712  22.810  1.00  0.00     0.157 C 
ATOM     17  C   UNL A   1      33.607  24.808  24.985  1.00  0.00     0.157 C 
ATOM     18  C   UNL A   1      33.342  26.825  23.789  1.00  0.00    -0.023 A 
ATOM     19  C   UNL A   1      33.632  26.295  25.044  1.00  0.00    -0.023 A 
ATOM     20  C   UNL A   1      33.331  28.195  23.596  1.00  0.00     0.006 A 
ATOM     21  C   UNL A   1      33.956  27.097  26.126  1.00  0.00     0.006 A 
ATOM     22  C   UNL A   1      33.650  29.022  24.681  1.00  0.00     0.000 A 
ATOM     23  C   UNL A   1      33.971  28.475  25.935  1.00  0.00     0.000 A 
ENDBRANCH   7  11
ENDBRANCH   4   7
ENDBRANCH   2   3
ENDBRANCH   1   2
BRANCH   1  24
ATOM     24  C   UNL A   1      39.087  20.151  25.911  1.00  0.00     0.118 C 
BRANCH  24  25
ATOM     25  N   UNL A   1      40.167  19.192  25.764  1.00  0.00    -0.352 N 
ATOM     26  C   UNL A   1      41.517  19.336  25.975  1.00  0.00     0.251 C 
ATOM     27  H   UNL A   1      39.886  18.296  25.468  1.00  0.00     0.163 HD
ATOM     28  O   UNL A   1      42.268  18.394  25.751  1.00  0.00    -0.269 OA
BRANCH  26  29
ATOM     29  C   UNL A   1      42.089  20.629  26.421  1.00  0.00     0.039 A 
ATOM     30  C   UNL A   1      42.499  21.538  25.441  1.00  0.00     0.014 A 
ATOM     31  C   UNL A   1      42.252  20.945  27.773  1.00  0.00     0.014 A 
ATOM     32  C   UNL A   1      43.001  22.790  25.809  1.00  0.00     0.010 A 
ATOM     33  C   UNL A   1      42.707  22.215  28.141  1.00  0.00     0.010 A 
ATOM     34  C   UNL A   1      43.073  23.155  27.163  1.00  0.00    -0.014 A 
BRANCH  34  35
ATOM     35  C   UNL A   1      43.501  24.521  27.565  1.00  0.00     0.031 A 
ATOM     36  C   UNL A   1      42.485  25.570  27.917  1.00  0.00     0.074 A 
ATOM     37  C   UNL A   1      44.812  24.837  27.558  1.00  0.00     0.049 A 
ATOM     38  N   UNL A   1      42.666  26.834  28.207  1.00  0.00    -0.248 NA
ATOM     39  C   UNL A   1      41.078  25.144  27.931  1.00  0.00     0.031 C 
ATOM     40  C   UNL A   1      45.898  23.919  27.218  1.00  0.00     0.029 A 
ATOM     41  N   UNL A   1      45.451  26.022  27.830  1.00  0.00    -0.354 N 
ATOM     42  C   UNL A   1      41.399  27.358  28.427  1.00  0.00     0.074 A 
ATOM     43  C   UNL A   1      40.455  26.283  28.201  1.00  0.00     0.031 C 
ATOM     44  C   UNL A   1      47.069  24.571  27.306  1.00  0.00     0.029 A 
ATOM     45  C   UNL A   1      46.814  25.963  27.668  1.00  0.00     0.049 A 
ATOM     46  H   UNL A   1      44.977  26.837  28.114  1.00  0.00     0.167 HD
ATOM     47  C   UNL A   1      41.056  28.616  28.795  1.00  0.00     0.037 A 
ATOM     48  C   UNL A   1      47.752  26.922  27.781  1.00  0.00     0.037 A 
ATOM     49  C   UNL A   1      41.996  29.682  29.035  1.00  0.00     0.049 A 
ATOM     50  C   UNL A   1      47.341  28.320  28.157  1.00  0.00     0.074 A 
ATOM     51  C   UNL A   1      41.742  30.975  29.459  1.00  0.00     0.029 A 
ATOM     52  N   UNL A   1      43.368  29.579  28.867  1.00  0.00    -0.354 N 
ATOM     53  N   UNL A   1      46.145  28.790  28.415  1.00  0.00    -0.248 NA
ATOM     54  C   UNL A   1      48.412  29.323  28.261  1.00  0.00     0.031 C 
ATOM     55  C   UNL A   1      42.955  31.669  29.503  1.00  0.00     0.029 A 
ATOM     56  C   UNL A   1      43.971  30.793  29.156  1.00  0.00     0.049 A 
ATOM     57  H   UNL A   1      43.844  28.765  28.585  1.00  0.00     0.167 HD
ATOM     58  C   UNL A   1      46.321  30.127  28.743  1.00  0.00     0.074 A 
ATOM     59  C   UNL A   1      47.741  30.397  28.656  1.00  0.00     0.031 C 
ATOM     60  C   UNL A   1      45.388  31.047  29.087  1.00  0.00     0.037 A 
BRANCH  47  61
ATOM     61  C   UNL A   1      39.596  28.919  28.958  1.00  0.00     0.064 A 
ATOM     62  C   UNL A   1      38.967  28.854  30.210  1.00  0.00     0.173 A 
ATOM     63  C   UNL A   1      38.827  29.329  27.857  1.00  0.00     0.173 A 
ATOM     64  F   UNL A   1      39.655  28.461  31.292  1.00  0.00    -0.203 F 
ATOM     65  C   UNL A   1      37.616  29.164  30.350  1.00  0.00     0.198 A 
ATOM     66  C   UNL A   1      37.485  29.665  28.006  1.00  0.00     0.198 A 
ATOM     67  F   UNL A   1      39.382  29.417  26.640  1.00  0.00    -0.203 F 
ATOM     68  F   UNL A   1      37.026  29.055  31.548  1.00  0.00    -0.200 F 
ATOM     69  C   UNL A   1      36.878  29.576  29.250  1.00  0.00     0.200 A 
ATOM     70  F   UNL A   1      36.776  30.076  26.945  1.00  0.00    -0.200 F 
ATOM     71  F   UNL A   1      35.581  29.881  29.388  1.00  0.00    -0.200 F 
ENDBRANCH  47  61
BRANCH  48  72
ATOM     72  C   UNL A   1      49.181  26.594  27.540  1.00  0.00     0.064 A 
ATOM     73  C   UNL A   1      49.677  26.455  26.237  1.00  0.00     0.173 A 
ATOM     74  C   UNL A   1      50.076  26.407  28.604  1.00  0.00     0.173 A 
ATOM     75  F   UNL A   1      48.854  26.600  25.188  1.00  0.00    -0.203 F 
ATOM     76  C   UNL A   1      51.010  26.123  26.007  1.00  0.00     0.198 A 
ATOM     77  C   UNL A   1      51.416  26.104  28.372  1.00  0.00     0.198 A 
ATOM     78  F   UNL A   1      49.651  26.531  29.869  1.00  0.00    -0.203 F 
ATOM     79  F   UNL A   1      51.448  25.952  24.751  1.00  0.00    -0.200 F 
ATOM     80  C   UNL A   1      51.881  25.954  27.073  1.00  0.00     0.200 A 
ATOM     81  F   UNL A   1      52.255  25.953  29.404  1.00  0.00    -0.200 F 
ATOM     82  F   UNL A   1      53.164  25.640  26.851  1.00  0.00    -0.200 F 
ENDBRANCH  48  72
BRANCH  60  83
ATOM     83  C   UNL A   1      45.867  32.423  29.447  1.00  0.00     0.064 A 
ATOM     84  C   UNL A   1      46.265  32.748  30.751  1.00  0.00     0.173 A 
ATOM     85  C   UNL A   1      45.986  33.410  28.457  1.00  0.00     0.173 A 
ATOM     86  F   UNL A   1      46.157  31.844  31.736  1.00  0.00    -0.203 F 
ATOM     87  C   UNL A   1      46.754  34.017  31.054  1.00  0.00     0.198 A 
ATOM     88  C   UNL A   1      46.499  34.669  28.757  1.00  0.00     0.198 A 
ATOM     89  F   UNL A   1      45.622  33.148  27.193  1.00  0.00    -0.203 F 
ATOM     90  F   UNL A   1      47.100  34.318  32.313  1.00  0.00    -0.200 F 
ATOM     91  C   UNL A   1      46.880  34.973  30.055  1.00  0.00     0.200 A 
ATOM     92  F   UNL A   1      46.632  35.586  27.789  1.00  0.00    -0.200 F 
ATOM     93  F   UNL A   1      47.363  36.188  30.346  1.00  0.00    -0.200 F 
ENDBRANCH  60  83
ENDBRANCH  34  35
ENDBRANCH  26  29
ENDBRANCH  24  25
ENDBRANCH   1  24
TORSDOF 12
ENDMDL
MODEL 3
REMARK VINA RESULT:     -12.4      0.967      1.596
REMARK SMILES CC[C@](C)(NC(=O)N1Cc2ccccc2C1)C(=O)NCCCNC(=O)c1ccc(-c2c3nc(c(-c4c(F)c(F)c(F)c(F)c4F)c4ccc([nH]4)c(-c4c(F)c(F)c(F)c(F)c4F)c4nc(c(-c5c(F)c(F)c(F)c(F)c5F)c5ccc2[nH]5)C=C4)C=C3)cc1
REMARK SMILES IDX 21 1 20 2 19 3 17 4 18 5 3 7 4 8 2 9 1 10 5 11 6 12 7 14
REMARK SMILES IDX 8 15 9 16 16 17 10 18 15 19 11 20 14 21 12 22 13 23 22 24
REMARK SMILES IDX 23 25 24 26 25 28 26 29 27 30 88 31 28 32 87 33 29 34 30 35
REMARK SMILES IDX 31 36 81 37 32 38 86 39 80 40 82 41 33 42 85 43 79 44 78 45
REMARK SMILES IDX 34 47 66 48 46 49 65 50 47 51 50 52 64 53 83 54 48 55 49 56
REMARK SMILES IDX 63 58 84 59 51 60 35 61 36 62 44 63 37 64 38 65 42 66 45 67
REMARK SMILES IDX 39 68 40 69 43 70 41 71 67 72 68 73 76 74 69 75 70 76 74 77
REMARK SMILES IDX 77 78 71 79 72 80 75 81 73 82 52 83 53 84 61 85 54 86 55 87
REMARK SMILES IDX 59 88 62 89 56 90 57 91 60 92 58 93
REMARK H PARENT 19 6 5 13 23 27 82 46 50 57
REMARK Flexibility Score: inf
ROOT
ATOM      1  C   UNL A   1      37.817  19.939  25.000  1.00  0.00     0.042 C 
ENDROOT
BRANCH   1   2
ATOM      2  C   UNL A   1      36.894  21.102  24.637  1.00  0.00     0.117 C 
BRANCH   2   3
ATOM      3  N   UNL A   1      36.090  21.701  25.692  1.00  0.00    -0.354 N 
ATOM      4  C   UNL A   1      34.744  21.867  25.885  1.00  0.00     0.245 C 
ATOM      5  O   UNL A   1      34.410  22.225  27.022  1.00  0.00    -0.272 OA
ATOM      6  H   UNL A   1      36.632  22.067  26.428  1.00  0.00     0.163 HD
BRANCH   4   7
ATOM      7  C   UNL A   1      33.671  21.559  24.800  1.00  0.00     0.117 C 
ATOM      8  C   UNL A   1      32.256  22.020  25.218  1.00  0.00     0.045 C 
BRANCH   7   9
ATOM      9  C   UNL A   1      33.648  20.002  24.639  1.00  0.00     0.035 C 
ATOM     10  C   UNL A   1      32.528  19.452  23.756  1.00  0.00     0.007 C 
ENDBRANCH   7   9
BRANCH   7  11
ATOM     11  N   UNL A   1      33.981  22.178  23.488  1.00  0.00    -0.324 N 
ATOM     12  C   UNL A   1      33.668  23.349  22.889  1.00  0.00     0.318 C 
ATOM     13  H   UNL A   1      34.545  21.602  22.923  1.00  0.00     0.166 HD
ATOM     14  O   UNL A   1      33.701  23.328  21.654  1.00  0.00    -0.249 OA
ATOM     15  N   UNL A   1      33.392  24.494  23.561  1.00  0.00    -0.316 N 
ATOM     16  C   UNL A   1      33.097  25.718  22.795  1.00  0.00     0.157 C 
ATOM     17  C   UNL A   1      33.533  24.807  24.977  1.00  0.00     0.157 C 
ATOM     18  C   UNL A   1      33.315  26.828  23.778  1.00  0.00    -0.023 A 
ATOM     19  C   UNL A   1      33.576  26.293  25.038  1.00  0.00    -0.023 A 
ATOM     20  C   UNL A   1      33.325  28.198  23.587  1.00  0.00     0.006 A 
ATOM     21  C   UNL A   1      33.892  27.090  26.126  1.00  0.00     0.006 A 
ATOM     22  C   UNL A   1      33.636  29.019  24.678  1.00  0.00     0.000 A 
ATOM     23  C   UNL A   1      33.928  28.468  25.937  1.00  0.00     0.000 A 
ENDBRANCH   7  11
ENDBRANCH   4   7
ENDBRANCH   2   3
ENDBRANCH   1   2
BRANCH   1  24
ATOM     24  C   UNL A   1      38.977  20.203  25.951  1.00  0.00     0.118 C 
BRANCH  24  25
ATOM     25  N   UNL A   1      40.027  19.203  25.907  1.00  0.00    -0.352 N 
ATOM     26  C   UNL A   1      41.381  19.327  26.113  1.00  0.00     0.251 C 
ATOM     27  H   UNL A   1      39.722  18.290  25.696  1.00  0.00     0.163 HD
ATOM     28  O   UNL A   1      42.104  18.345  25.988  1.00  0.00    -0.269 OA
BRANCH  26  29
ATOM     29  C   UNL A   1      41.989  20.639  26.436  1.00  0.00     0.039 A 
ATOM     30  C   UNL A   1      42.304  21.495  25.376  1.00  0.00     0.014 A 
ATOM     31  C   UNL A   1      42.277  21.024  27.748  1.00  0.00     0.014 A 
ATOM     32  C   UNL A   1      42.835  22.763  25.630  1.00  0.00     0.010 A 
ATOM     33  C   UNL A   1      42.762  22.310  28.006  1.00  0.00     0.010 A 
ATOM     34  C   UNL A   1      43.033  23.197  26.951  1.00  0.00    -0.014 A 
BRANCH  34  35
ATOM     35  C   UNL A   1      43.494  24.581  27.239  1.00  0.00     0.031 A 
ATOM     36  C   UNL A   1      42.538  25.613  27.766  1.00  0.00     0.074 A 
ATOM     37  C   UNL A   1      44.769  24.927  26.971  1.00  0.00     0.049 A 
ATOM     38  N   UNL A   1      42.738  26.887  27.996  1.00  0.00    -0.248 NA
ATOM     39  C   UNL A   1      41.173  25.155  28.062  1.00  0.00     0.031 C 
ATOM     40  C   UNL A   1      45.793  24.028  26.440  1.00  0.00     0.029 A 
ATOM     41  N   UNL A   1      45.416  26.132  27.095  1.00  0.00    -0.354 N 
ATOM     42  C   UNL A   1      41.524  27.386  28.450  1.00  0.00     0.074 A 
ATOM     43  C   UNL A   1      40.584  26.284  28.431  1.00  0.00     0.031 C 
ATOM     44  C   UNL A   1      46.940  24.710  26.287  1.00  0.00     0.029 A 
ATOM     45  C   UNL A   1      46.723  26.102  26.671  1.00  0.00     0.049 A 
ATOM     46  H   UNL A   1      44.985  26.942  27.453  1.00  0.00     0.167 HD
ATOM     47  C   UNL A   1      41.226  28.642  28.859  1.00  0.00     0.037 A 
ATOM     48  C   UNL A   1      47.639  27.086  26.583  1.00  0.00     0.037 A 
ATOM     49  C   UNL A   1      42.165  29.734  28.893  1.00  0.00     0.049 A 
ATOM     50  C   UNL A   1      47.271  28.481  27.010  1.00  0.00     0.074 A 
ATOM     51  C   UNL A   1      41.963  31.030  29.338  1.00  0.00     0.029 A 
ATOM     52  N   UNL A   1      43.480  29.661  28.463  1.00  0.00    -0.354 N 
ATOM     53  N   UNL A   1      46.136  28.928  27.489  1.00  0.00    -0.248 NA
ATOM     54  C   UNL A   1      48.314  29.511  26.886  1.00  0.00     0.031 C 
ATOM     55  C   UNL A   1      43.143  31.753  29.134  1.00  0.00     0.029 A 
ATOM     56  C   UNL A   1      44.095  30.895  28.609  1.00  0.00     0.049 A 
ATOM     57  H   UNL A   1      43.914  28.852  28.106  1.00  0.00     0.167 HD
ATOM     58  C   UNL A   1      46.336  30.275  27.755  1.00  0.00     0.074 A 
ATOM     59  C   UNL A   1      47.704  30.577  27.388  1.00  0.00     0.031 C 
ATOM     60  C   UNL A   1      45.463  31.179  28.260  1.00  0.00     0.037 A 
BRANCH  47  61
ATOM     61  C   UNL A   1      39.817  28.914  29.299  1.00  0.00     0.064 A 
ATOM     62  C   UNL A   1      38.830  29.324  28.391  1.00  0.00     0.173 A 
ATOM     63  C   UNL A   1      39.437  28.712  30.635  1.00  0.00     0.173 A 
ATOM     64  F   UNL A   1      39.143  29.538  27.104  1.00  0.00    -0.203 F 
ATOM     65  C   UNL A   1      37.520  29.548  28.809  1.00  0.00     0.198 A 
ATOM     66  C   UNL A   1      38.122  28.909  31.044  1.00  0.00     0.198 A 
ATOM     67  F   UNL A   1      40.341  28.311  31.542  1.00  0.00    -0.203 F 
ATOM     68  F   UNL A   1      36.603  29.980  27.933  1.00  0.00    -0.200 F 
ATOM     69  C   UNL A   1      37.166  29.333  30.133  1.00  0.00     0.200 A 
ATOM     70  F   UNL A   1      37.777  28.687  32.320  1.00  0.00    -0.200 F 
ATOM     71  F   UNL A   1      35.903  29.540  30.532  1.00  0.00    -0.200 F 
ENDBRANCH  47  61
BRANCH  48  72
ATOM     72  C   UNL A   1      49.002  26.786  26.072  1.00  0.00     0.064 A 
ATOM     73  C   UNL A   1      49.998  26.294  26.926  1.00  0.00     0.173 A 
ATOM     74  C   UNL A   1      49.337  26.990  24.725  1.00  0.00     0.173 A 
ATOM     75  F   UNL A   1      49.731  26.106  28.227  1.00  0.00    -0.203 F 
ATOM     76  C   UNL A   1      51.283  26.034  26.457  1.00  0.00     0.198 A 
ATOM     77  C   UNL A   1      50.615  26.703  24.251  1.00  0.00     0.198 A 
ATOM     78  F   UNL A   1      48.419  27.458  23.868  1.00  0.00    -0.203 F 
ATOM     79  F   UNL A   1      52.229  25.606  27.305  1.00  0.00    -0.200 F 
ATOM     80  C   UNL A   1      51.590  26.233  25.119  1.00  0.00     0.200 A 
ATOM     81  F   UNL A   1      50.904  26.886  22.956  1.00  0.00    -0.200 F 
ATOM     82  F   UNL A   1      52.825  25.978  24.668  1.00  0.00    -0.200 F 
ENDBRANCH  48  72
BRANCH  60  83
ATOM     83  C   UNL A   1      45.966  32.574  28.498  1.00  0.00     0.064 A 
ATOM     84  C   UNL A   1      45.856  33.574  27.521  1.00  0.00     0.173 A 
ATOM     85  C   UNL A   1      46.507  32.927  29.743  1.00  0.00     0.173 A 
ATOM     86  F   UNL A   1      45.359  33.283  26.309  1.00  0.00    -0.203 F 
ATOM     87  C   UNL A   1      46.283  34.875  27.779  1.00  0.00     0.198 A 
ATOM     88  C   UNL A   1      46.909  34.234  30.006  1.00  0.00     0.198 A 
ATOM     89  F   UNL A   1      46.629  32.008  30.713  1.00  0.00    -0.203 F 
ATOM     90  F   UNL A   1      46.200  35.808  26.821  1.00  0.00    -0.200 F 
ATOM     91  C   UNL A   1      46.800  35.206  29.023  1.00  0.00     0.200 A 
ATOM     92  F   UNL A   1      47.396  34.554  31.213  1.00  0.00    -0.200 F 
ATOM     93  F   UNL A   1      47.198  36.461  29.274  1.00  0.00    -0.200 F 
ENDBRANCH  60  83
ENDBRANCH  34  35
ENDBRANCH  26  29
ENDBRANCH  24  25
ENDBRANCH   1  24
TORSDOF 12
ENDMDL
