MODEL 1
REMARK VINA RESULT:     -11.9      0.000      0.000
REMARK SMILES C[C@H](CN(C)C(=O)c1ccc(F)c(F)c1F)C(=O)NCCCNC(=O)c1ccc(-c2c3nc(c(-c4c(F)c(F)c(F)c(F)c4F)c4ccc([nH]4)c(-c4c(F)c(F)c(F)c(F)c4F)c4nc(c(-c5c(F)c(F)c(F)c(F)c5F)c5ccc2[nH]5)C=C4)C=C3)cc1
REMARK SMILES IDX 20 1 19 2 17 3 18 4 2 6 1 7 3 8 4 9 5 10 6 11 7 12 8 13 9 14
REMARK SMILES IDX 15 15 10 16 13 17 16 18 11 19 14 20 12 21 21 22 22 23 23 24
REMARK SMILES IDX 24 25 25 27 26 28 27 29 88 30 28 31 87 32 29 33 30 34 31 35
REMARK SMILES IDX 81 36 32 37 86 38 80 39 82 40 33 41 85 42 79 43 78 44 34 46
REMARK SMILES IDX 66 47 46 48 65 49 47 50 50 51 64 52 83 53 48 54 49 55 63 57
REMARK SMILES IDX 84 58 51 59 35 60 36 61 44 62 37 63 38 64 42 65 45 66 39 67
REMARK SMILES IDX 40 68 43 69 41 70 67 71 68 72 76 73 69 74 70 75 74 76 77 77
REMARK SMILES IDX 71 78 72 79 75 80 73 81 52 82 53 83 61 84 54 85 55 86 59 87
REMARK SMILES IDX 62 88 56 89 57 90 60 91 58 92
REMARK H PARENT 19 5 23 26 82 45 50 56
REMARK Flexibility Score: inf
ROOT
ATOM      1  C   UNL A   1      33.665  26.422  25.759  1.00  0.00     0.117 C 
ENDROOT
BRANCH   1   2
ATOM      2  N   UNL A   1      33.792  25.886  24.420  1.00  0.00    -0.356 N 
ATOM      3  C   UNL A   1      34.387  24.743  23.986  1.00  0.00     0.224 C 
ATOM      4  O   UNL A   1      34.429  24.570  22.763  1.00  0.00    -0.275 OA
ATOM      5  H   UNL A   1      33.383  26.436  23.713  1.00  0.00     0.163 HD
BRANCH   3   6
ATOM      6  C   UNL A   1      34.970  23.680  24.929  1.00  0.00     0.095 C 
ATOM      7  C   UNL A   1      36.410  23.971  25.350  1.00  0.00     0.020 C 
BRANCH   6   8
ATOM      8  C   UNL A   1      34.590  22.231  24.539  1.00  0.00     0.132 C 
BRANCH   8   9
ATOM      9  N   UNL A   1      33.773  21.465  25.499  1.00  0.00    -0.341 N 
ATOM     10  C   UNL A   1      34.173  21.475  26.899  1.00  0.00     0.147 C 
BRANCH   9  11
ATOM     11  C   UNL A   1      32.430  21.250  25.210  1.00  0.00     0.256 C 
ATOM     12  O   UNL A   1      31.950  20.131  25.049  1.00  0.00    -0.269 OA
BRANCH  11  13
ATOM     13  C   UNL A   1      31.488  22.396  25.153  1.00  0.00     0.079 A 
ATOM     14  C   UNL A   1      31.093  22.975  26.367  1.00  0.00     0.020 A 
ATOM     15  C   UNL A   1      31.250  23.081  23.956  1.00  0.00     0.174 A 
ATOM     16  C   UNL A   1      30.493  24.237  26.381  1.00  0.00     0.043 A 
ATOM     17  C   UNL A   1      30.693  24.355  23.977  1.00  0.00     0.195 A 
ATOM     18  F   UNL A   1      31.617  22.566  22.775  1.00  0.00    -0.203 F 
ATOM     19  C   UNL A   1      30.322  24.930  25.185  1.00  0.00     0.161 A 
ATOM     20  F   UNL A   1      30.553  25.041  22.834  1.00  0.00    -0.200 F 
ATOM     21  F   UNL A   1      29.816  26.170  25.218  1.00  0.00    -0.204 F 
ENDBRANCH  11  13
ENDBRANCH   9  11
ENDBRANCH   8   9
ENDBRANCH   6   8
ENDBRANCH   3   6
ENDBRANCH   1   2
BRANCH   1  22
ATOM     22  C   UNL A   1      32.724  27.624  25.795  1.00  0.00     0.042 C 
BRANCH  22  23
ATOM     23  C   UNL A   1      33.272  28.863  25.109  1.00  0.00     0.118 C 
BRANCH  23  24
ATOM     24  N   UNL A   1      32.715  30.094  25.668  1.00  0.00    -0.352 N 
ATOM     25  C   UNL A   1      33.076  30.883  26.736  1.00  0.00     0.251 C 
ATOM     26  H   UNL A   1      31.924  30.424  25.185  1.00  0.00     0.163 HD
ATOM     27  O   UNL A   1      32.288  31.758  27.103  1.00  0.00    -0.269 OA
BRANCH  25  28
ATOM     28  C   UNL A   1      34.350  30.716  27.481  1.00  0.00     0.039 A 
ATOM     29  C   UNL A   1      35.209  31.819  27.619  1.00  0.00     0.014 A 
ATOM     30  C   UNL A   1      34.767  29.485  27.977  1.00  0.00     0.014 A 
ATOM     31  C   UNL A   1      36.427  31.697  28.303  1.00  0.00     0.010 A 
ATOM     32  C   UNL A   1      35.916  29.389  28.759  1.00  0.00     0.010 A 
ATOM     33  C   UNL A   1      36.774  30.486  28.917  1.00  0.00    -0.014 A 
BRANCH  33  34
ATOM     34  C   UNL A   1      38.037  30.291  29.683  1.00  0.00     0.031 A 
ATOM     35  C   UNL A   1      39.121  29.413  29.111  1.00  0.00     0.074 A 
ATOM     36  C   UNL A   1      38.172  30.796  30.924  1.00  0.00     0.049 A 
ATOM     37  N   UNL A   1      40.183  28.914  29.694  1.00  0.00    -0.248 NA
ATOM     38  C   UNL A   1      38.968  29.006  27.704  1.00  0.00     0.031 C 
ATOM     39  C   UNL A   1      37.196  31.648  31.602  1.00  0.00     0.029 A 
ATOM     40  N   UNL A   1      39.177  30.643  31.850  1.00  0.00    -0.354 N 
ATOM     41  C   UNL A   1      40.793  28.107  28.740  1.00  0.00     0.074 A 
ATOM     42  C   UNL A   1      39.960  28.142  27.558  1.00  0.00     0.031 C 
ATOM     43  C   UNL A   1      37.654  31.955  32.826  1.00  0.00     0.029 A 
ATOM     44  C   UNL A   1      38.927  31.273  33.046  1.00  0.00     0.049 A 
ATOM     45  H   UNL A   1      39.998  30.130  31.672  1.00  0.00     0.167 HD
ATOM     46  C   UNL A   1      41.955  27.421  28.833  1.00  0.00     0.037 A 
ATOM     47  C   UNL A   1      39.628  31.279  34.197  1.00  0.00     0.037 A 
ATOM     48  C   UNL A   1      42.810  27.439  29.991  1.00  0.00     0.049 A 
ATOM     49  C   UNL A   1      40.909  30.493  34.286  1.00  0.00     0.074 A 
ATOM     50  C   UNL A   1      44.041  26.831  30.159  1.00  0.00     0.029 A 
ATOM     51  N   UNL A   1      42.525  28.107  31.172  1.00  0.00    -0.354 N 
ATOM     52  N   UNL A   1      41.491  29.758  33.370  1.00  0.00    -0.248 NA
ATOM     53  C   UNL A   1      41.629  30.528  35.568  1.00  0.00     0.031 C 
ATOM     54  C   UNL A   1      44.480  27.090  31.459  1.00  0.00     0.029 A 
ATOM     55  C   UNL A   1      43.550  27.908  32.082  1.00  0.00     0.049 A 
ATOM     56  H   UNL A   1      41.716  28.643  31.339  1.00  0.00     0.167 HD
ATOM     57  C   UNL A   1      42.653  29.268  33.951  1.00  0.00     0.074 A 
ATOM     58  C   UNL A   1      42.700  29.794  35.299  1.00  0.00     0.031 C 
ATOM     59  C   UNL A   1      43.594  28.456  33.414  1.00  0.00     0.037 A 
BRANCH  46  60
ATOM     60  C   UNL A   1      42.395  26.605  27.651  1.00  0.00     0.064 A 
ATOM     61  C   UNL A   1      41.926  25.293  27.475  1.00  0.00     0.173 A 
ATOM     62  C   UNL A   1      43.345  27.088  26.738  1.00  0.00     0.173 A 
ATOM     63  F   UNL A   1      41.025  24.778  28.324  1.00  0.00    -0.203 F 
ATOM     64  C   UNL A   1      42.402  24.493  26.440  1.00  0.00     0.198 A 
ATOM     65  C   UNL A   1      43.793  26.297  25.683  1.00  0.00     0.198 A 
ATOM     66  F   UNL A   1      43.820  28.337  26.855  1.00  0.00    -0.203 F 
ATOM     67  F   UNL A   1      41.969  23.231  26.316  1.00  0.00    -0.200 F 
ATOM     68  C   UNL A   1      43.332  24.998  25.543  1.00  0.00     0.200 A 
ATOM     69  F   UNL A   1      44.672  26.794  24.802  1.00  0.00    -0.200 F 
ATOM     70  F   UNL A   1      43.782  24.230  24.540  1.00  0.00    -0.200 F 
ENDBRANCH  46  60
BRANCH  47  71
ATOM     71  C   UNL A   1      39.137  32.080  35.351  1.00  0.00     0.064 A 
ATOM     72  C   UNL A   1      39.444  33.443  35.487  1.00  0.00     0.173 A 
ATOM     73  C   UNL A   1      38.383  31.479  36.367  1.00  0.00     0.173 A 
ATOM     74  F   UNL A   1      40.166  34.067  34.545  1.00  0.00    -0.203 F 
ATOM     75  C   UNL A   1      39.038  34.164  36.608  1.00  0.00     0.198 A 
ATOM     76  C   UNL A   1      37.953  32.208  37.474  1.00  0.00     0.198 A 
ATOM     77  F   UNL A   1      38.046  30.185  36.274  1.00  0.00    -0.203 F 
ATOM     78  F   UNL A   1      39.382  35.453  36.734  1.00  0.00    -0.200 F 
ATOM     79  C   UNL A   1      38.290  33.547  37.599  1.00  0.00     0.200 A 
ATOM     80  F   UNL A   1      37.211  31.614  38.419  1.00  0.00    -0.200 F 
ATOM     81  F   UNL A   1      37.896  34.242  38.674  1.00  0.00    -0.200 F 
ENDBRANCH  47  71
BRANCH  59  82
ATOM     82  C   UNL A   1      44.783  28.092  34.253  1.00  0.00     0.064 A 
ATOM     83  C   UNL A   1      44.734  26.974  35.101  1.00  0.00     0.173 A 
ATOM     84  C   UNL A   1      45.909  28.923  34.324  1.00  0.00     0.173 A 
ATOM     85  F   UNL A   1      43.672  26.154  35.077  1.00  0.00    -0.203 F 
ATOM     86  C   UNL A   1      45.752  26.722  36.014  1.00  0.00     0.198 A 
ATOM     87  C   UNL A   1      46.940  28.653  35.220  1.00  0.00     0.198 A 
ATOM     88  F   UNL A   1      46.006  29.997  33.526  1.00  0.00    -0.203 F 
ATOM     89  F   UNL A   1      45.657  25.683  36.854  1.00  0.00    -0.200 F 
ATOM     90  C   UNL A   1      46.854  27.563  36.075  1.00  0.00     0.200 A 
ATOM     91  F   UNL A   1      48.013  29.455  35.265  1.00  0.00    -0.200 F 
ATOM     92  F   UNL A   1      47.830  27.327  36.962  1.00  0.00    -0.200 F 
ENDBRANCH  59  82
ENDBRANCH  33  34
ENDBRANCH  25  28
ENDBRANCH  23  24
ENDBRANCH  22  23
ENDBRANCH   1  22
TORSDOF 14
ENDMDL
MODEL 2
REMARK VINA RESULT:     -11.9      2.365      3.861
REMARK SMILES C[C@H](CN(C)C(=O)c1ccc(F)c(F)c1F)C(=O)NCCCNC(=O)c1ccc(-c2c3nc(c(-c4c(F)c(F)c(F)c(F)c4F)c4ccc([nH]4)c(-c4c(F)c(F)c(F)c(F)c4F)c4nc(c(-c5c(F)c(F)c(F)c(F)c5F)c5ccc2[nH]5)C=C4)C=C3)cc1
REMARK SMILES IDX 20 1 19 2 17 3 18 4 2 6 1 7 3 8 4 9 5 10 6 11 7 12 8 13 9 14
REMARK SMILES IDX 15 15 10 16 13 17 16 18 11 19 14 20 12 21 21 22 22 23 23 24
REMARK SMILES IDX 24 25 25 27 26 28 27 29 88 30 28 31 87 32 29 33 30 34 31 35
REMARK SMILES IDX 81 36 32 37 86 38 80 39 82 40 33 41 85 42 79 43 78 44 34 46
REMARK SMILES IDX 66 47 46 48 65 49 47 50 50 51 64 52 83 53 48 54 49 55 63 57
REMARK SMILES IDX 84 58 51 59 35 60 36 61 44 62 37 63 38 64 42 65 45 66 39 67
REMARK SMILES IDX 40 68 43 69 41 70 67 71 68 72 76 73 69 74 70 75 74 76 77 77
REMARK SMILES IDX 71 78 72 79 75 80 73 81 52 82 53 83 61 84 54 85 55 86 59 87
REMARK SMILES IDX 62 88 56 89 57 90 60 91 58 92
REMARK H PARENT 19 5 23 26 82 45 50 56
REMARK Flexibility Score: inf
ROOT
ATOM      1  C   UNL A   1      31.776  30.443  26.747  1.00  0.00     0.117 C 
ENDROOT
BRANCH   1   2
ATOM      2  N   UNL A   1      32.463  30.136  25.510  1.00  0.00    -0.356 N 
ATOM      3  C   UNL A   1      32.938  28.951  25.042  1.00  0.00     0.224 C 
ATOM      4  O   UNL A   1      33.572  28.988  23.981  1.00  0.00    -0.275 OA
ATOM      5  H   UNL A   1      32.611  30.907  24.915  1.00  0.00     0.163 HD
BRANCH   3   6
ATOM      6  C   UNL A   1      32.703  27.606  25.745  1.00  0.00     0.095 C 
ATOM      7  C   UNL A   1      33.937  26.705  25.751  1.00  0.00     0.020 C 
BRANCH   6   8
ATOM      8  C   UNL A   1      31.325  26.975  25.430  1.00  0.00     0.132 C 
BRANCH   8   9
ATOM      9  N   UNL A   1      31.222  26.149  24.212  1.00  0.00    -0.341 N 
ATOM     10  C   UNL A   1      30.873  24.743  24.367  1.00  0.00     0.147 C 
BRANCH   9  11
ATOM     11  C   UNL A   1      30.897  26.769  23.011  1.00  0.00     0.256 C 
ATOM     12  O   UNL A   1      31.293  26.366  21.921  1.00  0.00    -0.269 OA
BRANCH  11  13
ATOM     13  C   UNL A   1      29.976  27.934  22.999  1.00  0.00     0.079 A 
ATOM     14  C   UNL A   1      30.421  29.109  22.377  1.00  0.00     0.020 A 
ATOM     15  C   UNL A   1      28.617  27.788  23.300  1.00  0.00     0.174 A 
ATOM     16  C   UNL A   1      29.509  30.110  22.036  1.00  0.00     0.043 A 
ATOM     17  C   UNL A   1      27.707  28.767  22.919  1.00  0.00     0.195 A 
ATOM     18  F   UNL A   1      28.150  26.679  23.889  1.00  0.00    -0.203 F 
ATOM     19  C   UNL A   1      28.152  29.919  22.285  1.00  0.00     0.161 A 
ATOM     20  F   UNL A   1      26.397  28.578  23.128  1.00  0.00    -0.200 F 
ATOM     21  F   UNL A   1      27.278  30.853  21.885  1.00  0.00    -0.204 F 
ENDBRANCH  11  13
ENDBRANCH   9  11
ENDBRANCH   8   9
ENDBRANCH   6   8
ENDBRANCH   3   6
ENDBRANCH   1   2
BRANCH   1  22
ATOM     22  C   UNL A   1      31.477  31.935  26.866  1.00  0.00     0.042 C 
BRANCH  22  23
ATOM     23  C   UNL A   1      32.712  32.819  26.876  1.00  0.00     0.118 C 
BRANCH  23  24
ATOM     24  N   UNL A   1      32.491  34.066  27.607  1.00  0.00    -0.352 N 
ATOM     25  C   UNL A   1      33.067  34.603  28.735  1.00  0.00     0.251 C 
ATOM     26  H   UNL A   1      31.792  34.634  27.213  1.00  0.00     0.163 HD
ATOM     27  O   UNL A   1      32.528  35.588  29.247  1.00  0.00    -0.269 OA
BRANCH  25  28
ATOM     28  C   UNL A   1      34.282  34.042  29.379  1.00  0.00     0.039 A 
ATOM     29  C   UNL A   1      35.545  34.466  28.937  1.00  0.00     0.014 A 
ATOM     30  C   UNL A   1      34.219  33.047  30.349  1.00  0.00     0.014 A 
ATOM     31  C   UNL A   1      36.716  33.949  29.510  1.00  0.00     0.010 A 
ATOM     32  C   UNL A   1      35.372  32.620  31.003  1.00  0.00     0.010 A 
ATOM     33  C   UNL A   1      36.639  33.048  30.581  1.00  0.00    -0.014 A 
BRANCH  33  34
ATOM     34  C   UNL A   1      37.839  32.478  31.256  1.00  0.00     0.031 A 
ATOM     35  C   UNL A   1      38.596  31.353  30.597  1.00  0.00     0.074 A 
ATOM     36  C   UNL A   1      38.183  32.879  32.495  1.00  0.00     0.049 A 
ATOM     37  N   UNL A   1      39.506  30.555  31.097  1.00  0.00    -0.248 NA
ATOM     38  C   UNL A   1      38.251  31.059  29.195  1.00  0.00     0.031 C 
ATOM     39  C   UNL A   1      37.530  33.944  33.253  1.00  0.00     0.029 A 
ATOM     40  N   UNL A   1      39.157  32.416  33.349  1.00  0.00    -0.354 N 
ATOM     41  C   UNL A   1      39.806  29.646  30.089  1.00  0.00     0.074 A 
ATOM     42  C   UNL A   1      38.949  29.956  28.967  1.00  0.00     0.031 C 
ATOM     43  C   UNL A   1      38.127  34.065  34.449  1.00  0.00     0.029 A 
ATOM     44  C   UNL A   1      39.166  33.046  34.571  1.00  0.00     0.049 A 
ATOM     45  H   UNL A   1      39.788  31.700  33.107  1.00  0.00     0.167 HD
ATOM     46  C   UNL A   1      40.730  28.658  30.092  1.00  0.00     0.037 A 
ATOM     47  C   UNL A   1      39.907  32.812  35.672  1.00  0.00     0.037 A 
ATOM     48  C   UNL A   1      41.622  28.393  31.189  1.00  0.00     0.049 A 
ATOM     49  C   UNL A   1      40.917  31.695  35.660  1.00  0.00     0.074 A 
ATOM     50  C   UNL A   1      42.639  27.458  31.263  1.00  0.00     0.029 A 
ATOM     51  N   UNL A   1      41.608  29.069  32.400  1.00  0.00    -0.354 N 
ATOM     52  N   UNL A   1      41.212  30.862  34.693  1.00  0.00    -0.248 NA
ATOM     53  C   UNL A   1      41.692  31.480  36.891  1.00  0.00     0.031 C 
ATOM     54  C   UNL A   1      43.209  27.535  32.536  1.00  0.00     0.029 A 
ATOM     55  C   UNL A   1      42.586  28.557  33.235  1.00  0.00     0.049 A 
ATOM     56  H   UNL A   1      40.994  29.804  32.631  1.00  0.00     0.167 HD
ATOM     57  C   UNL A   1      42.221  30.044  35.186  1.00  0.00     0.074 A 
ATOM     58  C   UNL A   1      42.495  30.485  36.538  1.00  0.00     0.031 C 
ATOM     59  C   UNL A   1      42.861  29.021  34.571  1.00  0.00     0.037 A 
BRANCH  46  60
ATOM     60  C   UNL A   1      40.852  27.796  28.868  1.00  0.00     0.064 A 
ATOM     61  C   UNL A   1      41.703  28.169  27.814  1.00  0.00     0.173 A 
ATOM     62  C   UNL A   1      40.067  26.647  28.697  1.00  0.00     0.173 A 
ATOM     63  F   UNL A   1      42.470  29.265  27.920  1.00  0.00    -0.203 F 
ATOM     64  C   UNL A   1      41.751  27.433  26.634  1.00  0.00     0.198 A 
ATOM     65  C   UNL A   1      40.142  25.892  27.529  1.00  0.00     0.198 A 
ATOM     66  F   UNL A   1      39.243  26.241  29.675  1.00  0.00    -0.203 F 
ATOM     67  F   UNL A   1      42.541  27.831  25.628  1.00  0.00    -0.200 F 
ATOM     68  C   UNL A   1      40.974  26.292  26.495  1.00  0.00     0.200 A 
ATOM     69  F   UNL A   1      39.410  24.777  27.406  1.00  0.00    -0.200 F 
ATOM     70  F   UNL A   1      41.027  25.578  25.361  1.00  0.00    -0.200 F 
ENDBRANCH  46  60
BRANCH  47  71
ATOM     71  C   UNL A   1      39.731  33.675  36.871  1.00  0.00     0.064 A 
ATOM     72  C   UNL A   1      38.859  33.323  37.913  1.00  0.00     0.173 A 
ATOM     73  C   UNL A   1      40.407  34.898  36.974  1.00  0.00     0.173 A 
ATOM     74  F   UNL A   1      38.184  32.165  37.863  1.00  0.00    -0.203 F 
ATOM     75  C   UNL A   1      38.651  34.175  38.996  1.00  0.00     0.198 A 
ATOM     76  C   UNL A   1      40.221  35.735  38.073  1.00  0.00     0.198 A 
ATOM     77  F   UNL A   1      41.267  35.270  36.016  1.00  0.00    -0.203 F 
ATOM     78  F   UNL A   1      37.779  33.834  39.956  1.00  0.00    -0.200 F 
ATOM     79  C   UNL A   1      39.334  35.378  39.077  1.00  0.00     0.200 A 
ATOM     80  F   UNL A   1      40.900  36.887  38.158  1.00  0.00    -0.200 F 
ATOM     81  F   UNL A   1      39.136  36.194  40.121  1.00  0.00    -0.200 F 
ENDBRANCH  47  71
BRANCH  59  82
ATOM     82  C   UNL A   1      43.947  28.307  35.322  1.00  0.00     0.064 A 
ATOM     83  C   UNL A   1      43.630  27.235  36.171  1.00  0.00     0.173 A 
ATOM     84  C   UNL A   1      45.269  28.771  35.310  1.00  0.00     0.173 A 
ATOM     85  F   UNL A   1      42.376  26.762  36.225  1.00  0.00    -0.203 F 
ATOM     86  C   UNL A   1      44.591  26.677  37.008  1.00  0.00     0.198 A 
ATOM     87  C   UNL A   1      46.235  28.191  36.129  1.00  0.00     0.198 A 
ATOM     88  F   UNL A   1      45.621  29.786  34.508  1.00  0.00    -0.203 F 
ATOM     89  F   UNL A   1      44.253  25.693  37.853  1.00  0.00    -0.200 F 
ATOM     90  C   UNL A   1      45.892  27.156  36.989  1.00  0.00     0.200 A 
ATOM     91  F   UNL A   1      47.496  28.643  36.097  1.00  0.00    -0.200 F 
ATOM     92  F   UNL A   1      46.816  26.626  37.802  1.00  0.00    -0.200 F 
ENDBRANCH  59  82
ENDBRANCH  33  34
ENDBRANCH  25  28
ENDBRANCH  23  24
ENDBRANCH  22  23
ENDBRANCH   1  22
TORSDOF 14
ENDMDL
MODEL 3
REMARK VINA RESULT:     -11.9      1.349      2.865
REMARK SMILES C[C@H](CN(C)C(=O)c1ccc(F)c(F)c1F)C(=O)NCCCNC(=O)c1ccc(-c2c3nc(c(-c4c(F)c(F)c(F)c(F)c4F)c4ccc([nH]4)c(-c4c(F)c(F)c(F)c(F)c4F)c4nc(c(-c5c(F)c(F)c(F)c(F)c5F)c5ccc2[nH]5)C=C4)C=C3)cc1
REMARK SMILES IDX 20 1 19 2 17 3 18 4 2 6 1 7 3 8 4 9 5 10 6 11 7 12 8 13 9 14
REMARK SMILES IDX 15 15 10 16 13 17 16 18 11 19 14 20 12 21 21 22 22 23 23 24
REMARK SMILES IDX 24 25 25 27 26 28 27 29 88 30 28 31 87 32 29 33 30 34 31 35
REMARK SMILES IDX 81 36 32 37 86 38 80 39 82 40 33 41 85 42 79 43 78 44 34 46
REMARK SMILES IDX 66 47 46 48 65 49 47 50 50 51 64 52 83 53 48 54 49 55 63 57
REMARK SMILES IDX 84 58 51 59 35 60 36 61 44 62 37 63 38 64 42 65 45 66 39 67
REMARK SMILES IDX 40 68 43 69 41 70 67 71 68 72 76 73 69 74 70 75 74 76 77 77
REMARK SMILES IDX 71 78 72 79 75 80 73 81 52 82 53 83 61 84 54 85 55 86 59 87
REMARK SMILES IDX 62 88 56 89 57 90 60 91 58 92
REMARK H PARENT 19 5 23 26 82 45 50 56
REMARK Flexibility Score: inf
ROOT
ATOM      1  C   UNL A   1      31.722  27.597  26.320  1.00  0.00     0.117 C 
ENDROOT
BRANCH   1   2
ATOM      2  N   UNL A   1      31.261  26.245  26.559  1.00  0.00    -0.356 N 
ATOM      3  C   UNL A   1      30.669  25.359  25.715  1.00  0.00     0.224 C 
ATOM      4  O   UNL A   1      30.290  24.291  26.209  1.00  0.00    -0.275 OA
ATOM      5  H   UNL A   1      31.398  25.917  27.477  1.00  0.00     0.163 HD
BRANCH   3   6
ATOM      6  C   UNL A   1      30.479  25.616  24.213  1.00  0.00     0.095 C 
ATOM      7  C   UNL A   1      29.144  26.281  23.878  1.00  0.00     0.020 C 
BRANCH   6   8
ATOM      8  C   UNL A   1      30.973  24.453  23.318  1.00  0.00     0.132 C 
BRANCH   8   9
ATOM      9  N   UNL A   1      32.327  24.568  22.746  1.00  0.00    -0.341 N 
ATOM     10  C   UNL A   1      32.880  25.902  22.560  1.00  0.00     0.147 C 
BRANCH   9  11
ATOM     11  C   UNL A   1      33.218  23.516  22.924  1.00  0.00     0.256 C 
ATOM     12  O   UNL A   1      34.325  23.479  22.394  1.00  0.00    -0.269 OA
BRANCH  11  13
ATOM     13  C   UNL A   1      32.880  22.400  23.844  1.00  0.00     0.079 A 
ATOM     14  C   UNL A   1      32.500  21.178  23.273  1.00  0.00     0.020 A 
ATOM     15  C   UNL A   1      33.226  22.447  25.199  1.00  0.00     0.174 A 
ATOM     16  C   UNL A   1      32.495  20.014  24.045  1.00  0.00     0.043 A 
ATOM     17  C   UNL A   1      33.262  21.280  25.953  1.00  0.00     0.195 A 
ATOM     18  F   UNL A   1      33.601  23.594  25.783  1.00  0.00    -0.203 F 
ATOM     19  C   UNL A   1      32.904  20.069  25.375  1.00  0.00     0.161 A 
ATOM     20  F   UNL A   1      33.683  21.319  27.225  1.00  0.00    -0.200 F 
ATOM     21  F   UNL A   1      32.968  18.935  26.085  1.00  0.00    -0.204 F 
ENDBRANCH  11  13
ENDBRANCH   9  11
ENDBRANCH   8   9
ENDBRANCH   6   8
ENDBRANCH   3   6
ENDBRANCH   1   2
BRANCH   1  22
ATOM     22  C   UNL A   1      33.200  27.626  25.938  1.00  0.00     0.042 C 
BRANCH  22  23
ATOM     23  C   UNL A   1      33.621  28.869  25.174  1.00  0.00     0.118 C 
BRANCH  23  24
ATOM     24  N   UNL A   1      33.058  30.088  25.753  1.00  0.00    -0.352 N 
ATOM     25  C   UNL A   1      33.396  30.843  26.852  1.00  0.00     0.251 C 
ATOM     26  H   UNL A   1      32.284  30.438  25.258  1.00  0.00     0.163 HD
ATOM     27  O   UNL A   1      32.604  31.714  27.222  1.00  0.00    -0.269 OA
BRANCH  25  28
ATOM     28  C   UNL A   1      34.648  30.645  27.626  1.00  0.00     0.039 A 
ATOM     29  C   UNL A   1      35.601  31.676  27.658  1.00  0.00     0.014 A 
ATOM     30  C   UNL A   1      34.952  29.441  28.255  1.00  0.00     0.014 A 
ATOM     31  C   UNL A   1      36.801  31.520  28.367  1.00  0.00     0.010 A 
ATOM     32  C   UNL A   1      36.084  29.327  29.057  1.00  0.00     0.010 A 
ATOM     33  C   UNL A   1      37.036  30.355  29.110  1.00  0.00    -0.014 A 
BRANCH  33  34
ATOM     34  C   UNL A   1      38.275  30.132  29.907  1.00  0.00     0.031 A 
ATOM     35  C   UNL A   1      39.344  29.212  29.373  1.00  0.00     0.074 A 
ATOM     36  C   UNL A   1      38.397  30.650  31.144  1.00  0.00     0.049 A 
ATOM     37  N   UNL A   1      40.375  28.689  29.987  1.00  0.00    -0.248 NA
ATOM     38  C   UNL A   1      39.210  28.790  27.969  1.00  0.00     0.031 C 
ATOM     39  C   UNL A   1      37.433  31.542  31.788  1.00  0.00     0.029 A 
ATOM     40  N   UNL A   1      39.375  30.479  32.096  1.00  0.00    -0.354 N 
ATOM     41  C   UNL A   1      40.981  27.849  29.059  1.00  0.00     0.074 A 
ATOM     42  C   UNL A   1      40.178  27.893  27.858  1.00  0.00     0.031 C 
ATOM     43  C   UNL A   1      37.873  31.852  33.017  1.00  0.00     0.029 A 
ATOM     44  C   UNL A   1      39.118  31.134  33.277  1.00  0.00     0.049 A 
ATOM     45  H   UNL A   1      40.184  29.938  31.944  1.00  0.00     0.167 HD
ATOM     46  C   UNL A   1      42.119  27.128  29.190  1.00  0.00     0.037 A 
ATOM     47  C   UNL A   1      39.792  31.134  34.444  1.00  0.00     0.037 A 
ATOM     48  C   UNL A   1      42.946  27.136  30.366  1.00  0.00     0.049 A 
ATOM     49  C   UNL A   1      41.045  30.310  34.574  1.00  0.00     0.074 A 
ATOM     50  C   UNL A   1      44.154  26.492  30.571  1.00  0.00     0.029 A 
ATOM     51  N   UNL A   1      42.656  27.830  31.531  1.00  0.00    -0.354 N 
ATOM     52  N   UNL A   1      41.624  29.544  33.681  1.00  0.00    -0.248 NA
ATOM     53  C   UNL A   1      41.736  30.341  35.872  1.00  0.00     0.031 C 
ATOM     54  C   UNL A   1      44.570  26.756  31.878  1.00  0.00     0.029 A 
ATOM     55  C   UNL A   1      43.653  27.611  32.468  1.00  0.00     0.049 A 
ATOM     56  H   UNL A   1      41.861  28.393  31.672  1.00  0.00     0.167 HD
ATOM     57  C   UNL A   1      42.757  29.026  34.297  1.00  0.00     0.074 A 
ATOM     58  C   UNL A   1      42.789  29.570  35.638  1.00  0.00     0.031 C 
ATOM     59  C   UNL A   1      43.683  28.177  33.793  1.00  0.00     0.037 A 
BRANCH  46  60
ATOM     60  C   UNL A   1      42.560  26.282  28.029  1.00  0.00     0.064 A 
ATOM     61  C   UNL A   1      43.437  26.800  27.062  1.00  0.00     0.173 A 
ATOM     62  C   UNL A   1      42.053  24.990  27.826  1.00  0.00     0.173 A 
ATOM     63  F   UNL A   1      43.945  28.034  27.201  1.00  0.00    -0.203 F 
ATOM     64  C   UNL A   1      43.775  26.062  25.931  1.00  0.00     0.198 A 
ATOM     65  C   UNL A   1      42.421  24.241  26.712  1.00  0.00     0.198 A 
ATOM     66  F   UNL A   1      41.218  24.445  28.724  1.00  0.00    -0.203 F 
ATOM     67  F   UNL A   1      44.582  26.593  25.002  1.00  0.00    -0.200 F 
ATOM     68  C   UNL A   1      43.271  24.782  25.760  1.00  0.00     0.200 A 
ATOM     69  F   UNL A   1      41.952  22.995  26.561  1.00  0.00    -0.200 F 
ATOM     70  F   UNL A   1      43.604  24.068  24.675  1.00  0.00    -0.200 F 
ENDBRANCH  46  60
BRANCH  47  71
ATOM     71  C   UNL A   1      39.300  31.967  35.575  1.00  0.00     0.064 A 
ATOM     72  C   UNL A   1      39.723  33.293  35.753  1.00  0.00     0.173 A 
ATOM     73  C   UNL A   1      38.425  31.430  36.528  1.00  0.00     0.173 A 
ATOM     74  F   UNL A   1      40.564  33.855  34.873  1.00  0.00    -0.203 F 
ATOM     75  C   UNL A   1      39.310  34.038  36.856  1.00  0.00     0.198 A 
ATOM     76  C   UNL A   1      37.989  32.186  37.615  1.00  0.00     0.198 A 
ATOM     77  F   UNL A   1      37.975  30.174  36.391  1.00  0.00    -0.203 F 
ATOM     78  F   UNL A   1      39.765  35.288  37.026  1.00  0.00    -0.200 F 
ATOM     79  C   UNL A   1      38.441  33.485  37.784  1.00  0.00     0.200 A 
ATOM     80  F   UNL A   1      37.132  31.655  38.497  1.00  0.00    -0.200 F 
ATOM     81  F   UNL A   1      38.042  34.204  38.842  1.00  0.00    -0.200 F 
ENDBRANCH  47  71
BRANCH  59  82
ATOM     82  C   UNL A   1      44.841  27.788  34.665  1.00  0.00     0.064 A 
ATOM     83  C   UNL A   1      46.040  28.515  34.613  1.00  0.00     0.173 A 
ATOM     84  C   UNL A   1      44.811  26.620  35.439  1.00  0.00     0.173 A 
ATOM     85  F   UNL A   1      46.120  29.634  33.877  1.00  0.00    -0.203 F 
ATOM     86  C   UNL A   1      47.178  28.068  35.277  1.00  0.00     0.198 A 
ATOM     87  C   UNL A   1      45.944  26.190  36.125  1.00  0.00     0.198 A 
ATOM     88  F   UNL A   1      43.685  25.897  35.528  1.00  0.00    -0.203 F 
ATOM     89  F   UNL A   1      48.328  28.748  35.166  1.00  0.00    -0.200 F 
ATOM     90  C   UNL A   1      47.130  26.905  36.030  1.00  0.00     0.200 A 
ATOM     91  F   UNL A   1      45.893  25.076  36.868  1.00  0.00    -0.200 F 
ATOM     92  F   UNL A   1      48.229  26.468  36.661  1.00  0.00    -0.200 F 
ENDBRANCH  59  82
ENDBRANCH  33  34
ENDBRANCH  25  28
ENDBRANCH  23  24
ENDBRANCH  22  23
ENDBRANCH   1  22
TORSDOF 14
ENDMDL
