MODEL 1
REMARK VINA RESULT:     -12.2      0.000      0.000
REMARK SMILES C[C@](NC(=O)[C@](C)([NH3+])C(F)(F)F)(C(=O)NCCCNC(=O)c1ccc(-c2c3nc(c(-c4c(F)c(F)c(F)c(F)c4F)c4ccc([nH]4)c(-c4c(F)c(F)c(F)c(F)c4F)c4nc(c(-c5c(F)c(F)c(F)c(F)c5F)c5ccc2[nH]5)C=C4)C=C3)cc1)c1ccccc1
REMARK SMILES IDX 16 1 15 2 13 3 14 4 2 6 1 7 85 8 86 9 90 10 87 11 89 12
REMARK SMILES IDX 88 13 3 14 4 15 5 17 6 18 7 19 8 20 9 24 10 25 11 26 12 27
REMARK SMILES IDX 17 28 18 29 19 30 20 31 21 33 22 34 23 35 84 36 24 37 83 38
REMARK SMILES IDX 25 39 26 40 27 41 77 42 28 43 82 44 76 45 78 46 29 47 81 48
REMARK SMILES IDX 75 49 74 50 30 52 62 53 42 54 61 55 43 56 46 57 60 58 79 59
REMARK SMILES IDX 44 60 45 61 59 63 80 64 47 65 31 66 32 67 40 68 33 69 34 70
REMARK SMILES IDX 38 71 41 72 35 73 36 74 39 75 37 76 63 77 64 78 72 79 65 80
REMARK SMILES IDX 66 81 70 82 73 83 67 84 68 85 71 86 69 87 48 88 49 89 57 90
REMARK SMILES IDX 50 91 51 92 55 93 58 94 52 95 53 96 56 97 54 98
REMARK H PARENT 15 5 3 16 8 21 8 22 8 23 19 32 78 51 46 62
REMARK Flexibility Score: inf
ROOT
ATOM      1  C   UNL A   1      32.393  28.588  25.046  1.00  0.00     0.117 C 
ENDROOT
BRANCH   1   2
ATOM      2  N   UNL A   1      31.746  27.450  25.680  1.00  0.00    -0.354 N 
ATOM      3  C   UNL A   1      31.074  26.373  25.172  1.00  0.00     0.250 C 
ATOM      4  O   UNL A   1      30.776  25.504  25.995  1.00  0.00    -0.272 OA
ATOM      5  H   UNL A   1      31.803  27.456  26.663  1.00  0.00     0.163 HD
BRANCH   3   6
ATOM      6  C   UNL A   1      30.826  26.209  23.618  1.00  0.00     0.142 C 
ATOM      7  C   UNL A   1      30.117  24.850  23.458  1.00  0.00     0.051 C 
BRANCH   6   8
ATOM      8  C   UNL A   1      29.978  27.394  23.125  1.00  0.00    -0.013 A 
ATOM      9  C   UNL A   1      30.542  28.424  22.348  1.00  0.00     0.007 A 
ATOM     10  C   UNL A   1      28.615  27.501  23.464  1.00  0.00     0.007 A 
ATOM     11  C   UNL A   1      29.816  29.575  22.043  1.00  0.00     0.000 A 
ATOM     12  C   UNL A   1      27.891  28.655  23.160  1.00  0.00     0.000 A 
ATOM     13  C   UNL A   1      28.499  29.701  22.472  1.00  0.00     0.000 A 
ENDBRANCH   6   8
BRANCH   6  14
ATOM     14  N   UNL A   1      32.160  26.203  22.956  1.00  0.00    -0.332 N 
ATOM     15  C   UNL A   1      33.334  25.530  23.010  1.00  0.00     0.291 C 
ATOM     16  H   UNL A   1      32.202  26.905  22.267  1.00  0.00     0.165 HD
ATOM     17  O   UNL A   1      34.163  25.959  22.191  1.00  0.00    -0.267 OA
BRANCH  15  18
ATOM     18  C   UNL A   1      33.718  24.360  23.948  1.00  0.00     0.267 C 
ATOM     19  C   UNL A   1      34.730  23.464  23.195  1.00  0.00     0.100 C 
BRANCH  18  20
ATOM     20  N   UNL A   1      32.576  23.449  24.236  1.00  0.00    -0.337 N 
ATOM     21  H   UNL A   1      32.925  22.589  24.660  1.00  0.00     0.345 HD
ATOM     22  H   UNL A   1      32.090  23.228  23.368  1.00  0.00     0.345 HD
ATOM     23  H   UNL A   1      31.930  23.907  24.881  1.00  0.00     0.345 HD
ENDBRANCH  18  20
BRANCH  18  24
ATOM     24  C   UNL A   1      34.452  24.953  25.170  1.00  0.00     0.453 C 
ATOM     25  F   UNL A   1      33.787  24.686  26.323  1.00  0.00    -0.164 F 
ATOM     26  F   UNL A   1      35.702  24.462  25.316  1.00  0.00    -0.164 F 
ATOM     27  F   UNL A   1      34.561  26.297  25.099  1.00  0.00    -0.164 F 
ENDBRANCH  18  24
ENDBRANCH  15  18
ENDBRANCH   6  14
ENDBRANCH   3   6
ENDBRANCH   1   2
BRANCH   1  28
ATOM     28  C   UNL A   1      31.826  29.909  25.545  1.00  0.00     0.042 C 
BRANCH  28  29
ATOM     29  C   UNL A   1      32.431  30.392  26.857  1.00  0.00     0.118 C 
BRANCH  29  30
ATOM     30  N   UNL A   1      32.523  31.842  26.945  1.00  0.00    -0.352 N 
ATOM     31  C   UNL A   1      33.481  32.627  27.542  1.00  0.00     0.251 C 
ATOM     32  H   UNL A   1      31.788  32.334  26.513  1.00  0.00     0.163 HD
ATOM     33  O   UNL A   1      33.301  33.833  27.652  1.00  0.00    -0.269 OA
BRANCH  31  34
ATOM     34  C   UNL A   1      34.714  32.012  28.077  1.00  0.00     0.039 A 
ATOM     35  C   UNL A   1      35.855  32.806  28.219  1.00  0.00     0.014 A 
ATOM     36  C   UNL A   1      34.748  30.666  28.449  1.00  0.00     0.014 A 
ATOM     37  C   UNL A   1      37.002  32.268  28.803  1.00  0.00     0.010 A 
ATOM     38  C   UNL A   1      35.859  30.158  29.115  1.00  0.00     0.010 A 
ATOM     39  C   UNL A   1      36.999  30.953  29.299  1.00  0.00    -0.014 A 
BRANCH  39  40
ATOM     40  C   UNL A   1      38.175  30.407  30.025  1.00  0.00     0.031 A 
ATOM     41  C   UNL A   1      38.455  30.819  31.444  1.00  0.00     0.074 A 
ATOM     42  C   UNL A   1      39.022  29.579  29.383  1.00  0.00     0.049 A 
ATOM     43  N   UNL A   1      39.444  30.469  32.227  1.00  0.00    -0.248 NA
ATOM     44  C   UNL A   1      37.515  31.771  32.056  1.00  0.00     0.031 C 
ATOM     45  C   UNL A   1      38.894  29.154  27.988  1.00  0.00     0.029 A 
ATOM     46  N   UNL A   1      40.161  28.949  29.817  1.00  0.00    -0.354 N 
ATOM     47  C   UNL A   1      39.250  31.162  33.415  1.00  0.00     0.074 A 
ATOM     48  C   UNL A   1      38.086  32.001  33.229  1.00  0.00     0.031 C 
ATOM     49  C   UNL A   1      39.893  28.307  27.691  1.00  0.00     0.029 A 
ATOM     50  C   UNL A   1      40.754  28.161  28.859  1.00  0.00     0.049 A 
ATOM     51  H   UNL A   1      40.520  29.051  30.728  1.00  0.00     0.167 HD
ATOM     52  C   UNL A   1      39.961  31.085  34.565  1.00  0.00     0.037 A 
ATOM     53  C   UNL A   1      41.868  27.408  28.916  1.00  0.00     0.037 A 
ATOM     54  C   UNL A   1      41.110  30.236  34.750  1.00  0.00     0.049 A 
ATOM     55  C   UNL A   1      42.643  27.344  30.205  1.00  0.00     0.074 A 
ATOM     56  C   UNL A   1      41.865  30.043  35.894  1.00  0.00     0.029 A 
ATOM     57  N   UNL A   1      41.673  29.443  33.761  1.00  0.00    -0.354 N 
ATOM     58  N   UNL A   1      42.403  27.943  31.346  1.00  0.00    -0.248 NA
ATOM     59  C   UNL A   1      43.838  26.491  30.215  1.00  0.00     0.031 C 
ATOM     60  C   UNL A   1      42.918  29.178  35.582  1.00  0.00     0.029 A 
ATOM     61  C   UNL A   1      42.783  28.779  34.262  1.00  0.00     0.049 A 
ATOM     62  H   UNL A   1      41.335  29.364  32.840  1.00  0.00     0.167 HD
ATOM     63  C   UNL A   1      43.397  27.515  32.218  1.00  0.00     0.074 A 
ATOM     64  C   UNL A   1      44.230  26.592  31.477  1.00  0.00     0.031 C 
ATOM     65  C   UNL A   1      43.602  27.859  33.514  1.00  0.00     0.037 A 
BRANCH  52  66
ATOM     66  C   UNL A   1      39.515  31.942  35.717  1.00  0.00     0.064 A 
ATOM     67  C   UNL A   1      40.040  33.227  35.927  1.00  0.00     0.173 A 
ATOM     68  C   UNL A   1      38.523  31.488  36.600  1.00  0.00     0.173 A 
ATOM     69  F   UNL A   1      40.998  33.706  35.120  1.00  0.00    -0.203 F 
ATOM     70  C   UNL A   1      39.612  34.012  36.994  1.00  0.00     0.198 A 
ATOM     71  C   UNL A   1      38.073  32.290  37.647  1.00  0.00     0.198 A 
ATOM     72  F   UNL A   1      37.983  30.270  36.444  1.00  0.00    -0.203 F 
ATOM     73  F   UNL A   1      40.166  35.213  37.206  1.00  0.00    -0.200 F 
ATOM     74  C   UNL A   1      38.622  33.546  37.848  1.00  0.00     0.200 A 
ATOM     75  F   UNL A   1      37.106  31.844  38.461  1.00  0.00    -0.200 F 
ATOM     76  F   UNL A   1      38.204  34.307  38.869  1.00  0.00    -0.200 F 
ENDBRANCH  52  66
BRANCH  53  77
ATOM     77  C   UNL A   1      42.304  26.631  27.725  1.00  0.00     0.064 A 
ATOM     78  C   UNL A   1      41.778  25.358  27.462  1.00  0.00     0.173 A 
ATOM     79  C   UNL A   1      43.259  27.138  26.832  1.00  0.00     0.173 A 
ATOM     80  F   UNL A   1      40.876  24.820  28.298  1.00  0.00    -0.203 F 
ATOM     81  C   UNL A   1      42.208  24.612  26.368  1.00  0.00     0.198 A 
ATOM     82  C   UNL A   1      43.665  26.405  25.719  1.00  0.00     0.198 A 
ATOM     83  F   UNL A   1      43.789  28.353  27.034  1.00  0.00    -0.203 F 
ATOM     84  F   UNL A   1      41.729  23.376  26.171  1.00  0.00    -0.200 F 
ATOM     85  C   UNL A   1      43.147  25.138  25.493  1.00  0.00     0.200 A 
ATOM     86  F   UNL A   1      44.560  26.924  24.867  1.00  0.00    -0.200 F 
ATOM     87  F   UNL A   1      43.559  24.421  24.438  1.00  0.00    -0.200 F 
ENDBRANCH  53  77
BRANCH  65  88
ATOM     88  C   UNL A   1      44.750  27.200  34.224  1.00  0.00     0.064 A 
ATOM     89  C   UNL A   1      46.024  27.784  34.275  1.00  0.00     0.173 A 
ATOM     90  C   UNL A   1      44.565  25.973  34.882  1.00  0.00     0.173 A 
ATOM     91  F   UNL A   1      46.258  28.949  33.651  1.00  0.00    -0.203 F 
ATOM     92  C   UNL A   1      47.079  27.147  34.924  1.00  0.00     0.198 A 
ATOM     93  C   UNL A   1      45.612  25.358  35.561  1.00  0.00     0.198 A 
ATOM     94  F   UNL A   1      43.365  25.374  34.873  1.00  0.00    -0.203 F 
ATOM     95  F   UNL A   1      48.302  27.693  34.904  1.00  0.00    -0.200 F 
ATOM     96  C   UNL A   1      46.871  25.939  35.571  1.00  0.00     0.200 A 
ATOM     97  F   UNL A   1      45.405  24.199  36.201  1.00  0.00    -0.200 F 
ATOM     98  F   UNL A   1      47.886  25.329  36.198  1.00  0.00    -0.200 F 
ENDBRANCH  65  88
ENDBRANCH  39  40
ENDBRANCH  31  34
ENDBRANCH  29  30
ENDBRANCH  28  29
ENDBRANCH   1  28
TORSDOF 15
ENDMDL
MODEL 2
REMARK VINA RESULT:     -12.1      1.194      1.862
REMARK SMILES C[C@](NC(=O)[C@](C)([NH3+])C(F)(F)F)(C(=O)NCCCNC(=O)c1ccc(-c2c3nc(c(-c4c(F)c(F)c(F)c(F)c4F)c4ccc([nH]4)c(-c4c(F)c(F)c(F)c(F)c4F)c4nc(c(-c5c(F)c(F)c(F)c(F)c5F)c5ccc2[nH]5)C=C4)C=C3)cc1)c1ccccc1
REMARK SMILES IDX 16 1 15 2 13 3 14 4 2 6 1 7 85 8 86 9 90 10 87 11 89 12
REMARK SMILES IDX 88 13 3 14 4 15 5 17 6 18 7 19 8 20 9 24 10 25 11 26 12 27
REMARK SMILES IDX 17 28 18 29 19 30 20 31 21 33 22 34 23 35 84 36 24 37 83 38
REMARK SMILES IDX 25 39 26 40 27 41 77 42 28 43 82 44 76 45 78 46 29 47 81 48
REMARK SMILES IDX 75 49 74 50 30 52 62 53 42 54 61 55 43 56 46 57 60 58 79 59
REMARK SMILES IDX 44 60 45 61 59 63 80 64 47 65 31 66 32 67 40 68 33 69 34 70
REMARK SMILES IDX 38 71 41 72 35 73 36 74 39 75 37 76 63 77 64 78 72 79 65 80
REMARK SMILES IDX 66 81 70 82 73 83 67 84 68 85 71 86 69 87 48 88 49 89 57 90
REMARK SMILES IDX 50 91 51 92 55 93 58 94 52 95 53 96 56 97 54 98
REMARK H PARENT 15 5 3 16 8 21 8 22 8 23 19 32 78 51 46 62
REMARK Flexibility Score: inf
ROOT
ATOM      1  C   UNL A   1      32.256  27.521  26.896  1.00  0.00     0.117 C 
ENDROOT
BRANCH   1   2
ATOM      2  N   UNL A   1      31.147  26.580  26.913  1.00  0.00    -0.354 N 
ATOM      3  C   UNL A   1      30.829  25.518  26.111  1.00  0.00     0.250 C 
ATOM      4  O   UNL A   1      29.881  24.831  26.501  1.00  0.00    -0.272 OA
ATOM      5  H   UNL A   1      30.502  26.736  27.640  1.00  0.00     0.163 HD
BRANCH   3   6
ATOM      6  C   UNL A   1      31.710  25.137  24.854  1.00  0.00     0.142 C 
ATOM      7  C   UNL A   1      31.023  23.906  24.231  1.00  0.00     0.051 C 
BRANCH   6   8
ATOM      8  C   UNL A   1      31.762  26.345  23.902  1.00  0.00    -0.013 A 
ATOM      9  C   UNL A   1      32.988  26.911  23.504  1.00  0.00     0.007 A 
ATOM     10  C   UNL A   1      30.579  26.943  23.425  1.00  0.00     0.007 A 
ATOM     11  C   UNL A   1      33.030  28.100  22.778  1.00  0.00     0.000 A 
ATOM     12  C   UNL A   1      30.623  28.135  22.700  1.00  0.00     0.000 A 
ATOM     13  C   UNL A   1      31.846  28.726  22.399  1.00  0.00     0.000 A 
ENDBRANCH   6   8
BRANCH   6  14
ATOM     14  N   UNL A   1      33.072  24.801  25.354  1.00  0.00    -0.332 N 
ATOM     15  C   UNL A   1      34.127  24.019  25.023  1.00  0.00     0.291 C 
ATOM     16  H   UNL A   1      33.265  25.301  26.180  1.00  0.00     0.165 HD
ATOM     17  O   UNL A   1      35.064  24.121  25.831  1.00  0.00    -0.267 OA
BRANCH  15  18
ATOM     18  C   UNL A   1      34.259  23.060  23.815  1.00  0.00     0.267 C 
ATOM     19  C   UNL A   1      35.765  22.914  23.490  1.00  0.00     0.100 C 
BRANCH  18  20
ATOM     20  N   UNL A   1      33.673  23.618  22.565  1.00  0.00    -0.337 N 
ATOM     21  H   UNL A   1      34.141  23.206  21.756  1.00  0.00     0.345 HD
ATOM     22  H   UNL A   1      33.799  24.630  22.552  1.00  0.00     0.345 HD
ATOM     23  H   UNL A   1      32.677  23.398  22.529  1.00  0.00     0.345 HD
ENDBRANCH  18  20
BRANCH  18  24
ATOM     24  C   UNL A   1      33.749  21.670  24.254  1.00  0.00     0.453 C 
ATOM     25  F   UNL A   1      34.766  20.778  24.349  1.00  0.00    -0.164 F 
ATOM     26  F   UNL A   1      33.137  21.697  25.459  1.00  0.00    -0.164 F 
ATOM     27  F   UNL A   1      32.866  21.148  23.375  1.00  0.00    -0.164 F 
ENDBRANCH  18  24
ENDBRANCH  15  18
ENDBRANCH   6  14
ENDBRANCH   3   6
ENDBRANCH   1   2
BRANCH   1  28
ATOM     28  C   UNL A   1      31.778  28.951  26.691  1.00  0.00     0.042 C 
BRANCH  28  29
ATOM     29  C   UNL A   1      32.812  29.869  26.052  1.00  0.00     0.118 C 
BRANCH  29  30
ATOM     30  N   UNL A   1      32.659  31.263  26.444  1.00  0.00    -0.352 N 
ATOM     31  C   UNL A   1      33.410  32.019  27.312  1.00  0.00     0.251 C 
ATOM     32  H   UNL A   1      31.904  31.734  26.024  1.00  0.00     0.163 HD
ATOM     33  O   UNL A   1      33.028  33.136  27.639  1.00  0.00    -0.269 OA
BRANCH  31  34
ATOM     34  C   UNL A   1      34.665  31.474  27.875  1.00  0.00     0.039 A 
ATOM     35  C   UNL A   1      35.769  32.321  28.001  1.00  0.00     0.014 A 
ATOM     36  C   UNL A   1      34.753  30.142  28.285  1.00  0.00     0.014 A 
ATOM     37  C   UNL A   1      36.933  31.850  28.610  1.00  0.00     0.010 A 
ATOM     38  C   UNL A   1      35.879  29.703  28.975  1.00  0.00     0.010 A 
ATOM     39  C   UNL A   1      36.982  30.551  29.144  1.00  0.00    -0.014 A 
BRANCH  39  40
ATOM     40  C   UNL A   1      38.174  30.078  29.894  1.00  0.00     0.031 A 
ATOM     41  C   UNL A   1      38.451  30.582  31.284  1.00  0.00     0.074 A 
ATOM     42  C   UNL A   1      39.038  29.232  29.299  1.00  0.00     0.049 A 
ATOM     43  N   UNL A   1      39.452  30.303  32.081  1.00  0.00    -0.248 NA
ATOM     44  C   UNL A   1      37.492  31.547  31.843  1.00  0.00     0.031 C 
ATOM     45  C   UNL A   1      38.913  28.721  27.932  1.00  0.00     0.029 A 
ATOM     46  N   UNL A   1      40.193  28.657  29.763  1.00  0.00    -0.354 N 
ATOM     47  C   UNL A   1      39.247  31.063  33.226  1.00  0.00     0.074 A 
ATOM     48  C   UNL A   1      38.063  31.862  32.996  1.00  0.00     0.031 C 
ATOM     49  C   UNL A   1      39.930  27.881  27.682  1.00  0.00     0.029 A 
ATOM     50  C   UNL A   1      40.800  27.826  28.851  1.00  0.00     0.049 A 
ATOM     51  H   UNL A   1      40.554  28.822  30.664  1.00  0.00     0.167 HD
ATOM     52  C   UNL A   1      39.965  31.072  34.374  1.00  0.00     0.037 A 
ATOM     53  C   UNL A   1      41.932  27.104  28.947  1.00  0.00     0.037 A 
ATOM     54  C   UNL A   1      41.134  30.263  34.603  1.00  0.00     0.049 A 
ATOM     55  C   UNL A   1      42.714  27.137  30.232  1.00  0.00     0.074 A 
ATOM     56  C   UNL A   1      41.899  30.158  35.752  1.00  0.00     0.029 A 
ATOM     57  N   UNL A   1      41.712  29.425  33.660  1.00  0.00    -0.354 N 
ATOM     58  N   UNL A   1      42.466  27.798  31.337  1.00  0.00    -0.248 NA
ATOM     59  C   UNL A   1      43.930  26.314  30.287  1.00  0.00     0.031 C 
ATOM     60  C   UNL A   1      42.971  29.300  35.486  1.00  0.00     0.029 A 
ATOM     61  C   UNL A   1      42.839  28.819  34.194  1.00  0.00     0.049 A 
ATOM     62  H   UNL A   1      41.372  29.282  32.747  1.00  0.00     0.167 HD
ATOM     63  C   UNL A   1      43.473  27.448  32.226  1.00  0.00     0.074 A 
ATOM     64  C   UNL A   1      44.324  26.501  31.538  1.00  0.00     0.031 C 
ATOM     65  C   UNL A   1      43.676  27.875  33.498  1.00  0.00     0.037 A 
BRANCH  52  66
ATOM     66  C   UNL A   1      39.505  31.987  35.474  1.00  0.00     0.064 A 
ATOM     67  C   UNL A   1      39.933  33.321  35.552  1.00  0.00     0.173 A 
ATOM     68  C   UNL A   1      38.594  31.535  36.441  1.00  0.00     0.173 A 
ATOM     69  F   UNL A   1      40.812  33.803  34.660  1.00  0.00    -0.203 F 
ATOM     70  C   UNL A   1      39.492  34.159  36.574  1.00  0.00     0.198 A 
ATOM     71  C   UNL A   1      38.129  32.386  37.442  1.00  0.00     0.198 A 
ATOM     72  F   UNL A   1      38.147  30.271  36.413  1.00  0.00    -0.203 F 
ATOM     73  F   UNL A   1      39.957  35.413  36.658  1.00  0.00    -0.200 F 
ATOM     74  C   UNL A   1      38.584  33.693  37.512  1.00  0.00     0.200 A 
ATOM     75  F   UNL A   1      37.239  31.938  38.339  1.00  0.00    -0.200 F 
ATOM     76  F   UNL A   1      38.153  34.503  38.489  1.00  0.00    -0.200 F 
ENDBRANCH  52  66
BRANCH  53  77
ATOM     77  C   UNL A   1      42.380  26.267  27.803  1.00  0.00     0.064 A 
ATOM     78  C   UNL A   1      43.360  26.727  26.912  1.00  0.00     0.173 A 
ATOM     79  C   UNL A   1      41.834  24.996  27.569  1.00  0.00     0.173 A 
ATOM     80  F   UNL A   1      43.900  27.943  27.079  1.00  0.00    -0.203 F 
ATOM     81  C   UNL A   1      43.758  25.961  25.818  1.00  0.00     0.198 A 
ATOM     82  C   UNL A   1      42.255  24.217  26.495  1.00  0.00     0.198 A 
ATOM     83  F   UNL A   1      40.897  24.506  28.395  1.00  0.00    -0.203 F 
ATOM     84  F   UNL A   1      44.657  26.448  24.952  1.00  0.00    -0.200 F 
ATOM     85  C   UNL A   1      43.209  24.704  25.614  1.00  0.00     0.200 A 
ATOM     86  F   UNL A   1      41.735  22.996  26.310  1.00  0.00    -0.200 F 
ATOM     87  F   UNL A   1      43.594  23.965  24.563  1.00  0.00    -0.200 F 
ENDBRANCH  53  77
BRANCH  65  88
ATOM     88  C   UNL A   1      44.843  27.287  34.240  1.00  0.00     0.064 A 
ATOM     89  C   UNL A   1      46.104  27.900  34.244  1.00  0.00     0.173 A 
ATOM     90  C   UNL A   1      44.690  26.100  34.975  1.00  0.00     0.173 A 
ATOM     91  F   UNL A   1      46.308  29.029  33.546  1.00  0.00    -0.203 F 
ATOM     92  C   UNL A   1      47.177  27.329  34.924  1.00  0.00     0.198 A 
ATOM     93  C   UNL A   1      45.754  25.552  35.684  1.00  0.00     0.198 A 
ATOM     94  F   UNL A   1      43.503  25.476  35.013  1.00  0.00    -0.203 F 
ATOM     95  F   UNL A   1      48.387  27.900  34.861  1.00  0.00    -0.200 F 
ATOM     96  C   UNL A   1      47.000  26.160  35.648  1.00  0.00     0.200 A 
ATOM     97  F   UNL A   1      45.577  24.432  36.396  1.00  0.00    -0.200 F 
ATOM     98  F   UNL A   1      48.033  25.613  36.304  1.00  0.00    -0.200 F 
ENDBRANCH  65  88
ENDBRANCH  39  40
ENDBRANCH  31  34
ENDBRANCH  29  30
ENDBRANCH  28  29
ENDBRANCH   1  28
TORSDOF 15
ENDMDL
MODEL 3
REMARK VINA RESULT:     -12.1      5.021      8.691
REMARK SMILES C[C@](NC(=O)[C@](C)([NH3+])C(F)(F)F)(C(=O)NCCCNC(=O)c1ccc(-c2c3nc(c(-c4c(F)c(F)c(F)c(F)c4F)c4ccc([nH]4)c(-c4c(F)c(F)c(F)c(F)c4F)c4nc(c(-c5c(F)c(F)c(F)c(F)c5F)c5ccc2[nH]5)C=C4)C=C3)cc1)c1ccccc1
REMARK SMILES IDX 16 1 15 2 13 3 14 4 2 6 1 7 85 8 86 9 90 10 87 11 89 12
REMARK SMILES IDX 88 13 3 14 4 15 5 17 6 18 7 19 8 20 9 24 10 25 11 26 12 27
REMARK SMILES IDX 17 28 18 29 19 30 20 31 21 33 22 34 23 35 84 36 24 37 83 38
REMARK SMILES IDX 25 39 26 40 27 41 77 42 28 43 82 44 76 45 78 46 29 47 81 48
REMARK SMILES IDX 75 49 74 50 30 52 62 53 42 54 61 55 43 56 46 57 60 58 79 59
REMARK SMILES IDX 44 60 45 61 59 63 80 64 47 65 31 66 32 67 40 68 33 69 34 70
REMARK SMILES IDX 38 71 41 72 35 73 36 74 39 75 37 76 63 77 64 78 72 79 65 80
REMARK SMILES IDX 66 81 70 82 73 83 67 84 68 85 71 86 69 87 48 88 49 89 57 90
REMARK SMILES IDX 50 91 51 92 55 93 58 94 52 95 53 96 56 97 54 98
REMARK H PARENT 15 5 3 16 8 21 8 22 8 23 19 32 78 51 46 62
REMARK Flexibility Score: inf
ROOT
ATOM      1  C   UNL A   1      36.673  21.093  24.848  1.00  0.00     0.117 C 
ENDROOT
BRANCH   1   2
ATOM      2  N   UNL A   1      35.890  21.303  26.055  1.00  0.00    -0.354 N 
ATOM      3  C   UNL A   1      34.557  21.148  26.325  1.00  0.00     0.250 C 
ATOM      4  O   UNL A   1      34.245  21.274  27.512  1.00  0.00    -0.272 OA
ATOM      5  H   UNL A   1      36.418  21.616  26.824  1.00  0.00     0.163 HD
BRANCH   3   6
ATOM      6  C   UNL A   1      33.531  20.707  25.206  1.00  0.00     0.142 C 
ATOM      7  C   UNL A   1      33.986  21.430  23.924  1.00  0.00     0.051 C 
BRANCH   6   8
ATOM      8  C   UNL A   1      33.566  19.174  25.079  1.00  0.00    -0.013 A 
ATOM      9  C   UNL A   1      34.493  18.530  24.237  1.00  0.00     0.007 A 
ATOM     10  C   UNL A   1      32.647  18.367  25.779  1.00  0.00     0.007 A 
ATOM     11  C   UNL A   1      34.416  17.158  23.998  1.00  0.00     0.000 A 
ATOM     12  C   UNL A   1      32.571  16.994  25.536  1.00  0.00     0.000 A 
ATOM     13  C   UNL A   1      33.437  16.396  24.627  1.00  0.00     0.000 A 
ENDBRANCH   6   8
BRANCH   6  14
ATOM     14  N   UNL A   1      32.182  21.168  25.637  1.00  0.00    -0.332 N 
ATOM     15  C   UNL A   1      31.440  22.301  25.661  1.00  0.00     0.291 C 
ATOM     16  H   UNL A   1      31.672  20.420  26.023  1.00  0.00     0.165 HD
ATOM     17  O   UNL A   1      30.317  22.121  26.160  1.00  0.00    -0.267 OA
BRANCH  15  18
ATOM     18  C   UNL A   1      31.842  23.713  25.170  1.00  0.00     0.267 C 
ATOM     19  C   UNL A   1      30.570  24.593  25.171  1.00  0.00     0.100 C 
BRANCH  18  20
ATOM     20  N   UNL A   1      32.289  23.728  23.751  1.00  0.00    -0.337 N 
ATOM     21  H   UNL A   1      33.246  23.379  23.691  1.00  0.00     0.345 HD
ATOM     22  H   UNL A   1      32.252  24.682  23.392  1.00  0.00     0.345 HD
ATOM     23  H   UNL A   1      31.675  23.131  23.194  1.00  0.00     0.345 HD
ENDBRANCH  18  20
BRANCH  18  24
ATOM     24  C   UNL A   1      32.816  24.316  26.205  1.00  0.00     0.453 C 
ATOM     25  F   UNL A   1      32.689  23.711  27.413  1.00  0.00    -0.164 F 
ATOM     26  F   UNL A   1      34.111  24.190  25.837  1.00  0.00    -0.164 F 
ATOM     27  F   UNL A   1      32.592  25.631  26.415  1.00  0.00    -0.164 F 
ENDBRANCH  18  24
ENDBRANCH  15  18
ENDBRANCH   6  14
ENDBRANCH   3   6
ENDBRANCH   1   2
BRANCH   1  28
ATOM     28  C   UNL A   1      37.684  19.968  25.022  1.00  0.00     0.042 C 
BRANCH  28  29
ATOM     29  C   UNL A   1      38.953  20.378  25.757  1.00  0.00     0.118 C 
BRANCH  29  30
ATOM     30  N   UNL A   1      39.923  19.298  25.870  1.00  0.00    -0.352 N 
ATOM     31  C   UNL A   1      41.281  19.354  26.075  1.00  0.00     0.251 C 
ATOM     32  H   UNL A   1      39.549  18.391  25.787  1.00  0.00     0.163 HD
ATOM     33  O   UNL A   1      41.957  18.337  25.980  1.00  0.00    -0.269 OA
BRANCH  31  34
ATOM     34  C   UNL A   1      41.931  20.647  26.381  1.00  0.00     0.039 A 
ATOM     35  C   UNL A   1      42.346  21.457  25.321  1.00  0.00     0.014 A 
ATOM     36  C   UNL A   1      42.121  21.067  27.699  1.00  0.00     0.014 A 
ATOM     37  C   UNL A   1      42.881  22.719  25.586  1.00  0.00     0.010 A 
ATOM     38  C   UNL A   1      42.566  22.359  27.958  1.00  0.00     0.010 A 
ATOM     39  C   UNL A   1      42.952  23.200  26.904  1.00  0.00    -0.014 A 
BRANCH  39  40
ATOM     40  C   UNL A   1      43.413  24.583  27.191  1.00  0.00     0.031 A 
ATOM     41  C   UNL A   1      42.458  25.606  27.741  1.00  0.00     0.074 A 
ATOM     42  C   UNL A   1      44.681  24.931  26.900  1.00  0.00     0.049 A 
ATOM     43  N   UNL A   1      42.670  26.866  28.028  1.00  0.00    -0.248 NA
ATOM     44  C   UNL A   1      41.075  25.164  27.977  1.00  0.00     0.031 C 
ATOM     45  C   UNL A   1      45.686  24.047  26.305  1.00  0.00     0.029 A 
ATOM     46  N   UNL A   1      45.344  26.122  27.063  1.00  0.00    -0.354 N 
ATOM     47  C   UNL A   1      41.451  27.366  28.466  1.00  0.00     0.074 A 
ATOM     48  C   UNL A   1      40.488  26.293  28.349  1.00  0.00     0.031 C 
ATOM     49  C   UNL A   1      46.844  24.714  26.185  1.00  0.00     0.029 A 
ATOM     50  C   UNL A   1      46.656  26.082  26.655  1.00  0.00     0.049 A 
ATOM     51  H   UNL A   1      44.921  26.928  27.436  1.00  0.00     0.167 HD
ATOM     52  C   UNL A   1      41.167  28.599  28.949  1.00  0.00     0.037 A 
ATOM     53  C   UNL A   1      47.600  27.042  26.657  1.00  0.00     0.037 A 
ATOM     54  C   UNL A   1      42.133  29.659  29.079  1.00  0.00     0.049 A 
ATOM     55  C   UNL A   1      47.256  28.405  27.194  1.00  0.00     0.074 A 
ATOM     56  C   UNL A   1      41.958  30.926  29.609  1.00  0.00     0.029 A 
ATOM     57  N   UNL A   1      43.455  29.578  28.666  1.00  0.00    -0.354 N 
ATOM     58  N   UNL A   1      46.119  28.841  27.681  1.00  0.00    -0.248 NA
ATOM     59  C   UNL A   1      48.330  29.406  27.191  1.00  0.00     0.031 C 
ATOM     60  C   UNL A   1      43.158  31.629  29.466  1.00  0.00     0.029 A 
ATOM     61  C   UNL A   1      44.100  30.781  28.907  1.00  0.00     0.049 A 
ATOM     62  H   UNL A   1      43.873  28.783  28.263  1.00  0.00     0.167 HD
ATOM     63  C   UNL A   1      46.349  30.154  28.070  1.00  0.00     0.074 A 
ATOM     64  C   UNL A   1      47.740  30.436  27.780  1.00  0.00     0.031 C 
ATOM     65  C   UNL A   1      45.487  31.047  28.616  1.00  0.00     0.037 A 
BRANCH  52  66
ATOM     66  C   UNL A   1      39.751  28.869  29.376  1.00  0.00     0.064 A 
ATOM     67  C   UNL A   1      38.796  29.381  28.485  1.00  0.00     0.173 A 
ATOM     68  C   UNL A   1      39.333  28.575  30.684  1.00  0.00     0.173 A 
ATOM     69  F   UNL A   1      39.143  29.689  27.226  1.00  0.00    -0.203 F 
ATOM     70  C   UNL A   1      37.486  29.619  28.892  1.00  0.00     0.198 A 
ATOM     71  C   UNL A   1      38.014  28.783  31.079  1.00  0.00     0.198 A 
ATOM     72  F   UNL A   1      40.202  28.079  31.577  1.00  0.00    -0.203 F 
ATOM     73  F   UNL A   1      36.607  30.159  28.038  1.00  0.00    -0.200 F 
ATOM     74  C   UNL A   1      37.094  29.312  30.187  1.00  0.00     0.200 A 
ATOM     75  F   UNL A   1      37.632  28.471  32.326  1.00  0.00    -0.200 F 
ATOM     76  F   UNL A   1      35.830  29.532  30.576  1.00  0.00    -0.200 F 
ENDBRANCH  52  66
BRANCH  53  77
ATOM     77  C   UNL A   1      48.969  26.741  26.160  1.00  0.00     0.064 A 
ATOM     78  C   UNL A   1      49.928  26.154  26.998  1.00  0.00     0.173 A 
ATOM     79  C   UNL A   1      49.351  27.041  24.844  1.00  0.00     0.173 A 
ATOM     80  F   UNL A   1      49.619  25.866  28.271  1.00  0.00    -0.203 F 
ATOM     81  C   UNL A   1      51.222  25.903  26.548  1.00  0.00     0.198 A 
ATOM     82  C   UNL A   1      50.635  26.760  24.385  1.00  0.00     0.198 A 
ATOM     83  F   UNL A   1      48.470  27.597  24.000  1.00  0.00    -0.203 F 
ATOM     84  F   UNL A   1      52.134  25.392  27.386  1.00  0.00    -0.200 F 
ATOM     85  C   UNL A   1      51.573  26.200  25.239  1.00  0.00     0.200 A 
ATOM     86  F   UNL A   1      50.965  27.033  23.115  1.00  0.00    -0.200 F 
ATOM     87  F   UNL A   1      52.818  25.956  24.805  1.00  0.00    -0.200 F 
ENDBRANCH  53  77
BRANCH  65  88
ATOM     88  C   UNL A   1      46.034  32.400  28.973  1.00  0.00     0.064 A 
ATOM     89  C   UNL A   1      46.000  33.475  28.073  1.00  0.00     0.173 A 
ATOM     90  C   UNL A   1      46.585  32.628  30.245  1.00  0.00     0.173 A 
ATOM     91  F   UNL A   1      45.496  33.307  26.840  1.00  0.00    -0.203 F 
ATOM     92  C   UNL A   1      46.529  34.716  28.419  1.00  0.00     0.198 A 
ATOM     93  C   UNL A   1      47.080  33.879  30.599  1.00  0.00     0.198 A 
ATOM     94  F   UNL A   1      46.636  31.637  31.148  1.00  0.00    -0.203 F 
ATOM     95  F   UNL A   1      46.542  35.709  27.520  1.00  0.00    -0.200 F 
ATOM     96  C   UNL A   1      47.062  34.918  29.682  1.00  0.00     0.200 A 
ATOM     97  F   UNL A   1      47.579  34.077  31.826  1.00  0.00    -0.200 F 
ATOM     98  F   UNL A   1      47.569  36.114  30.013  1.00  0.00    -0.200 F 
ENDBRANCH  65  88
ENDBRANCH  39  40
ENDBRANCH  31  34
ENDBRANCH  29  30
ENDBRANCH  28  29
ENDBRANCH   1  28
TORSDOF 15
ENDMDL
