MODEL 1
REMARK VINA RESULT:     -13.4      0.000      0.000
REMARK SMILES N#Cc1ccc(C(=O)N2CCC(Oc3ccccc3)(C(=O)NCCCNC(=O)c3ccc(-c4c5nc(c(-c6c(F)c(F)c(F)c(F)c6F)c6ccc([nH]6)c(-c6c(F)c(F)c(F)c(F)c6F)c6nc(c(-c7c(F)c(F)c(F)c(F)c7F)c7ccc4[nH]7)C=C6)C=C5)cc3)CC2)cc1
REMARK SMILES IDX 24 1 23 2 22 3 20 4 21 5 12 7 7 8 8 9 9 10 10 11 93 12 11 13
REMARK SMILES IDX 92 14 6 15 3 16 4 17 95 18 5 19 94 20 2 21 1 22 13 23 14 24
REMARK SMILES IDX 15 25 19 26 16 27 18 28 17 29 25 30 26 31 27 32 28 34 29 35
REMARK SMILES IDX 30 36 91 37 31 38 90 39 32 40 33 41 34 42 84 43 35 44 89 45
REMARK SMILES IDX 83 46 85 47 36 48 88 49 82 50 81 51 37 53 69 54 49 55 68 56
REMARK SMILES IDX 50 57 53 58 67 59 86 60 51 61 52 62 66 64 87 65 54 66 38 67
REMARK SMILES IDX 39 68 47 69 40 70 41 71 45 72 48 73 42 74 43 75 46 76 44 77
REMARK SMILES IDX 70 78 71 79 79 80 72 81 73 82 77 83 80 84 74 85 75 86 78 87
REMARK SMILES IDX 76 88 55 89 56 90 64 91 57 92 58 93 62 94 65 95 59 96 60 97
REMARK SMILES IDX 63 98 61 99
REMARK H PARENT 22 6 26 33 85 52 53 63
REMARK Flexibility Score: inf
ROOT
ATOM      1  C   UNL A   1      37.710  19.631  25.070  1.00  0.00     0.042 C 
ENDROOT
BRANCH   1   2
ATOM      2  C   UNL A   1      36.626  20.665  24.801  1.00  0.00     0.118 C 
BRANCH   2   3
ATOM      3  N   UNL A   1      36.112  21.227  26.037  1.00  0.00    -0.353 N 
ATOM      4  C   UNL A   1      34.829  21.455  26.443  1.00  0.00     0.264 C 
ATOM      5  O   UNL A   1      34.704  21.904  27.588  1.00  0.00    -0.270 OA
ATOM      6  H   UNL A   1      36.802  21.488  26.688  1.00  0.00     0.163 HD
BRANCH   4   7
ATOM      7  C   UNL A   1      33.612  21.194  25.507  1.00  0.00     0.190 C 
ATOM      8  C   UNL A   1      32.537  24.757  23.545  1.00  0.00     0.253 C 
ATOM      9  O   UNL A   1      32.258  24.505  22.376  1.00  0.00    -0.269 OA
ATOM     10  N   UNL A   1      33.104  23.820  24.393  1.00  0.00    -0.338 N 
ATOM     11  C   UNL A   1      34.224  23.044  23.903  1.00  0.00     0.124 C 
ATOM     12  C   UNL A   1      32.624  23.555  25.746  1.00  0.00     0.124 C 
ATOM     13  C   UNL A   1      33.954  21.565  24.053  1.00  0.00     0.080 C 
ATOM     14  C   UNL A   1      32.413  22.053  25.985  1.00  0.00     0.080 C 
BRANCH   8  15
ATOM     15  C   UNL A   1      32.472  26.167  24.022  1.00  0.00     0.040 A 
ATOM     16  C   UNL A   1      32.312  28.669  25.284  1.00  0.00     0.052 A 
ATOM     17  C   UNL A   1      33.539  27.999  25.204  1.00  0.00     0.020 A 
ATOM     18  C   UNL A   1      31.169  28.093  24.724  1.00  0.00     0.020 A 
ATOM     19  C   UNL A   1      33.619  26.751  24.576  1.00  0.00     0.015 A 
ATOM     20  C   UNL A   1      31.246  26.843  24.108  1.00  0.00     0.015 A 
BRANCH  16  21
ATOM     21  C   UNL A   1      32.211  29.924  25.970  1.00  0.00     0.099 C 
ATOM     22  N   UNL A   1      32.143  30.933  26.537  1.00  0.00    -0.192 NA
ENDBRANCH  16  21
ENDBRANCH   8  15
BRANCH   7  23
ATOM     23  O   UNL A   1      33.371  19.782  25.743  1.00  0.00    -0.477 OA
BRANCH  23  24
ATOM     24  C   UNL A   1      33.443  18.915  24.695  1.00  0.00     0.120 A 
ATOM     25  C   UNL A   1      32.425  18.976  23.747  1.00  0.00     0.046 A 
ATOM     26  C   UNL A   1      34.392  17.897  24.626  1.00  0.00     0.046 A 
ATOM     27  C   UNL A   1      32.415  18.082  22.676  1.00  0.00     0.004 A 
ATOM     28  C   UNL A   1      34.404  17.023  23.540  1.00  0.00     0.004 A 
ATOM     29  C   UNL A   1      33.419  17.121  22.560  1.00  0.00     0.000 A 
ENDBRANCH  23  24
ENDBRANCH   7  23
ENDBRANCH   4   7
ENDBRANCH   2   3
ENDBRANCH   1   2
BRANCH   1  30
ATOM     30  C   UNL A   1      38.949  20.203  25.745  1.00  0.00     0.118 C 
BRANCH  30  31
ATOM     31  N   UNL A   1      39.994  19.208  25.931  1.00  0.00    -0.352 N 
ATOM     32  C   UNL A   1      41.342  19.365  26.125  1.00  0.00     0.251 C 
ATOM     33  H   UNL A   1      39.684  18.274  25.912  1.00  0.00     0.163 HD
ATOM     34  O   UNL A   1      42.083  18.389  26.046  1.00  0.00    -0.269 OA
BRANCH  32  35
ATOM     35  C   UNL A   1      41.913  20.698  26.412  1.00  0.00     0.039 A 
ATOM     36  C   UNL A   1      42.160  21.564  25.344  1.00  0.00     0.014 A 
ATOM     37  C   UNL A   1      42.238  21.088  27.714  1.00  0.00     0.014 A 
ATOM     38  C   UNL A   1      42.679  22.836  25.589  1.00  0.00     0.010 A 
ATOM     39  C   UNL A   1      42.662  22.390  27.966  1.00  0.00     0.010 A 
ATOM     40  C   UNL A   1      42.899  23.275  26.905  1.00  0.00    -0.014 A 
BRANCH  40  41
ATOM     41  C   UNL A   1      43.375  24.655  27.179  1.00  0.00     0.031 A 
ATOM     42  C   UNL A   1      42.438  25.690  27.738  1.00  0.00     0.074 A 
ATOM     43  C   UNL A   1      44.649  24.986  26.889  1.00  0.00     0.049 A 
ATOM     44  N   UNL A   1      42.668  26.949  28.020  1.00  0.00    -0.248 NA
ATOM     45  C   UNL A   1      41.052  25.265  27.991  1.00  0.00     0.031 C 
ATOM     46  C   UNL A   1      45.643  24.085  26.304  1.00  0.00     0.029 A 
ATOM     47  N   UNL A   1      45.327  26.170  27.046  1.00  0.00    -0.354 N 
ATOM     48  C   UNL A   1      41.461  27.461  28.479  1.00  0.00     0.074 A 
ATOM     49  C   UNL A   1      40.484  26.398  28.373  1.00  0.00     0.031 C 
ATOM     50  C   UNL A   1      46.810  24.734  26.186  1.00  0.00     0.029 A 
ATOM     51  C   UNL A   1      46.637  26.111  26.636  1.00  0.00     0.049 A 
ATOM     52  H   UNL A   1      44.913  26.983  27.416  1.00  0.00     0.167 HD
ATOM     53  C   UNL A   1      41.196  28.696  28.968  1.00  0.00     0.037 A 
ATOM     54  C   UNL A   1      47.588  27.064  26.616  1.00  0.00     0.037 A 
ATOM     55  C   UNL A   1      42.174  29.749  29.074  1.00  0.00     0.049 A 
ATOM     56  C   UNL A   1      47.256  28.441  27.128  1.00  0.00     0.074 A 
ATOM     57  C   UNL A   1      42.017  31.021  29.596  1.00  0.00     0.029 A 
ATOM     58  N   UNL A   1      43.488  29.658  28.637  1.00  0.00    -0.354 N 
ATOM     59  N   UNL A   1      46.130  28.892  27.625  1.00  0.00    -0.248 NA
ATOM     60  C   UNL A   1      48.332  29.440  27.080  1.00  0.00     0.031 C 
ATOM     61  C   UNL A   1      43.212  31.722  29.407  1.00  0.00     0.029 A 
ATOM     62  C   UNL A   1      44.141  30.862  28.846  1.00  0.00     0.049 A 
ATOM     63  H   UNL A   1      43.895  28.855  28.238  1.00  0.00     0.167 HD
ATOM     64  C   UNL A   1      46.373  30.213  27.982  1.00  0.00     0.074 A 
ATOM     65  C   UNL A   1      47.759  30.481  27.662  1.00  0.00     0.031 C 
ATOM     66  C   UNL A   1      45.523  31.119  28.527  1.00  0.00     0.037 A 
BRANCH  53  67
ATOM     67  C   UNL A   1      39.789  28.982  29.419  1.00  0.00     0.064 A 
ATOM     68  C   UNL A   1      38.809  29.452  28.531  1.00  0.00     0.173 A 
ATOM     69  C   UNL A   1      39.406  28.745  30.747  1.00  0.00     0.173 A 
ATOM     70  F   UNL A   1      39.120  29.703  27.250  1.00  0.00    -0.203 F 
ATOM     71  C   UNL A   1      37.510  29.707  28.964  1.00  0.00     0.198 A 
ATOM     72  C   UNL A   1      38.096  28.965  31.169  1.00  0.00     0.198 A 
ATOM     73  F   UNL A   1      40.299  28.289  31.640  1.00  0.00    -0.203 F 
ATOM     74  F   UNL A   1      36.608  30.212  28.111  1.00  0.00    -0.200 F 
ATOM     75  C   UNL A   1      37.153  29.455  30.280  1.00  0.00     0.200 A 
ATOM     76  F   UNL A   1      37.750  28.702  32.437  1.00  0.00    -0.200 F 
ATOM     77  F   UNL A   1      35.900  29.692  30.694  1.00  0.00    -0.200 F 
ENDBRANCH  53  67
BRANCH  54  78
ATOM     78  C   UNL A   1      48.950  26.749  26.106  1.00  0.00     0.064 A 
ATOM     79  C   UNL A   1      49.316  27.045  24.785  1.00  0.00     0.173 A 
ATOM     80  C   UNL A   1      49.908  26.128  26.922  1.00  0.00     0.173 A 
ATOM     81  F   UNL A   1      48.433  27.622  23.959  1.00  0.00    -0.203 F 
ATOM     82  C   UNL A   1      50.574  26.704  24.293  1.00  0.00     0.198 A 
ATOM     83  C   UNL A   1      51.179  25.822  26.439  1.00  0.00     0.198 A 
ATOM     84  F   UNL A   1      49.614  25.829  28.196  1.00  0.00    -0.203 F 
ATOM     85  F   UNL A   1      50.874  26.943  23.009  1.00  0.00    -0.200 F 
ATOM     86  C   UNL A   1      51.506  26.098  25.121  1.00  0.00     0.200 A 
ATOM     87  F   UNL A   1      52.082  25.256  27.250  1.00  0.00    -0.200 F 
ATOM     88  F   UNL A   1      52.716  25.772  24.647  1.00  0.00    -0.200 F 
ENDBRANCH  54  78
BRANCH  66  89
ATOM     89  C   UNL A   1      46.082  32.476  28.858  1.00  0.00     0.064 A 
ATOM     90  C   UNL A   1      46.672  32.756  30.099  1.00  0.00     0.173 A 
ATOM     91  C   UNL A   1      46.048  33.507  27.904  1.00  0.00     0.173 A 
ATOM     92  F   UNL A   1      46.722  31.813  31.052  1.00  0.00    -0.203 F 
ATOM     93  C   UNL A   1      47.168  34.026  30.388  1.00  0.00     0.198 A 
ATOM     94  C   UNL A   1      46.583  34.761  28.181  1.00  0.00     0.198 A 
ATOM     95  F   UNL A   1      45.504  33.293  26.696  1.00  0.00    -0.203 F 
ATOM     96  F   UNL A   1      47.664  34.287  31.605  1.00  0.00    -0.200 F 
ATOM     97  C   UNL A   1      47.131  35.024  29.427  1.00  0.00     0.200 A 
ATOM     98  F   UNL A   1      46.565  35.717  27.242  1.00  0.00    -0.200 F 
ATOM     99  F   UNL A   1      47.613  36.242  29.704  1.00  0.00    -0.200 F 
ENDBRANCH  66  89
ENDBRANCH  40  41
ENDBRANCH  32  35
ENDBRANCH  30  31
ENDBRANCH   1  30
TORSDOF 14
ENDMDL
MODEL 2
REMARK VINA RESULT:     -13.3      0.292      1.128
REMARK SMILES N#Cc1ccc(C(=O)N2CCC(Oc3ccccc3)(C(=O)NCCCNC(=O)c3ccc(-c4c5nc(c(-c6c(F)c(F)c(F)c(F)c6F)c6ccc([nH]6)c(-c6c(F)c(F)c(F)c(F)c6F)c6nc(c(-c7c(F)c(F)c(F)c(F)c7F)c7ccc4[nH]7)C=C6)C=C5)cc3)CC2)cc1
REMARK SMILES IDX 24 1 23 2 22 3 20 4 21 5 12 7 7 8 8 9 9 10 10 11 93 12 11 13
REMARK SMILES IDX 92 14 6 15 3 16 4 17 95 18 5 19 94 20 2 21 1 22 13 23 14 24
REMARK SMILES IDX 15 25 19 26 16 27 18 28 17 29 25 30 26 31 27 32 28 34 29 35
REMARK SMILES IDX 30 36 91 37 31 38 90 39 32 40 33 41 34 42 84 43 35 44 89 45
REMARK SMILES IDX 83 46 85 47 36 48 88 49 82 50 81 51 37 53 69 54 49 55 68 56
REMARK SMILES IDX 50 57 53 58 67 59 86 60 51 61 52 62 66 64 87 65 54 66 38 67
REMARK SMILES IDX 39 68 47 69 40 70 41 71 45 72 48 73 42 74 43 75 46 76 44 77
REMARK SMILES IDX 70 78 71 79 79 80 72 81 73 82 77 83 80 84 74 85 75 86 78 87
REMARK SMILES IDX 76 88 55 89 56 90 64 91 57 92 58 93 62 94 65 95 59 96 60 97
REMARK SMILES IDX 63 98 61 99
REMARK H PARENT 22 6 26 33 85 52 53 63
REMARK Flexibility Score: inf
ROOT
ATOM      1  C   UNL A   1      37.722  19.707  25.045  1.00  0.00     0.042 C 
ENDROOT
BRANCH   1   2
ATOM      2  C   UNL A   1      36.633  20.745  24.810  1.00  0.00     0.118 C 
BRANCH   2   3
ATOM      3  N   UNL A   1      36.138  21.287  26.062  1.00  0.00    -0.353 N 
ATOM      4  C   UNL A   1      34.862  21.517  26.487  1.00  0.00     0.264 C 
ATOM      5  O   UNL A   1      34.754  21.944  27.642  1.00  0.00    -0.270 OA
ATOM      6  H   UNL A   1      36.838  21.529  26.710  1.00  0.00     0.163 HD
BRANCH   4   7
ATOM      7  C   UNL A   1      33.633  21.283  25.561  1.00  0.00     0.190 C 
ATOM      8  C   UNL A   1      32.549  24.897  23.697  1.00  0.00     0.253 C 
ATOM      9  O   UNL A   1      32.254  24.673  22.526  1.00  0.00    -0.269 OA
ATOM     10  N   UNL A   1      33.122  23.937  24.516  1.00  0.00    -0.338 N 
ATOM     11  C   UNL A   1      34.232  23.168  23.993  1.00  0.00     0.124 C 
ATOM     12  C   UNL A   1      32.658  23.642  25.868  1.00  0.00     0.124 C 
ATOM     13  C   UNL A   1      33.958  21.687  24.111  1.00  0.00     0.080 C 
ATOM     14  C   UNL A   1      32.444  22.135  26.074  1.00  0.00     0.080 C 
BRANCH   8  15
ATOM     15  C   UNL A   1      32.496  26.295  24.209  1.00  0.00     0.040 A 
ATOM     16  C   UNL A   1      32.413  28.768  25.533  1.00  0.00     0.052 A 
ATOM     17  C   UNL A   1      33.642  28.148  25.279  1.00  0.00     0.020 A 
ATOM     18  C   UNL A   1      31.228  28.157  25.117  1.00  0.00     0.020 A 
ATOM     19  C   UNL A   1      33.684  26.914  24.620  1.00  0.00     0.015 A 
ATOM     20  C   UNL A   1      31.269  26.922  24.469  1.00  0.00     0.015 A 
BRANCH  16  21
ATOM     21  C   UNL A   1      32.357  30.007  26.253  1.00  0.00     0.099 C 
ATOM     22  N   UNL A   1      32.293  31.005  26.839  1.00  0.00    -0.192 NA
ENDBRANCH  16  21
ENDBRANCH   8  15
BRANCH   7  23
ATOM     23  O   UNL A   1      33.388  19.867  25.766  1.00  0.00    -0.477 OA
BRANCH  23  24
ATOM     24  C   UNL A   1      33.405  19.031  24.691  1.00  0.00     0.120 A 
ATOM     25  C   UNL A   1      32.354  19.138  23.784  1.00  0.00     0.046 A 
ATOM     26  C   UNL A   1      34.332  17.999  24.557  1.00  0.00     0.046 A 
ATOM     27  C   UNL A   1      32.289  18.276  22.689  1.00  0.00     0.004 A 
ATOM     28  C   UNL A   1      34.288  17.158  23.446  1.00  0.00     0.004 A 
ATOM     29  C   UNL A   1      33.269  17.302  22.507  1.00  0.00     0.000 A 
ENDBRANCH  23  24
ENDBRANCH   7  23
ENDBRANCH   4   7
ENDBRANCH   2   3
ENDBRANCH   1   2
BRANCH   1  30
ATOM     30  C   UNL A   1      38.940  20.252  25.778  1.00  0.00     0.118 C 
BRANCH  30  31
ATOM     31  N   UNL A   1      39.996  19.261  25.921  1.00  0.00    -0.352 N 
ATOM     32  C   UNL A   1      41.344  19.423  26.111  1.00  0.00     0.251 C 
ATOM     33  H   UNL A   1      39.694  18.325  25.873  1.00  0.00     0.163 HD
ATOM     34  O   UNL A   1      42.093  18.458  25.992  1.00  0.00    -0.269 OA
BRANCH  32  35
ATOM     35  C   UNL A   1      41.905  20.752  26.438  1.00  0.00     0.039 A 
ATOM     36  C   UNL A   1      42.136  21.656  25.398  1.00  0.00     0.014 A 
ATOM     37  C   UNL A   1      42.236  21.100  27.750  1.00  0.00     0.014 A 
ATOM     38  C   UNL A   1      42.646  22.923  25.682  1.00  0.00     0.010 A 
ATOM     39  C   UNL A   1      42.651  22.397  28.043  1.00  0.00     0.010 A 
ATOM     40  C   UNL A   1      42.872  23.320  27.011  1.00  0.00    -0.014 A 
BRANCH  40  41
ATOM     41  C   UNL A   1      43.338  24.694  27.328  1.00  0.00     0.031 A 
ATOM     42  C   UNL A   1      42.387  25.712  27.894  1.00  0.00     0.074 A 
ATOM     43  C   UNL A   1      44.615  25.036  27.070  1.00  0.00     0.049 A 
ATOM     44  N   UNL A   1      42.606  26.964  28.212  1.00  0.00    -0.248 NA
ATOM     45  C   UNL A   1      40.998  25.276  28.111  1.00  0.00     0.031 C 
ATOM     46  C   UNL A   1      45.624  24.152  26.481  1.00  0.00     0.029 A 
ATOM     47  N   UNL A   1      45.286  26.217  27.269  1.00  0.00    -0.354 N 
ATOM     48  C   UNL A   1      41.389  27.461  28.660  1.00  0.00     0.074 A 
ATOM     49  C   UNL A   1      40.419  26.397  28.510  1.00  0.00     0.031 C 
ATOM     50  C   UNL A   1      46.791  24.809  26.401  1.00  0.00     0.029 A 
ATOM     51  C   UNL A   1      46.604  26.173  26.882  1.00  0.00     0.049 A 
ATOM     52  H   UNL A   1      44.863  27.020  27.651  1.00  0.00     0.167 HD
ATOM     53  C   UNL A   1      41.111  28.682  29.175  1.00  0.00     0.037 A 
ATOM     54  C   UNL A   1      47.552  27.129  26.904  1.00  0.00     0.037 A 
ATOM     55  C   UNL A   1      42.083  29.736  29.325  1.00  0.00     0.049 A 
ATOM     56  C   UNL A   1      47.206  28.492  27.443  1.00  0.00     0.074 A 
ATOM     57  C   UNL A   1      41.911  30.994  29.876  1.00  0.00     0.029 A 
ATOM     58  N   UNL A   1      43.405  29.659  28.911  1.00  0.00    -0.354 N 
ATOM     59  N   UNL A   1      46.069  28.927  27.930  1.00  0.00    -0.248 NA
ATOM     60  C   UNL A   1      48.279  29.495  27.440  1.00  0.00     0.031 C 
ATOM     61  C   UNL A   1      43.107  31.703  29.727  1.00  0.00     0.029 A 
ATOM     62  C   UNL A   1      44.050  30.860  29.162  1.00  0.00     0.049 A 
ATOM     63  H   UNL A   1      43.822  28.868  28.500  1.00  0.00     0.167 HD
ATOM     64  C   UNL A   1      46.299  30.239  28.324  1.00  0.00     0.074 A 
ATOM     65  C   UNL A   1      47.691  30.520  28.037  1.00  0.00     0.031 C 
ATOM     66  C   UNL A   1      45.437  31.129  28.875  1.00  0.00     0.037 A 
BRANCH  53  67
ATOM     67  C   UNL A   1      39.695  28.952  29.606  1.00  0.00     0.064 A 
ATOM     68  C   UNL A   1      38.731  29.447  28.714  1.00  0.00     0.173 A 
ATOM     69  C   UNL A   1      39.286  28.676  30.919  1.00  0.00     0.173 A 
ATOM     70  F   UNL A   1      39.067  29.736  27.447  1.00  0.00    -0.203 F 
ATOM     71  C   UNL A   1      37.423  29.687  29.128  1.00  0.00     0.198 A 
ATOM     72  C   UNL A   1      37.968  28.881  31.321  1.00  0.00     0.198 A 
ATOM     73  F   UNL A   1      40.162  28.195  31.815  1.00  0.00    -0.203 F 
ATOM     74  F   UNL A   1      36.538  30.216  28.273  1.00  0.00    -0.200 F 
ATOM     75  C   UNL A   1      37.041  29.396  30.428  1.00  0.00     0.200 A 
ATOM     76  F   UNL A   1      37.597  28.580  32.574  1.00  0.00    -0.200 F 
ATOM     77  F   UNL A   1      35.780  29.618  30.825  1.00  0.00    -0.200 F 
ENDBRANCH  53  67
BRANCH  54  78
ATOM     78  C   UNL A   1      48.924  26.831  26.412  1.00  0.00     0.064 A 
ATOM     79  C   UNL A   1      49.275  27.038  25.070  1.00  0.00     0.173 A 
ATOM     80  C   UNL A   1      49.909  26.315  27.268  1.00  0.00     0.173 A 
ATOM     81  F   UNL A   1      48.366  27.513  24.207  1.00  0.00    -0.203 F 
ATOM     82  C   UNL A   1      50.544  26.711  24.598  1.00  0.00     0.198 A 
ATOM     83  C   UNL A   1      51.190  26.024  26.803  1.00  0.00     0.198 A 
ATOM     84  F   UNL A   1      49.631  26.104  28.563  1.00  0.00    -0.203 F 
ATOM     85  F   UNL A   1      50.830  26.862  23.298  1.00  0.00    -0.200 F 
ATOM     86  C   UNL A   1      51.502  26.210  25.465  1.00  0.00     0.200 A 
ATOM     87  F   UNL A   1      52.118  25.560  27.650  1.00  0.00    -0.200 F 
ATOM     88  F   UNL A   1      52.724  25.897  25.011  1.00  0.00    -0.200 F 
ENDBRANCH  54  78
BRANCH  66  89
ATOM     89  C   UNL A   1      45.984  32.479  29.251  1.00  0.00     0.064 A 
ATOM     90  C   UNL A   1      45.947  33.569  28.369  1.00  0.00     0.173 A 
ATOM     91  C   UNL A   1      46.533  32.689  30.526  1.00  0.00     0.173 A 
ATOM     92  F   UNL A   1      45.445  33.423  27.133  1.00  0.00    -0.203 F 
ATOM     93  C   UNL A   1      46.476  34.805  28.734  1.00  0.00     0.198 A 
ATOM     94  C   UNL A   1      47.021  33.937  30.903  1.00  0.00     0.198 A 
ATOM     95  F   UNL A   1      46.586  31.685  31.415  1.00  0.00    -0.203 F 
ATOM     96  F   UNL A   1      46.492  35.812  27.850  1.00  0.00    -0.200 F 
ATOM     97  C   UNL A   1      47.005  34.991  30.002  1.00  0.00     0.200 A 
ATOM     98  F   UNL A   1      47.511  34.118  32.136  1.00  0.00    -0.200 F 
ATOM     99  F   UNL A   1      47.507  36.182  30.354  1.00  0.00    -0.200 F 
ENDBRANCH  66  89
ENDBRANCH  40  41
ENDBRANCH  32  35
ENDBRANCH  30  31
ENDBRANCH   1  30
TORSDOF 14
ENDMDL
MODEL 3
REMARK VINA RESULT:     -13.3      0.480      7.011
REMARK SMILES N#Cc1ccc(C(=O)N2CCC(Oc3ccccc3)(C(=O)NCCCNC(=O)c3ccc(-c4c5nc(c(-c6c(F)c(F)c(F)c(F)c6F)c6ccc([nH]6)c(-c6c(F)c(F)c(F)c(F)c6F)c6nc(c(-c7c(F)c(F)c(F)c(F)c7F)c7ccc4[nH]7)C=C6)C=C5)cc3)CC2)cc1
REMARK SMILES IDX 24 1 23 2 22 3 20 4 21 5 12 7 7 8 8 9 9 10 10 11 93 12 11 13
REMARK SMILES IDX 92 14 6 15 3 16 4 17 95 18 5 19 94 20 2 21 1 22 13 23 14 24
REMARK SMILES IDX 15 25 19 26 16 27 18 28 17 29 25 30 26 31 27 32 28 34 29 35
REMARK SMILES IDX 30 36 91 37 31 38 90 39 32 40 33 41 34 42 84 43 35 44 89 45
REMARK SMILES IDX 83 46 85 47 36 48 88 49 82 50 81 51 37 53 69 54 49 55 68 56
REMARK SMILES IDX 50 57 53 58 67 59 86 60 51 61 52 62 66 64 87 65 54 66 38 67
REMARK SMILES IDX 39 68 47 69 40 70 41 71 45 72 48 73 42 74 43 75 46 76 44 77
REMARK SMILES IDX 70 78 71 79 79 80 72 81 73 82 77 83 80 84 74 85 75 86 78 87
REMARK SMILES IDX 76 88 55 89 56 90 64 91 57 92 58 93 62 94 65 95 59 96 60 97
REMARK SMILES IDX 63 98 61 99
REMARK H PARENT 22 6 26 33 85 52 53 63
REMARK Flexibility Score: inf
ROOT
ATOM      1  C   UNL A   1      37.680  19.667  25.004  1.00  0.00     0.042 C 
ENDROOT
BRANCH   1   2
ATOM      2  C   UNL A   1      36.553  20.663  24.762  1.00  0.00     0.118 C 
BRANCH   2   3
ATOM      3  N   UNL A   1      36.056  21.215  26.009  1.00  0.00    -0.353 N 
ATOM      4  C   UNL A   1      34.780  21.453  26.429  1.00  0.00     0.264 C 
ATOM      5  O   UNL A   1      34.670  21.888  27.580  1.00  0.00    -0.270 OA
ATOM      6  H   UNL A   1      36.755  21.459  26.657  1.00  0.00     0.163 HD
BRANCH   4   7
ATOM      7  C   UNL A   1      33.552  21.218  25.501  1.00  0.00     0.190 C 
ATOM      8  C   UNL A   1      32.495  24.821  23.603  1.00  0.00     0.253 C 
ATOM      9  O   UNL A   1      32.202  24.590  22.433  1.00  0.00    -0.269 OA
ATOM     10  N   UNL A   1      33.059  23.866  24.432  1.00  0.00    -0.338 N 
ATOM     11  C   UNL A   1      34.167  23.086  23.919  1.00  0.00     0.124 C 
ATOM     12  C   UNL A   1      32.589  23.585  25.785  1.00  0.00     0.124 C 
ATOM     13  C   UNL A   1      33.884  21.608  24.049  1.00  0.00     0.080 C 
ATOM     14  C   UNL A   1      32.366  22.081  26.003  1.00  0.00     0.080 C 
BRANCH   8  15
ATOM     15  C   UNL A   1      32.448  26.225  24.103  1.00  0.00     0.040 A 
ATOM     16  C   UNL A   1      32.378  28.709  25.405  1.00  0.00     0.052 A 
ATOM     17  C   UNL A   1      33.603  28.083  25.151  1.00  0.00     0.020 A 
ATOM     18  C   UNL A   1      31.189  28.098  25.000  1.00  0.00     0.020 A 
ATOM     19  C   UNL A   1      33.639  26.844  24.503  1.00  0.00     0.015 A 
ATOM     20  C   UNL A   1      31.223  26.857  24.363  1.00  0.00     0.015 A 
BRANCH  16  21
ATOM     21  C   UNL A   1      32.328  29.954  26.115  1.00  0.00     0.099 C 
ATOM     22  N   UNL A   1      32.288  30.970  26.671  1.00  0.00    -0.192 NA
ENDBRANCH  16  21
ENDBRANCH   8  15
BRANCH   7  23
ATOM     23  O   UNL A   1      33.299  19.805  25.717  1.00  0.00    -0.477 OA
BRANCH  23  24
ATOM     24  C   UNL A   1      33.407  18.946  24.666  1.00  0.00     0.120 A 
ATOM     25  C   UNL A   1      32.427  19.019  23.680  1.00  0.00     0.046 A 
ATOM     26  C   UNL A   1      34.353  17.923  24.626  1.00  0.00     0.046 A 
ATOM     27  C   UNL A   1      32.454  18.132  22.603  1.00  0.00     0.004 A 
ATOM     28  C   UNL A   1      34.403  17.057  23.534  1.00  0.00     0.004 A 
ATOM     29  C   UNL A   1      33.457  17.167  22.518  1.00  0.00     0.000 A 
ENDBRANCH  23  24
ENDBRANCH   7  23
ENDBRANCH   4   7
ENDBRANCH   2   3
ENDBRANCH   1   2
BRANCH   1  30
ATOM     30  C   UNL A   1      38.867  20.257  25.751  1.00  0.00     0.118 C 
BRANCH  30  31
ATOM     31  N   UNL A   1      39.953  19.303  25.916  1.00  0.00    -0.352 N 
ATOM     32  C   UNL A   1      41.293  19.512  26.122  1.00  0.00     0.251 C 
ATOM     33  H   UNL A   1      39.684  18.357  25.872  1.00  0.00     0.163 HD
ATOM     34  O   UNL A   1      42.074  18.570  26.022  1.00  0.00    -0.269 OA
BRANCH  32  35
ATOM     35  C   UNL A   1      41.805  20.860  26.447  1.00  0.00     0.039 A 
ATOM     36  C   UNL A   1      42.052  21.752  25.400  1.00  0.00     0.014 A 
ATOM     37  C   UNL A   1      42.076  21.240  27.764  1.00  0.00     0.014 A 
ATOM     38  C   UNL A   1      42.516  23.038  25.680  1.00  0.00     0.010 A 
ATOM     39  C   UNL A   1      42.444  22.552  28.048  1.00  0.00     0.010 A 
ATOM     40  C   UNL A   1      42.680  23.463  27.009  1.00  0.00    -0.014 A 
BRANCH  40  41
ATOM     41  C   UNL A   1      43.096  24.855  27.319  1.00  0.00     0.031 A 
ATOM     42  C   UNL A   1      44.502  25.311  27.041  1.00  0.00     0.074 A 
ATOM     43  C   UNL A   1      42.213  25.700  27.886  1.00  0.00     0.049 A 
ATOM     44  N   UNL A   1      45.052  26.479  27.264  1.00  0.00    -0.248 NA
ATOM     45  C   UNL A   1      45.420  24.320  26.458  1.00  0.00     0.031 C 
ATOM     46  C   UNL A   1      40.833  25.364  28.244  1.00  0.00     0.029 A 
ATOM     47  N   UNL A   1      42.342  27.014  28.261  1.00  0.00    -0.354 N 
ATOM     48  C   UNL A   1      46.374  26.360  26.854  1.00  0.00     0.074 A 
ATOM     49  C   UNL A   1      46.563  24.989  26.431  1.00  0.00     0.031 C 
ATOM     50  C   UNL A   1      40.234  26.451  28.751  1.00  0.00     0.029 A 
ATOM     51  C   UNL A   1      41.197  27.545  28.805  1.00  0.00     0.049 A 
ATOM     52  H   UNL A   1      43.175  27.527  28.153  1.00  0.00     0.167 HD
ATOM     53  C   UNL A   1      47.335  27.314  26.808  1.00  0.00     0.037 A 
ATOM     54  C   UNL A   1      40.955  28.774  29.300  1.00  0.00     0.037 A 
ATOM     55  C   UNL A   1      47.141  28.678  27.226  1.00  0.00     0.049 A 
ATOM     56  C   UNL A   1      42.054  29.803  29.274  1.00  0.00     0.074 A 
ATOM     57  C   UNL A   1      48.038  29.731  27.178  1.00  0.00     0.029 A 
ATOM     58  N   UNL A   1      45.971  29.177  27.783  1.00  0.00    -0.354 N 
ATOM     59  N   UNL A   1      43.278  29.698  28.818  1.00  0.00    -0.248 NA
ATOM     60  C   UNL A   1      41.733  31.125  29.829  1.00  0.00     0.031 C 
ATOM     61  C   UNL A   1      47.438  30.845  27.773  1.00  0.00     0.029 A 
ATOM     62  C   UNL A   1      46.137  30.512  28.115  1.00  0.00     0.049 A 
ATOM     63  H   UNL A   1      45.146  28.658  27.922  1.00  0.00     0.167 HD
ATOM     64  C   UNL A   1      43.861  30.947  28.996  1.00  0.00     0.074 A 
ATOM     65  C   UNL A   1      42.847  31.797  29.584  1.00  0.00     0.031 C 
ATOM     66  C   UNL A   1      45.121  31.352  28.698  1.00  0.00     0.037 A 
BRANCH  53  67
ATOM     67  C   UNL A   1      48.692  26.912  26.295  1.00  0.00     0.064 A 
ATOM     68  C   UNL A   1      49.048  27.065  24.945  1.00  0.00     0.173 A 
ATOM     69  C   UNL A   1      49.663  26.406  27.172  1.00  0.00     0.173 A 
ATOM     70  F   UNL A   1      48.157  27.537  24.060  1.00  0.00    -0.203 F 
ATOM     71  C   UNL A   1      50.310  26.692  24.488  1.00  0.00     0.198 A 
ATOM     72  C   UNL A   1      50.937  26.070  26.719  1.00  0.00     0.198 A 
ATOM     73  F   UNL A   1      49.382  26.245  28.474  1.00  0.00    -0.203 F 
ATOM     74  F   UNL A   1      50.604  26.791  23.185  1.00  0.00    -0.200 F 
ATOM     75  C   UNL A   1      51.255  26.204  25.376  1.00  0.00     0.200 A 
ATOM     76  F   UNL A   1      51.855  25.617  27.584  1.00  0.00    -0.200 F 
ATOM     77  F   UNL A   1      52.473  25.854  24.937  1.00  0.00    -0.200 F 
ENDBRANCH  53  67
BRANCH  54  78
ATOM     78  C   UNL A   1      39.613  29.106  29.850  1.00  0.00     0.064 A 
ATOM     79  C   UNL A   1      38.629  29.702  29.050  1.00  0.00     0.173 A 
ATOM     80  C   UNL A   1      39.292  28.850  31.192  1.00  0.00     0.173 A 
ATOM     81  F   UNL A   1      38.890  29.983  27.765  1.00  0.00    -0.203 F 
ATOM     82  C   UNL A   1      37.390  30.060  29.577  1.00  0.00     0.198 A 
ATOM     83  C   UNL A   1      38.039  29.174  31.709  1.00  0.00     0.198 A 
ATOM     84  F   UNL A   1      40.193  28.274  32.001  1.00  0.00    -0.203 F 
ATOM     85  F   UNL A   1      36.492  30.686  28.804  1.00  0.00    -0.200 F 
ATOM     86  C   UNL A   1      37.093  29.790  30.904  1.00  0.00     0.200 A 
ATOM     87  F   UNL A   1      37.751  28.892  32.986  1.00  0.00    -0.200 F 
ATOM     88  F   UNL A   1      35.901  30.133  31.411  1.00  0.00    -0.200 F 
ENDBRANCH  54  78
BRANCH  66  89
ATOM     89  C   UNL A   1      45.462  32.794  28.958  1.00  0.00     0.064 A 
ATOM     90  C   UNL A   1      46.048  33.215  30.160  1.00  0.00     0.173 A 
ATOM     91  C   UNL A   1      45.218  33.766  27.974  1.00  0.00     0.173 A 
ATOM     92  F   UNL A   1      46.293  32.332  31.140  1.00  0.00    -0.203 F 
ATOM     93  C   UNL A   1      46.340  34.559  30.384  1.00  0.00     0.198 A 
ATOM     94  C   UNL A   1      45.550  35.101  28.184  1.00  0.00     0.198 A 
ATOM     95  F   UNL A   1      44.667  33.419  26.800  1.00  0.00    -0.203 F 
ATOM     96  F   UNL A   1      46.836  34.947  31.566  1.00  0.00    -0.200 F 
ATOM     97  C   UNL A   1      46.098  35.499  29.394  1.00  0.00     0.200 A 
ATOM     98  F   UNL A   1      45.336  36.003  27.217  1.00  0.00    -0.200 F 
ATOM     99  F   UNL A   1      46.385  36.790  29.608  1.00  0.00    -0.200 F 
ENDBRANCH  66  89
ENDBRANCH  40  41
ENDBRANCH  32  35
ENDBRANCH  30  31
ENDBRANCH   1  30
TORSDOF 14
ENDMDL
