MODEL 1
REMARK VINA RESULT:     -12.3      0.000      0.000
REMARK SMILES CC1(C(=O)N2CC[C@H](C(=O)NCCCNC(=O)c3ccc(-c4c5nc(c(-c6c(F)c(F)c(F)c(F)c6F)c6ccc([nH]6)c(-c6c(F)c(F)c(F)c(F)c6F)c6nc(c(-c7c(F)c(F)c(F)c(F)c7F)c7ccc4[nH]7)C=C6)C=C5)cc3)C2)CCCC1
REMARK SMILES IDX 13 1 12 2 11 3 9 4 10 5 8 7 5 8 6 9 81 10 7 11 3 12 4 13
REMARK SMILES IDX 2 14 1 15 82 16 85 17 83 18 84 19 14 20 15 21 16 22 17 24
REMARK SMILES IDX 18 25 19 26 80 27 20 28 79 29 21 30 22 31 23 32 73 33 24 34
REMARK SMILES IDX 78 35 72 36 74 37 25 38 77 39 71 40 70 41 26 43 58 44 38 45
REMARK SMILES IDX 57 46 39 47 42 48 56 49 75 50 40 51 41 52 55 54 76 55 43 56
REMARK SMILES IDX 27 57 28 58 36 59 29 60 30 61 34 62 37 63 31 64 32 65 35 66
REMARK SMILES IDX 33 67 59 68 60 69 68 70 61 71 62 72 66 73 69 74 63 75 64 76
REMARK SMILES IDX 67 77 65 78 44 79 45 80 53 81 46 82 47 83 51 84 54 85 48 86
REMARK SMILES IDX 49 87 52 88 50 89
REMARK H PARENT 11 6 15 23 74 42 42 53
REMARK Flexibility Score: inf
ROOT
ATOM      1  C   UNL A   1      31.446  32.049  26.595  1.00  0.00     0.042 C 
ENDROOT
BRANCH   1   2
ATOM      2  C   UNL A   1      31.561  30.544  26.399  1.00  0.00     0.117 C 
BRANCH   2   3
ATOM      3  N   UNL A   1      31.623  30.161  25.002  1.00  0.00    -0.356 N 
ATOM      4  C   UNL A   1      31.964  28.981  24.418  1.00  0.00     0.224 C 
ATOM      5  O   UNL A   1      31.907  28.933  23.186  1.00  0.00    -0.275 OA
ATOM      6  H   UNL A   1      31.376  30.874  24.371  1.00  0.00     0.163 HD
BRANCH   4   7
ATOM      7  C   UNL A   1      32.442  27.769  25.204  1.00  0.00     0.099 C 
ATOM      8  N   UNL A   1      33.240  25.705  24.348  1.00  0.00    -0.341 N 
ATOM      9  C   UNL A   1      32.137  25.380  25.225  1.00  0.00     0.120 C 
ATOM     10  C   UNL A   1      33.672  27.073  24.620  1.00  0.00     0.133 C 
ATOM     11  C   UNL A   1      31.371  26.684  25.352  1.00  0.00     0.037 C 
BRANCH   8  12
ATOM     12  C   UNL A   1      34.040  24.870  23.594  1.00  0.00     0.228 C 
ATOM     13  O   UNL A   1      33.998  24.960  22.362  1.00  0.00    -0.274 OA
BRANCH  12  14
ATOM     14  C   UNL A   1      34.756  23.664  24.265  1.00  0.00     0.047 C 
ATOM     15  C   UNL A   1      33.898  22.422  24.523  1.00  0.00     0.022 C 
ATOM     16  C   UNL A   1      35.436  24.094  25.588  1.00  0.00     0.016 C 
ATOM     17  C   UNL A   1      35.995  23.312  23.417  1.00  0.00     0.016 C 
ATOM     18  C   UNL A   1      36.631  23.158  25.765  1.00  0.00     0.001 C 
ATOM     19  C   UNL A   1      37.023  22.707  24.364  1.00  0.00     0.001 C 
ENDBRANCH  12  14
ENDBRANCH   8  12
ENDBRANCH   4   7
ENDBRANCH   2   3
ENDBRANCH   1   2
BRANCH   1  20
ATOM     20  C   UNL A   1      32.671  32.679  27.237  1.00  0.00     0.118 C 
BRANCH  20  21
ATOM     21  N   UNL A   1      32.454  34.074  27.603  1.00  0.00    -0.352 N 
ATOM     22  C   UNL A   1      33.030  34.838  28.586  1.00  0.00     0.251 C 
ATOM     23  H   UNL A   1      31.787  34.545  27.053  1.00  0.00     0.163 HD
ATOM     24  O   UNL A   1      32.560  35.944  28.849  1.00  0.00    -0.269 OA
BRANCH  22  25
ATOM     25  C   UNL A   1      34.192  34.338  29.351  1.00  0.00     0.039 A 
ATOM     26  C   UNL A   1      33.973  33.658  30.551  1.00  0.00     0.014 A 
ATOM     27  C   UNL A   1      35.496  34.550  28.901  1.00  0.00     0.014 A 
ATOM     28  C   UNL A   1      35.055  33.125  31.256  1.00  0.00     0.010 A 
ATOM     29  C   UNL A   1      36.561  33.930  29.543  1.00  0.00     0.010 A 
ATOM     30  C   UNL A   1      36.354  33.219  30.733  1.00  0.00    -0.014 A 
BRANCH  30  31
ATOM     31  C   UNL A   1      37.513  32.584  31.412  1.00  0.00     0.031 A 
ATOM     32  C   UNL A   1      38.219  31.421  30.771  1.00  0.00     0.074 A 
ATOM     33  C   UNL A   1      37.873  32.996  32.642  1.00  0.00     0.049 A 
ATOM     34  N   UNL A   1      39.187  30.675  31.243  1.00  0.00    -0.248 NA
ATOM     35  C   UNL A   1      37.750  31.019  29.436  1.00  0.00     0.031 C 
ATOM     36  C   UNL A   1      37.224  34.070  33.396  1.00  0.00     0.029 A 
ATOM     37  N   UNL A   1      38.859  32.548  33.485  1.00  0.00    -0.354 N 
ATOM     38  C   UNL A   1      39.427  29.711  30.274  1.00  0.00     0.074 A 
ATOM     39  C   UNL A   1      38.460  29.923  29.218  1.00  0.00     0.031 C 
ATOM     40  C   UNL A   1      37.837  34.207  34.581  1.00  0.00     0.029 A 
ATOM     41  C   UNL A   1      38.894  33.205  34.689  1.00  0.00     0.049 A 
ATOM     42  H   UNL A   1      39.482  31.823  33.248  1.00  0.00     0.167 HD
ATOM     43  C   UNL A   1      40.384  28.753  30.251  1.00  0.00     0.037 A 
ATOM     44  C   UNL A   1      39.678  33.013  35.767  1.00  0.00     0.037 A 
ATOM     45  C   UNL A   1      41.354  28.558  31.297  1.00  0.00     0.049 A 
ATOM     46  C   UNL A   1      40.737  31.947  35.721  1.00  0.00     0.074 A 
ATOM     47  C   UNL A   1      42.407  27.663  31.344  1.00  0.00     0.029 A 
ATOM     48  N   UNL A   1      41.381  29.269  32.489  1.00  0.00    -0.354 N 
ATOM     49  N   UNL A   1      41.011  31.094  34.765  1.00  0.00    -0.248 NA
ATOM     50  C   UNL A   1      41.604  31.824  36.901  1.00  0.00     0.031 C 
ATOM     51  C   UNL A   1      43.035  27.790  32.587  1.00  0.00     0.029 A 
ATOM     52  C   UNL A   1      42.414  28.810  33.291  1.00  0.00     0.049 A 
ATOM     53  H   UNL A   1      40.757  29.992  32.731  1.00  0.00     0.167 HD
ATOM     54  C   UNL A   1      42.091  30.348  35.214  1.00  0.00     0.074 A 
ATOM     55  C   UNL A   1      42.436  30.862  36.523  1.00  0.00     0.031 C 
ATOM     56  C   UNL A   1      42.742  29.330  34.596  1.00  0.00     0.037 A 
BRANCH  43  57
ATOM     57  C   UNL A   1      40.419  27.840  29.056  1.00  0.00     0.064 A 
ATOM     58  C   UNL A   1      41.202  28.129  27.927  1.00  0.00     0.173 A 
ATOM     59  C   UNL A   1      39.661  26.659  29.039  1.00  0.00     0.173 A 
ATOM     60  F   UNL A   1      41.940  29.249  27.884  1.00  0.00    -0.203 F 
ATOM     61  C   UNL A   1      41.187  27.298  26.810  1.00  0.00     0.198 A 
ATOM     62  C   UNL A   1      39.678  25.811  27.935  1.00  0.00     0.198 A 
ATOM     63  F   UNL A   1      38.899  26.328  30.092  1.00  0.00    -0.203 F 
ATOM     64  F   UNL A   1      41.886  27.634  25.717  1.00  0.00    -0.200 F 
ATOM     65  C   UNL A   1      40.429  26.137  26.816  1.00  0.00     0.200 A 
ATOM     66  F   UNL A   1      38.957  24.682  27.949  1.00  0.00    -0.200 F 
ATOM     67  F   UNL A   1      40.414  25.339  25.740  1.00  0.00    -0.200 F 
ENDBRANCH  43  57
BRANCH  44  68
ATOM     68  C   UNL A   1      39.493  33.867  36.968  1.00  0.00     0.064 A 
ATOM     69  C   UNL A   1      38.714  33.435  38.051  1.00  0.00     0.173 A 
ATOM     70  C   UNL A   1      40.113  35.122  37.071  1.00  0.00     0.173 A 
ATOM     71  F   UNL A   1      38.086  32.251  37.994  1.00  0.00    -0.203 F 
ATOM     72  C   UNL A   1      38.552  34.231  39.184  1.00  0.00     0.198 A 
ATOM     73  C   UNL A   1      39.975  35.902  38.216  1.00  0.00     0.198 A 
ATOM     74  F   UNL A   1      40.877  35.577  36.067  1.00  0.00    -0.203 F 
ATOM     75  F   UNL A   1      37.773  33.809  40.189  1.00  0.00    -0.200 F 
ATOM     76  C   UNL A   1      39.189  35.459  39.269  1.00  0.00     0.200 A 
ATOM     77  F   UNL A   1      40.609  37.080  38.302  1.00  0.00    -0.200 F 
ATOM     78  F   UNL A   1      39.045  36.217  40.365  1.00  0.00    -0.200 F 
ENDBRANCH  44  68
BRANCH  56  79
ATOM     79  C   UNL A   1      43.911  28.721  35.317  1.00  0.00     0.064 A 
ATOM     80  C   UNL A   1      45.216  29.205  35.152  1.00  0.00     0.173 A 
ATOM     81  C   UNL A   1      43.713  27.662  36.218  1.00  0.00     0.173 A 
ATOM     82  F   UNL A   1      45.462  30.205  34.292  1.00  0.00    -0.203 F 
ATOM     83  C   UNL A   1      46.283  28.637  35.842  1.00  0.00     0.198 A 
ATOM     84  C   UNL A   1      44.778  27.119  36.931  1.00  0.00     0.198 A 
ATOM     85  F   UNL A   1      42.483  27.164  36.418  1.00  0.00    -0.203 F 
ATOM     86  F   UNL A   1      47.529  29.083  35.631  1.00  0.00    -0.200 F 
ATOM     87  C   UNL A   1      46.063  27.600  36.737  1.00  0.00     0.200 A 
ATOM     88  F   UNL A   1      44.559  26.128  37.807  1.00  0.00    -0.200 F 
ATOM     89  F   UNL A   1      47.090  27.061  37.407  1.00  0.00    -0.200 F 
ENDBRANCH  56  79
ENDBRANCH  30  31
ENDBRANCH  22  25
ENDBRANCH  20  21
ENDBRANCH   1  20
TORSDOF 12
ENDMDL
MODEL 2
REMARK VINA RESULT:     -12.3      1.733      3.725
REMARK SMILES CC1(C(=O)N2CC[C@H](C(=O)NCCCNC(=O)c3ccc(-c4c5nc(c(-c6c(F)c(F)c(F)c(F)c6F)c6ccc([nH]6)c(-c6c(F)c(F)c(F)c(F)c6F)c6nc(c(-c7c(F)c(F)c(F)c(F)c7F)c7ccc4[nH]7)C=C6)C=C5)cc3)C2)CCCC1
REMARK SMILES IDX 13 1 12 2 11 3 9 4 10 5 8 7 5 8 6 9 81 10 7 11 3 12 4 13
REMARK SMILES IDX 2 14 1 15 82 16 85 17 83 18 84 19 14 20 15 21 16 22 17 24
REMARK SMILES IDX 18 25 19 26 80 27 20 28 79 29 21 30 22 31 23 32 73 33 24 34
REMARK SMILES IDX 78 35 72 36 74 37 25 38 77 39 71 40 70 41 26 43 58 44 38 45
REMARK SMILES IDX 57 46 39 47 42 48 56 49 75 50 40 51 41 52 55 54 76 55 43 56
REMARK SMILES IDX 27 57 28 58 36 59 29 60 30 61 34 62 37 63 31 64 32 65 35 66
REMARK SMILES IDX 33 67 59 68 60 69 68 70 61 71 62 72 66 73 69 74 63 75 64 76
REMARK SMILES IDX 67 77 65 78 44 79 45 80 53 81 46 82 47 83 51 84 54 85 48 86
REMARK SMILES IDX 49 87 52 88 50 89
REMARK H PARENT 11 6 15 23 74 42 42 53
REMARK Flexibility Score: inf
ROOT
ATOM      1  C   UNL A   1      31.426  32.205  26.560  1.00  0.00     0.042 C 
ENDROOT
BRANCH   1   2
ATOM      2  C   UNL A   1      31.659  30.794  26.040  1.00  0.00     0.117 C 
BRANCH   2   3
ATOM      3  N   UNL A   1      31.520  29.783  27.069  1.00  0.00    -0.356 N 
ATOM      4  C   UNL A   1      31.524  28.425  26.990  1.00  0.00     0.224 C 
ATOM      5  O   UNL A   1      31.404  27.805  28.050  1.00  0.00    -0.275 OA
ATOM      6  H   UNL A   1      31.406  30.140  27.980  1.00  0.00     0.163 HD
BRANCH   4   7
ATOM      7  C   UNL A   1      31.620  27.668  25.674  1.00  0.00     0.099 C 
ATOM      8  N   UNL A   1      30.454  28.108  23.655  1.00  0.00    -0.341 N 
ATOM      9  C   UNL A   1      30.159  26.735  24.001  1.00  0.00     0.120 C 
ATOM     10  C   UNL A   1      31.612  28.551  24.425  1.00  0.00     0.133 C 
ATOM     11  C   UNL A   1      30.493  26.649  25.479  1.00  0.00     0.037 C 
BRANCH   8  12
ATOM     12  C   UNL A   1      30.016  28.858  22.582  1.00  0.00     0.228 C 
ATOM     13  O   UNL A   1      30.780  29.030  21.626  1.00  0.00    -0.274 OA
BRANCH  12  14
ATOM     14  C   UNL A   1      28.710  29.694  22.699  1.00  0.00     0.047 C 
ATOM     15  C   UNL A   1      27.451  28.933  23.126  1.00  0.00     0.022 C 
ATOM     16  C   UNL A   1      28.421  30.452  21.380  1.00  0.00     0.016 C 
ATOM     17  C   UNL A   1      28.986  30.879  23.646  1.00  0.00     0.016 C 
ATOM     18  C   UNL A   1      27.652  31.709  21.782  1.00  0.00     0.001 C 
ATOM     19  C   UNL A   1      28.064  32.014  23.217  1.00  0.00     0.001 C 
ENDBRANCH  12  14
ENDBRANCH   8  12
ENDBRANCH   4   7
ENDBRANCH   2   3
ENDBRANCH   1   2
BRANCH   1  20
ATOM     20  C   UNL A   1      32.642  32.819  27.232  1.00  0.00     0.118 C 
BRANCH  20  21
ATOM     21  N   UNL A   1      32.420  34.205  27.629  1.00  0.00    -0.352 N 
ATOM     22  C   UNL A   1      32.997  34.951  28.625  1.00  0.00     0.251 C 
ATOM     23  H   UNL A   1      31.748  34.683  27.093  1.00  0.00     0.163 HD
ATOM     24  O   UNL A   1      32.523  36.049  28.914  1.00  0.00    -0.269 OA
BRANCH  22  25
ATOM     25  C   UNL A   1      34.166  34.441  29.373  1.00  0.00     0.039 A 
ATOM     26  C   UNL A   1      33.965  33.825  30.610  1.00  0.00     0.014 A 
ATOM     27  C   UNL A   1      35.460  34.582  28.870  1.00  0.00     0.014 A 
ATOM     28  C   UNL A   1      35.050  33.283  31.302  1.00  0.00     0.010 A 
ATOM     29  C   UNL A   1      36.524  33.951  29.504  1.00  0.00     0.010 A 
ATOM     30  C   UNL A   1      36.333  33.302  30.732  1.00  0.00    -0.014 A 
BRANCH  30  31
ATOM     31  C   UNL A   1      37.490  32.654  31.400  1.00  0.00     0.031 A 
ATOM     32  C   UNL A   1      38.185  31.492  30.747  1.00  0.00     0.074 A 
ATOM     33  C   UNL A   1      37.858  33.054  32.631  1.00  0.00     0.049 A 
ATOM     34  N   UNL A   1      39.151  30.736  31.207  1.00  0.00    -0.248 NA
ATOM     35  C   UNL A   1      37.708  31.104  29.410  1.00  0.00     0.031 C 
ATOM     36  C   UNL A   1      37.220  34.125  33.398  1.00  0.00     0.029 A 
ATOM     37  N   UNL A   1      38.845  32.592  33.466  1.00  0.00    -0.354 N 
ATOM     38  C   UNL A   1      39.379  29.778  30.230  1.00  0.00     0.074 A 
ATOM     39  C   UNL A   1      38.409  30.005  29.180  1.00  0.00     0.031 C 
ATOM     40  C   UNL A   1      37.840  34.248  34.581  1.00  0.00     0.029 A 
ATOM     41  C   UNL A   1      38.890  33.239  34.676  1.00  0.00     0.049 A 
ATOM     42  H   UNL A   1      39.463  31.865  33.220  1.00  0.00     0.167 HD
ATOM     43  C   UNL A   1      40.331  28.813  30.194  1.00  0.00     0.037 A 
ATOM     44  C   UNL A   1      39.678  33.032  35.748  1.00  0.00     0.037 A 
ATOM     45  C   UNL A   1      41.304  28.603  31.234  1.00  0.00     0.049 A 
ATOM     46  C   UNL A   1      40.729  31.960  35.689  1.00  0.00     0.074 A 
ATOM     47  C   UNL A   1      42.351  27.701  31.269  1.00  0.00     0.029 A 
ATOM     48  N   UNL A   1      41.341  29.304  32.432  1.00  0.00    -0.354 N 
ATOM     49  N   UNL A   1      40.993  31.112  34.724  1.00  0.00    -0.248 NA
ATOM     50  C   UNL A   1      41.601  31.821  36.863  1.00  0.00     0.031 C 
ATOM     51  C   UNL A   1      42.985  27.814  32.510  1.00  0.00     0.029 A 
ATOM     52  C   UNL A   1      42.375  28.832  33.225  1.00  0.00     0.049 A 
ATOM     53  H   UNL A   1      40.723  30.029  32.682  1.00  0.00     0.167 HD
ATOM     54  C   UNL A   1      42.071  30.356  35.162  1.00  0.00     0.074 A 
ATOM     55  C   UNL A   1      42.425  30.857  36.474  1.00  0.00     0.031 C 
ATOM     56  C   UNL A   1      42.712  29.339  34.533  1.00  0.00     0.037 A 
BRANCH  43  57
ATOM     57  C   UNL A   1      40.354  27.910  28.992  1.00  0.00     0.064 A 
ATOM     58  C   UNL A   1      39.632  26.706  28.956  1.00  0.00     0.173 A 
ATOM     59  C   UNL A   1      41.105  28.254  27.857  1.00  0.00     0.173 A 
ATOM     60  F   UNL A   1      38.905  26.322  30.017  1.00  0.00    -0.203 F 
ATOM     61  C   UNL A   1      39.702  25.859  27.854  1.00  0.00     0.198 A 
ATOM     62  C   UNL A   1      41.141  27.422  26.741  1.00  0.00     0.198 A 
ATOM     63  F   UNL A   1      41.808  29.396  27.830  1.00  0.00    -0.203 F 
ATOM     64  F   UNL A   1      39.063  24.681  27.875  1.00  0.00    -0.200 F 
ATOM     65  C   UNL A   1      40.452  26.219  26.745  1.00  0.00     0.200 A 
ATOM     66  F   UNL A   1      41.854  27.781  25.664  1.00  0.00    -0.200 F 
ATOM     67  F   UNL A   1      40.519  25.402  25.685  1.00  0.00    -0.200 F 
ENDBRANCH  43  57
BRANCH  44  68
ATOM     68  C   UNL A   1      39.504  33.878  36.958  1.00  0.00     0.064 A 
ATOM     69  C   UNL A   1      40.080  35.153  37.039  1.00  0.00     0.173 A 
ATOM     70  C   UNL A   1      38.734  33.440  38.046  1.00  0.00     0.173 A 
ATOM     71  F   UNL A   1      40.839  35.610  36.032  1.00  0.00    -0.203 F 
ATOM     72  C   UNL A   1      39.905  35.952  38.168  1.00  0.00     0.198 A 
ATOM     73  C   UNL A   1      38.535  34.251  39.160  1.00  0.00     0.198 A 
ATOM     74  F   UNL A   1      38.153  32.231  38.014  1.00  0.00    -0.203 F 
ATOM     75  F   UNL A   1      40.496  37.152  38.234  1.00  0.00    -0.200 F 
ATOM     76  C   UNL A   1      39.125  35.504  39.224  1.00  0.00     0.200 A 
ATOM     77  F   UNL A   1      37.764  33.821  40.169  1.00  0.00    -0.200 F 
ATOM     78  F   UNL A   1      38.945  36.278  40.302  1.00  0.00    -0.200 F 
ENDBRANCH  44  68
BRANCH  56  79
ATOM     79  C   UNL A   1      43.880  28.715  35.244  1.00  0.00     0.064 A 
ATOM     80  C   UNL A   1      43.722  27.618  36.103  1.00  0.00     0.173 A 
ATOM     81  C   UNL A   1      45.180  29.200  35.030  1.00  0.00     0.173 A 
ATOM     82  F   UNL A   1      42.500  27.126  36.353  1.00  0.00    -0.203 F 
ATOM     83  C   UNL A   1      44.819  27.045  36.740  1.00  0.00     0.198 A 
ATOM     84  C   UNL A   1      46.277  28.603  35.642  1.00  0.00     0.198 A 
ATOM     85  F   UNL A   1      45.387  30.245  34.213  1.00  0.00    -0.203 F 
ATOM     86  F   UNL A   1      44.640  26.028  37.595  1.00  0.00    -0.200 F 
ATOM     87  C   UNL A   1      46.097  27.532  36.503  1.00  0.00     0.200 A 
ATOM     88  F   UNL A   1      47.512  29.065  35.399  1.00  0.00    -0.200 F 
ATOM     89  F   UNL A   1      47.152  26.972  37.110  1.00  0.00    -0.200 F 
ENDBRANCH  56  79
ENDBRANCH  30  31
ENDBRANCH  22  25
ENDBRANCH  20  21
ENDBRANCH   1  20
TORSDOF 12
ENDMDL
MODEL 3
REMARK VINA RESULT:     -12.3      0.866      1.946
REMARK SMILES CC1(C(=O)N2CC[C@H](C(=O)NCCCNC(=O)c3ccc(-c4c5nc(c(-c6c(F)c(F)c(F)c(F)c6F)c6ccc([nH]6)c(-c6c(F)c(F)c(F)c(F)c6F)c6nc(c(-c7c(F)c(F)c(F)c(F)c7F)c7ccc4[nH]7)C=C6)C=C5)cc3)C2)CCCC1
REMARK SMILES IDX 13 1 12 2 11 3 9 4 10 5 8 7 5 8 6 9 81 10 7 11 3 12 4 13
REMARK SMILES IDX 2 14 1 15 82 16 85 17 83 18 84 19 14 20 15 21 16 22 17 24
REMARK SMILES IDX 18 25 19 26 80 27 20 28 79 29 21 30 22 31 23 32 73 33 24 34
REMARK SMILES IDX 78 35 72 36 74 37 25 38 77 39 71 40 70 41 26 43 58 44 38 45
REMARK SMILES IDX 57 46 39 47 42 48 56 49 75 50 40 51 41 52 55 54 76 55 43 56
REMARK SMILES IDX 27 57 28 58 36 59 29 60 30 61 34 62 37 63 31 64 32 65 35 66
REMARK SMILES IDX 33 67 59 68 60 69 68 70 61 71 62 72 66 73 69 74 63 75 64 76
REMARK SMILES IDX 67 77 65 78 44 79 45 80 53 81 46 82 47 83 51 84 54 85 48 86
REMARK SMILES IDX 49 87 52 88 50 89
REMARK H PARENT 11 6 15 23 74 42 42 53
REMARK Flexibility Score: inf
ROOT
ATOM      1  C   UNL A   1      31.409  32.232  26.526  1.00  0.00     0.042 C 
ENDROOT
BRANCH   1   2
ATOM      2  C   UNL A   1      31.423  30.712  26.458  1.00  0.00     0.117 C 
BRANCH   2   3
ATOM      3  N   UNL A   1      32.241  30.203  25.375  1.00  0.00    -0.356 N 
ATOM      4  C   UNL A   1      32.123  29.075  24.625  1.00  0.00     0.224 C 
ATOM      5  O   UNL A   1      32.968  28.902  23.742  1.00  0.00    -0.275 OA
ATOM      6  H   UNL A   1      33.012  30.770  25.144  1.00  0.00     0.163 HD
BRANCH   4   7
ATOM      7  C   UNL A   1      31.045  28.027  24.859  1.00  0.00     0.099 C 
ATOM      8  N   UNL A   1      31.338  25.733  25.386  1.00  0.00    -0.341 N 
ATOM      9  C   UNL A   1      30.524  25.772  24.191  1.00  0.00     0.120 C 
ATOM     10  C   UNL A   1      31.335  27.056  26.003  1.00  0.00     0.133 C 
ATOM     11  C   UNL A   1      30.767  27.160  23.627  1.00  0.00     0.037 C 
BRANCH   8  12
ATOM     12  C   UNL A   1      31.805  24.645  26.097  1.00  0.00     0.228 C 
ATOM     13  O   UNL A   1      31.350  24.432  27.226  1.00  0.00    -0.274 OA
BRANCH  12  14
ATOM     14  C   UNL A   1      33.067  23.880  25.606  1.00  0.00     0.047 C 
ATOM     15  C   UNL A   1      32.856  22.887  24.459  1.00  0.00     0.022 C 
ATOM     16  C   UNL A   1      33.763  23.154  26.784  1.00  0.00     0.016 C 
ATOM     17  C   UNL A   1      34.146  24.920  25.244  1.00  0.00     0.016 C 
ATOM     18  C   UNL A   1      35.244  23.085  26.412  1.00  0.00     0.001 C 
ATOM     19  C   UNL A   1      35.497  24.256  25.472  1.00  0.00     0.001 C 
ENDBRANCH  12  14
ENDBRANCH   8  12
ENDBRANCH   4   7
ENDBRANCH   2   3
ENDBRANCH   1   2
BRANCH   1  20
ATOM     20  C   UNL A   1      32.602  32.824  27.256  1.00  0.00     0.118 C 
BRANCH  20  21
ATOM     21  N   UNL A   1      32.394  34.221  27.625  1.00  0.00    -0.352 N 
ATOM     22  C   UNL A   1      32.986  34.983  28.599  1.00  0.00     0.251 C 
ATOM     23  H   UNL A   1      31.720  34.692  27.085  1.00  0.00     0.163 HD
ATOM     24  O   UNL A   1      32.523  36.091  28.869  1.00  0.00    -0.269 OA
BRANCH  22  25
ATOM     25  C   UNL A   1      34.158  34.481  29.347  1.00  0.00     0.039 A 
ATOM     26  C   UNL A   1      33.964  33.890  30.598  1.00  0.00     0.014 A 
ATOM     27  C   UNL A   1      35.449  34.604  28.830  1.00  0.00     0.014 A 
ATOM     28  C   UNL A   1      35.052  33.355  31.291  1.00  0.00     0.010 A 
ATOM     29  C   UNL A   1      36.514  33.978  29.467  1.00  0.00     0.010 A 
ATOM     30  C   UNL A   1      36.330  33.355  30.709  1.00  0.00    -0.014 A 
BRANCH  30  31
ATOM     31  C   UNL A   1      37.489  32.712  31.380  1.00  0.00     0.031 A 
ATOM     32  C   UNL A   1      38.179  31.542  30.738  1.00  0.00     0.074 A 
ATOM     33  C   UNL A   1      37.862  33.126  32.605  1.00  0.00     0.049 A 
ATOM     34  N   UNL A   1      39.145  30.790  31.203  1.00  0.00    -0.248 NA
ATOM     35  C   UNL A   1      37.696  31.140  29.407  1.00  0.00     0.031 C 
ATOM     36  C   UNL A   1      37.229  34.208  33.362  1.00  0.00     0.029 A 
ATOM     37  N   UNL A   1      38.852  32.672  33.442  1.00  0.00    -0.354 N 
ATOM     38  C   UNL A   1      39.369  29.821  30.236  1.00  0.00     0.074 A 
ATOM     39  C   UNL A   1      38.394  30.037  29.187  1.00  0.00     0.031 C 
ATOM     40  C   UNL A   1      37.854  34.343  34.541  1.00  0.00     0.029 A 
ATOM     41  C   UNL A   1      38.903  33.333  34.643  1.00  0.00     0.049 A 
ATOM     42  H   UNL A   1      39.467  31.942  33.201  1.00  0.00     0.167 HD
ATOM     43  C   UNL A   1      40.318  28.854  30.208  1.00  0.00     0.037 A 
ATOM     44  C   UNL A   1      39.695  33.138  35.715  1.00  0.00     0.037 A 
ATOM     45  C   UNL A   1      41.295  28.655  31.246  1.00  0.00     0.049 A 
ATOM     46  C   UNL A   1      40.744  32.063  35.664  1.00  0.00     0.074 A 
ATOM     47  C   UNL A   1      42.341  27.751  31.287  1.00  0.00     0.029 A 
ATOM     48  N   UNL A   1      41.338  29.369  32.435  1.00  0.00    -0.354 N 
ATOM     49  N   UNL A   1      41.003  31.204  34.708  1.00  0.00    -0.248 NA
ATOM     50  C   UNL A   1      41.621  31.937  36.836  1.00  0.00     0.031 C 
ATOM     51  C   UNL A   1      42.980  27.877  32.524  1.00  0.00     0.029 A 
ATOM     52  C   UNL A   1      42.375  28.905  33.230  1.00  0.00     0.049 A 
ATOM     53  H   UNL A   1      40.723  30.098  32.680  1.00  0.00     0.167 HD
ATOM     54  C   UNL A   1      42.081  30.451  35.150  1.00  0.00     0.074 A 
ATOM     55  C   UNL A   1      42.441  30.967  36.455  1.00  0.00     0.031 C 
ATOM     56  C   UNL A   1      42.718  29.426  34.530  1.00  0.00     0.037 A 
BRANCH  43  57
ATOM     57  C   UNL A   1      40.335  27.937  29.015  1.00  0.00     0.064 A 
ATOM     58  C   UNL A   1      39.614  26.732  28.998  1.00  0.00     0.173 A 
ATOM     59  C   UNL A   1      41.079  28.268  27.873  1.00  0.00     0.173 A 
ATOM     60  F   UNL A   1      38.893  26.361  30.067  1.00  0.00    -0.203 F 
ATOM     61  C   UNL A   1      39.678  25.872  27.905  1.00  0.00     0.198 A 
ATOM     62  C   UNL A   1      41.110  27.423  26.766  1.00  0.00     0.198 A 
ATOM     63  F   UNL A   1      41.781  29.410  27.829  1.00  0.00    -0.203 F 
ATOM     64  F   UNL A   1      39.040  24.694  27.944  1.00  0.00    -0.200 F 
ATOM     65  C   UNL A   1      40.421  26.220  26.788  1.00  0.00     0.200 A 
ATOM     66  F   UNL A   1      41.816  27.769  25.681  1.00  0.00    -0.200 F 
ATOM     67  F   UNL A   1      40.483  25.391  25.738  1.00  0.00    -0.200 F 
ENDBRANCH  43  57
BRANCH  44  68
ATOM     68  C   UNL A   1      39.527  33.998  36.915  1.00  0.00     0.064 A 
ATOM     69  C   UNL A   1      38.768  33.569  38.013  1.00  0.00     0.173 A 
ATOM     70  C   UNL A   1      40.145  35.255  37.001  1.00  0.00     0.173 A 
ATOM     71  F   UNL A   1      38.143  32.383  37.972  1.00  0.00    -0.203 F 
ATOM     72  C   UNL A   1      38.622  34.370  39.145  1.00  0.00     0.198 A 
ATOM     73  C   UNL A   1      40.023  36.041  38.144  1.00  0.00     0.198 A 
ATOM     74  F   UNL A   1      40.890  35.708  35.982  1.00  0.00    -0.203 F 
ATOM     75  F   UNL A   1      37.862  33.950  40.165  1.00  0.00    -0.200 F 
ATOM     76  C   UNL A   1      39.257  35.601  39.213  1.00  0.00     0.200 A 
ATOM     77  F   UNL A   1      40.655  37.221  38.213  1.00  0.00    -0.200 F 
ATOM     78  F   UNL A   1      39.129  36.363  40.307  1.00  0.00    -0.200 F 
ENDBRANCH  44  68
BRANCH  56  79
ATOM     79  C   UNL A   1      43.888  28.809  35.244  1.00  0.00     0.064 A 
ATOM     80  C   UNL A   1      43.726  27.753  36.152  1.00  0.00     0.173 A 
ATOM     81  C   UNL A   1      45.192  29.257  34.983  1.00  0.00     0.173 A 
ATOM     82  F   UNL A   1      42.500  27.298  36.448  1.00  0.00    -0.203 F 
ATOM     83  C   UNL A   1      44.825  27.184  36.791  1.00  0.00     0.198 A 
ATOM     84  C   UNL A   1      46.291  28.664  35.598  1.00  0.00     0.198 A 
ATOM     85  F   UNL A   1      45.403  30.261  34.118  1.00  0.00    -0.203 F 
ATOM     86  F   UNL A   1      44.643  26.209  37.692  1.00  0.00    -0.200 F 
ATOM     87  C   UNL A   1      46.107  27.634  36.508  1.00  0.00     0.200 A 
ATOM     88  F   UNL A   1      47.529  29.089  35.310  1.00  0.00    -0.200 F 
ATOM     89  F   UNL A   1      47.163  27.078  37.116  1.00  0.00    -0.200 F 
ENDBRANCH  56  79
ENDBRANCH  30  31
ENDBRANCH  22  25
ENDBRANCH  20  21
ENDBRANCH   1  20
TORSDOF 12
ENDMDL
