MODEL 1
REMARK VINA RESULT:     -10.2      0.000      0.000
REMARK SMILES COc1cccc([C@@]([NH3+])(C(=O)NCCCNC(=O)c2ccc(-c3c4nc(c(-c5c(F)c(F)c(F)c(F)c5F)c5ccc([nH]5)c(-c5c(F)c(F)c(F)c(F)c5F)c5nc(c(-c6c(F)c(F)c(F)c(F)c6F)c6ccc3[nH]6)C=C5)C=C4)cc2)C(F)(F)F)c1
REMARK SMILES IDX 14 1 13 2 12 3 10 4 11 5 8 7 7 8 3 9 4 10 86 11 5 12 6 13
REMARK SMILES IDX 2 14 1 15 9 16 82 20 83 21 84 22 85 23 15 24 16 25 17 26
REMARK SMILES IDX 18 28 19 29 20 30 81 31 21 32 80 33 22 34 23 35 24 36 74 37
REMARK SMILES IDX 25 38 79 39 73 40 75 41 26 42 78 43 72 44 71 45 27 47 59 48
REMARK SMILES IDX 39 49 58 50 40 51 43 52 57 53 76 54 41 55 42 56 56 58 77 59
REMARK SMILES IDX 44 60 28 61 29 62 37 63 30 64 31 65 35 66 38 67 32 68 33 69
REMARK SMILES IDX 36 70 34 71 60 72 61 73 69 74 62 75 63 76 67 77 70 78 64 79
REMARK SMILES IDX 65 80 68 81 66 82 45 83 46 84 54 85 47 86 48 87 52 88 55 89
REMARK SMILES IDX 49 90 50 91 53 92 51 93
REMARK H PARENT 12 6 9 17 9 18 9 19 16 27 75 46 43 57
REMARK Flexibility Score: inf
ROOT
ATOM      1  C   UNL A   1      33.682  34.225  28.507  1.00  0.00     0.042 C 
ENDROOT
BRANCH   1   2
ATOM      2  C   UNL A   1      33.809  34.607  29.980  1.00  0.00     0.118 C 
BRANCH   2   3
ATOM      3  N   UNL A   1      33.980  33.433  30.819  1.00  0.00    -0.350 N 
ATOM      4  C   UNL A   1      34.894  33.097  31.779  1.00  0.00     0.296 C 
ATOM      5  O   UNL A   1      34.804  31.927  32.169  1.00  0.00    -0.267 OA
ATOM      6  H   UNL A   1      33.298  32.739  30.667  1.00  0.00     0.163 HD
BRANCH   4   7
ATOM      7  C   UNL A   1      35.987  34.064  32.338  1.00  0.00     0.295 C 
BRANCH   7   8
ATOM      8  C   UNL A   1      37.286  33.990  31.498  1.00  0.00     0.035 A 
ATOM      9  C   UNL A   1      39.702  34.332  31.208  1.00  0.00     0.119 A 
ATOM     10  C   UNL A   1      39.628  33.819  29.915  1.00  0.00     0.046 A 
ATOM     11  C   UNL A   1      38.543  34.399  31.994  1.00  0.00     0.057 A 
ATOM     12  C   UNL A   1      38.410  33.398  29.400  1.00  0.00     0.004 A 
ATOM     13  C   UNL A   1      37.254  33.506  30.175  1.00  0.00     0.011 A 
BRANCH   9  14
ATOM     14  O   UNL A   1      40.952  34.752  31.571  1.00  0.00    -0.497 OA
ATOM     15  C   UNL A   1      42.061  34.146  30.921  1.00  0.00     0.278 C 
ENDBRANCH   9  14
ENDBRANCH   7   8
BRANCH   7  16
ATOM     16  N   UNL A   1      35.463  35.493  32.338  1.00  0.00    -0.333 N 
ATOM     17  H   UNL A   1      34.491  35.500  32.027  1.00  0.00     0.345 HD
ATOM     18  H   UNL A   1      36.026  36.061  31.706  1.00  0.00     0.345 HD
ATOM     19  H   UNL A   1      35.521  35.877  33.282  1.00  0.00     0.345 HD
ENDBRANCH   7  16
BRANCH   7  20
ATOM     20  C   UNL A   1      36.174  33.607  33.833  1.00  0.00     0.458 C 
ATOM     21  F   UNL A   1      36.885  32.479  34.020  1.00  0.00    -0.164 F 
ATOM     22  F   UNL A   1      36.802  34.590  34.540  1.00  0.00    -0.164 F 
ATOM     23  F   UNL A   1      34.966  33.442  34.439  1.00  0.00    -0.164 F 
ENDBRANCH   7  20
ENDBRANCH   4   7
ENDBRANCH   2   3
ENDBRANCH   1   2
BRANCH   1  24
ATOM     24  C   UNL A   1      34.649  33.132  28.067  1.00  0.00     0.118 C 
BRANCH  24  25
ATOM     25  N   UNL A   1      33.956  31.940  27.601  1.00  0.00    -0.352 N 
ATOM     26  C   UNL A   1      34.389  30.641  27.499  1.00  0.00     0.251 C 
ATOM     27  H   UNL A   1      33.027  32.089  27.314  1.00  0.00     0.163 HD
ATOM     28  O   UNL A   1      33.706  29.829  26.881  1.00  0.00    -0.269 OA
BRANCH  26  29
ATOM     29  C   UNL A   1      35.668  30.203  28.107  1.00  0.00     0.039 A 
ATOM     30  C   UNL A   1      35.658  29.759  29.434  1.00  0.00     0.014 A 
ATOM     31  C   UNL A   1      36.879  30.285  27.416  1.00  0.00     0.014 A 
ATOM     32  C   UNL A   1      36.848  29.353  30.047  1.00  0.00     0.010 A 
ATOM     33  C   UNL A   1      38.054  29.812  28.002  1.00  0.00     0.010 A 
ATOM     34  C   UNL A   1      38.053  29.351  29.328  1.00  0.00    -0.014 A 
BRANCH  34  35
ATOM     35  C   UNL A   1      39.322  28.888  29.949  1.00  0.00     0.031 A 
ATOM     36  C   UNL A   1      39.863  29.580  31.170  1.00  0.00     0.074 A 
ATOM     37  C   UNL A   1      40.021  27.888  29.376  1.00  0.00     0.049 A 
ATOM     38  N   UNL A   1      40.993  29.381  31.804  1.00  0.00    -0.248 NA
ATOM     39  C   UNL A   1      39.038  30.655  31.745  1.00  0.00     0.031 C 
ATOM     40  C   UNL A   1      39.628  27.166  28.165  1.00  0.00     0.029 A 
ATOM     41  N   UNL A   1      41.219  27.316  29.728  1.00  0.00    -0.354 N 
ATOM     42  C   UNL A   1      41.025  30.320  32.826  1.00  0.00     0.074 A 
ATOM     43  C   UNL A   1      39.820  31.113  32.713  1.00  0.00     0.031 C 
ATOM     44  C   UNL A   1      40.561  26.244  27.880  1.00  0.00     0.029 A 
ATOM     45  C   UNL A   1      41.634  26.330  28.866  1.00  0.00     0.049 A 
ATOM     46  H   UNL A   1      41.732  27.588  30.524  1.00  0.00     0.167 HD
ATOM     47  C   UNL A   1      41.967  30.495  33.783  1.00  0.00     0.037 A 
ATOM     48  C   UNL A   1      42.758  25.588  28.864  1.00  0.00     0.037 A 
ATOM     49  C   UNL A   1      43.140  29.673  33.927  1.00  0.00     0.049 A 
ATOM     50  C   UNL A   1      43.776  25.790  29.956  1.00  0.00     0.074 A 
ATOM     51  C   UNL A   1      44.106  29.717  34.918  1.00  0.00     0.029 A 
ATOM     52  N   UNL A   1      43.504  28.657  33.058  1.00  0.00    -0.354 N 
ATOM     53  N   UNL A   1      43.754  26.629  30.962  1.00  0.00    -0.248 NA
ATOM     54  C   UNL A   1      44.970  24.934  29.914  1.00  0.00     0.031 C 
ATOM     55  C   UNL A   1      45.076  28.753  34.627  1.00  0.00     0.029 A 
ATOM     56  C   UNL A   1      44.692  28.080  33.479  1.00  0.00     0.049 A 
ATOM     57  H   UNL A   1      42.995  28.385  32.261  1.00  0.00     0.167 HD
ATOM     58  C   UNL A   1      44.911  26.382  31.689  1.00  0.00     0.074 A 
ATOM     59  C   UNL A   1      45.607  25.305  31.017  1.00  0.00     0.031 C 
ATOM     60  C   UNL A   1      45.360  26.995  32.811  1.00  0.00     0.037 A 
BRANCH  47  61
ATOM     61  C   UNL A   1      41.775  31.611  34.767  1.00  0.00     0.064 A 
ATOM     62  C   UNL A   1      42.443  32.836  34.629  1.00  0.00     0.173 A 
ATOM     63  C   UNL A   1      40.849  31.481  35.813  1.00  0.00     0.173 A 
ATOM     64  F   UNL A   1      43.344  33.007  33.649  1.00  0.00    -0.203 F 
ATOM     65  C   UNL A   1      42.201  33.886  35.510  1.00  0.00     0.198 A 
ATOM     66  C   UNL A   1      40.591  32.541  36.677  1.00  0.00     0.198 A 
ATOM     67  F   UNL A   1      40.178  30.331  35.984  1.00  0.00    -0.203 F 
ATOM     68  F   UNL A   1      42.872  35.039  35.377  1.00  0.00    -0.200 F 
ATOM     69  C   UNL A   1      41.269  33.741  36.527  1.00  0.00     0.200 A 
ATOM     70  F   UNL A   1      39.680  32.405  37.652  1.00  0.00    -0.200 F 
ATOM     71  F   UNL A   1      41.024  34.760  37.364  1.00  0.00    -0.200 F 
ENDBRANCH  47  61
BRANCH  48  72
ATOM     72  C   UNL A   1      42.986  24.576  27.800  1.00  0.00     0.064 A 
ATOM     73  C   UNL A   1      42.610  23.238  27.985  1.00  0.00     0.173 A 
ATOM     74  C   UNL A   1      43.615  24.916  26.593  1.00  0.00     0.173 A 
ATOM     75  F   UNL A   1      42.026  22.861  29.132  1.00  0.00    -0.203 F 
ATOM     76  C   UNL A   1      42.882  22.273  27.018  1.00  0.00     0.198 A 
ATOM     77  C   UNL A   1      43.859  23.956  25.614  1.00  0.00     0.198 A 
ATOM     78  F   UNL A   1      43.992  26.183  26.365  1.00  0.00    -0.203 F 
ATOM     79  F   UNL A   1      42.564  20.991  27.245  1.00  0.00    -0.200 F 
ATOM     80  C   UNL A   1      43.503  22.633  25.831  1.00  0.00     0.200 A 
ATOM     81  F   UNL A   1      44.449  24.309  24.464  1.00  0.00    -0.200 F 
ATOM     82  F   UNL A   1      43.769  21.704  24.904  1.00  0.00    -0.200 F 
ENDBRANCH  48  72
BRANCH  60  83
ATOM     83  C   UNL A   1      46.638  26.488  33.408  1.00  0.00     0.064 A 
ATOM     84  C   UNL A   1      47.879  27.051  33.077  1.00  0.00     0.173 A 
ATOM     85  C   UNL A   1      46.616  25.452  34.355  1.00  0.00     0.173 A 
ATOM     86  F   UNL A   1      47.953  28.032  32.166  1.00  0.00    -0.203 F 
ATOM     87  C   UNL A   1      49.054  26.580  33.655  1.00  0.00     0.198 A 
ATOM     88  C   UNL A   1      47.790  25.003  34.952  1.00  0.00     0.198 A 
ATOM     89  F   UNL A   1      45.453  24.886  34.711  1.00  0.00    -0.203 F 
ATOM     90  F   UNL A   1      50.234  27.102  33.291  1.00  0.00    -0.200 F 
ATOM     91  C   UNL A   1      49.009  25.562  34.597  1.00  0.00     0.200 A 
ATOM     92  F   UNL A   1      47.743  24.028  35.871  1.00  0.00    -0.200 F 
ATOM     93  F   UNL A   1      50.140  25.115  35.158  1.00  0.00    -0.200 F 
ENDBRANCH  60  83
ENDBRANCH  34  35
ENDBRANCH  26  29
ENDBRANCH  24  25
ENDBRANCH   1  24
TORSDOF 14
ENDMDL
MODEL 2
REMARK VINA RESULT:     -10.2      3.636      9.866
REMARK SMILES COc1cccc([C@@]([NH3+])(C(=O)NCCCNC(=O)c2ccc(-c3c4nc(c(-c5c(F)c(F)c(F)c(F)c5F)c5ccc([nH]5)c(-c5c(F)c(F)c(F)c(F)c5F)c5nc(c(-c6c(F)c(F)c(F)c(F)c6F)c6ccc3[nH]6)C=C5)C=C4)cc2)C(F)(F)F)c1
REMARK SMILES IDX 14 1 13 2 12 3 10 4 11 5 8 7 7 8 3 9 4 10 86 11 5 12 6 13
REMARK SMILES IDX 2 14 1 15 9 16 82 20 83 21 84 22 85 23 15 24 16 25 17 26
REMARK SMILES IDX 18 28 19 29 20 30 81 31 21 32 80 33 22 34 23 35 24 36 74 37
REMARK SMILES IDX 25 38 79 39 73 40 75 41 26 42 78 43 72 44 71 45 27 47 59 48
REMARK SMILES IDX 39 49 58 50 40 51 43 52 57 53 76 54 41 55 42 56 56 58 77 59
REMARK SMILES IDX 44 60 28 61 29 62 37 63 30 64 31 65 35 66 38 67 32 68 33 69
REMARK SMILES IDX 36 70 34 71 60 72 61 73 69 74 62 75 63 76 67 77 70 78 64 79
REMARK SMILES IDX 65 80 68 81 66 82 45 83 46 84 54 85 47 86 48 87 52 88 55 89
REMARK SMILES IDX 49 90 50 91 53 92 51 93
REMARK H PARENT 12 6 9 17 9 18 9 19 16 27 75 46 43 57
REMARK Flexibility Score: inf
ROOT
ATOM      1  C   UNL A   1      31.198  32.538  26.674  1.00  0.00     0.042 C 
ENDROOT
BRANCH   1   2
ATOM      2  C   UNL A   1      31.328  31.173  26.002  1.00  0.00     0.118 C 
BRANCH   2   3
ATOM      3  N   UNL A   1      31.877  30.183  26.913  1.00  0.00    -0.350 N 
ATOM      4  C   UNL A   1      32.431  28.947  26.724  1.00  0.00     0.296 C 
ATOM      5  O   UNL A   1      32.643  28.328  27.774  1.00  0.00    -0.267 OA
ATOM      6  H   UNL A   1      31.845  30.458  27.858  1.00  0.00     0.163 HD
BRANCH   4   7
ATOM      7  C   UNL A   1      32.755  28.326  25.328  1.00  0.00     0.295 C 
BRANCH   7   8
ATOM      8  C   UNL A   1      31.460  28.030  24.530  1.00  0.00     0.035 A 
ATOM      9  C   UNL A   1      29.878  28.507  22.711  1.00  0.00     0.119 A 
ATOM     10  C   UNL A   1      29.086  27.432  23.106  1.00  0.00     0.046 A 
ATOM     11  C   UNL A   1      31.062  28.789  23.408  1.00  0.00     0.057 A 
ATOM     12  C   UNL A   1      29.453  26.659  24.199  1.00  0.00     0.004 A 
ATOM     13  C   UNL A   1      30.612  26.971  24.912  1.00  0.00     0.011 A 
BRANCH   9  14
ATOM     14  O   UNL A   1      29.375  29.210  21.651  1.00  0.00    -0.497 OA
ATOM     15  C   UNL A   1      28.204  29.985  21.876  1.00  0.00     0.278 C 
ENDBRANCH   9  14
ENDBRANCH   7   8
BRANCH   7  16
ATOM     16  N   UNL A   1      33.636  29.275  24.530  1.00  0.00    -0.333 N 
ATOM     17  H   UNL A   1      33.204  30.199  24.503  1.00  0.00     0.345 HD
ATOM     18  H   UNL A   1      33.743  28.922  23.579  1.00  0.00     0.345 HD
ATOM     19  H   UNL A   1      34.553  29.342  24.973  1.00  0.00     0.345 HD
ENDBRANCH   7  16
BRANCH   7  20
ATOM     20  C   UNL A   1      33.596  27.039  25.666  1.00  0.00     0.458 C 
ATOM     21  F   UNL A   1      32.962  26.093  26.387  1.00  0.00    -0.164 F 
ATOM     22  F   UNL A   1      34.009  26.442  24.512  1.00  0.00    -0.164 F 
ATOM     23  F   UNL A   1      34.737  27.373  26.330  1.00  0.00    -0.164 F 
ENDBRANCH   7  20
ENDBRANCH   4   7
ENDBRANCH   2   3
ENDBRANCH   1   2
BRANCH   1  24
ATOM     24  C   UNL A   1      32.506  33.067  27.253  1.00  0.00     0.118 C 
BRANCH  24  25
ATOM     25  N   UNL A   1      32.381  34.434  27.737  1.00  0.00    -0.352 N 
ATOM     26  C   UNL A   1      33.028  35.079  28.761  1.00  0.00     0.251 C 
ATOM     27  H   UNL A   1      31.727  34.985  27.250  1.00  0.00     0.163 HD
ATOM     28  O   UNL A   1      32.618  36.175  29.133  1.00  0.00    -0.269 OA
BRANCH  26  29
ATOM     29  C   UNL A   1      34.203  34.475  29.433  1.00  0.00     0.039 A 
ATOM     30  C   UNL A   1      34.009  33.818  30.654  1.00  0.00     0.014 A 
ATOM     31  C   UNL A   1      35.494  34.601  28.915  1.00  0.00     0.014 A 
ATOM     32  C   UNL A   1      35.097  33.250  31.326  1.00  0.00     0.010 A 
ATOM     33  C   UNL A   1      36.568  33.972  29.548  1.00  0.00     0.010 A 
ATOM     34  C   UNL A   1      36.383  33.299  30.765  1.00  0.00    -0.014 A 
BRANCH  34  35
ATOM     35  C   UNL A   1      37.545  32.669  31.444  1.00  0.00     0.031 A 
ATOM     36  C   UNL A   1      38.260  31.511  30.802  1.00  0.00     0.074 A 
ATOM     37  C   UNL A   1      37.916  33.094  32.668  1.00  0.00     0.049 A 
ATOM     38  N   UNL A   1      39.235  30.774  31.274  1.00  0.00    -0.248 NA
ATOM     39  C   UNL A   1      37.805  31.109  29.461  1.00  0.00     0.031 C 
ATOM     40  C   UNL A   1      37.276  34.176  33.417  1.00  0.00     0.029 A 
ATOM     41  N   UNL A   1      38.913  32.656  33.505  1.00  0.00    -0.354 N 
ATOM     42  C   UNL A   1      39.487  29.811  30.305  1.00  0.00     0.074 A 
ATOM     43  C   UNL A   1      38.544  30.033  29.231  1.00  0.00     0.031 C 
ATOM     44  C   UNL A   1      37.901  34.324  34.597  1.00  0.00     0.029 A 
ATOM     45  C   UNL A   1      38.962  33.327  34.703  1.00  0.00     0.049 A 
ATOM     46  H   UNL A   1      39.535  31.930  33.267  1.00  0.00     0.167 HD
ATOM     47  C   UNL A   1      40.432  28.841  30.304  1.00  0.00     0.037 A 
ATOM     48  C   UNL A   1      39.763  33.149  35.771  1.00  0.00     0.037 A 
ATOM     49  C   UNL A   1      41.405  28.654  31.348  1.00  0.00     0.049 A 
ATOM     50  C   UNL A   1      40.819  32.077  35.730  1.00  0.00     0.074 A 
ATOM     51  C   UNL A   1      42.457  27.755  31.394  1.00  0.00     0.029 A 
ATOM     52  N   UNL A   1      41.447  29.380  32.528  1.00  0.00    -0.354 N 
ATOM     53  N   UNL A   1      41.097  31.225  34.773  1.00  0.00    -0.248 NA
ATOM     54  C   UNL A   1      41.679  31.947  36.915  1.00  0.00     0.031 C 
ATOM     55  C   UNL A   1      43.112  27.910  32.620  1.00  0.00     0.029 A 
ATOM     56  C   UNL A   1      42.495  28.935  33.317  1.00  0.00     0.049 A 
ATOM     57  H   UNL A   1      40.826  30.104  32.768  1.00  0.00     0.167 HD
ATOM     58  C   UNL A   1      42.179  30.483  35.225  1.00  0.00     0.074 A 
ATOM     59  C   UNL A   1      42.518  30.992  36.537  1.00  0.00     0.031 C 
ATOM     60  C   UNL A   1      42.832  29.467  34.611  1.00  0.00     0.037 A 
BRANCH  47  61
ATOM     61  C   UNL A   1      40.478  27.903  29.134  1.00  0.00     0.064 A 
ATOM     62  C   UNL A   1      39.678  26.753  29.081  1.00  0.00     0.173 A 
ATOM     63  C   UNL A   1      41.273  28.203  28.017  1.00  0.00     0.173 A 
ATOM     64  F   UNL A   1      38.907  26.419  30.128  1.00  0.00    -0.203 F 
ATOM     65  C   UNL A   1      39.681  25.931  27.958  1.00  0.00     0.198 A 
ATOM     66  C   UNL A   1      41.255  27.392  26.886  1.00  0.00     0.198 A 
ATOM     67  F   UNL A   1      42.052  29.296  28.014  1.00  0.00    -0.203 F 
ATOM     68  F   UNL A   1      38.929  24.821  27.941  1.00  0.00    -0.200 F 
ATOM     69  C   UNL A   1      40.461  26.255  26.859  1.00  0.00     0.200 A 
ATOM     70  F   UNL A   1      41.999  27.714  25.819  1.00  0.00    -0.200 F 
ATOM     71  F   UNL A   1      40.449  25.471  25.771  1.00  0.00    -0.200 F 
ENDBRANCH  47  61
BRANCH  48  72
ATOM     72  C   UNL A   1      39.609  34.009  36.974  1.00  0.00     0.064 A 
ATOM     73  C   UNL A   1      40.260  35.248  37.062  1.00  0.00     0.173 A 
ATOM     74  C   UNL A   1      38.841  33.596  38.072  1.00  0.00     0.173 A 
ATOM     75  F   UNL A   1      41.025  35.675  36.046  1.00  0.00    -0.203 F 
ATOM     76  C   UNL A   1      40.174  36.026  38.214  1.00  0.00     0.198 A 
ATOM     77  C   UNL A   1      38.730  34.390  39.212  1.00  0.00     0.198 A 
ATOM     78  F   UNL A   1      38.195  32.421  38.037  1.00  0.00    -0.203 F 
ATOM     79  F   UNL A   1      40.853  37.179  38.293  1.00  0.00    -0.200 F 
ATOM     80  C   UNL A   1      39.406  35.599  39.286  1.00  0.00     0.200 A 
ATOM     81  F   UNL A   1      37.978  33.979  40.241  1.00  0.00    -0.200 F 
ATOM     82  F   UNL A   1      39.327  36.346  40.395  1.00  0.00    -0.200 F 
ENDBRANCH  48  72
BRANCH  60  83
ATOM     83  C   UNL A   1      44.004  28.868  35.329  1.00  0.00     0.064 A 
ATOM     84  C   UNL A   1      45.301  29.377  35.170  1.00  0.00     0.173 A 
ATOM     85  C   UNL A   1      43.820  27.797  36.218  1.00  0.00     0.173 A 
ATOM     86  F   UNL A   1      45.530  30.389  34.321  1.00  0.00    -0.203 F 
ATOM     87  C   UNL A   1      46.376  28.821  35.859  1.00  0.00     0.198 A 
ATOM     88  C   UNL A   1      44.892  27.262  36.925  1.00  0.00     0.198 A 
ATOM     89  F   UNL A   1      42.597  27.280  36.409  1.00  0.00    -0.203 F 
ATOM     90  F   UNL A   1      47.614  29.294  35.660  1.00  0.00    -0.200 F 
ATOM     91  C   UNL A   1      46.170  27.769  36.740  1.00  0.00     0.200 A 
ATOM     92  F   UNL A   1      44.690  26.255  37.786  1.00  0.00    -0.200 F 
ATOM     93  F   UNL A   1      47.204  27.240  37.408  1.00  0.00    -0.200 F 
ENDBRANCH  60  83
ENDBRANCH  34  35
ENDBRANCH  26  29
ENDBRANCH  24  25
ENDBRANCH   1  24
TORSDOF 14
ENDMDL
MODEL 3
REMARK VINA RESULT:     -10.2      4.114     10.027
REMARK SMILES COc1cccc([C@@]([NH3+])(C(=O)NCCCNC(=O)c2ccc(-c3c4nc(c(-c5c(F)c(F)c(F)c(F)c5F)c5ccc([nH]5)c(-c5c(F)c(F)c(F)c(F)c5F)c5nc(c(-c6c(F)c(F)c(F)c(F)c6F)c6ccc3[nH]6)C=C5)C=C4)cc2)C(F)(F)F)c1
REMARK SMILES IDX 14 1 13 2 12 3 10 4 11 5 8 7 7 8 3 9 4 10 86 11 5 12 6 13
REMARK SMILES IDX 2 14 1 15 9 16 82 20 83 21 84 22 85 23 15 24 16 25 17 26
REMARK SMILES IDX 18 28 19 29 20 30 81 31 21 32 80 33 22 34 23 35 24 36 74 37
REMARK SMILES IDX 25 38 79 39 73 40 75 41 26 42 78 43 72 44 71 45 27 47 59 48
REMARK SMILES IDX 39 49 58 50 40 51 43 52 57 53 76 54 41 55 42 56 56 58 77 59
REMARK SMILES IDX 44 60 28 61 29 62 37 63 30 64 31 65 35 66 38 67 32 68 33 69
REMARK SMILES IDX 36 70 34 71 60 72 61 73 69 74 62 75 63 76 67 77 70 78 64 79
REMARK SMILES IDX 65 80 68 81 66 82 45 83 46 84 54 85 47 86 48 87 52 88 55 89
REMARK SMILES IDX 49 90 50 91 53 92 51 93
REMARK H PARENT 12 6 9 17 9 18 9 19 16 27 75 46 43 57
REMARK Flexibility Score: inf
ROOT
ATOM      1  C   UNL A   1      31.312  31.517  26.108  1.00  0.00     0.042 C 
ENDROOT
BRANCH   1   2
ATOM      2  C   UNL A   1      31.456  30.050  25.708  1.00  0.00     0.118 C 
BRANCH   2   3
ATOM      3  N   UNL A   1      32.476  29.877  24.687  1.00  0.00    -0.350 N 
ATOM      4  C   UNL A   1      32.603  29.018  23.630  1.00  0.00     0.296 C 
ATOM      5  O   UNL A   1      33.704  29.071  23.071  1.00  0.00    -0.267 OA
ATOM      6  H   UNL A   1      33.229  30.505  24.773  1.00  0.00     0.163 HD
BRANCH   4   7
ATOM      7  C   UNL A   1      31.492  28.025  23.159  1.00  0.00     0.295 C 
BRANCH   7   8
ATOM      8  C   UNL A   1      30.152  28.760  22.905  1.00  0.00     0.035 A 
ATOM      9  C   UNL A   1      28.856  30.697  22.126  1.00  0.00     0.119 A 
ATOM     10  C   UNL A   1      27.670  30.046  22.454  1.00  0.00     0.046 A 
ATOM     11  C   UNL A   1      30.083  30.050  22.334  1.00  0.00     0.057 A 
ATOM     12  C   UNL A   1      27.701  28.774  23.007  1.00  0.00     0.004 A 
ATOM     13  C   UNL A   1      28.928  28.153  23.249  1.00  0.00     0.011 A 
BRANCH   9  14
ATOM     14  O   UNL A   1      28.682  31.961  21.634  1.00  0.00    -0.497 OA
ATOM     15  C   UNL A   1      27.954  32.098  20.420  1.00  0.00     0.278 C 
ENDBRANCH   9  14
ENDBRANCH   7   8
BRANCH   7  16
ATOM     16  N   UNL A   1      31.933  27.320  21.885  1.00  0.00    -0.333 N 
ATOM     17  H   UNL A   1      31.230  26.633  21.615  1.00  0.00     0.345 HD
ATOM     18  H   UNL A   1      32.823  26.849  22.049  1.00  0.00     0.345 HD
ATOM     19  H   UNL A   1      32.044  28.005  21.138  1.00  0.00     0.345 HD
ENDBRANCH   7  16
BRANCH   7  20
ATOM     20  C   UNL A   1      31.418  26.957  24.314  1.00  0.00     0.458 C 
ATOM     21  F   UNL A   1      30.622  27.269  25.355  1.00  0.00    -0.164 F 
ATOM     22  F   UNL A   1      30.967  25.771  23.815  1.00  0.00    -0.164 F 
ATOM     23  F   UNL A   1      32.660  26.695  24.804  1.00  0.00    -0.164 F 
ENDBRANCH   7  20
ENDBRANCH   4   7
ENDBRANCH   2   3
ENDBRANCH   1   2
BRANCH   1  24
ATOM     24  C   UNL A   1      32.503  32.062  26.888  1.00  0.00     0.118 C 
BRANCH  24  25
ATOM     25  N   UNL A   1      32.316  33.453  27.276  1.00  0.00    -0.352 N 
ATOM     26  C   UNL A   1      32.965  34.209  28.221  1.00  0.00     0.251 C 
ATOM     27  H   UNL A   1      31.613  33.929  26.779  1.00  0.00     0.163 HD
ATOM     28  O   UNL A   1      32.506  35.305  28.528  1.00  0.00    -0.269 OA
BRANCH  26  29
ATOM     29  C   UNL A   1      34.199  33.724  28.883  1.00  0.00     0.039 A 
ATOM     30  C   UNL A   1      34.085  32.731  29.863  1.00  0.00     0.014 A 
ATOM     31  C   UNL A   1      35.451  34.275  28.602  1.00  0.00     0.014 A 
ATOM     32  C   UNL A   1      35.225  32.260  30.521  1.00  0.00     0.010 A 
ATOM     33  C   UNL A   1      36.597  33.755  29.206  1.00  0.00     0.010 A 
ATOM     34  C   UNL A   1      36.496  32.750  30.180  1.00  0.00    -0.014 A 
BRANCH  34  35
ATOM     35  C   UNL A   1      37.724  32.236  30.840  1.00  0.00     0.031 A 
ATOM     36  C   UNL A   1      38.552  31.169  30.175  1.00  0.00     0.074 A 
ATOM     37  C   UNL A   1      38.059  32.680  32.068  1.00  0.00     0.049 A 
ATOM     38  N   UNL A   1      39.603  30.532  30.629  1.00  0.00    -0.248 NA
ATOM     39  C   UNL A   1      38.129  30.742  28.832  1.00  0.00     0.031 C 
ATOM     40  C   UNL A   1      37.315  33.678  32.838  1.00  0.00     0.029 A 
ATOM     41  N   UNL A   1      39.104  32.338  32.891  1.00  0.00    -0.354 N 
ATOM     42  C   UNL A   1      39.946  29.616  29.644  1.00  0.00     0.074 A 
ATOM     43  C   UNL A   1      38.975  29.753  28.580  1.00  0.00     0.031 C 
ATOM     44  C   UNL A   1      37.931  33.873  34.016  1.00  0.00     0.029 A 
ATOM     45  C   UNL A   1      39.093  32.992  34.099  1.00  0.00     0.049 A 
ATOM     46  H   UNL A   1      39.797  31.685  32.638  1.00  0.00     0.167 HD
ATOM     47  C   UNL A   1      40.988  28.751  29.621  1.00  0.00     0.037 A 
ATOM     48  C   UNL A   1      39.917  32.884  35.158  1.00  0.00     0.037 A 
ATOM     49  C   UNL A   1      41.984  28.652  30.655  1.00  0.00     0.049 A 
ATOM     50  C   UNL A   1      41.080  31.930  35.093  1.00  0.00     0.074 A 
ATOM     51  C   UNL A   1      43.125  27.868  30.679  1.00  0.00     0.029 A 
ATOM     52  N   UNL A   1      41.960  29.362  31.845  1.00  0.00    -0.354 N 
ATOM     53  N   UNL A   1      41.437  31.127  34.121  1.00  0.00    -0.248 NA
ATOM     54  C   UNL A   1      41.959  31.874  36.269  1.00  0.00     0.031 C 
ATOM     55  C   UNL A   1      43.772  28.074  31.902  1.00  0.00     0.029 A 
ATOM     56  C   UNL A   1      43.056  29.018  32.620  1.00  0.00     0.049 A 
ATOM     57  H   UNL A   1      41.268  30.013  32.101  1.00  0.00     0.167 HD
ATOM     58  C   UNL A   1      42.596  30.496  34.554  1.00  0.00     0.074 A 
ATOM     59  C   UNL A   1      42.890  31.019  35.871  1.00  0.00     0.031 C 
ATOM     60  C   UNL A   1      43.346  29.563  33.919  1.00  0.00     0.037 A 
BRANCH  47  61
ATOM     61  C   UNL A   1      41.122  27.840  28.436  1.00  0.00     0.064 A 
ATOM     62  C   UNL A   1      40.441  26.617  28.367  1.00  0.00     0.173 A 
ATOM     63  C   UNL A   1      41.878  28.236  27.321  1.00  0.00     0.173 A 
ATOM     64  F   UNL A   1      39.713  26.191  29.411  1.00  0.00    -0.203 F 
ATOM     65  C   UNL A   1      40.521  25.816  27.232  1.00  0.00     0.198 A 
ATOM     66  C   UNL A   1      41.935  27.444  26.177  1.00  0.00     0.198 A 
ATOM     67  F   UNL A   1      42.543  29.401  27.333  1.00  0.00    -0.203 F 
ATOM     68  F   UNL A   1      39.885  24.637  27.200  1.00  0.00    -0.200 F 
ATOM     69  C   UNL A   1      41.260  26.234  26.135  1.00  0.00     0.200 A 
ATOM     70  F   UNL A   1      42.639  27.855  25.113  1.00  0.00    -0.200 F 
ATOM     71  F   UNL A   1      41.321  25.469  25.035  1.00  0.00    -0.200 F 
ENDBRANCH  47  61
BRANCH  48  72
ATOM     72  C   UNL A   1      39.684  33.705  36.375  1.00  0.00     0.064 A 
ATOM     73  C   UNL A   1      38.869  33.237  37.416  1.00  0.00     0.173 A 
ATOM     74  C   UNL A   1      40.241  34.985  36.508  1.00  0.00     0.173 A 
ATOM     75  F   UNL A   1      38.296  32.027  37.323  1.00  0.00    -0.203 F 
ATOM     76  C   UNL A   1      38.595  34.029  38.528  1.00  0.00     0.198 A 
ATOM     77  C   UNL A   1      39.990  35.765  37.636  1.00  0.00     0.198 A 
ATOM     78  F   UNL A   1      41.030  35.479  35.543  1.00  0.00    -0.203 F 
ATOM     79  F   UNL A   1      37.766  33.579  39.480  1.00  0.00    -0.200 F 
ATOM     80  C   UNL A   1      39.158  35.291  38.639  1.00  0.00     0.200 A 
ATOM     81  F   UNL A   1      40.545  36.979  37.745  1.00  0.00    -0.200 F 
ATOM     82  F   UNL A   1      38.889  36.055  39.706  1.00  0.00    -0.200 F 
ENDBRANCH  48  72
BRANCH  60  83
ATOM     83  C   UNL A   1      44.582  29.081  34.619  1.00  0.00     0.064 A 
ATOM     84  C   UNL A   1      44.565  27.947  35.443  1.00  0.00     0.173 A 
ATOM     85  C   UNL A   1      45.806  29.742  34.430  1.00  0.00     0.173 A 
ATOM     86  F   UNL A   1      43.417  27.292  35.666  1.00  0.00    -0.203 F 
ATOM     87  C   UNL A   1      45.726  27.503  36.070  1.00  0.00     0.198 A 
ATOM     88  C   UNL A   1      46.970  29.279  35.037  1.00  0.00     0.198 A 
ATOM     89  F   UNL A   1      45.875  30.828  33.646  1.00  0.00    -0.203 F 
ATOM     90  F   UNL A   1      45.679  26.442  36.888  1.00  0.00    -0.200 F 
ATOM     91  C   UNL A   1      46.928  28.164  35.861  1.00  0.00     0.200 A 
ATOM     92  F   UNL A   1      48.132  29.910  34.824  1.00  0.00    -0.200 F 
ATOM     93  F   UNL A   1      48.045  27.730  36.460  1.00  0.00    -0.200 F 
ENDBRANCH  60  83
ENDBRANCH  34  35
ENDBRANCH  26  29
ENDBRANCH  24  25
ENDBRANCH   1  24
TORSDOF 14
ENDMDL
