MODEL 1
REMARK VINA RESULT:     -10.9      0.000      0.000
REMARK SMILES C[C@@H](NS(=O)(=O)c1ccccc1)C(=O)NCCCNC(=O)c1ccc(-c2c3nc(c(-c4c(F)c(F)c(F)c(F)c4F)c4ccc([nH]4)c(-c4c(F)c(F)c(F)c(F)c4F)c4nc(c(-c5c(F)c(F)c(F)c(F)c5F)c5ccc2[nH]5)C=C4)C=C3)cc1
REMARK SMILES IDX 16 1 15 2 13 3 14 4 2 6 1 7 3 8 4 10 5 11 6 12 7 13 8 14
REMARK SMILES IDX 12 15 9 16 11 17 10 18 17 19 18 20 19 21 20 22 21 24 22 25
REMARK SMILES IDX 23 26 84 27 24 28 83 29 25 30 26 31 27 32 77 33 28 34 82 35
REMARK SMILES IDX 76 36 78 37 29 38 81 39 75 40 74 41 30 43 62 44 42 45 61 46
REMARK SMILES IDX 43 47 46 48 60 49 79 50 44 51 45 52 59 54 80 55 47 56 31 57
REMARK SMILES IDX 32 58 40 59 33 60 34 61 38 62 41 63 35 64 36 65 39 66 37 67
REMARK SMILES IDX 63 68 64 69 72 70 65 71 66 72 70 73 73 74 67 75 68 76 71 77
REMARK SMILES IDX 69 78 48 79 49 80 57 81 50 82 51 83 55 84 58 85 52 86 53 87
REMARK SMILES IDX 56 88 54 89
REMARK H PARENT 15 5 3 9 19 23 78 42 46 53
REMARK Flexibility Score: inf
ROOT
ATOM      1  C   UNL A   1      42.222  19.603  26.709  1.00  0.00     0.117 C 
ENDROOT
BRANCH   1   2
ATOM      2  N   UNL A   1      42.916  18.796  25.720  1.00  0.00    -0.355 N 
ATOM      3  C   UNL A   1      44.049  19.060  25.006  1.00  0.00     0.237 C 
ATOM      4  O   UNL A   1      44.335  18.302  24.077  1.00  0.00    -0.273 OA
ATOM      5  H   UNL A   1      42.505  17.921  25.537  1.00  0.00     0.163 HD
BRANCH   3   6
ATOM      6  C   UNL A   1      44.931  20.259  25.349  1.00  0.00     0.155 C 
ATOM      7  C   UNL A   1      46.376  19.954  24.970  1.00  0.00     0.036 C 
BRANCH   6   8
ATOM      8  N   UNL A   1      44.468  21.500  24.693  1.00  0.00    -0.199 NA
ATOM      9  H   UNL A   1      43.454  21.533  24.804  1.00  0.00     0.142 HD
BRANCH   8  10
ATOM     10  S   UNL A   1      45.066  22.987  25.209  1.00  0.00     0.241 S 
ATOM     11  O   UNL A   1      46.503  22.880  25.289  1.00  0.00    -0.207 OA
ATOM     12  O   UNL A   1      44.432  23.965  24.348  1.00  0.00    -0.207 OA
BRANCH  10  13
ATOM     13  C   UNL A   1      44.407  23.204  26.842  1.00  0.00     0.082 A 
ATOM     14  C   UNL A   1      45.288  23.417  27.908  1.00  0.00     0.022 A 
ATOM     15  C   UNL A   1      43.026  23.178  27.062  1.00  0.00     0.022 A 
ATOM     16  C   UNL A   1      44.793  23.509  29.209  1.00  0.00     0.001 A 
ATOM     17  C   UNL A   1      42.536  23.294  28.365  1.00  0.00     0.001 A 
ATOM     18  C   UNL A   1      43.420  23.440  29.437  1.00  0.00     0.000 A 
ENDBRANCH  10  13
ENDBRANCH   8  10
ENDBRANCH   6   8
ENDBRANCH   3   6
ENDBRANCH   1   2
BRANCH   1  19
ATOM     19  C   UNL A   1      40.823  19.952  26.223  1.00  0.00     0.042 C 
BRANCH  19  20
ATOM     20  C   UNL A   1      40.359  21.325  26.686  1.00  0.00     0.118 C 
BRANCH  20  21
ATOM     21  N   UNL A   1      39.099  21.718  26.072  1.00  0.00    -0.352 N 
ATOM     22  C   UNL A   1      38.439  22.919  26.121  1.00  0.00     0.251 C 
ATOM     23  H   UNL A   1      38.653  21.016  25.544  1.00  0.00     0.163 HD
ATOM     24  O   UNL A   1      37.285  22.996  25.709  1.00  0.00    -0.269 OA
BRANCH  22  25
ATOM     25  C   UNL A   1      39.105  24.113  26.682  1.00  0.00     0.039 A 
ATOM     26  C   UNL A   1      39.859  24.921  25.829  1.00  0.00     0.014 A 
ATOM     27  C   UNL A   1      39.014  24.426  28.042  1.00  0.00     0.014 A 
ATOM     28  C   UNL A   1      40.481  26.065  26.330  1.00  0.00     0.010 A 
ATOM     29  C   UNL A   1      39.555  25.615  28.520  1.00  0.00     0.010 A 
ATOM     30  C   UNL A   1      40.309  26.440  27.673  1.00  0.00    -0.014 A 
BRANCH  30  31
ATOM     31  C   UNL A   1      40.923  27.687  28.196  1.00  0.00     0.031 A 
ATOM     32  C   UNL A   1      42.416  27.868  28.184  1.00  0.00     0.074 A 
ATOM     33  C   UNL A   1      40.130  28.649  28.708  1.00  0.00     0.049 A 
ATOM     34  N   UNL A   1      43.129  28.890  28.587  1.00  0.00    -0.248 NA
ATOM     35  C   UNL A   1      43.218  26.744  27.676  1.00  0.00     0.031 C 
ATOM     36  C   UNL A   1      38.673  28.568  28.827  1.00  0.00     0.029 A 
ATOM     37  N   UNL A   1      40.436  29.885  29.221  1.00  0.00    -0.354 N 
ATOM     38  C   UNL A   1      44.455  28.530  28.386  1.00  0.00     0.074 A 
ATOM     39  C   UNL A   1      44.453  27.172  27.889  1.00  0.00     0.031 C 
ATOM     40  C   UNL A   1      38.209  29.718  29.339  1.00  0.00     0.029 A 
ATOM     41  C   UNL A   1      39.335  30.601  29.624  1.00  0.00     0.049 A 
ATOM     42  H   UNL A   1      41.357  30.225  29.294  1.00  0.00     0.167 HD
ATOM     43  C   UNL A   1      45.572  29.275  28.571  1.00  0.00     0.037 A 
ATOM     44  C   UNL A   1      39.246  31.832  30.162  1.00  0.00     0.037 A 
ATOM     45  C   UNL A   1      45.567  30.630  29.054  1.00  0.00     0.049 A 
ATOM     46  C   UNL A   1      40.503  32.632  30.369  1.00  0.00     0.074 A 
ATOM     47  C   UNL A   1      46.639  31.489  29.227  1.00  0.00     0.029 A 
ATOM     48  N   UNL A   1      44.433  31.324  29.453  1.00  0.00    -0.354 N 
ATOM     49  N   UNL A   1      41.745  32.311  30.098  1.00  0.00    -0.248 NA
ATOM     50  C   UNL A   1      40.343  33.973  30.947  1.00  0.00     0.031 C 
ATOM     51  C   UNL A   1      46.161  32.678  29.788  1.00  0.00     0.029 A 
ATOM     52  C   UNL A   1      44.783  32.590  29.898  1.00  0.00     0.049 A 
ATOM     53  H   UNL A   1      43.514  30.969  29.423  1.00  0.00     0.167 HD
ATOM     54  C   UNL A   1      42.509  33.419  30.442  1.00  0.00     0.074 A 
ATOM     55  C   UNL A   1      41.587  34.428  30.920  1.00  0.00     0.031 C 
ATOM     56  C   UNL A   1      43.854  33.585  30.370  1.00  0.00     0.037 A 
BRANCH  43  57
ATOM     57  C   UNL A   1      46.895  28.637  28.249  1.00  0.00     0.064 A 
ATOM     58  C   UNL A   1      47.631  27.933  29.215  1.00  0.00     0.173 A 
ATOM     59  C   UNL A   1      47.417  28.697  26.948  1.00  0.00     0.173 A 
ATOM     60  F   UNL A   1      47.185  27.853  30.478  1.00  0.00    -0.203 F 
ATOM     61  C   UNL A   1      48.852  27.343  28.900  1.00  0.00     0.198 A 
ATOM     62  C   UNL A   1      48.621  28.075  26.627  1.00  0.00     0.198 A 
ATOM     63  F   UNL A   1      46.754  29.350  25.981  1.00  0.00    -0.203 F 
ATOM     64  F   UNL A   1      49.562  26.724  29.854  1.00  0.00    -0.200 F 
ATOM     65  C   UNL A   1      49.342  27.406  27.603  1.00  0.00     0.200 A 
ATOM     66  F   UNL A   1      49.084  28.123  25.369  1.00  0.00    -0.200 F 
ATOM     67  F   UNL A   1      50.512  26.829  27.299  1.00  0.00    -0.200 F 
ENDBRANCH  43  57
BRANCH  44  68
ATOM     68  C   UNL A   1      37.915  32.394  30.518  1.00  0.00     0.064 A 
ATOM     69  C   UNL A   1      37.333  32.136  31.768  1.00  0.00     0.173 A 
ATOM     70  C   UNL A   1      37.193  33.187  29.615  1.00  0.00     0.173 A 
ATOM     71  F   UNL A   1      37.975  31.368  32.660  1.00  0.00    -0.203 F 
ATOM     72  C   UNL A   1      36.068  32.625  32.089  1.00  0.00     0.198 A 
ATOM     73  C   UNL A   1      35.944  33.706  29.950  1.00  0.00     0.198 A 
ATOM     74  F   UNL A   1      37.707  33.471  28.409  1.00  0.00    -0.203 F 
ATOM     75  F   UNL A   1      35.513  32.317  33.268  1.00  0.00    -0.200 F 
ATOM     76  C   UNL A   1      35.377  33.415  31.182  1.00  0.00     0.200 A 
ATOM     77  F   UNL A   1      35.289  34.483  29.078  1.00  0.00    -0.200 F 
ATOM     78  F   UNL A   1      34.163  33.888  31.492  1.00  0.00    -0.200 F 
ENDBRANCH  44  68
BRANCH  56  79
ATOM     79  C   UNL A   1      44.403  34.923  30.779  1.00  0.00     0.064 A 
ATOM     80  C   UNL A   1      44.531  35.983  29.867  1.00  0.00     0.173 A 
ATOM     81  C   UNL A   1      44.789  35.155  32.109  1.00  0.00     0.173 A 
ATOM     82  F   UNL A   1      44.189  35.813  28.581  1.00  0.00    -0.203 F 
ATOM     83  C   UNL A   1      45.064  37.208  30.262  1.00  0.00     0.198 A 
ATOM     84  C   UNL A   1      45.284  36.392  32.509  1.00  0.00     0.198 A 
ATOM     85  F   UNL A   1      44.679  34.180  33.024  1.00  0.00    -0.203 F 
ATOM     86  F   UNL A   1      45.239  38.182  29.359  1.00  0.00    -0.200 F 
ATOM     87  C   UNL A   1      45.433  37.413  31.583  1.00  0.00     0.200 A 
ATOM     88  F   UNL A   1      45.622  36.595  33.789  1.00  0.00    -0.200 F 
ATOM     89  F   UNL A   1      45.942  38.593  31.962  1.00  0.00    -0.200 F 
ENDBRANCH  56  79
ENDBRANCH  30  31
ENDBRANCH  22  25
ENDBRANCH  20  21
ENDBRANCH  19  20
ENDBRANCH   1  19
TORSDOF 13
ENDMDL
MODEL 2
REMARK VINA RESULT:     -10.8      4.677     11.109
REMARK SMILES C[C@@H](NS(=O)(=O)c1ccccc1)C(=O)NCCCNC(=O)c1ccc(-c2c3nc(c(-c4c(F)c(F)c(F)c(F)c4F)c4ccc([nH]4)c(-c4c(F)c(F)c(F)c(F)c4F)c4nc(c(-c5c(F)c(F)c(F)c(F)c5F)c5ccc2[nH]5)C=C4)C=C3)cc1
REMARK SMILES IDX 16 1 15 2 13 3 14 4 2 6 1 7 3 8 4 10 5 11 6 12 7 13 8 14
REMARK SMILES IDX 12 15 9 16 11 17 10 18 17 19 18 20 19 21 20 22 21 24 22 25
REMARK SMILES IDX 23 26 84 27 24 28 83 29 25 30 26 31 27 32 77 33 28 34 82 35
REMARK SMILES IDX 76 36 78 37 29 38 81 39 75 40 74 41 30 43 62 44 42 45 61 46
REMARK SMILES IDX 43 47 46 48 60 49 79 50 44 51 45 52 59 54 80 55 47 56 31 57
REMARK SMILES IDX 32 58 40 59 33 60 34 61 38 62 41 63 35 64 36 65 39 66 37 67
REMARK SMILES IDX 63 68 64 69 72 70 65 71 66 72 70 73 73 74 67 75 68 76 71 77
REMARK SMILES IDX 69 78 48 79 49 80 57 81 50 82 51 83 55 84 58 85 52 86 53 87
REMARK SMILES IDX 56 88 54 89
REMARK H PARENT 15 5 3 9 19 23 78 42 46 53
REMARK Flexibility Score: inf
ROOT
ATOM      1  C   UNL A   1      33.971  34.927  29.786  1.00  0.00     0.117 C 
ENDROOT
BRANCH   1   2
ATOM      2  N   UNL A   1      33.601  34.171  30.971  1.00  0.00    -0.355 N 
ATOM      3  C   UNL A   1      34.135  34.186  32.227  1.00  0.00     0.237 C 
ATOM      4  O   UNL A   1      33.779  33.307  33.015  1.00  0.00    -0.273 OA
ATOM      5  H   UNL A   1      32.847  33.551  30.848  1.00  0.00     0.163 HD
BRANCH   3   6
ATOM      6  C   UNL A   1      35.141  35.259  32.639  1.00  0.00     0.155 C 
ATOM      7  C   UNL A   1      34.396  36.481  33.167  1.00  0.00     0.036 C 
BRANCH   6   8
ATOM      8  N   UNL A   1      36.109  34.763  33.640  1.00  0.00    -0.199 NA
ATOM      9  H   UNL A   1      35.750  33.871  33.981  1.00  0.00     0.142 HD
BRANCH   8  10
ATOM     10  S   UNL A   1      37.712  34.506  33.190  1.00  0.00     0.241 S 
ATOM     11  O   UNL A   1      37.843  34.870  31.800  1.00  0.00    -0.207 OA
ATOM     12  O   UNL A   1      38.498  35.161  34.216  1.00  0.00    -0.207 OA
BRANCH  10  13
ATOM     13  C   UNL A   1      37.960  32.757  33.359  1.00  0.00     0.082 A 
ATOM     14  C   UNL A   1      37.067  31.880  32.732  1.00  0.00     0.022 A 
ATOM     15  C   UNL A   1      39.040  32.259  34.094  1.00  0.00     0.022 A 
ATOM     16  C   UNL A   1      37.199  30.505  32.920  1.00  0.00     0.001 A 
ATOM     17  C   UNL A   1      39.180  30.879  34.258  1.00  0.00     0.001 A 
ATOM     18  C   UNL A   1      38.250  30.005  33.688  1.00  0.00     0.000 A 
ENDBRANCH  10  13
ENDBRANCH   8  10
ENDBRANCH   6   8
ENDBRANCH   3   6
ENDBRANCH   1   2
BRANCH   1  19
ATOM     19  C   UNL A   1      34.026  34.015  28.570  1.00  0.00     0.042 C 
BRANCH  19  20
ATOM     20  C   UNL A   1      34.730  32.695  28.848  1.00  0.00     0.118 C 
BRANCH  20  21
ATOM     21  N   UNL A   1      34.022  31.560  28.274  1.00  0.00    -0.352 N 
ATOM     22  C   UNL A   1      34.504  30.337  27.881  1.00  0.00     0.251 C 
ATOM     23  H   UNL A   1      33.055  31.690  28.147  1.00  0.00     0.163 HD
ATOM     24  O   UNL A   1      33.788  29.583  27.228  1.00  0.00    -0.269 OA
BRANCH  22  25
ATOM     25  C   UNL A   1      35.882  29.933  28.227  1.00  0.00     0.039 A 
ATOM     26  C   UNL A   1      36.893  30.128  27.284  1.00  0.00     0.014 A 
ATOM     27  C   UNL A   1      36.181  29.343  29.459  1.00  0.00     0.014 A 
ATOM     28  C   UNL A   1      38.206  29.773  27.594  1.00  0.00     0.010 A 
ATOM     29  C   UNL A   1      37.503  29.078  29.803  1.00  0.00     0.010 A 
ATOM     30  C   UNL A   1      38.529  29.275  28.867  1.00  0.00    -0.014 A 
BRANCH  30  31
ATOM     31  C   UNL A   1      39.934  28.949  29.221  1.00  0.00     0.031 A 
ATOM     32  C   UNL A   1      40.742  29.883  30.081  1.00  0.00     0.074 A 
ATOM     33  C   UNL A   1      40.491  27.820  28.741  1.00  0.00     0.049 A 
ATOM     34  N   UNL A   1      41.976  29.760  30.501  1.00  0.00    -0.248 NA
ATOM     35  C   UNL A   1      40.087  31.130  30.505  1.00  0.00     0.031 C 
ATOM     36  C   UNL A   1      39.830  26.863  27.853  1.00  0.00     0.029 A 
ATOM     37  N   UNL A   1      41.739  27.283  28.937  1.00  0.00    -0.354 N 
ATOM     38  C   UNL A   1      42.244  30.911  31.231  1.00  0.00     0.074 A 
ATOM     39  C   UNL A   1      41.070  31.751  31.141  1.00  0.00     0.031 C 
ATOM     40  C   UNL A   1      40.661  25.839  27.612  1.00  0.00     0.029 A 
ATOM     41  C   UNL A   1      41.928  26.084  28.294  1.00  0.00     0.049 A 
ATOM     42  H   UNL A   1      42.433  27.716  29.485  1.00  0.00     0.167 HD
ATOM     43  C   UNL A   1      43.357  31.227  31.936  1.00  0.00     0.037 A 
ATOM     44  C   UNL A   1      43.003  25.274  28.259  1.00  0.00     0.037 A 
ATOM     45  C   UNL A   1      44.518  30.383  32.032  1.00  0.00     0.049 A 
ATOM     46  C   UNL A   1      44.231  25.655  29.041  1.00  0.00     0.074 A 
ATOM     47  C   UNL A   1      45.676  30.586  32.763  1.00  0.00     0.029 A 
ATOM     48  N   UNL A   1      44.675  29.174  31.367  1.00  0.00    -0.354 N 
ATOM     49  N   UNL A   1      44.442  26.707  29.794  1.00  0.00    -0.248 NA
ATOM     50  C   UNL A   1      45.368  24.727  28.976  1.00  0.00     0.031 C 
ATOM     51  C   UNL A   1      46.556  29.533  32.491  1.00  0.00     0.029 A 
ATOM     52  C   UNL A   1      45.921  28.635  31.648  1.00  0.00     0.049 A 
ATOM     53  H   UNL A   1      43.999  28.760  30.782  1.00  0.00     0.167 HD
ATOM     54  C   UNL A   1      45.720  26.553  30.317  1.00  0.00     0.074 A 
ATOM     55  C   UNL A   1      46.226  25.293  29.812  1.00  0.00     0.031 C 
ATOM     56  C   UNL A   1      46.411  27.380  31.140  1.00  0.00     0.037 A 
BRANCH  43  57
ATOM     57  C   UNL A   1      43.372  32.544  32.661  1.00  0.00     0.064 A 
ATOM     58  C   UNL A   1      42.909  32.667  33.981  1.00  0.00     0.173 A 
ATOM     59  C   UNL A   1      43.892  33.692  32.044  1.00  0.00     0.173 A 
ATOM     60  F   UNL A   1      42.392  31.604  34.618  1.00  0.00    -0.203 F 
ATOM     61  C   UNL A   1      42.935  33.892  34.642  1.00  0.00     0.198 A 
ATOM     62  C   UNL A   1      43.950  34.908  32.720  1.00  0.00     0.198 A 
ATOM     63  F   UNL A   1      44.354  33.634  30.786  1.00  0.00    -0.203 F 
ATOM     64  F   UNL A   1      42.436  33.994  35.882  1.00  0.00    -0.200 F 
ATOM     65  C   UNL A   1      43.465  35.010  34.014  1.00  0.00     0.200 A 
ATOM     66  F   UNL A   1      44.477  35.984  32.117  1.00  0.00    -0.200 F 
ATOM     67  F   UNL A   1      43.499  36.187  34.655  1.00  0.00    -0.200 F 
ENDBRANCH  43  57
BRANCH  44  68
ATOM     68  C   UNL A   1      42.958  24.009  27.477  1.00  0.00     0.064 A 
ATOM     69  C   UNL A   1      43.302  23.987  26.117  1.00  0.00     0.173 A 
ATOM     70  C   UNL A   1      42.556  22.801  28.067  1.00  0.00     0.173 A 
ATOM     71  F   UNL A   1      43.675  25.119  25.503  1.00  0.00    -0.203 F 
ATOM     72  C   UNL A   1      43.220  22.812  25.372  1.00  0.00     0.198 A 
ATOM     73  C   UNL A   1      42.508  21.620  27.329  1.00  0.00     0.198 A 
ATOM     74  F   UNL A   1      42.223  22.765  29.365  1.00  0.00    -0.203 F 
ATOM     75  F   UNL A   1      43.501  22.832  24.063  1.00  0.00    -0.200 F 
ATOM     76  C   UNL A   1      42.828  21.628  25.980  1.00  0.00     0.200 A 
ATOM     77  F   UNL A   1      42.148  20.476  27.925  1.00  0.00    -0.200 F 
ATOM     78  F   UNL A   1      42.753  20.499  25.264  1.00  0.00    -0.200 F 
ENDBRANCH  44  68
BRANCH  56  79
ATOM     79  C   UNL A   1      47.776  26.927  31.580  1.00  0.00     0.064 A 
ATOM     80  C   UNL A   1      47.954  26.045  32.657  1.00  0.00     0.173 A 
ATOM     81  C   UNL A   1      48.922  27.367  30.899  1.00  0.00     0.173 A 
ATOM     82  F   UNL A   1      46.893  25.604  33.351  1.00  0.00    -0.203 F 
ATOM     83  C   UNL A   1      49.228  25.656  33.062  1.00  0.00     0.198 A 
ATOM     84  C   UNL A   1      50.192  26.944  31.282  1.00  0.00     0.198 A 
ATOM     85  F   UNL A   1      48.811  28.203  29.855  1.00  0.00    -0.203 F 
ATOM     86  F   UNL A   1      49.375  24.867  34.135  1.00  0.00    -0.200 F 
ATOM     87  C   UNL A   1      50.345  26.100  32.370  1.00  0.00     0.200 A 
ATOM     88  F   UNL A   1      51.268  27.360  30.600  1.00  0.00    -0.200 F 
ATOM     89  F   UNL A   1      51.570  25.722  32.760  1.00  0.00    -0.200 F 
ENDBRANCH  56  79
ENDBRANCH  30  31
ENDBRANCH  22  25
ENDBRANCH  20  21
ENDBRANCH  19  20
ENDBRANCH   1  19
TORSDOF 13
ENDMDL
MODEL 3
REMARK VINA RESULT:     -10.7      5.846     11.174
REMARK SMILES C[C@@H](NS(=O)(=O)c1ccccc1)C(=O)NCCCNC(=O)c1ccc(-c2c3nc(c(-c4c(F)c(F)c(F)c(F)c4F)c4ccc([nH]4)c(-c4c(F)c(F)c(F)c(F)c4F)c4nc(c(-c5c(F)c(F)c(F)c(F)c5F)c5ccc2[nH]5)C=C4)C=C3)cc1
REMARK SMILES IDX 16 1 15 2 13 3 14 4 2 6 1 7 3 8 4 10 5 11 6 12 7 13 8 14
REMARK SMILES IDX 12 15 9 16 11 17 10 18 17 19 18 20 19 21 20 22 21 24 22 25
REMARK SMILES IDX 23 26 84 27 24 28 83 29 25 30 26 31 27 32 77 33 28 34 82 35
REMARK SMILES IDX 76 36 78 37 29 38 81 39 75 40 74 41 30 43 62 44 42 45 61 46
REMARK SMILES IDX 43 47 46 48 60 49 79 50 44 51 45 52 59 54 80 55 47 56 31 57
REMARK SMILES IDX 32 58 40 59 33 60 34 61 38 62 41 63 35 64 36 65 39 66 37 67
REMARK SMILES IDX 63 68 64 69 72 70 65 71 66 72 70 73 73 74 67 75 68 76 71 77
REMARK SMILES IDX 69 78 48 79 49 80 57 81 50 82 51 83 55 84 58 85 52 86 53 87
REMARK SMILES IDX 56 88 54 89
REMARK H PARENT 15 5 3 9 19 23 78 42 46 53
REMARK Flexibility Score: inf
ROOT
ATOM      1  C   UNL A   1      31.489  30.427  25.615  1.00  0.00     0.117 C 
ENDROOT
BRANCH   1   2
ATOM      2  N   UNL A   1      30.653  30.402  24.427  1.00  0.00    -0.355 N 
ATOM      3  C   UNL A   1      30.488  29.427  23.486  1.00  0.00     0.237 C 
ATOM      4  O   UNL A   1      29.872  29.716  22.458  1.00  0.00    -0.273 OA
ATOM      5  H   UNL A   1      30.121  31.216  24.278  1.00  0.00     0.163 HD
BRANCH   3   6
ATOM      6  C   UNL A   1      31.051  28.024  23.703  1.00  0.00     0.155 C 
ATOM      7  C   UNL A   1      29.939  27.096  24.179  1.00  0.00     0.036 C 
BRANCH   6   8
ATOM      8  N   UNL A   1      31.697  27.487  22.487  1.00  0.00    -0.199 NA
ATOM      9  H   UNL A   1      31.664  28.225  21.783  1.00  0.00     0.142 HD
BRANCH   8  10
ATOM     10  S   UNL A   1      33.293  26.952  22.560  1.00  0.00     0.241 S 
ATOM     11  O   UNL A   1      33.652  26.459  21.252  1.00  0.00    -0.207 OA
ATOM     12  O   UNL A   1      34.024  28.039  23.180  1.00  0.00    -0.207 OA
BRANCH  10  13
ATOM     13  C   UNL A   1      33.270  25.598  23.706  1.00  0.00     0.082 A 
ATOM     14  C   UNL A   1      34.026  25.688  24.880  1.00  0.00     0.022 A 
ATOM     15  C   UNL A   1      32.495  24.463  23.450  1.00  0.00     0.022 A 
ATOM     16  C   UNL A   1      34.084  24.602  25.752  1.00  0.00     0.001 A 
ATOM     17  C   UNL A   1      32.538  23.388  24.341  1.00  0.00     0.001 A 
ATOM     18  C   UNL A   1      33.346  23.451  25.480  1.00  0.00     0.000 A 
ENDBRANCH  10  13
ENDBRANCH   8  10
ENDBRANCH   6   8
ENDBRANCH   3   6
ENDBRANCH   1   2
BRANCH   1  19
ATOM     19  C   UNL A   1      31.260  31.710  26.399  1.00  0.00     0.042 C 
BRANCH  19  20
ATOM     20  C   UNL A   1      32.546  32.306  26.952  1.00  0.00     0.118 C 
BRANCH  20  21
ATOM     21  N   UNL A   1      32.375  33.685  27.384  1.00  0.00    -0.352 N 
ATOM     22  C   UNL A   1      33.020  34.378  28.376  1.00  0.00     0.251 C 
ATOM     23  H   UNL A   1      31.693  34.197  26.891  1.00  0.00     0.163 HD
ATOM     24  O   UNL A   1      32.593  35.474  28.729  1.00  0.00    -0.269 OA
BRANCH  22  25
ATOM     25  C   UNL A   1      34.213  33.803  29.031  1.00  0.00     0.039 A 
ATOM     26  C   UNL A   1      34.035  32.801  29.987  1.00  0.00     0.014 A 
ATOM     27  C   UNL A   1      35.500  34.259  28.730  1.00  0.00     0.014 A 
ATOM     28  C   UNL A   1      35.146  32.228  30.605  1.00  0.00     0.010 A 
ATOM     29  C   UNL A   1      36.611  33.623  29.276  1.00  0.00     0.010 A 
ATOM     30  C   UNL A   1      36.446  32.611  30.232  1.00  0.00    -0.014 A 
BRANCH  30  31
ATOM     31  C   UNL A   1      37.633  31.963  30.847  1.00  0.00     0.031 A 
ATOM     32  C   UNL A   1      38.088  32.352  32.227  1.00  0.00     0.074 A 
ATOM     33  C   UNL A   1      38.318  31.040  30.144  1.00  0.00     0.049 A 
ATOM     34  N   UNL A   1      39.091  31.888  32.928  1.00  0.00    -0.248 NA
ATOM     35  C   UNL A   1      37.331  33.418  32.900  1.00  0.00     0.031 C 
ATOM     36  C   UNL A   1      38.011  30.619  28.777  1.00  0.00     0.029 A 
ATOM     37  N   UNL A   1      39.413  30.285  30.485  1.00  0.00    -0.354 N 
ATOM     38  C   UNL A   1      39.088  32.607  34.117  1.00  0.00     0.074 A 
ATOM     39  C   UNL A   1      38.026  33.584  34.016  1.00  0.00     0.031 C 
ATOM     40  C   UNL A   1      38.868  29.655  28.410  1.00  0.00     0.029 A 
ATOM     41  C   UNL A   1      39.812  29.418  29.497  1.00  0.00     0.049 A 
ATOM     42  H   UNL A   1      39.869  30.358  31.355  1.00  0.00     0.167 HD
ATOM     43  C   UNL A   1      39.879  32.448  35.205  1.00  0.00     0.037 A 
ATOM     44  C   UNL A   1      40.825  28.532  29.473  1.00  0.00     0.037 A 
ATOM     45  C   UNL A   1      40.927  31.467  35.304  1.00  0.00     0.049 A 
ATOM     46  C   UNL A   1      41.697  28.385  30.690  1.00  0.00     0.074 A 
ATOM     47  C   UNL A   1      41.751  31.189  36.381  1.00  0.00     0.029 A 
ATOM     48  N   UNL A   1      41.304  30.605  34.283  1.00  0.00    -0.354 N 
ATOM     49  N   UNL A   1      41.632  29.014  31.838  1.00  0.00    -0.248 NA
ATOM     50  C   UNL A   1      42.779  27.393  30.611  1.00  0.00     0.031 C 
ATOM     51  C   UNL A   1      42.665  30.205  35.991  1.00  0.00     0.029 A 
ATOM     52  C   UNL A   1      42.366  29.816  34.696  1.00  0.00     0.049 A 
ATOM     53  H   UNL A   1      40.877  30.561  33.396  1.00  0.00     0.167 HD
ATOM     54  C   UNL A   1      42.640  28.475  32.628  1.00  0.00     0.074 A 
ATOM     55  C   UNL A   1      43.287  27.451  31.832  1.00  0.00     0.031 C 
ATOM     56  C   UNL A   1      42.999  28.799  33.895  1.00  0.00     0.037 A 
BRANCH  43  57
ATOM     57  C   UNL A   1      39.642  33.359  36.378  1.00  0.00     0.064 A 
ATOM     58  C   UNL A   1      40.254  34.619  36.470  1.00  0.00     0.173 A 
ATOM     59  C   UNL A   1      38.762  32.985  37.404  1.00  0.00     0.173 A 
ATOM     60  F   UNL A   1      41.113  35.025  35.522  1.00  0.00    -0.203 F 
ATOM     61  C   UNL A   1      40.019  35.454  37.559  1.00  0.00     0.198 A 
ATOM     62  C   UNL A   1      38.501  33.837  38.474  1.00  0.00     0.198 A 
ATOM     63  F   UNL A   1      38.144  31.795  37.366  1.00  0.00    -0.203 F 
ATOM     64  F   UNL A   1      40.658  36.629  37.652  1.00  0.00    -0.200 F 
ATOM     65  C   UNL A   1      39.136  35.067  38.556  1.00  0.00     0.200 A 
ATOM     66  F   UNL A   1      37.635  33.467  39.428  1.00  0.00    -0.200 F 
ATOM     67  F   UNL A   1      38.903  35.876  39.599  1.00  0.00    -0.200 F 
ENDBRANCH  43  57
BRANCH  44  68
ATOM     68  C   UNL A   1      41.054  27.696  28.264  1.00  0.00     0.064 A 
ATOM     69  C   UNL A   1      40.469  26.426  28.141  1.00  0.00     0.173 A 
ATOM     70  C   UNL A   1      41.871  28.140  27.214  1.00  0.00     0.173 A 
ATOM     71  F   UNL A   1      39.694  25.949  29.125  1.00  0.00    -0.203 F 
ATOM     72  C   UNL A   1      40.716  25.624  27.029  1.00  0.00     0.198 A 
ATOM     73  C   UNL A   1      42.089  27.350  26.086  1.00  0.00     0.198 A 
ATOM     74  F   UNL A   1      42.449  29.349  27.278  1.00  0.00    -0.203 F 
ATOM     75  F   UNL A   1      40.189  24.394  26.964  1.00  0.00    -0.200 F 
ATOM     76  C   UNL A   1      41.521  26.089  26.000  1.00  0.00     0.200 A 
ATOM     77  F   UNL A   1      42.852  27.812  25.087  1.00  0.00    -0.200 F 
ATOM     78  F   UNL A   1      41.755  25.318  24.930  1.00  0.00    -0.200 F 
ENDBRANCH  44  68
BRANCH  56  79
ATOM     79  C   UNL A   1      44.116  28.007  34.516  1.00  0.00     0.064 A 
ATOM     80  C   UNL A   1      43.883  26.800  35.193  1.00  0.00     0.173 A 
ATOM     81  C   UNL A   1      45.443  28.454  34.414  1.00  0.00     0.173 A 
ATOM     82  F   UNL A   1      42.633  26.334  35.331  1.00  0.00    -0.203 F 
ATOM     83  C   UNL A   1      44.930  26.095  35.781  1.00  0.00     0.198 A 
ATOM     84  C   UNL A   1      46.492  27.726  34.968  1.00  0.00     0.198 A 
ATOM     85  F   UNL A   1      45.725  29.596  33.769  1.00  0.00    -0.203 F 
ATOM     86  F   UNL A   1      44.675  24.981  36.480  1.00  0.00    -0.200 F 
ATOM     87  C   UNL A   1      46.233  26.554  35.662  1.00  0.00     0.200 A 
ATOM     88  F   UNL A   1      47.751  28.162  34.836  1.00  0.00    -0.200 F 
ATOM     89  F   UNL A   1      47.240  25.872  36.225  1.00  0.00    -0.200 F 
ENDBRANCH  56  79
ENDBRANCH  30  31
ENDBRANCH  22  25
ENDBRANCH  20  21
ENDBRANCH  19  20
ENDBRANCH   1  19
TORSDOF 13
ENDMDL
