MODEL 1
REMARK VINA RESULT:     -12.1      0.000      0.000
REMARK SMILES CC(C)N(CC(=O)NCCCNC(=O)c1ccc(-c2c3nc(c(-c4c(F)c(F)c(F)c(F)c4F)c4ccc([nH]4)c(-c4c(F)c(F)c(F)c(F)c4F)c4nc(c(-c5c(F)c(F)c(F)c(F)c5F)c5ccc2[nH]5)C=C4)C=C3)cc1)C(=O)NC1C(C)(C)C1(C)C
REMARK SMILES IDX 9 1 8 2 6 3 7 4 5 6 4 7 2 8 1 9 3 10 78 11 79 12 80 13 81 15
REMARK SMILES IDX 82 16 85 17 83 18 84 19 86 20 87 21 10 22 11 23 12 24 13 25
REMARK SMILES IDX 14 27 15 28 16 29 77 30 17 31 76 32 18 33 19 34 20 35 70 36
REMARK SMILES IDX 21 37 75 38 69 39 71 40 22 41 74 42 68 43 67 44 23 46 55 47
REMARK SMILES IDX 35 48 54 49 36 50 39 51 53 52 72 53 37 54 38 55 52 57 73 58
REMARK SMILES IDX 40 59 24 60 25 61 33 62 26 63 27 64 31 65 34 66 28 67 29 68
REMARK SMILES IDX 32 69 30 70 56 71 57 72 65 73 58 74 59 75 63 76 66 77 60 78
REMARK SMILES IDX 61 79 64 80 62 81 41 82 42 83 50 84 43 85 44 86 48 87 51 88
REMARK SMILES IDX 45 89 46 90 49 91 47 92
REMARK H PARENT 8 5 80 14 12 26 71 45 39 56
REMARK Flexibility Score: inf
ROOT
ATOM      1  C   UNL A   1      31.759  30.604  26.240  1.00  0.00     0.117 C 
ENDROOT
BRANCH   1   2
ATOM      2  N   UNL A   1      32.404  29.694  27.161  1.00  0.00    -0.354 N 
ATOM      3  C   UNL A   1      31.944  28.404  27.190  1.00  0.00     0.239 C 
ATOM      4  O   UNL A   1      31.055  28.146  27.995  1.00  0.00    -0.273 OA
ATOM      5  H   UNL A   1      33.141  29.990  27.742  1.00  0.00     0.163 HD
BRANCH   3   6
ATOM      6  C   UNL A   1      32.620  27.396  26.254  1.00  0.00     0.221 C 
BRANCH   6   7
ATOM      7  N   UNL A   1      31.640  26.561  25.595  1.00  0.00    -0.313 N 
BRANCH   7   8
ATOM      8  C   UNL A   1      30.734  27.252  24.645  1.00  0.00     0.081 C 
ATOM      9  C   UNL A   1      31.464  28.098  23.604  1.00  0.00     0.031 C 
ATOM     10  C   UNL A   1      29.714  26.330  23.972  1.00  0.00     0.031 C 
ENDBRANCH   7   8
BRANCH   7  11
ATOM     11  C   UNL A   1      31.402  25.273  26.009  1.00  0.00     0.318 C 
ATOM     12  O   UNL A   1      30.536  25.024  26.856  1.00  0.00    -0.249 OA
ATOM     13  N   UNL A   1      32.182  24.217  25.634  1.00  0.00    -0.334 N 
ATOM     14  H   UNL A   1      32.454  23.679  26.411  1.00  0.00     0.165 HD
BRANCH  13  15
ATOM     15  C   UNL A   1      32.720  23.672  24.404  1.00  0.00     0.096 C 
ATOM     16  C   UNL A   1      33.473  24.152  23.155  1.00  0.00    -0.007 C 
ATOM     17  C   UNL A   1      34.286  23.665  24.362  1.00  0.00    -0.007 C 
ATOM     18  C   UNL A   1      33.300  23.215  21.953  1.00  0.00     0.014 C 
ATOM     19  C   UNL A   1      33.739  25.550  22.641  1.00  0.00     0.014 C 
ATOM     20  C   UNL A   1      35.027  24.642  25.281  1.00  0.00     0.014 C 
ATOM     21  C   UNL A   1      35.099  22.407  24.154  1.00  0.00     0.014 C 
ENDBRANCH  13  15
ENDBRANCH   7  11
ENDBRANCH   6   7
ENDBRANCH   3   6
ENDBRANCH   1   2
BRANCH   1  22
ATOM     22  C   UNL A   1      31.495  31.982  26.864  1.00  0.00     0.042 C 
BRANCH  22  23
ATOM     23  C   UNL A   1      32.742  32.702  27.368  1.00  0.00     0.118 C 
BRANCH  23  24
ATOM     24  N   UNL A   1      32.498  34.114  27.604  1.00  0.00    -0.352 N 
ATOM     25  C   UNL A   1      33.013  34.920  28.585  1.00  0.00     0.251 C 
ATOM     26  H   UNL A   1      31.879  34.550  26.975  1.00  0.00     0.163 HD
ATOM     27  O   UNL A   1      32.496  35.998  28.841  1.00  0.00    -0.269 OA
BRANCH  25  28
ATOM     28  C   UNL A   1      34.186  34.450  29.343  1.00  0.00     0.039 A 
ATOM     29  C   UNL A   1      33.993  33.835  30.580  1.00  0.00     0.014 A 
ATOM     30  C   UNL A   1      35.470  34.593  28.809  1.00  0.00     0.014 A 
ATOM     31  C   UNL A   1      35.090  33.300  31.254  1.00  0.00     0.010 A 
ATOM     32  C   UNL A   1      36.545  33.978  29.435  1.00  0.00     0.010 A 
ATOM     33  C   UNL A   1      36.366  33.330  30.666  1.00  0.00    -0.014 A 
BRANCH  33  34
ATOM     34  C   UNL A   1      37.531  32.683  31.317  1.00  0.00     0.031 A 
ATOM     35  C   UNL A   1      38.221  31.532  30.641  1.00  0.00     0.074 A 
ATOM     36  C   UNL A   1      37.912  33.084  32.544  1.00  0.00     0.049 A 
ATOM     37  N   UNL A   1      39.192  30.775  31.083  1.00  0.00    -0.248 NA
ATOM     38  C   UNL A   1      37.736  31.165  29.301  1.00  0.00     0.031 C 
ATOM     39  C   UNL A   1      37.286  34.159  33.315  1.00  0.00     0.029 A 
ATOM     40  N   UNL A   1      38.909  32.624  33.366  1.00  0.00    -0.354 N 
ATOM     41  C   UNL A   1      39.423  29.839  30.084  1.00  0.00     0.074 A 
ATOM     42  C   UNL A   1      38.456  30.084  29.039  1.00  0.00     0.031 C 
ATOM     43  C   UNL A   1      37.926  34.290  34.487  1.00  0.00     0.029 A 
ATOM     44  C   UNL A   1      38.973  33.278  34.573  1.00  0.00     0.049 A 
ATOM     45  H   UNL A   1      39.522  31.895  33.116  1.00  0.00     0.167 HD
ATOM     46  C   UNL A   1      40.375  28.877  30.036  1.00  0.00     0.037 A 
ATOM     47  C   UNL A   1      39.774  33.070  35.635  1.00  0.00     0.037 A 
ATOM     48  C   UNL A   1      41.344  28.652  31.076  1.00  0.00     0.049 A 
ATOM     49  C   UNL A   1      40.800  31.970  35.566  1.00  0.00     0.074 A 
ATOM     50  C   UNL A   1      42.390  27.746  31.098  1.00  0.00     0.029 A 
ATOM     51  N   UNL A   1      41.379  29.335  32.284  1.00  0.00    -0.354 N 
ATOM     52  N   UNL A   1      41.063  31.143  34.585  1.00  0.00    -0.248 NA
ATOM     53  C   UNL A   1      41.639  31.776  36.757  1.00  0.00     0.031 C 
ATOM     54  C   UNL A   1      43.021  27.840  32.343  1.00  0.00     0.029 A 
ATOM     55  C   UNL A   1      42.407  28.845  33.073  1.00  0.00     0.049 A 
ATOM     56  H   UNL A   1      40.765  30.059  32.541  1.00  0.00     0.167 HD
ATOM     57  C   UNL A   1      42.109  30.344  35.029  1.00  0.00     0.074 A 
ATOM     58  C   UNL A   1      42.449  30.806  36.359  1.00  0.00     0.031 C 
ATOM     59  C   UNL A   1      42.728  29.317  34.396  1.00  0.00     0.037 A 
BRANCH  46  60
ATOM     60  C   UNL A   1      40.417  27.996  28.819  1.00  0.00     0.064 A 
ATOM     61  C   UNL A   1      41.183  28.332  27.692  1.00  0.00     0.173 A 
ATOM     62  C   UNL A   1      39.715  26.782  28.796  1.00  0.00     0.173 A 
ATOM     63  F   UNL A   1      41.863  29.488  27.658  1.00  0.00    -0.203 F 
ATOM     64  C   UNL A   1      41.223  27.498  26.579  1.00  0.00     0.198 A 
ATOM     65  C   UNL A   1      39.784  25.935  27.693  1.00  0.00     0.198 A 
ATOM     66  F   UNL A   1      38.971  26.409  29.848  1.00  0.00    -0.203 F 
ATOM     67  F   UNL A   1      41.923  27.864  25.495  1.00  0.00    -0.200 F 
ATOM     68  C   UNL A   1      40.532  26.296  26.583  1.00  0.00     0.200 A 
ATOM     69  F   UNL A   1      39.127  24.767  27.705  1.00  0.00    -0.200 F 
ATOM     70  F   UNL A   1      40.581  25.490  25.514  1.00  0.00    -0.200 F 
ENDBRANCH  46  60
BRANCH  47  71
ATOM     71  C   UNL A   1      39.641  33.917  36.849  1.00  0.00     0.064 A 
ATOM     72  C   UNL A   1      38.841  33.511  37.926  1.00  0.00     0.173 A 
ATOM     73  C   UNL A   1      40.296  35.154  36.954  1.00  0.00     0.173 A 
ATOM     74  F   UNL A   1      38.178  32.347  37.866  1.00  0.00    -0.203 F 
ATOM     75  C   UNL A   1      38.681  34.319  39.050  1.00  0.00     0.198 A 
ATOM     76  C   UNL A   1      40.163  35.946  38.093  1.00  0.00     0.198 A 
ATOM     77  F   UNL A   1      41.077  35.589  35.955  1.00  0.00    -0.203 F 
ATOM     78  F   UNL A   1      37.868  33.930  40.042  1.00  0.00    -0.200 F 
ATOM     79  C   UNL A   1      39.346  35.533  39.135  1.00  0.00     0.200 A 
ATOM     80  F   UNL A   1      40.820  37.109  38.179  1.00  0.00    -0.200 F 
ATOM     81  F   UNL A   1      39.194  36.309  40.218  1.00  0.00    -0.200 F 
ENDBRANCH  47  71
BRANCH  59  82
ATOM     82  C   UNL A   1      43.847  28.634  35.128  1.00  0.00     0.064 A 
ATOM     83  C   UNL A   1      45.171  29.089  35.034  1.00  0.00     0.173 A 
ATOM     84  C   UNL A   1      43.586  27.540  35.966  1.00  0.00     0.173 A 
ATOM     85  F   UNL A   1      45.476  30.121  34.233  1.00  0.00    -0.203 F 
ATOM     86  C   UNL A   1      46.196  28.456  35.732  1.00  0.00     0.198 A 
ATOM     87  C   UNL A   1      44.608  26.931  36.690  1.00  0.00     0.198 A 
ATOM     88  F   UNL A   1      42.336  27.070  36.097  1.00  0.00    -0.203 F 
ATOM     89  F   UNL A   1      47.461  28.875  35.588  1.00  0.00    -0.200 F 
ATOM     90  C   UNL A   1      45.912  27.384  36.566  1.00  0.00     0.200 A 
ATOM     91  F   UNL A   1      44.329  25.908  37.509  1.00  0.00    -0.200 F 
ATOM     92  F   UNL A   1      46.899  26.784  37.246  1.00  0.00    -0.200 F 
ENDBRANCH  59  82
ENDBRANCH  33  34
ENDBRANCH  25  28
ENDBRANCH  23  24
ENDBRANCH  22  23
ENDBRANCH   1  22
TORSDOF 14
ENDMDL
MODEL 2
REMARK VINA RESULT:     -12.1      0.522      1.879
REMARK SMILES CC(C)N(CC(=O)NCCCNC(=O)c1ccc(-c2c3nc(c(-c4c(F)c(F)c(F)c(F)c4F)c4ccc([nH]4)c(-c4c(F)c(F)c(F)c(F)c4F)c4nc(c(-c5c(F)c(F)c(F)c(F)c5F)c5ccc2[nH]5)C=C4)C=C3)cc1)C(=O)NC1C(C)(C)C1(C)C
REMARK SMILES IDX 9 1 8 2 6 3 7 4 5 6 4 7 2 8 1 9 3 10 78 11 79 12 80 13 81 15
REMARK SMILES IDX 82 16 85 17 83 18 84 19 86 20 87 21 10 22 11 23 12 24 13 25
REMARK SMILES IDX 14 27 15 28 16 29 77 30 17 31 76 32 18 33 19 34 20 35 70 36
REMARK SMILES IDX 21 37 75 38 69 39 71 40 22 41 74 42 68 43 67 44 23 46 55 47
REMARK SMILES IDX 35 48 54 49 36 50 39 51 53 52 72 53 37 54 38 55 52 57 73 58
REMARK SMILES IDX 40 59 24 60 25 61 33 62 26 63 27 64 31 65 34 66 28 67 29 68
REMARK SMILES IDX 32 69 30 70 56 71 57 72 65 73 58 74 59 75 63 76 66 77 60 78
REMARK SMILES IDX 61 79 64 80 62 81 41 82 42 83 50 84 43 85 44 86 48 87 51 88
REMARK SMILES IDX 45 89 46 90 49 91 47 92
REMARK H PARENT 8 5 80 14 12 26 71 45 39 56
REMARK Flexibility Score: inf
ROOT
ATOM      1  C   UNL A   1      31.815  30.504  26.254  1.00  0.00     0.117 C 
ENDROOT
BRANCH   1   2
ATOM      2  N   UNL A   1      32.459  29.745  27.303  1.00  0.00    -0.354 N 
ATOM      3  C   UNL A   1      32.266  28.389  27.302  1.00  0.00     0.239 C 
ATOM      4  O   UNL A   1      31.321  27.958  27.954  1.00  0.00    -0.273 OA
ATOM      5  H   UNL A   1      33.012  30.184  27.989  1.00  0.00     0.163 HD
BRANCH   3   6
ATOM      6  C   UNL A   1      33.280  27.536  26.530  1.00  0.00     0.221 C 
BRANCH   6   7
ATOM      7  N   UNL A   1      32.611  26.543  25.718  1.00  0.00    -0.313 N 
BRANCH   7   8
ATOM      8  C   UNL A   1      31.794  27.067  24.597  1.00  0.00     0.081 C 
ATOM      9  C   UNL A   1      32.366  26.746  23.217  1.00  0.00     0.031 C 
ATOM     10  C   UNL A   1      30.314  26.683  24.669  1.00  0.00     0.031 C 
ENDBRANCH   7   8
BRANCH   7  11
ATOM     11  C   UNL A   1      32.535  25.229  26.112  1.00  0.00     0.318 C 
ATOM     12  O   UNL A   1      31.619  24.832  26.840  1.00  0.00    -0.249 OA
ATOM     13  N   UNL A   1      33.520  24.319  25.853  1.00  0.00    -0.334 N 
ATOM     14  H   UNL A   1      33.772  23.824  26.664  1.00  0.00     0.165 HD
BRANCH  13  15
ATOM     15  C   UNL A   1      34.296  23.883  24.710  1.00  0.00     0.096 C 
ATOM     16  C   UNL A   1      35.050  22.635  24.228  1.00  0.00    -0.007 C 
ATOM     17  C   UNL A   1      33.571  22.791  23.850  1.00  0.00    -0.007 C 
ATOM     18  C   UNL A   1      36.119  22.950  23.175  1.00  0.00     0.014 C 
ATOM     19  C   UNL A   1      35.461  21.384  24.973  1.00  0.00     0.014 C 
ATOM     20  C   UNL A   1      32.475  21.963  24.528  1.00  0.00     0.014 C 
ATOM     21  C   UNL A   1      33.275  22.965  22.377  1.00  0.00     0.014 C 
ENDBRANCH  13  15
ENDBRANCH   7  11
ENDBRANCH   6   7
ENDBRANCH   3   6
ENDBRANCH   1   2
BRANCH   1  22
ATOM     22  C   UNL A   1      31.554  31.961  26.660  1.00  0.00     0.042 C 
BRANCH  22  23
ATOM     23  C   UNL A   1      32.688  32.618  27.442  1.00  0.00     0.118 C 
BRANCH  23  24
ATOM     24  N   UNL A   1      32.479  34.045  27.609  1.00  0.00    -0.352 N 
ATOM     25  C   UNL A   1      33.017  34.886  28.548  1.00  0.00     0.251 C 
ATOM     26  H   UNL A   1      31.869  34.465  26.960  1.00  0.00     0.163 HD
ATOM     27  O   UNL A   1      32.528  35.987  28.752  1.00  0.00    -0.269 OA
BRANCH  25  28
ATOM     28  C   UNL A   1      34.181  34.424  29.326  1.00  0.00     0.039 A 
ATOM     29  C   UNL A   1      33.983  33.926  30.613  1.00  0.00     0.014 A 
ATOM     30  C   UNL A   1      35.460  34.459  28.762  1.00  0.00     0.014 A 
ATOM     31  C   UNL A   1      35.066  33.397  31.314  1.00  0.00     0.010 A 
ATOM     32  C   UNL A   1      36.517  33.848  29.423  1.00  0.00     0.010 A 
ATOM     33  C   UNL A   1      36.331  33.315  30.706  1.00  0.00    -0.014 A 
BRANCH  33  34
ATOM     34  C   UNL A   1      37.475  32.668  31.392  1.00  0.00     0.031 A 
ATOM     35  C   UNL A   1      38.163  31.495  30.754  1.00  0.00     0.074 A 
ATOM     36  C   UNL A   1      37.840  33.092  32.616  1.00  0.00     0.049 A 
ATOM     37  N   UNL A   1      39.116  30.736  31.231  1.00  0.00    -0.248 NA
ATOM     38  C   UNL A   1      37.697  31.103  29.415  1.00  0.00     0.031 C 
ATOM     39  C   UNL A   1      37.214  34.193  33.352  1.00  0.00     0.029 A 
ATOM     40  N   UNL A   1      38.817  32.640  33.466  1.00  0.00    -0.354 N 
ATOM     41  C   UNL A   1      39.354  29.775  30.258  1.00  0.00     0.074 A 
ATOM     42  C   UNL A   1      38.408  30.008  29.190  1.00  0.00     0.031 C 
ATOM     43  C   UNL A   1      37.834  34.343  34.532  1.00  0.00     0.029 A 
ATOM     44  C   UNL A   1      38.867  33.320  34.659  1.00  0.00     0.049 A 
ATOM     45  H   UNL A   1      39.425  31.898  33.244  1.00  0.00     0.167 HD
ATOM     46  C   UNL A   1      40.295  28.801  30.248  1.00  0.00     0.037 A 
ATOM     47  C   UNL A   1      39.647  33.127  35.740  1.00  0.00     0.037 A 
ATOM     48  C   UNL A   1      41.242  28.588  31.310  1.00  0.00     0.049 A 
ATOM     49  C   UNL A   1      40.660  32.014  35.715  1.00  0.00     0.074 A 
ATOM     50  C   UNL A   1      42.276  27.671  31.371  1.00  0.00     0.029 A 
ATOM     51  N   UNL A   1      41.264  29.297  32.503  1.00  0.00    -0.354 N 
ATOM     52  N   UNL A   1      40.930  31.161  34.757  1.00  0.00    -0.248 NA
ATOM     53  C   UNL A   1      41.476  31.836  36.924  1.00  0.00     0.031 C 
ATOM     54  C   UNL A   1      42.886  27.785  32.625  1.00  0.00     0.029 A 
ATOM     55  C   UNL A   1      42.271  28.813  33.321  1.00  0.00     0.049 A 
ATOM     56  H   UNL A   1      40.655  30.035  32.732  1.00  0.00     0.167 HD
ATOM     57  C   UNL A   1      41.958  30.360  35.238  1.00  0.00     0.074 A 
ATOM     58  C   UNL A   1      42.280  30.848  36.562  1.00  0.00     0.031 C 
ATOM     59  C   UNL A   1      42.575  29.312  34.639  1.00  0.00     0.037 A 
BRANCH  46  60
ATOM     60  C   UNL A   1      40.346  27.893  29.053  1.00  0.00     0.064 A 
ATOM     61  C   UNL A   1      39.625  26.690  29.009  1.00  0.00     0.173 A 
ATOM     62  C   UNL A   1      41.094  28.249  27.920  1.00  0.00     0.173 A 
ATOM     63  F   UNL A   1      38.903  26.296  30.069  1.00  0.00    -0.203 F 
ATOM     64  C   UNL A   1      39.671  25.866  27.888  1.00  0.00     0.198 A 
ATOM     65  C   UNL A   1      41.111  27.439  26.788  1.00  0.00     0.198 A 
ATOM     66  F   UNL A   1      41.799  29.390  27.906  1.00  0.00    -0.203 F 
ATOM     67  F   UNL A   1      39.012  24.699  27.888  1.00  0.00    -0.200 F 
ATOM     68  C   UNL A   1      40.406  26.245  26.775  1.00  0.00     0.200 A 
ATOM     69  F   UNL A   1      41.811  27.814  25.708  1.00  0.00    -0.200 F 
ATOM     70  F   UNL A   1      40.440  25.456  25.693  1.00  0.00    -0.200 F 
ENDBRANCH  46  60
BRANCH  47  71
ATOM     71  C   UNL A   1      39.503  34.003  36.932  1.00  0.00     0.064 A 
ATOM     72  C   UNL A   1      40.158  35.240  37.000  1.00  0.00     0.173 A 
ATOM     73  C   UNL A   1      38.722  33.619  38.033  1.00  0.00     0.173 A 
ATOM     74  F   UNL A   1      40.932  35.644  35.982  1.00  0.00    -0.203 F 
ATOM     75  C   UNL A   1      40.058  36.047  38.131  1.00  0.00     0.198 A 
ATOM     76  C   UNL A   1      38.595  34.442  39.150  1.00  0.00     0.198 A 
ATOM     77  F   UNL A   1      38.069  32.447  38.019  1.00  0.00    -0.203 F 
ATOM     78  F   UNL A   1      40.738  37.201  38.190  1.00  0.00    -0.200 F 
ATOM     79  C   UNL A   1      39.273  35.651  39.202  1.00  0.00     0.200 A 
ATOM     80  F   UNL A   1      37.822  34.064  40.175  1.00  0.00    -0.200 F 
ATOM     81  F   UNL A   1      39.175  36.430  40.289  1.00  0.00    -0.200 F 
ENDBRANCH  47  71
BRANCH  59  82
ATOM     82  C   UNL A   1      43.673  28.632  35.406  1.00  0.00     0.064 A 
ATOM     83  C   UNL A   1      45.016  29.007  35.253  1.00  0.00     0.173 A 
ATOM     84  C   UNL A   1      43.373  27.624  36.335  1.00  0.00     0.173 A 
ATOM     85  F   UNL A   1      45.357  29.953  34.366  1.00  0.00    -0.203 F 
ATOM     86  C   UNL A   1      46.021  28.380  35.984  1.00  0.00     0.198 A 
ATOM     87  C   UNL A   1      44.377  27.023  37.090  1.00  0.00     0.198 A 
ATOM     88  F   UNL A   1      42.104  27.233  36.525  1.00  0.00    -0.203 F 
ATOM     89  F   UNL A   1      47.303  28.718  35.785  1.00  0.00    -0.200 F 
ATOM     90  C   UNL A   1      45.700  27.396  36.908  1.00  0.00     0.200 A 
ATOM     91  F   UNL A   1      44.063  26.086  37.994  1.00  0.00    -0.200 F 
ATOM     92  F   UNL A   1      46.668  26.801  37.618  1.00  0.00    -0.200 F 
ENDBRANCH  59  82
ENDBRANCH  33  34
ENDBRANCH  25  28
ENDBRANCH  23  24
ENDBRANCH  22  23
ENDBRANCH   1  22
TORSDOF 14
ENDMDL
MODEL 3
REMARK VINA RESULT:     -12.0      5.761     11.248
REMARK SMILES CC(C)N(CC(=O)NCCCNC(=O)c1ccc(-c2c3nc(c(-c4c(F)c(F)c(F)c(F)c4F)c4ccc([nH]4)c(-c4c(F)c(F)c(F)c(F)c4F)c4nc(c(-c5c(F)c(F)c(F)c(F)c5F)c5ccc2[nH]5)C=C4)C=C3)cc1)C(=O)NC1C(C)(C)C1(C)C
REMARK SMILES IDX 9 1 8 2 6 3 7 4 5 6 4 7 2 8 1 9 3 10 78 11 79 12 80 13 81 15
REMARK SMILES IDX 82 16 85 17 83 18 84 19 86 20 87 21 10 22 11 23 12 24 13 25
REMARK SMILES IDX 14 27 15 28 16 29 77 30 17 31 76 32 18 33 19 34 20 35 70 36
REMARK SMILES IDX 21 37 75 38 69 39 71 40 22 41 74 42 68 43 67 44 23 46 55 47
REMARK SMILES IDX 35 48 54 49 36 50 39 51 53 52 72 53 37 54 38 55 52 57 73 58
REMARK SMILES IDX 40 59 24 60 25 61 33 62 26 63 27 64 31 65 34 66 28 67 29 68
REMARK SMILES IDX 32 69 30 70 56 71 57 72 65 73 58 74 59 75 63 76 66 77 60 78
REMARK SMILES IDX 61 79 64 80 62 81 41 82 42 83 50 84 43 85 44 86 48 87 51 88
REMARK SMILES IDX 45 89 46 90 49 91 47 92
REMARK H PARENT 8 5 80 14 12 26 71 45 39 56
REMARK Flexibility Score: inf
ROOT
ATOM      1  C   UNL A   1      36.975  20.873  24.941  1.00  0.00     0.117 C 
ENDROOT
BRANCH   1   2
ATOM      2  N   UNL A   1      37.470  22.179  24.567  1.00  0.00    -0.354 N 
ATOM      3  C   UNL A   1      36.585  23.036  23.968  1.00  0.00     0.239 C 
ATOM      4  O   UNL A   1      36.528  23.014  22.743  1.00  0.00    -0.273 OA
ATOM      5  H   UNL A   1      38.404  22.441  24.735  1.00  0.00     0.163 HD
BRANCH   3   6
ATOM      6  C   UNL A   1      35.789  23.975  24.882  1.00  0.00     0.221 C 
BRANCH   6   7
ATOM      7  N   UNL A   1      34.412  24.074  24.452  1.00  0.00    -0.313 N 
BRANCH   7   8
ATOM      8  C   UNL A   1      33.598  22.842  24.597  1.00  0.00     0.081 C 
ATOM      9  C   UNL A   1      33.667  22.222  25.992  1.00  0.00     0.031 C 
ATOM     10  C   UNL A   1      32.143  22.997  24.148  1.00  0.00     0.031 C 
ENDBRANCH   7   8
BRANCH   7  11
ATOM     11  C   UNL A   1      33.962  25.152  23.728  1.00  0.00     0.318 C 
ATOM     12  O   UNL A   1      34.008  25.156  22.493  1.00  0.00    -0.249 OA
ATOM     13  N   UNL A   1      33.577  26.326  24.309  1.00  0.00    -0.334 N 
ATOM     14  H   UNL A   1      34.007  27.097  23.877  1.00  0.00     0.165 HD
BRANCH  13  15
ATOM     15  C   UNL A   1      32.706  26.747  25.388  1.00  0.00     0.096 C 
ATOM     16  C   UNL A   1      31.804  27.935  25.754  1.00  0.00    -0.007 C 
ATOM     17  C   UNL A   1      31.190  26.752  24.994  1.00  0.00    -0.007 C 
ATOM     18  C   UNL A   1      31.553  28.054  27.262  1.00  0.00     0.014 C 
ATOM     19  C   UNL A   1      31.687  29.310  25.135  1.00  0.00     0.014 C 
ATOM     20  C   UNL A   1      30.842  26.844  23.505  1.00  0.00     0.014 C 
ATOM     21  C   UNL A   1      30.143  25.953  25.738  1.00  0.00     0.014 C 
ENDBRANCH  13  15
ENDBRANCH   7  11
ENDBRANCH   6   7
ENDBRANCH   3   6
ENDBRANCH   1   2
BRANCH   1  22
ATOM     22  C   UNL A   1      38.089  19.820  25.012  1.00  0.00     0.042 C 
BRANCH  22  23
ATOM     23  C   UNL A   1      39.326  20.253  25.795  1.00  0.00     0.118 C 
BRANCH  23  24
ATOM     24  N   UNL A   1      40.258  19.157  25.989  1.00  0.00    -0.352 N 
ATOM     25  C   UNL A   1      41.621  19.205  26.127  1.00  0.00     0.251 C 
ATOM     26  H   UNL A   1      39.858  18.258  26.027  1.00  0.00     0.163 HD
ATOM     27  O   UNL A   1      42.298  18.198  25.984  1.00  0.00    -0.269 OA
BRANCH  25  28
ATOM     28  C   UNL A   1      42.255  20.503  26.423  1.00  0.00     0.039 A 
ATOM     29  C   UNL A   1      42.802  21.246  25.377  1.00  0.00     0.014 A 
ATOM     30  C   UNL A   1      42.277  20.990  27.734  1.00  0.00     0.014 A 
ATOM     31  C   UNL A   1      43.314  22.516  25.638  1.00  0.00     0.010 A 
ATOM     32  C   UNL A   1      42.701  22.289  27.975  1.00  0.00     0.010 A 
ATOM     33  C   UNL A   1      43.228  23.063  26.930  1.00  0.00    -0.014 A 
BRANCH  33  34
ATOM     34  C   UNL A   1      43.675  24.448  27.213  1.00  0.00     0.031 A 
ATOM     35  C   UNL A   1      42.681  25.474  27.677  1.00  0.00     0.074 A 
ATOM     36  C   UNL A   1      44.955  24.792  26.978  1.00  0.00     0.049 A 
ATOM     37  N   UNL A   1      42.851  26.754  27.888  1.00  0.00    -0.248 NA
ATOM     38  C   UNL A   1      41.305  25.007  27.908  1.00  0.00     0.031 C 
ATOM     39  C   UNL A   1      45.996  23.890  26.482  1.00  0.00     0.029 A 
ATOM     40  N   UNL A   1      45.596  25.997  27.111  1.00  0.00    -0.354 N 
ATOM     41  C   UNL A   1      41.607  27.243  28.263  1.00  0.00     0.074 A 
ATOM     42  C   UNL A   1      40.678  26.138  28.195  1.00  0.00     0.031 C 
ATOM     43  C   UNL A   1      47.149  24.568  26.372  1.00  0.00     0.029 A 
ATOM     44  C   UNL A   1      46.919  25.960  26.741  1.00  0.00     0.049 A 
ATOM     45  H   UNL A   1      45.152  26.812  27.439  1.00  0.00     0.167 HD
ATOM     46  C   UNL A   1      41.277  28.498  28.651  1.00  0.00     0.037 A 
ATOM     47  C   UNL A   1      47.836  26.944  26.687  1.00  0.00     0.037 A 
ATOM     48  C   UNL A   1      42.214  29.588  28.730  1.00  0.00     0.049 A 
ATOM     49  C   UNL A   1      47.432  28.337  27.091  1.00  0.00     0.074 A 
ATOM     50  C   UNL A   1      41.996  30.880  29.171  1.00  0.00     0.029 A 
ATOM     51  N   UNL A   1      43.546  29.512  28.348  1.00  0.00    -0.354 N 
ATOM     52  N   UNL A   1      46.272  28.771  27.520  1.00  0.00    -0.248 NA
ATOM     53  C   UNL A   1      48.466  29.377  27.002  1.00  0.00     0.031 C 
ATOM     54  C   UNL A   1      43.182  31.604  29.001  1.00  0.00     0.029 A 
ATOM     55  C   UNL A   1      44.153  30.747  28.510  1.00  0.00     0.049 A 
ATOM     56  H   UNL A   1      43.993  28.703  28.013  1.00  0.00     0.167 HD
ATOM     57  C   UNL A   1      46.441  30.127  27.771  1.00  0.00     0.074 A 
ATOM     58  C   UNL A   1      47.823  30.436  27.472  1.00  0.00     0.031 C 
ATOM     59  C   UNL A   1      45.532  31.035  28.204  1.00  0.00     0.037 A 
BRANCH  46  60
ATOM     60  C   UNL A   1      39.845  28.759  29.022  1.00  0.00     0.064 A 
ATOM     61  C   UNL A   1      39.383  28.598  30.337  1.00  0.00     0.173 A 
ATOM     62  C   UNL A   1      38.933  29.218  28.059  1.00  0.00     0.173 A 
ATOM     63  F   UNL A   1      40.210  28.150  31.294  1.00  0.00    -0.203 F 
ATOM     64  C   UNL A   1      38.057  28.859  30.668  1.00  0.00     0.198 A 
ATOM     65  C   UNL A   1      37.616  29.509  28.401  1.00  0.00     0.198 A 
ATOM     66  F   UNL A   1      39.322  29.395  26.788  1.00  0.00    -0.203 F 
ATOM     67  F   UNL A   1      37.626  28.650  31.921  1.00  0.00    -0.200 F 
ATOM     68  C   UNL A   1      37.176  29.323  29.703  1.00  0.00     0.200 A 
ATOM     69  F   UNL A   1      36.770  29.972  27.469  1.00  0.00    -0.200 F 
ATOM     70  F   UNL A   1      35.902  29.585  30.026  1.00  0.00    -0.200 F 
ENDBRANCH  46  60
BRANCH  47  71
ATOM     71  C   UNL A   1      49.222  26.651  26.237  1.00  0.00     0.064 A 
ATOM     72  C   UNL A   1      50.194  26.203  27.142  1.00  0.00     0.173 A 
ATOM     73  C   UNL A   1      49.609  26.826  24.899  1.00  0.00     0.173 A 
ATOM     74  F   UNL A   1      49.879  26.039  28.435  1.00  0.00    -0.203 F 
ATOM     75  C   UNL A   1      51.504  25.964  26.733  1.00  0.00     0.198 A 
ATOM     76  C   UNL A   1      50.912  26.555  24.484  1.00  0.00     0.198 A 
ATOM     77  F   UNL A   1      48.719  27.249  23.991  1.00  0.00    -0.203 F 
ATOM     78  F   UNL A   1      52.426  25.587  27.630  1.00  0.00    -0.200 F 
ATOM     79  C   UNL A   1      51.861  26.134  25.404  1.00  0.00     0.200 A 
ATOM     80  F   UNL A   1      51.248  26.704  23.197  1.00  0.00    -0.200 F 
ATOM     81  F   UNL A   1      53.121  25.902  25.011  1.00  0.00    -0.200 F 
ENDBRANCH  47  71
BRANCH  59  82
ATOM     82  C   UNL A   1      46.009  32.446  28.395  1.00  0.00     0.064 A 
ATOM     83  C   UNL A   1      45.912  33.399  27.370  1.00  0.00     0.173 A 
ATOM     84  C   UNL A   1      46.530  32.860  29.630  1.00  0.00     0.173 A 
ATOM     85  F   UNL A   1      45.437  33.049  26.166  1.00  0.00    -0.203 F 
ATOM     86  C   UNL A   1      46.342  34.708  27.568  1.00  0.00     0.198 A 
ATOM     87  C   UNL A   1      46.927  34.179  29.835  1.00  0.00     0.198 A 
ATOM     88  F   UNL A   1      46.638  31.990  30.646  1.00  0.00    -0.203 F 
ATOM     89  F   UNL A   1      46.287  35.589  26.559  1.00  0.00    -0.200 F 
ATOM     90  C   UNL A   1      46.840  35.099  28.802  1.00  0.00     0.200 A 
ATOM     91  F   UNL A   1      47.391  34.558  31.033  1.00  0.00    -0.200 F 
ATOM     92  F   UNL A   1      47.244  36.362  28.993  1.00  0.00    -0.200 F 
ENDBRANCH  59  82
ENDBRANCH  33  34
ENDBRANCH  25  28
ENDBRANCH  23  24
ENDBRANCH  22  23
ENDBRANCH   1  22
TORSDOF 14
ENDMDL
