MODEL 1
REMARK VINA RESULT:     -11.7      0.000      0.000
REMARK SMILES CCS(=O)(=O)N[C@H]1C=C[C@@H](C(=O)NCCCNC(=O)c2ccc(-c3c4nc(c(-c5c(F)c(F)c(F)c(F)c5F)c5ccc([nH]5)c(-c5c(F)c(F)c(F)c(F)c5F)c5nc(c(-c6c(F)c(F)c(F)c(F)c6F)c6ccc3[nH]6)C=C5)C=C4)cc2)C1
REMARK SMILES IDX 14 1 13 2 11 3 12 4 10 6 7 7 8 8 83 9 9 10 6 11 3 13 4 14
REMARK SMILES IDX 5 15 2 16 1 17 15 18 16 19 17 20 18 21 19 23 20 24 21 25
REMARK SMILES IDX 82 26 22 27 81 28 23 29 24 30 25 31 75 32 26 33 80 34 74 35
REMARK SMILES IDX 76 36 27 37 79 38 73 39 72 40 28 42 60 43 40 44 59 45 41 46
REMARK SMILES IDX 44 47 58 48 77 49 42 50 43 51 57 53 78 54 45 55 29 56 30 57
REMARK SMILES IDX 38 58 31 59 32 60 36 61 39 62 33 63 34 64 37 65 35 66 61 67
REMARK SMILES IDX 62 68 70 69 63 70 64 71 68 72 71 73 65 74 66 75 69 76 67 77
REMARK SMILES IDX 46 78 47 79 55 80 48 81 49 82 53 83 56 84 50 85 51 86 54 87
REMARK SMILES IDX 52 88
REMARK H PARENT 13 5 6 12 17 22 76 41 44 52
REMARK Flexibility Score: inf
ROOT
ATOM      1  C   UNL A   1      31.614  30.835  25.936  1.00  0.00     0.117 C 
ENDROOT
BRANCH   1   2
ATOM      2  N   UNL A   1      32.635  30.025  26.561  1.00  0.00    -0.356 N 
ATOM      3  C   UNL A   1      33.288  28.923  26.114  1.00  0.00     0.226 C 
ATOM      4  O   UNL A   1      34.269  28.570  26.782  1.00  0.00    -0.274 OA
ATOM      5  H   UNL A   1      32.901  30.324  27.461  1.00  0.00     0.163 HD
BRANCH   3   6
ATOM      6  C   UNL A   1      32.938  28.153  24.831  1.00  0.00     0.103 C 
ATOM      7  C   UNL A   1      31.534  28.172  22.817  1.00  0.00     0.093 C 
ATOM      8  C   UNL A   1      32.935  28.582  22.526  1.00  0.00    -0.011 C 
ATOM      9  C   UNL A   1      31.479  28.057  24.347  1.00  0.00     0.042 C 
ATOM     10  C   UNL A   1      33.694  28.622  23.627  1.00  0.00    -0.016 C 
BRANCH   7  11
ATOM     11  N   UNL A   1      30.640  29.057  22.076  1.00  0.00    -0.208 NA
ATOM     12  H   UNL A   1      31.126  29.954  22.082  1.00  0.00     0.141 HD
BRANCH  11  13
ATOM     13  S   UNL A   1      29.063  29.466  22.318  1.00  0.00     0.211 S 
ATOM     14  O   UNL A   1      28.365  28.322  22.858  1.00  0.00    -0.212 OA
ATOM     15  O   UNL A   1      28.652  29.995  21.036  1.00  0.00    -0.212 OA
BRANCH  13  16
ATOM     16  C   UNL A   1      28.971  30.846  23.478  1.00  0.00     0.150 C 
ATOM     17  C   UNL A   1      27.617  31.414  23.834  1.00  0.00     0.022 C 
ENDBRANCH  13  16
ENDBRANCH  11  13
ENDBRANCH   7  11
ENDBRANCH   3   6
ENDBRANCH   1   2
BRANCH   1  18
ATOM     18  C   UNL A   1      31.337  32.132  26.681  1.00  0.00     0.042 C 
BRANCH  18  19
ATOM     19  C   UNL A   1      32.568  32.716  27.349  1.00  0.00     0.118 C 
BRANCH  19  20
ATOM     20  N   UNL A   1      32.404  34.135  27.663  1.00  0.00    -0.352 N 
ATOM     21  C   UNL A   1      32.989  34.929  28.624  1.00  0.00     0.251 C 
ATOM     22  H   UNL A   1      31.763  34.606  27.085  1.00  0.00     0.163 HD
ATOM     23  O   UNL A   1      32.514  36.039  28.853  1.00  0.00    -0.269 OA
BRANCH  21  24
ATOM     24  C   UNL A   1      34.160  34.461  29.404  1.00  0.00     0.039 A 
ATOM     25  C   UNL A   1      33.961  33.782  30.613  1.00  0.00     0.014 A 
ATOM     26  C   UNL A   1      35.460  34.708  28.971  1.00  0.00     0.014 A 
ATOM     27  C   UNL A   1      35.057  33.274  31.321  1.00  0.00     0.010 A 
ATOM     28  C   UNL A   1      36.534  34.088  29.596  1.00  0.00     0.010 A 
ATOM     29  C   UNL A   1      36.352  33.372  30.787  1.00  0.00    -0.014 A 
BRANCH  29  30
ATOM     30  C   UNL A   1      37.539  32.762  31.446  1.00  0.00     0.031 A 
ATOM     31  C   UNL A   1      38.235  31.590  30.801  1.00  0.00     0.074 A 
ATOM     32  C   UNL A   1      37.922  33.179  32.669  1.00  0.00     0.049 A 
ATOM     33  N   UNL A   1      39.172  30.811  31.281  1.00  0.00    -0.248 NA
ATOM     34  C   UNL A   1      37.785  31.215  29.451  1.00  0.00     0.031 C 
ATOM     35  C   UNL A   1      37.302  34.264  33.429  1.00  0.00     0.029 A 
ATOM     36  N   UNL A   1      38.916  32.721  33.501  1.00  0.00    -0.354 N 
ATOM     37  C   UNL A   1      39.392  29.841  30.311  1.00  0.00     0.074 A 
ATOM     38  C   UNL A   1      38.448  30.089  29.244  1.00  0.00     0.031 C 
ATOM     39  C   UNL A   1      37.941  34.404  34.601  1.00  0.00     0.029 A 
ATOM     40  C   UNL A   1      38.978  33.384  34.702  1.00  0.00     0.049 A 
ATOM     41  H   UNL A   1      39.524  31.986  33.259  1.00  0.00     0.167 HD
ATOM     42  C   UNL A   1      40.315  28.849  30.296  1.00  0.00     0.037 A 
ATOM     43  C   UNL A   1      39.771  33.183  35.773  1.00  0.00     0.037 A 
ATOM     44  C   UNL A   1      41.278  28.630  31.344  1.00  0.00     0.049 A 
ATOM     45  C   UNL A   1      40.790  32.075  35.734  1.00  0.00     0.074 A 
ATOM     46  C   UNL A   1      42.302  27.701  31.393  1.00  0.00     0.029 A 
ATOM     47  N   UNL A   1      41.333  29.352  32.528  1.00  0.00    -0.354 N 
ATOM     48  N   UNL A   1      41.034  31.207  34.782  1.00  0.00    -0.248 NA
ATOM     49  C   UNL A   1      41.649  31.923  36.916  1.00  0.00     0.031 C 
ATOM     50  C   UNL A   1      42.938  27.819  32.632  1.00  0.00     0.029 A 
ATOM     51  C   UNL A   1      42.358  28.870  33.326  1.00  0.00     0.049 A 
ATOM     52  H   UNL A   1      40.733  30.094  32.766  1.00  0.00     0.167 HD
ATOM     53  C   UNL A   1      42.093  30.431  35.235  1.00  0.00     0.074 A 
ATOM     54  C   UNL A   1      42.453  30.938  36.542  1.00  0.00     0.031 C 
ATOM     55  C   UNL A   1      42.714  29.394  34.620  1.00  0.00     0.037 A 
BRANCH  42  56
ATOM     56  C   UNL A   1      40.328  27.925  29.110  1.00  0.00     0.064 A 
ATOM     57  C   UNL A   1      41.072  28.212  27.955  1.00  0.00     0.173 A 
ATOM     58  C   UNL A   1      39.607  26.721  29.138  1.00  0.00     0.173 A 
ATOM     59  F   UNL A   1      41.772  29.354  27.868  1.00  0.00    -0.203 F 
ATOM     60  C   UNL A   1      41.061  27.351  26.860  1.00  0.00     0.198 A 
ATOM     61  C   UNL A   1      39.630  25.844  28.057  1.00  0.00     0.198 A 
ATOM     62  F   UNL A   1      38.884  26.391  30.219  1.00  0.00    -0.203 F 
ATOM     63  F   UNL A   1      41.728  27.680  25.745  1.00  0.00    -0.200 F 
ATOM     64  C   UNL A   1      40.347  26.164  26.916  1.00  0.00     0.200 A 
ATOM     65  F   UNL A   1      38.952  24.689  28.119  1.00  0.00    -0.200 F 
ATOM     66  F   UNL A   1      40.344  25.333  25.864  1.00  0.00    -0.200 F 
ENDBRANCH  42  56
BRANCH  43  67
ATOM     67  C   UNL A   1      39.646  34.063  36.966  1.00  0.00     0.064 A 
ATOM     68  C   UNL A   1      40.334  35.283  37.035  1.00  0.00     0.173 A 
ATOM     69  C   UNL A   1      38.840  33.708  38.058  1.00  0.00     0.173 A 
ATOM     70  F   UNL A   1      41.135  35.657  36.026  1.00  0.00    -0.203 F 
ATOM     71  C   UNL A   1      40.240  36.102  38.158  1.00  0.00     0.198 A 
ATOM     72  C   UNL A   1      38.721  34.543  39.167  1.00  0.00     0.198 A 
ATOM     73  F   UNL A   1      38.157  32.554  38.042  1.00  0.00    -0.203 F 
ATOM     74  F   UNL A   1      40.951  37.236  38.218  1.00  0.00    -0.200 F 
ATOM     75  C   UNL A   1      39.428  35.735  39.221  1.00  0.00     0.200 A 
ATOM     76  F   UNL A   1      37.924  34.191  40.186  1.00  0.00    -0.200 F 
ATOM     77  F   UNL A   1      39.334  36.524  40.299  1.00  0.00    -0.200 F 
ENDBRANCH  43  67
BRANCH  55  78
ATOM     78  C   UNL A   1      43.884  28.769  35.325  1.00  0.00     0.064 A 
ATOM     79  C   UNL A   1      45.193  29.244  35.156  1.00  0.00     0.173 A 
ATOM     80  C   UNL A   1      43.682  27.711  36.225  1.00  0.00     0.173 A 
ATOM     81  F   UNL A   1      45.443  30.245  34.299  1.00  0.00    -0.203 F 
ATOM     82  C   UNL A   1      46.258  28.666  35.843  1.00  0.00     0.198 A 
ATOM     83  C   UNL A   1      44.742  27.159  36.935  1.00  0.00     0.198 A 
ATOM     84  F   UNL A   1      42.448  27.224  36.430  1.00  0.00    -0.203 F 
ATOM     85  F   UNL A   1      47.506  29.103  35.629  1.00  0.00    -0.200 F 
ATOM     86  C   UNL A   1      46.031  27.631  36.738  1.00  0.00     0.200 A 
ATOM     87  F   UNL A   1      44.517  26.171  37.814  1.00  0.00    -0.200 F 
ATOM     88  F   UNL A   1      47.055  27.085  37.407  1.00  0.00    -0.200 F 
ENDBRANCH  55  78
ENDBRANCH  29  30
ENDBRANCH  21  24
ENDBRANCH  19  20
ENDBRANCH  18  19
ENDBRANCH   1  18
TORSDOF 13
ENDMDL
MODEL 2
REMARK VINA RESULT:     -11.5      3.734      4.819
REMARK SMILES CCS(=O)(=O)N[C@H]1C=C[C@@H](C(=O)NCCCNC(=O)c2ccc(-c3c4nc(c(-c5c(F)c(F)c(F)c(F)c5F)c5ccc([nH]5)c(-c5c(F)c(F)c(F)c(F)c5F)c5nc(c(-c6c(F)c(F)c(F)c(F)c6F)c6ccc3[nH]6)C=C5)C=C4)cc2)C1
REMARK SMILES IDX 14 1 13 2 11 3 12 4 10 6 7 7 8 8 83 9 9 10 6 11 3 13 4 14
REMARK SMILES IDX 5 15 2 16 1 17 15 18 16 19 17 20 18 21 19 23 20 24 21 25
REMARK SMILES IDX 82 26 22 27 81 28 23 29 24 30 25 31 75 32 26 33 80 34 74 35
REMARK SMILES IDX 76 36 27 37 79 38 73 39 72 40 28 42 60 43 40 44 59 45 41 46
REMARK SMILES IDX 44 47 58 48 77 49 42 50 43 51 57 53 78 54 45 55 29 56 30 57
REMARK SMILES IDX 38 58 31 59 32 60 36 61 39 62 33 63 34 64 37 65 35 66 61 67
REMARK SMILES IDX 62 68 70 69 63 70 64 71 68 72 71 73 65 74 66 75 69 76 67 77
REMARK SMILES IDX 46 78 47 79 55 80 48 81 49 82 53 83 56 84 50 85 51 86 54 87
REMARK SMILES IDX 52 88
REMARK H PARENT 13 5 6 12 17 22 76 41 44 52
REMARK Flexibility Score: inf
ROOT
ATOM      1  C   UNL A   1      32.662  26.487  25.548  1.00  0.00     0.117 C 
ENDROOT
BRANCH   1   2
ATOM      2  N   UNL A   1      31.906  25.438  26.194  1.00  0.00    -0.356 N 
ATOM      3  C   UNL A   1      32.249  24.163  26.506  1.00  0.00     0.226 C 
ATOM      4  O   UNL A   1      31.467  23.563  27.255  1.00  0.00    -0.274 OA
ATOM      5  H   UNL A   1      30.990  25.692  26.452  1.00  0.00     0.163 HD
BRANCH   3   6
ATOM      6  C   UNL A   1      33.544  23.465  26.060  1.00  0.00     0.103 C 
ATOM      7  C   UNL A   1      34.560  21.289  25.551  1.00  0.00     0.093 C 
ATOM      8  C   UNL A   1      34.207  22.044  24.317  1.00  0.00    -0.011 C 
ATOM      9  C   UNL A   1      33.973  22.130  26.694  1.00  0.00     0.042 C 
ATOM     10  C   UNL A   1      33.607  23.209  24.586  1.00  0.00    -0.016 C 
BRANCH   7  11
ATOM     11  N   UNL A   1      34.187  19.892  25.348  1.00  0.00    -0.208 NA
ATOM     12  H   UNL A   1      34.781  19.592  24.575  1.00  0.00     0.141 HD
BRANCH  11  13
ATOM     13  S   UNL A   1      32.735  19.188  25.022  1.00  0.00     0.211 S 
ATOM     14  O   UNL A   1      31.723  20.217  24.964  1.00  0.00    -0.212 OA
ATOM     15  O   UNL A   1      32.626  18.157  26.031  1.00  0.00    -0.212 OA
BRANCH  13  16
ATOM     16  C   UNL A   1      32.826  18.325  23.439  1.00  0.00     0.150 C 
ATOM     17  C   UNL A   1      33.716  17.110  23.317  1.00  0.00     0.022 C 
ENDBRANCH  13  16
ENDBRANCH  11  13
ENDBRANCH   7  11
ENDBRANCH   3   6
ENDBRANCH   1   2
BRANCH   1  18
ATOM     18  C   UNL A   1      32.129  27.881  25.844  1.00  0.00     0.042 C 
BRANCH  18  19
ATOM     19  C   UNL A   1      33.062  28.989  25.390  1.00  0.00     0.118 C 
BRANCH  19  20
ATOM     20  N   UNL A   1      32.637  30.301  25.877  1.00  0.00    -0.352 N 
ATOM     21  C   UNL A   1      33.135  31.109  26.874  1.00  0.00     0.251 C 
ATOM     22  H   UNL A   1      31.855  30.673  25.407  1.00  0.00     0.163 HD
ATOM     23  O   UNL A   1      32.464  32.061  27.264  1.00  0.00    -0.269 OA
BRANCH  21  24
ATOM     24  C   UNL A   1      34.451  30.837  27.502  1.00  0.00     0.039 A 
ATOM     25  C   UNL A   1      35.387  31.872  27.624  1.00  0.00     0.014 A 
ATOM     26  C   UNL A   1      34.786  29.562  27.948  1.00  0.00     0.014 A 
ATOM     27  C   UNL A   1      36.603  31.642  28.279  1.00  0.00     0.010 A 
ATOM     28  C   UNL A   1      35.927  29.369  28.716  1.00  0.00     0.010 A 
ATOM     29  C   UNL A   1      36.860  30.401  28.884  1.00  0.00    -0.014 A 
BRANCH  29  30
ATOM     30  C   UNL A   1      38.090  30.135  29.678  1.00  0.00     0.031 A 
ATOM     31  C   UNL A   1      39.133  29.184  29.150  1.00  0.00     0.074 A 
ATOM     32  C   UNL A   1      38.220  30.652  30.916  1.00  0.00     0.049 A 
ATOM     33  N   UNL A   1      40.187  28.687  29.749  1.00  0.00    -0.248 NA
ATOM     34  C   UNL A   1      38.941  28.689  27.778  1.00  0.00     0.031 C 
ATOM     35  C   UNL A   1      37.260  31.542  31.570  1.00  0.00     0.029 A 
ATOM     36  N   UNL A   1      39.206  30.484  31.858  1.00  0.00    -0.354 N 
ATOM     37  C   UNL A   1      40.754  27.800  28.843  1.00  0.00     0.074 A 
ATOM     38  C   UNL A   1      39.895  27.777  27.680  1.00  0.00     0.031 C 
ATOM     39  C   UNL A   1      37.713  31.859  32.792  1.00  0.00     0.029 A 
ATOM     40  C   UNL A   1      38.966  31.152  33.034  1.00  0.00     0.049 A 
ATOM     41  H   UNL A   1      40.009  29.934  31.705  1.00  0.00     0.167 HD
ATOM     42  C   UNL A   1      41.902  27.089  28.955  1.00  0.00     0.037 A 
ATOM     43  C   UNL A   1      39.668  31.180  34.184  1.00  0.00     0.037 A 
ATOM     44  C   UNL A   1      42.773  27.145  30.100  1.00  0.00     0.049 A 
ATOM     45  C   UNL A   1      40.940  30.383  34.287  1.00  0.00     0.074 A 
ATOM     46  C   UNL A   1      43.995  26.521  30.284  1.00  0.00     0.029 A 
ATOM     47  N   UNL A   1      42.513  27.867  31.256  1.00  0.00    -0.354 N 
ATOM     48  N   UNL A   1      41.502  29.600  33.398  1.00  0.00    -0.248 NA
ATOM     49  C   UNL A   1      41.680  30.477  35.553  1.00  0.00     0.031 C 
ATOM     50  C   UNL A   1      44.444  26.818  31.575  1.00  0.00     0.029 A 
ATOM     51  C   UNL A   1      43.539  27.684  32.168  1.00  0.00     0.049 A 
ATOM     52  H   UNL A   1      41.717  28.426  31.405  1.00  0.00     0.167 HD
ATOM     53  C   UNL A   1      42.674  29.139  33.981  1.00  0.00     0.074 A 
ATOM     54  C   UNL A   1      42.750  29.737  35.297  1.00  0.00     0.031 C 
ATOM     55  C   UNL A   1      43.607  28.298  33.470  1.00  0.00     0.037 A 
BRANCH  42  56
ATOM     56  C   UNL A   1      42.281  26.189  27.812  1.00  0.00     0.064 A 
ATOM     57  C   UNL A   1      43.185  26.594  26.818  1.00  0.00     0.173 A 
ATOM     58  C   UNL A   1      41.754  24.891  27.724  1.00  0.00     0.173 A 
ATOM     59  F   UNL A   1      43.712  27.828  26.846  1.00  0.00    -0.203 F 
ATOM     60  C   UNL A   1      43.514  25.752  25.758  1.00  0.00     0.198 A 
ATOM     61  C   UNL A   1      42.116  24.037  26.685  1.00  0.00     0.198 A 
ATOM     62  F   UNL A   1      40.891  24.446  28.650  1.00  0.00    -0.203 F 
ATOM     63  F   UNL A   1      44.330  26.187  24.787  1.00  0.00    -0.200 F 
ATOM     64  C   UNL A   1      42.986  24.472  25.698  1.00  0.00     0.200 A 
ATOM     65  F   UNL A   1      41.617  22.794  26.636  1.00  0.00    -0.200 F 
ATOM     66  F   UNL A   1      43.310  23.659  24.682  1.00  0.00    -0.200 F 
ENDBRANCH  42  56
BRANCH  43  67
ATOM     67  C   UNL A   1      39.191  32.008  35.325  1.00  0.00     0.064 A 
ATOM     68  C   UNL A   1      39.502  33.373  35.402  1.00  0.00     0.173 A 
ATOM     69  C   UNL A   1      38.417  31.459  36.358  1.00  0.00     0.173 A 
ATOM     70  F   UNL A   1      40.258  33.942  34.450  1.00  0.00    -0.203 F 
ATOM     71  C   UNL A   1      39.080  34.150  36.478  1.00  0.00     0.198 A 
ATOM     72  C   UNL A   1      37.967  32.243  37.417  1.00  0.00     0.198 A 
ATOM     73  F   UNL A   1      38.088  30.159  36.331  1.00  0.00    -0.203 F 
ATOM     74  F   UNL A   1      39.437  35.440  36.552  1.00  0.00    -0.200 F 
ATOM     75  C   UNL A   1      38.306  33.587  37.482  1.00  0.00     0.200 A 
ATOM     76  F   UNL A   1      37.209  31.698  38.378  1.00  0.00    -0.200 F 
ATOM     77  F   UNL A   1      37.896  34.335  38.515  1.00  0.00    -0.200 F 
ENDBRANCH  43  67
BRANCH  55  78
ATOM     78  C   UNL A   1      44.820  28.013  34.309  1.00  0.00     0.064 A 
ATOM     79  C   UNL A   1      44.882  26.912  35.176  1.00  0.00     0.173 A 
ATOM     80  C   UNL A   1      45.958  28.829  34.203  1.00  0.00     0.173 A 
ATOM     81  F   UNL A   1      43.819  26.109  35.323  1.00  0.00    -0.203 F 
ATOM     82  C   UNL A   1      46.029  26.654  35.922  1.00  0.00     0.198 A 
ATOM     83  C   UNL A   1      47.113  28.547  34.924  1.00  0.00     0.198 A 
ATOM     84  F   UNL A   1      45.954  29.891  33.382  1.00  0.00    -0.203 F 
ATOM     85  F   UNL A   1      46.049  25.625  36.780  1.00  0.00    -0.200 F 
ATOM     86  C   UNL A   1      47.146  27.465  35.789  1.00  0.00     0.200 A 
ATOM     87  F   UNL A   1      48.198  29.323  34.779  1.00  0.00    -0.200 F 
ATOM     88  F   UNL A   1      48.253  27.206  36.499  1.00  0.00    -0.200 F 
ENDBRANCH  55  78
ENDBRANCH  29  30
ENDBRANCH  21  24
ENDBRANCH  19  20
ENDBRANCH  18  19
ENDBRANCH   1  18
TORSDOF 13
ENDMDL
MODEL 3
REMARK VINA RESULT:     -11.5      5.556     10.150
REMARK SMILES CCS(=O)(=O)N[C@H]1C=C[C@@H](C(=O)NCCCNC(=O)c2ccc(-c3c4nc(c(-c5c(F)c(F)c(F)c(F)c5F)c5ccc([nH]5)c(-c5c(F)c(F)c(F)c(F)c5F)c5nc(c(-c6c(F)c(F)c(F)c(F)c6F)c6ccc3[nH]6)C=C5)C=C4)cc2)C1
REMARK SMILES IDX 14 1 13 2 11 3 12 4 10 6 7 7 8 8 83 9 9 10 6 11 3 13 4 14
REMARK SMILES IDX 5 15 2 16 1 17 15 18 16 19 17 20 18 21 19 23 20 24 21 25
REMARK SMILES IDX 82 26 22 27 81 28 23 29 24 30 25 31 75 32 26 33 80 34 74 35
REMARK SMILES IDX 76 36 27 37 79 38 73 39 72 40 28 42 60 43 40 44 59 45 41 46
REMARK SMILES IDX 44 47 58 48 77 49 42 50 43 51 57 53 78 54 45 55 29 56 30 57
REMARK SMILES IDX 38 58 31 59 32 60 36 61 39 62 33 63 34 64 37 65 35 66 61 67
REMARK SMILES IDX 62 68 70 69 63 70 64 71 68 72 71 73 65 74 66 75 69 76 67 77
REMARK SMILES IDX 46 78 47 79 55 80 48 81 49 82 53 83 56 84 50 85 51 86 54 87
REMARK SMILES IDX 52 88
REMARK H PARENT 13 5 6 12 17 22 76 41 44 52
REMARK Flexibility Score: inf
ROOT
ATOM      1  C   UNL A   1      42.394  22.258  28.328  1.00  0.00     0.117 C 
ENDROOT
BRANCH   1   2
ATOM      2  N   UNL A   1      43.595  22.031  27.557  1.00  0.00    -0.356 N 
ATOM      3  C   UNL A   1      44.434  22.906  26.947  1.00  0.00     0.226 C 
ATOM      4  O   UNL A   1      45.504  22.431  26.543  1.00  0.00    -0.274 OA
ATOM      5  H   UNL A   1      43.845  21.084  27.459  1.00  0.00     0.163 HD
BRANCH   3   6
ATOM      6  C   UNL A   1      44.177  24.413  26.797  1.00  0.00     0.103 C 
ATOM      7  C   UNL A   1      44.897  26.449  25.630  1.00  0.00     0.093 C 
ATOM      8  C   UNL A   1      43.640  25.892  25.059  1.00  0.00    -0.011 C 
ATOM      9  C   UNL A   1      45.352  25.397  26.651  1.00  0.00     0.042 C 
ATOM     10  C   UNL A   1      43.269  24.755  25.657  1.00  0.00    -0.016 C 
BRANCH   7  11
ATOM     11  N   UNL A   1      45.750  26.871  24.521  1.00  0.00    -0.208 NA
ATOM     12  H   UNL A   1      46.251  26.021  24.264  1.00  0.00     0.141 HD
BRANCH  11  13
ATOM     13  S   UNL A   1      46.895  28.049  24.415  1.00  0.00     0.211 S 
ATOM     14  O   UNL A   1      46.438  29.208  25.145  1.00  0.00    -0.212 OA
ATOM     15  O   UNL A   1      47.126  28.165  22.991  1.00  0.00    -0.212 OA
BRANCH  13  16
ATOM     16  C   UNL A   1      48.444  27.447  25.122  1.00  0.00     0.150 C 
ATOM     17  C   UNL A   1      48.530  27.223  26.613  1.00  0.00     0.022 C 
ENDBRANCH  13  16
ENDBRANCH  11  13
ENDBRANCH   7  11
ENDBRANCH   3   6
ENDBRANCH   1   2
BRANCH   1  18
ATOM     18  C   UNL A   1      41.152  21.642  27.702  1.00  0.00     0.042 C 
BRANCH  18  19
ATOM     19  C   UNL A   1      41.008  21.955  26.223  1.00  0.00     0.118 C 
BRANCH  19  20
ATOM     20  N   UNL A   1      39.633  22.306  25.866  1.00  0.00    -0.352 N 
ATOM     21  C   UNL A   1      38.841  23.372  26.231  1.00  0.00     0.251 C 
ATOM     22  H   UNL A   1      39.197  21.668  25.257  1.00  0.00     0.163 HD
ATOM     23  O   UNL A   1      37.636  23.328  25.998  1.00  0.00    -0.269 OA
BRANCH  21  24
ATOM     24  C   UNL A   1      39.409  24.555  26.921  1.00  0.00     0.039 A 
ATOM     25  C   UNL A   1      40.080  25.534  26.179  1.00  0.00     0.014 A 
ATOM     26  C   UNL A   1      39.313  24.698  28.303  1.00  0.00     0.014 A 
ATOM     27  C   UNL A   1      40.558  26.689  26.812  1.00  0.00     0.010 A 
ATOM     28  C   UNL A   1      39.661  25.899  28.906  1.00  0.00     0.010 A 
ATOM     29  C   UNL A   1      40.300  26.908  28.174  1.00  0.00    -0.014 A 
BRANCH  29  30
ATOM     30  C   UNL A   1      40.695  28.162  28.873  1.00  0.00     0.031 A 
ATOM     31  C   UNL A   1      42.086  28.300  29.438  1.00  0.00     0.074 A 
ATOM     32  C   UNL A   1      39.780  29.125  29.102  1.00  0.00     0.049 A 
ATOM     33  N   UNL A   1      42.579  29.227  30.220  1.00  0.00    -0.248 NA
ATOM     34  C   UNL A   1      43.039  27.226  29.116  1.00  0.00     0.031 C 
ATOM     35  C   UNL A   1      38.386  29.094  28.659  1.00  0.00     0.029 A 
ATOM     36  N   UNL A   1      39.882  30.312  29.787  1.00  0.00    -0.354 N 
ATOM     37  C   UNL A   1      43.877  28.828  30.509  1.00  0.00     0.074 A 
ATOM     38  C   UNL A   1      44.076  27.544  29.873  1.00  0.00     0.031 C 
ATOM     39  C   UNL A   1      37.770  30.216  29.062  1.00  0.00     0.029 A 
ATOM     40  C   UNL A   1      38.706  31.021  29.839  1.00  0.00     0.049 A 
ATOM     41  H   UNL A   1      40.718  30.624  30.202  1.00  0.00     0.167 HD
ATOM     42  C   UNL A   1      44.829  29.482  31.217  1.00  0.00     0.037 A 
ATOM     43  C   UNL A   1      38.410  32.180  30.457  1.00  0.00     0.037 A 
ATOM     44  C   UNL A   1      44.639  30.777  31.816  1.00  0.00     0.049 A 
ATOM     45  C   UNL A   1      39.483  32.891  31.238  1.00  0.00     0.074 A 
ATOM     46  C   UNL A   1      45.559  31.559  32.491  1.00  0.00     0.029 A 
ATOM     47  N   UNL A   1      43.442  31.480  31.811  1.00  0.00    -0.354 N 
ATOM     48  N   UNL A   1      40.727  32.535  31.448  1.00  0.00    -0.248 NA
ATOM     49  C   UNL A   1      39.112  34.167  31.864  1.00  0.00     0.031 C 
ATOM     50  C   UNL A   1      44.905  32.707  32.947  1.00  0.00     0.029 A 
ATOM     51  C   UNL A   1      43.595  32.676  32.495  1.00  0.00     0.049 A 
ATOM     52  H   UNL A   1      42.609  31.174  31.386  1.00  0.00     0.167 HD
ATOM     53  C   UNL A   1      41.296  33.557  32.197  1.00  0.00     0.074 A 
ATOM     54  C   UNL A   1      40.263  34.552  32.396  1.00  0.00     0.031 C 
ATOM     55  C   UNL A   1      42.561  33.663  32.673  1.00  0.00     0.037 A 
BRANCH  42  56
ATOM     56  C   UNL A   1      46.163  28.808  31.383  1.00  0.00     0.064 A 
ATOM     57  C   UNL A   1      46.436  27.961  32.469  1.00  0.00     0.173 A 
ATOM     58  C   UNL A   1      47.175  28.989  30.428  1.00  0.00     0.173 A 
ATOM     59  F   UNL A   1      45.509  27.760  33.418  1.00  0.00    -0.203 F 
ATOM     60  C   UNL A   1      47.682  27.356  32.614  1.00  0.00     0.198 A 
ATOM     61  C   UNL A   1      48.407  28.351  30.555  1.00  0.00     0.198 A 
ATOM     62  F   UNL A   1      46.969  29.781  29.364  1.00  0.00    -0.203 F 
ATOM     63  F   UNL A   1      47.938  26.604  33.694  1.00  0.00    -0.200 F 
ATOM     64  C   UNL A   1      48.663  27.545  31.653  1.00  0.00     0.200 A 
ATOM     65  F   UNL A   1      49.348  28.521  29.616  1.00  0.00    -0.200 F 
ATOM     66  F   UNL A   1      49.859  26.955  31.790  1.00  0.00    -0.200 F 
ENDBRANCH  42  56
BRANCH  43  67
ATOM     67  C   UNL A   1      37.041  32.753  30.346  1.00  0.00     0.064 A 
ATOM     68  C   UNL A   1      36.679  33.545  29.247  1.00  0.00     0.173 A 
ATOM     69  C   UNL A   1      36.068  32.523  31.330  1.00  0.00     0.173 A 
ATOM     70  F   UNL A   1      37.580  33.812  28.290  1.00  0.00    -0.203 F 
ATOM     71  C   UNL A   1      35.407  34.104  29.147  1.00  0.00     0.198 A 
ATOM     72  C   UNL A   1      34.785  33.055  31.214  1.00  0.00     0.198 A 
ATOM     73  F   UNL A   1      36.359  31.770  32.401  1.00  0.00    -0.203 F 
ATOM     74  F   UNL A   1      35.107  34.899  28.112  1.00  0.00    -0.200 F 
ATOM     75  C   UNL A   1      34.458  33.853  30.127  1.00  0.00     0.200 A 
ATOM     76  F   UNL A   1      33.867  32.799  32.156  1.00  0.00    -0.200 F 
ATOM     77  F   UNL A   1      33.233  34.387  30.029  1.00  0.00    -0.200 F 
ENDBRANCH  43  67
BRANCH  55  78
ATOM     78  C   UNL A   1      42.922  34.921  33.411  1.00  0.00     0.064 A 
ATOM     79  C   UNL A   1      43.321  36.087  32.740  1.00  0.00     0.173 A 
ATOM     80  C   UNL A   1      42.816  34.974  34.810  1.00  0.00     0.173 A 
ATOM     81  F   UNL A   1      43.451  36.087  31.405  1.00  0.00    -0.203 F 
ATOM     82  C   UNL A   1      43.623  37.249  33.445  1.00  0.00     0.198 A 
ATOM     83  C   UNL A   1      43.084  36.147  35.507  1.00  0.00     0.198 A 
ATOM     84  F   UNL A   1      42.430  33.888  35.500  1.00  0.00    -0.203 F 
ATOM     85  F   UNL A   1      44.049  38.337  32.788  1.00  0.00    -0.200 F 
ATOM     86  C   UNL A   1      43.496  37.281  34.826  1.00  0.00     0.200 A 
ATOM     87  F   UNL A   1      42.943  36.179  36.840  1.00  0.00    -0.200 F 
ATOM     88  F   UNL A   1      43.775  38.405  35.500  1.00  0.00    -0.200 F 
ENDBRANCH  55  78
ENDBRANCH  29  30
ENDBRANCH  21  24
ENDBRANCH  19  20
ENDBRANCH  18  19
ENDBRANCH   1  18
TORSDOF 13
ENDMDL
