MODEL 1
REMARK VINA RESULT:     -14.1      0.000      0.000
REMARK SMILES CC1=C[C@H](C)[C@H](CN2C[C@]34C=C[C@@H](O3)[C@H](C(=O)NCCCNC(=O)c3ccc(-c5c6nc(c(-c7c(F)c(F)c(F)c(F)c7F)c7ccc([nH]7)c(-c7c(F)c(F)c(F)c(F)c7F)c7nc(c(-c8c(F)c(F)c(F)c(F)c8F)c8ccc5[nH]8)C=C7)C=C6)cc3)[C@@H]4C2=O)[C@H](C)C1
REMARK SMILES IDX 20 1 19 2 18 3 16 4 17 5 15 7 8 8 9 9 89 10 10 11 88 12
REMARK SMILES IDX 90 13 11 14 14 15 12 16 13 17 7 18 6 19 1 20 2 21 3 22 93 23
REMARK SMILES IDX 4 24 91 25 5 26 92 27 21 28 22 29 23 30 24 32 25 33 26 34
REMARK SMILES IDX 87 35 27 36 86 37 28 38 29 39 30 40 80 41 31 42 85 43 79 44
REMARK SMILES IDX 81 45 32 46 84 47 78 48 77 49 33 51 65 52 45 53 64 54 46 55
REMARK SMILES IDX 49 56 63 57 82 58 47 59 48 60 62 62 83 63 50 64 34 65 35 66
REMARK SMILES IDX 43 67 36 68 37 69 41 70 44 71 38 72 39 73 42 74 40 75 66 76
REMARK SMILES IDX 67 77 75 78 68 79 69 80 73 81 76 82 70 83 71 84 74 85 72 86
REMARK SMILES IDX 51 87 52 88 60 89 53 90 54 91 58 92 61 93 55 94 56 95 59 96
REMARK SMILES IDX 57 97
REMARK H PARENT 18 6 22 31 81 50 49 61
REMARK Flexibility Score: inf
ROOT
ATOM      1  C   UNL A   1      31.583  31.882  26.513  1.00  0.00     0.042 C 
ENDROOT
BRANCH   1   2
ATOM      2  C   UNL A   1      31.784  30.381  26.368  1.00  0.00     0.117 C 
BRANCH   2   3
ATOM      3  N   UNL A   1      32.721  29.990  25.325  1.00  0.00    -0.356 N 
ATOM      4  C   UNL A   1      32.719  28.823  24.593  1.00  0.00     0.227 C 
ATOM      5  O   UNL A   1      33.584  28.664  23.736  1.00  0.00    -0.275 OA
ATOM      6  H   UNL A   1      33.438  30.633  25.119  1.00  0.00     0.163 HD
BRANCH   4   7
ATOM      7  C   UNL A   1      31.687  27.764  24.927  1.00  0.00     0.127 C 
ATOM      8  N   UNL A   1      33.751  25.164  23.725  1.00  0.00    -0.339 N 
ATOM      9  C   UNL A   1      32.927  25.791  22.745  1.00  0.00     0.160 C 
ATOM     10  C   UNL A   1      33.405  25.648  24.958  1.00  0.00     0.230 C 
ATOM     11  C   UNL A   1      31.467  25.859  23.288  1.00  0.00     0.117 C 
ATOM     12  C   UNL A   1      32.058  26.290  24.763  1.00  0.00     0.132 C 
ATOM     13  O   UNL A   1      33.938  25.415  26.032  1.00  0.00    -0.274 OA
ATOM     14  C   UNL A   1      31.164  26.847  22.109  1.00  0.00     0.009 C 
ATOM     15  O   UNL A   1      30.235  26.339  23.861  1.00  0.00    -0.360 OA
ATOM     16  C   UNL A   1      30.708  28.013  22.570  1.00  0.00     0.004 C 
ATOM     17  C   UNL A   1      30.469  27.768  24.005  1.00  0.00     0.155 C 
BRANCH   8  18
ATOM     18  C   UNL A   1      34.426  23.905  23.448  1.00  0.00     0.124 C 
BRANCH  18  19
ATOM     19  C   UNL A   1      33.942  22.754  24.364  1.00  0.00     0.018 C 
ATOM     20  C   UNL A   1      33.054  18.445  25.132  1.00  0.00     0.039 C 
ATOM     21  C   UNL A   1      33.342  19.872  24.767  1.00  0.00    -0.077 C 
ATOM     22  C   UNL A   1      32.375  20.709  24.370  1.00  0.00    -0.025 C 
ATOM     23  C   UNL A   1      34.780  20.281  24.793  1.00  0.00     0.034 C 
ATOM     24  C   UNL A   1      32.604  22.112  23.887  1.00  0.00     0.014 C 
ATOM     25  C   UNL A   1      35.050  21.789  24.914  1.00  0.00    -0.005 C 
ATOM     26  C   UNL A   1      32.353  22.149  22.375  1.00  0.00     0.012 C 
ATOM     27  C   UNL A   1      36.494  22.064  24.472  1.00  0.00     0.008 C 
ENDBRANCH  18  19
ENDBRANCH   8  18
ENDBRANCH   4   7
ENDBRANCH   2   3
ENDBRANCH   1   2
BRANCH   1  28
ATOM     28  C   UNL A   1      32.701  32.567  27.298  1.00  0.00     0.118 C 
BRANCH  28  29
ATOM     29  N   UNL A   1      32.414  33.966  27.620  1.00  0.00    -0.352 N 
ATOM     30  C   UNL A   1      32.977  34.838  28.524  1.00  0.00     0.251 C 
ATOM     31  H   UNL A   1      31.681  34.355  27.092  1.00  0.00     0.163 HD
ATOM     32  O   UNL A   1      32.444  35.928  28.718  1.00  0.00    -0.269 OA
BRANCH  30  33
ATOM     33  C   UNL A   1      34.185  34.474  29.296  1.00  0.00     0.039 A 
ATOM     34  C   UNL A   1      34.037  33.945  30.584  1.00  0.00     0.014 A 
ATOM     35  C   UNL A   1      35.463  34.669  28.777  1.00  0.00     0.014 A 
ATOM     36  C   UNL A   1      35.158  33.496  31.290  1.00  0.00     0.010 A 
ATOM     37  C   UNL A   1      36.567  34.139  29.436  1.00  0.00     0.010 A 
ATOM     38  C   UNL A   1      36.426  33.526  30.691  1.00  0.00    -0.014 A 
BRANCH  38  39
ATOM     39  C   UNL A   1      37.616  32.891  31.319  1.00  0.00     0.031 A 
ATOM     40  C   UNL A   1      38.284  31.717  30.659  1.00  0.00     0.074 A 
ATOM     41  C   UNL A   1      38.010  33.287  32.545  1.00  0.00     0.049 A 
ATOM     42  N   UNL A   1      39.197  30.908  31.136  1.00  0.00    -0.248 NA
ATOM     43  C   UNL A   1      37.842  31.388  29.296  1.00  0.00     0.031 C 
ATOM     44  C   UNL A   1      37.416  34.381  33.316  1.00  0.00     0.029 A 
ATOM     45  N   UNL A   1      38.988  32.794  33.374  1.00  0.00    -0.354 N 
ATOM     46  C   UNL A   1      39.410  29.956  30.147  1.00  0.00     0.074 A 
ATOM     47  C   UNL A   1      38.506  30.266  29.061  1.00  0.00     0.031 C 
ATOM     48  C   UNL A   1      38.047  34.485  34.496  1.00  0.00     0.029 A 
ATOM     49  C   UNL A   1      39.055  33.435  34.589  1.00  0.00     0.049 A 
ATOM     50  H   UNL A   1      39.583  32.052  33.123  1.00  0.00     0.167 HD
ATOM     51  C   UNL A   1      40.293  28.928  30.141  1.00  0.00     0.037 A 
ATOM     52  C   UNL A   1      39.825  33.190  35.666  1.00  0.00     0.037 A 
ATOM     53  C   UNL A   1      41.225  28.652  31.202  1.00  0.00     0.049 A 
ATOM     54  C   UNL A   1      40.797  32.044  35.632  1.00  0.00     0.074 A 
ATOM     55  C   UNL A   1      42.220  27.691  31.247  1.00  0.00     0.029 A 
ATOM     56  N   UNL A   1      41.279  29.344  32.403  1.00  0.00    -0.354 N 
ATOM     57  N   UNL A   1      41.029  31.186  34.670  1.00  0.00    -0.248 NA
ATOM     58  C   UNL A   1      41.611  31.828  36.838  1.00  0.00     0.031 C 
ATOM     59  C   UNL A   1      42.852  27.777  32.492  1.00  0.00     0.029 A 
ATOM     60  C   UNL A   1      42.276  28.814  33.207  1.00  0.00     0.049 A 
ATOM     61  H   UNL A   1      40.696  30.097  32.648  1.00  0.00     0.167 HD
ATOM     62  C   UNL A   1      42.023  30.342  35.143  1.00  0.00     0.074 A 
ATOM     63  C   UNL A   1      42.363  30.800  36.474  1.00  0.00     0.031 C 
ATOM     64  C   UNL A   1      42.602  29.283  34.529  1.00  0.00     0.037 A 
BRANCH  51  65
ATOM     65  C   UNL A   1      40.299  28.027  28.942  1.00  0.00     0.064 A 
ATOM     66  C   UNL A   1      41.040  28.338  27.792  1.00  0.00     0.173 A 
ATOM     67  C   UNL A   1      39.589  26.817  28.958  1.00  0.00     0.173 A 
ATOM     68  F   UNL A   1      41.727  29.488  27.724  1.00  0.00    -0.203 F 
ATOM     69  C   UNL A   1      41.045  27.486  26.691  1.00  0.00     0.198 A 
ATOM     70  C   UNL A   1      39.619  25.954  27.867  1.00  0.00     0.198 A 
ATOM     71  F   UNL A   1      38.870  26.468  30.036  1.00  0.00    -0.203 F 
ATOM     72  F   UNL A   1      41.722  27.827  25.586  1.00  0.00    -0.200 F 
ATOM     73  C   UNL A   1      40.340  26.292  26.732  1.00  0.00     0.200 A 
ATOM     74  F   UNL A   1      38.946  24.795  27.910  1.00  0.00    -0.200 F 
ATOM     75  F   UNL A   1      40.351  25.470  25.673  1.00  0.00    -0.200 F 
ENDBRANCH  51  65
BRANCH  52  76
ATOM     76  C   UNL A   1      39.711  34.054  36.869  1.00  0.00     0.064 A 
ATOM     77  C   UNL A   1      40.427  35.255  36.955  1.00  0.00     0.173 A 
ATOM     78  C   UNL A   1      38.888  33.704  37.949  1.00  0.00     0.173 A 
ATOM     79  F   UNL A   1      41.243  35.621  35.955  1.00  0.00    -0.203 F 
ATOM     80  C   UNL A   1      40.335  36.069  38.082  1.00  0.00     0.198 A 
ATOM     81  C   UNL A   1      38.778  34.530  39.066  1.00  0.00     0.198 A 
ATOM     82  F   UNL A   1      38.180  32.566  37.913  1.00  0.00    -0.203 F 
ATOM     83  F   UNL A   1      41.059  37.194  38.155  1.00  0.00    -0.200 F 
ATOM     84  C   UNL A   1      39.506  35.708  39.134  1.00  0.00     0.200 A 
ATOM     85  F   UNL A   1      37.967  34.185  40.074  1.00  0.00    -0.200 F 
ATOM     86  F   UNL A   1      39.415  36.493  40.216  1.00  0.00    -0.200 F 
ENDBRANCH  52  76
BRANCH  64  87
ATOM     87  C   UNL A   1      43.676  28.555  35.280  1.00  0.00     0.064 A 
ATOM     88  C   UNL A   1      45.027  28.909  35.148  1.00  0.00     0.173 A 
ATOM     89  C   UNL A   1      43.346  27.531  36.180  1.00  0.00     0.173 A 
ATOM     90  F   UNL A   1      45.391  29.869  34.285  1.00  0.00    -0.203 F 
ATOM     91  C   UNL A   1      46.010  28.254  35.883  1.00  0.00     0.198 A 
ATOM     92  C   UNL A   1      44.331  26.896  36.931  1.00  0.00     0.198 A 
ATOM     93  F   UNL A   1      42.068  27.160  36.343  1.00  0.00    -0.203 F 
ATOM     94  F   UNL A   1      47.298  28.586  35.718  1.00  0.00    -0.200 F 
ATOM     95  C   UNL A   1      45.661  27.255  36.779  1.00  0.00     0.200 A 
ATOM     96  F   UNL A   1      43.991  25.937  37.804  1.00  0.00    -0.200 F 
ATOM     97  F   UNL A   1      46.609  26.634  37.494  1.00  0.00    -0.200 F 
ENDBRANCH  64  87
ENDBRANCH  38  39
ENDBRANCH  30  33
ENDBRANCH  28  29
ENDBRANCH   1  28
TORSDOF 12
ENDMDL
MODEL 2
REMARK VINA RESULT:     -14.1      0.098      1.561
REMARK SMILES CC1=C[C@H](C)[C@H](CN2C[C@]34C=C[C@@H](O3)[C@H](C(=O)NCCCNC(=O)c3ccc(-c5c6nc(c(-c7c(F)c(F)c(F)c(F)c7F)c7ccc([nH]7)c(-c7c(F)c(F)c(F)c(F)c7F)c7nc(c(-c8c(F)c(F)c(F)c(F)c8F)c8ccc5[nH]8)C=C7)C=C6)cc3)[C@@H]4C2=O)[C@H](C)C1
REMARK SMILES IDX 20 1 19 2 18 3 16 4 17 5 15 7 8 8 9 9 89 10 10 11 88 12
REMARK SMILES IDX 90 13 11 14 14 15 12 16 13 17 7 18 6 19 1 20 2 21 3 22 93 23
REMARK SMILES IDX 4 24 91 25 5 26 92 27 21 28 22 29 23 30 24 32 25 33 26 34
REMARK SMILES IDX 87 35 27 36 86 37 28 38 29 39 30 40 80 41 31 42 85 43 79 44
REMARK SMILES IDX 81 45 32 46 84 47 78 48 77 49 33 51 65 52 45 53 64 54 46 55
REMARK SMILES IDX 49 56 63 57 82 58 47 59 48 60 62 62 83 63 50 64 34 65 35 66
REMARK SMILES IDX 43 67 36 68 37 69 41 70 44 71 38 72 39 73 42 74 40 75 66 76
REMARK SMILES IDX 67 77 75 78 68 79 69 80 73 81 76 82 70 83 71 84 74 85 72 86
REMARK SMILES IDX 51 87 52 88 60 89 53 90 54 91 58 92 61 93 55 94 56 95 59 96
REMARK SMILES IDX 57 97
REMARK H PARENT 18 6 22 31 81 50 49 61
REMARK Flexibility Score: inf
ROOT
ATOM      1  C   UNL A   1      31.596  31.888  26.529  1.00  0.00     0.042 C 
ENDROOT
BRANCH   1   2
ATOM      2  C   UNL A   1      31.799  30.385  26.408  1.00  0.00     0.117 C 
BRANCH   2   3
ATOM      3  N   UNL A   1      32.784  29.981  25.415  1.00  0.00    -0.356 N 
ATOM      4  C   UNL A   1      32.831  28.795  24.718  1.00  0.00     0.227 C 
ATOM      5  O   UNL A   1      33.732  28.627  23.901  1.00  0.00    -0.275 OA
ATOM      6  H   UNL A   1      33.499  30.630  25.221  1.00  0.00     0.163 HD
BRANCH   4   7
ATOM      7  C   UNL A   1      31.802  27.728  25.039  1.00  0.00     0.127 C 
ATOM      8  N   UNL A   1      33.874  25.151  23.804  1.00  0.00    -0.339 N 
ATOM      9  C   UNL A   1      33.047  25.787  22.832  1.00  0.00     0.160 C 
ATOM     10  C   UNL A   1      33.527  25.617  25.043  1.00  0.00     0.230 C 
ATOM     11  C   UNL A   1      31.587  25.843  23.377  1.00  0.00     0.117 C 
ATOM     12  C   UNL A   1      32.178  26.258  24.856  1.00  0.00     0.132 C 
ATOM     13  O   UNL A   1      34.062  25.374  26.113  1.00  0.00    -0.274 OA
ATOM     14  C   UNL A   1      31.280  26.845  22.210  1.00  0.00     0.009 C 
ATOM     15  O   UNL A   1      30.354  26.311  23.957  1.00  0.00    -0.360 OA
ATOM     16  C   UNL A   1      30.820  28.003  22.686  1.00  0.00     0.004 C 
ATOM     17  C   UNL A   1      30.583  27.739  24.118  1.00  0.00     0.155 C 
BRANCH   8  18
ATOM     18  C   UNL A   1      34.553  23.897  23.511  1.00  0.00     0.124 C 
BRANCH  18  19
ATOM     19  C   UNL A   1      34.051  22.726  24.391  1.00  0.00     0.018 C 
ATOM     20  C   UNL A   1      33.112  18.407  25.033  1.00  0.00     0.039 C 
ATOM     21  C   UNL A   1      33.417  19.841  24.710  1.00  0.00    -0.077 C 
ATOM     22  C   UNL A   1      32.462  20.700  24.332  1.00  0.00    -0.025 C 
ATOM     23  C   UNL A   1      34.860  20.233  24.755  1.00  0.00     0.034 C 
ATOM     24  C   UNL A   1      32.709  22.113  23.890  1.00  0.00     0.014 C 
ATOM     25  C   UNL A   1      35.146  21.734  24.920  1.00  0.00    -0.005 C 
ATOM     26  C   UNL A   1      32.467  22.195  22.379  1.00  0.00     0.012 C 
ATOM     27  C   UNL A   1      36.595  22.005  24.493  1.00  0.00     0.008 C 
ENDBRANCH  18  19
ENDBRANCH   8  18
ENDBRANCH   4   7
ENDBRANCH   2   3
ENDBRANCH   1   2
BRANCH   1  28
ATOM     28  C   UNL A   1      32.730  32.592  27.272  1.00  0.00     0.118 C 
BRANCH  28  29
ATOM     29  N   UNL A   1      32.430  33.983  27.613  1.00  0.00    -0.352 N 
ATOM     30  C   UNL A   1      32.985  34.851  28.526  1.00  0.00     0.251 C 
ATOM     31  H   UNL A   1      31.692  34.372  27.090  1.00  0.00     0.163 HD
ATOM     32  O   UNL A   1      32.442  35.933  28.734  1.00  0.00    -0.269 OA
BRANCH  30  33
ATOM     33  C   UNL A   1      34.198  34.490  29.292  1.00  0.00     0.039 A 
ATOM     34  C   UNL A   1      34.063  34.039  30.611  1.00  0.00     0.014 A 
ATOM     35  C   UNL A   1      35.470  34.611  28.735  1.00  0.00     0.014 A 
ATOM     36  C   UNL A   1      35.185  33.593  31.317  1.00  0.00     0.010 A 
ATOM     37  C   UNL A   1      36.571  34.082  29.399  1.00  0.00     0.010 A 
ATOM     38  C   UNL A   1      36.440  33.546  30.690  1.00  0.00    -0.014 A 
BRANCH  38  39
ATOM     39  C   UNL A   1      37.622  32.907  31.327  1.00  0.00     0.031 A 
ATOM     40  C   UNL A   1      38.292  31.732  30.673  1.00  0.00     0.074 A 
ATOM     41  C   UNL A   1      38.007  33.302  32.557  1.00  0.00     0.049 A 
ATOM     42  N   UNL A   1      39.198  30.919  31.157  1.00  0.00    -0.248 NA
ATOM     43  C   UNL A   1      37.860  31.403  29.306  1.00  0.00     0.031 C 
ATOM     44  C   UNL A   1      37.410  34.398  33.322  1.00  0.00     0.029 A 
ATOM     45  N   UNL A   1      38.977  32.806  33.394  1.00  0.00    -0.354 N 
ATOM     46  C   UNL A   1      39.417  29.967  30.170  1.00  0.00     0.074 A 
ATOM     47  C   UNL A   1      38.522  30.279  29.076  1.00  0.00     0.031 C 
ATOM     48  C   UNL A   1      38.032  34.500  34.507  1.00  0.00     0.029 A 
ATOM     49  C   UNL A   1      39.037  33.446  34.608  1.00  0.00     0.049 A 
ATOM     50  H   UNL A   1      39.573  32.062  33.147  1.00  0.00     0.167 HD
ATOM     51  C   UNL A   1      40.296  28.936  30.171  1.00  0.00     0.037 A 
ATOM     52  C   UNL A   1      39.797  33.200  35.692  1.00  0.00     0.037 A 
ATOM     53  C   UNL A   1      41.219  28.658  31.239  1.00  0.00     0.049 A 
ATOM     54  C   UNL A   1      40.766  32.050  35.666  1.00  0.00     0.074 A 
ATOM     55  C   UNL A   1      42.210  27.694  31.292  1.00  0.00     0.029 A 
ATOM     56  N   UNL A   1      41.266  29.349  32.441  1.00  0.00    -0.354 N 
ATOM     57  N   UNL A   1      41.003  31.192  34.706  1.00  0.00    -0.248 NA
ATOM     58  C   UNL A   1      41.569  31.832  36.878  1.00  0.00     0.031 C 
ATOM     59  C   UNL A   1      42.833  27.777  32.543  1.00  0.00     0.029 A 
ATOM     60  C   UNL A   1      42.254  28.816  33.253  1.00  0.00     0.049 A 
ATOM     61  H   UNL A   1      40.683  30.104  32.681  1.00  0.00     0.167 HD
ATOM     62  C   UNL A   1      41.991  30.345  35.186  1.00  0.00     0.074 A 
ATOM     63  C   UNL A   1      42.321  30.801  36.520  1.00  0.00     0.031 C 
ATOM     64  C   UNL A   1      42.571  29.284  34.577  1.00  0.00     0.037 A 
BRANCH  51  65
ATOM     65  C   UNL A   1      40.309  28.035  28.972  1.00  0.00     0.064 A 
ATOM     66  C   UNL A   1      41.047  28.352  27.822  1.00  0.00     0.173 A 
ATOM     67  C   UNL A   1      39.609  26.819  28.988  1.00  0.00     0.173 A 
ATOM     68  F   UNL A   1      41.724  29.508  27.753  1.00  0.00    -0.203 F 
ATOM     69  C   UNL A   1      41.058  27.500  26.720  1.00  0.00     0.198 A 
ATOM     70  C   UNL A   1      39.646  25.956  27.897  1.00  0.00     0.198 A 
ATOM     71  F   UNL A   1      38.894  26.464  30.067  1.00  0.00    -0.203 F 
ATOM     72  F   UNL A   1      41.732  27.847  25.615  1.00  0.00    -0.200 F 
ATOM     73  C   UNL A   1      40.364  26.300  26.761  1.00  0.00     0.200 A 
ATOM     74  F   UNL A   1      38.983  24.792  27.941  1.00  0.00    -0.200 F 
ATOM     75  F   UNL A   1      40.381  25.479  25.703  1.00  0.00    -0.200 F 
ENDBRANCH  51  65
BRANCH  52  76
ATOM     76  C   UNL A   1      39.676  34.064  36.894  1.00  0.00     0.064 A 
ATOM     77  C   UNL A   1      38.879  33.674  37.977  1.00  0.00     0.173 A 
ATOM     78  C   UNL A   1      40.354  35.289  36.987  1.00  0.00     0.173 A 
ATOM     79  F   UNL A   1      38.195  32.521  37.923  1.00  0.00    -0.203 F 
ATOM     80  C   UNL A   1      38.751  34.482  39.105  1.00  0.00     0.198 A 
ATOM     81  C   UNL A   1      40.245  36.085  38.126  1.00  0.00     0.198 A 
ATOM     82  F   UNL A   1      41.133  35.705  35.978  1.00  0.00    -0.203 F 
ATOM     83  F   UNL A   1      37.952  34.102  40.112  1.00  0.00    -0.200 F 
ATOM     84  C   UNL A   1      39.439  35.684  39.181  1.00  0.00     0.200 A 
ATOM     85  F   UNL A   1      40.921  37.239  38.200  1.00  0.00    -0.200 F 
ATOM     86  F   UNL A   1      39.319  36.458  40.268  1.00  0.00    -0.200 F 
ENDBRANCH  52  76
BRANCH  64  87
ATOM     87  C   UNL A   1      43.637  28.552  35.336  1.00  0.00     0.064 A 
ATOM     88  C   UNL A   1      43.322  27.493  36.199  1.00  0.00     0.173 A 
ATOM     89  C   UNL A   1      44.989  28.878  35.157  1.00  0.00     0.173 A 
ATOM     90  F   UNL A   1      42.041  27.159  36.416  1.00  0.00    -0.203 F 
ATOM     91  C   UNL A   1      44.323  26.793  36.865  1.00  0.00     0.198 A 
ATOM     92  C   UNL A   1      45.989  28.160  35.806  1.00  0.00     0.198 A 
ATOM     93  F   UNL A   1      45.340  29.881  34.338  1.00  0.00    -0.203 F 
ATOM     94  F   UNL A   1      43.999  25.806  37.711  1.00  0.00    -0.200 F 
ATOM     95  C   UNL A   1      45.656  27.122  36.662  1.00  0.00     0.200 A 
ATOM     96  F   UNL A   1      47.277  28.472  35.600  1.00  0.00    -0.200 F 
ATOM     97  F   UNL A   1      46.618  26.439  37.296  1.00  0.00    -0.200 F 
ENDBRANCH  64  87
ENDBRANCH  38  39
ENDBRANCH  30  33
ENDBRANCH  28  29
ENDBRANCH   1  28
TORSDOF 12
ENDMDL
MODEL 3
REMARK VINA RESULT:     -14.0      5.473     11.092
REMARK SMILES CC1=C[C@H](C)[C@H](CN2C[C@]34C=C[C@@H](O3)[C@H](C(=O)NCCCNC(=O)c3ccc(-c5c6nc(c(-c7c(F)c(F)c(F)c(F)c7F)c7ccc([nH]7)c(-c7c(F)c(F)c(F)c(F)c7F)c7nc(c(-c8c(F)c(F)c(F)c(F)c8F)c8ccc5[nH]8)C=C7)C=C6)cc3)[C@@H]4C2=O)[C@H](C)C1
REMARK SMILES IDX 20 1 19 2 18 3 16 4 17 5 15 7 8 8 9 9 89 10 10 11 88 12
REMARK SMILES IDX 90 13 11 14 14 15 12 16 13 17 7 18 6 19 1 20 2 21 3 22 93 23
REMARK SMILES IDX 4 24 91 25 5 26 92 27 21 28 22 29 23 30 24 32 25 33 26 34
REMARK SMILES IDX 87 35 27 36 86 37 28 38 29 39 30 40 80 41 31 42 85 43 79 44
REMARK SMILES IDX 81 45 32 46 84 47 78 48 77 49 33 51 65 52 45 53 64 54 46 55
REMARK SMILES IDX 49 56 63 57 82 58 47 59 48 60 62 62 83 63 50 64 34 65 35 66
REMARK SMILES IDX 43 67 36 68 37 69 41 70 44 71 38 72 39 73 42 74 40 75 66 76
REMARK SMILES IDX 67 77 75 78 68 79 69 80 73 81 76 82 70 83 71 84 74 85 72 86
REMARK SMILES IDX 51 87 52 88 60 89 53 90 54 91 58 92 61 93 55 94 56 95 59 96
REMARK SMILES IDX 57 97
REMARK H PARENT 18 6 22 31 81 50 49 61
REMARK Flexibility Score: inf
ROOT
ATOM      1  C   UNL A   1      37.826  20.033  25.028  1.00  0.00     0.042 C 
ENDROOT
BRANCH   1   2
ATOM      2  C   UNL A   1      36.933  21.232  24.745  1.00  0.00     0.117 C 
BRANCH   2   3
ATOM      3  N   UNL A   1      36.206  21.736  25.900  1.00  0.00    -0.356 N 
ATOM      4  C   UNL A   1      34.960  22.322  25.914  1.00  0.00     0.227 C 
ATOM      5  O   UNL A   1      34.489  22.679  26.990  1.00  0.00    -0.275 OA
ATOM      6  H   UNL A   1      36.657  21.650  26.772  1.00  0.00     0.163 HD
BRANCH   4   7
ATOM      7  C   UNL A   1      34.258  22.554  24.590  1.00  0.00     0.127 C 
ATOM      8  N   UNL A   1      32.442  25.299  25.869  1.00  0.00    -0.339 N 
ATOM      9  C   UNL A   1      31.840  24.022  26.070  1.00  0.00     0.160 C 
ATOM     10  C   UNL A   1      33.539  25.141  25.065  1.00  0.00     0.230 C 
ATOM     11  C   UNL A   1      31.837  23.252  24.715  1.00  0.00     0.117 C 
ATOM     12  C   UNL A   1      33.368  23.787  24.431  1.00  0.00     0.132 C 
ATOM     13  O   UNL A   1      34.358  25.986  24.739  1.00  0.00    -0.274 OA
ATOM     14  C   UNL A   1      31.463  21.972  25.540  1.00  0.00     0.009 C 
ATOM     15  O   UNL A   1      32.172  22.336  23.654  1.00  0.00    -0.360 OA
ATOM     16  C   UNL A   1      32.362  21.005  25.353  1.00  0.00     0.004 C 
ATOM     17  C   UNL A   1      33.205  21.502  24.249  1.00  0.00     0.155 C 
BRANCH   8  18
ATOM     18  C   UNL A   1      31.689  26.528  26.073  1.00  0.00     0.124 C 
BRANCH  18  19
ATOM     19  C   UNL A   1      31.523  27.350  24.771  1.00  0.00     0.018 C 
ATOM     20  C   UNL A   1      29.204  30.096  22.121  1.00  0.00     0.039 C 
ATOM     21  C   UNL A   1      29.889  29.145  23.059  1.00  0.00    -0.077 C 
ATOM     22  C   UNL A   1      29.828  27.818  22.889  1.00  0.00    -0.025 C 
ATOM     23  C   UNL A   1      30.573  29.761  24.238  1.00  0.00     0.034 C 
ATOM     24  C   UNL A   1      30.394  26.807  23.844  1.00  0.00     0.014 C 
ATOM     25  C   UNL A   1      31.660  28.907  24.908  1.00  0.00    -0.005 C 
ATOM     26  C   UNL A   1      29.228  26.112  24.556  1.00  0.00     0.012 C 
ATOM     27  C   UNL A   1      31.918  29.461  26.316  1.00  0.00     0.008 C 
ENDBRANCH  18  19
ENDBRANCH   8  18
ENDBRANCH   4   7
ENDBRANCH   2   3
ENDBRANCH   1   2
BRANCH   1  28
ATOM     28  C   UNL A   1      39.089  20.392  25.809  1.00  0.00     0.118 C 
BRANCH  28  29
ATOM     29  N   UNL A   1      40.068  19.305  25.868  1.00  0.00    -0.352 N 
ATOM     30  C   UNL A   1      41.428  19.298  26.078  1.00  0.00     0.251 C 
ATOM     31  H   UNL A   1      39.680  18.411  25.731  1.00  0.00     0.163 HD
ATOM     32  O   UNL A   1      42.056  18.254  25.920  1.00  0.00    -0.269 OA
BRANCH  30  33
ATOM     33  C   UNL A   1      42.156  20.531  26.451  1.00  0.00     0.039 A 
ATOM     34  C   UNL A   1      42.719  21.322  25.441  1.00  0.00     0.014 A 
ATOM     35  C   UNL A   1      42.310  20.908  27.784  1.00  0.00     0.014 A 
ATOM     36  C   UNL A   1      43.319  22.544  25.761  1.00  0.00     0.010 A 
ATOM     37  C   UNL A   1      42.821  22.163  28.095  1.00  0.00     0.010 A 
ATOM     38  C   UNL A   1      43.312  23.007  27.086  1.00  0.00    -0.014 A 
BRANCH  38  39
ATOM     39  C   UNL A   1      43.764  24.377  27.451  1.00  0.00     0.031 A 
ATOM     40  C   UNL A   1      42.774  25.395  27.941  1.00  0.00     0.074 A 
ATOM     41  C   UNL A   1      45.040  24.739  27.214  1.00  0.00     0.049 A 
ATOM     42  N   UNL A   1      42.928  26.684  28.118  1.00  0.00    -0.248 NA
ATOM     43  C   UNL A   1      41.417  24.907  28.237  1.00  0.00     0.031 C 
ATOM     44  C   UNL A   1      46.090  23.861  26.695  1.00  0.00     0.029 A 
ATOM     45  N   UNL A   1      45.666  25.954  27.352  1.00  0.00    -0.354 N 
ATOM     46  C   UNL A   1      41.685  27.163  28.510  1.00  0.00     0.074 A 
ATOM     47  C   UNL A   1      40.778  26.035  28.509  1.00  0.00     0.031 C 
ATOM     48  C   UNL A   1      47.229  24.559  26.570  1.00  0.00     0.029 A 
ATOM     49  C   UNL A   1      46.981  25.945  26.951  1.00  0.00     0.049 A 
ATOM     50  H   UNL A   1      45.216  26.755  27.705  1.00  0.00     0.167 HD
ATOM     51  C   UNL A   1      41.338  28.426  28.856  1.00  0.00     0.037 A 
ATOM     52  C   UNL A   1      47.880  26.945  26.875  1.00  0.00     0.037 A 
ATOM     53  C   UNL A   1      42.253  29.535  28.904  1.00  0.00     0.049 A 
ATOM     54  C   UNL A   1      47.468  28.337  27.266  1.00  0.00     0.074 A 
ATOM     55  C   UNL A   1      42.016  30.830  29.330  1.00  0.00     0.029 A 
ATOM     56  N   UNL A   1      43.584  29.477  28.516  1.00  0.00    -0.354 N 
ATOM     57  N   UNL A   1      46.305  28.766  27.689  1.00  0.00    -0.248 NA
ATOM     58  C   UNL A   1      48.494  29.385  27.163  1.00  0.00     0.031 C 
ATOM     59  C   UNL A   1      43.195  31.566  29.165  1.00  0.00     0.029 A 
ATOM     60  C   UNL A   1      44.175  30.721  28.670  1.00  0.00     0.049 A 
ATOM     61  H   UNL A   1      44.039  28.672  28.180  1.00  0.00     0.167 HD
ATOM     62  C   UNL A   1      46.461  30.125  27.920  1.00  0.00     0.074 A 
ATOM     63  C   UNL A   1      47.837  30.449  27.604  1.00  0.00     0.031 C 
ATOM     64  C   UNL A   1      45.546  31.024  28.353  1.00  0.00     0.037 A 
BRANCH  51  65
ATOM     65  C   UNL A   1      39.904  28.676  29.220  1.00  0.00     0.064 A 
ATOM     66  C   UNL A   1      39.432  28.474  30.525  1.00  0.00     0.173 A 
ATOM     67  C   UNL A   1      39.001  29.162  28.262  1.00  0.00     0.173 A 
ATOM     68  F   UNL A   1      40.253  28.001  31.474  1.00  0.00    -0.203 F 
ATOM     69  C   UNL A   1      38.101  28.721  30.851  1.00  0.00     0.198 A 
ATOM     70  C   UNL A   1      37.679  29.435  28.598  1.00  0.00     0.198 A 
ATOM     71  F   UNL A   1      39.405  29.379  27.001  1.00  0.00    -0.203 F 
ATOM     72  F   UNL A   1      37.661  28.476  32.093  1.00  0.00    -0.200 F 
ATOM     73  C   UNL A   1      37.227  29.207  29.889  1.00  0.00     0.200 A 
ATOM     74  F   UNL A   1      36.837  29.915  27.671  1.00  0.00    -0.200 F 
ATOM     75  F   UNL A   1      35.948  29.450  30.206  1.00  0.00    -0.200 F 
ENDBRANCH  51  65
BRANCH  52  76
ATOM     76  C   UNL A   1      49.263  26.663  26.414  1.00  0.00     0.064 A 
ATOM     77  C   UNL A   1      49.622  26.856  25.074  1.00  0.00     0.173 A 
ATOM     78  C   UNL A   1      50.251  26.202  27.297  1.00  0.00     0.173 A 
ATOM     79  F   UNL A   1      48.705  27.275  24.189  1.00  0.00    -0.203 F 
ATOM     80  C   UNL A   1      50.914  26.586  24.629  1.00  0.00     0.198 A 
ATOM     81  C   UNL A   1      51.549  25.954  26.856  1.00  0.00     0.198 A 
ATOM     82  F   UNL A   1      49.957  26.005  28.590  1.00  0.00    -0.203 F 
ATOM     83  F   UNL A   1      51.222  26.743  23.334  1.00  0.00    -0.200 F 
ATOM     84  C   UNL A   1      51.879  26.141  25.522  1.00  0.00     0.200 A 
ATOM     85  F   UNL A   1      52.481  25.537  27.724  1.00  0.00    -0.200 F 
ATOM     86  F   UNL A   1      53.123  25.885  25.094  1.00  0.00    -0.200 F 
ENDBRANCH  52  76
BRANCH  64  87
ATOM     87  C   UNL A   1      46.003  32.441  28.531  1.00  0.00     0.064 A 
ATOM     88  C   UNL A   1      45.877  33.383  27.501  1.00  0.00     0.173 A 
ATOM     89  C   UNL A   1      46.521  32.872  29.761  1.00  0.00     0.173 A 
ATOM     90  F   UNL A   1      45.405  33.012  26.302  1.00  0.00    -0.203 F 
ATOM     91  C   UNL A   1      46.266  34.706  27.693  1.00  0.00     0.198 A 
ATOM     92  C   UNL A   1      46.886  34.201  29.957  1.00  0.00     0.198 A 
ATOM     93  F   UNL A   1      46.656  32.008  30.778  1.00  0.00    -0.203 F 
ATOM     94  F   UNL A   1      46.168  35.583  26.684  1.00  0.00    -0.200 F 
ATOM     95  C   UNL A   1      46.761  35.115  28.922  1.00  0.00     0.200 A 
ATOM     96  F   UNL A   1      47.354  34.597  31.149  1.00  0.00    -0.200 F 
ATOM     97  F   UNL A   1      47.124  36.391  29.108  1.00  0.00    -0.200 F 
ENDBRANCH  64  87
ENDBRANCH  38  39
ENDBRANCH  30  33
ENDBRANCH  28  29
ENDBRANCH   1  28
TORSDOF 12
ENDMDL
