MODEL 1
REMARK VINA RESULT:     -14.7      0.000      0.000
REMARK SMILES Cc1ccc(-c2nc(NC(=O)[C@H]3[C@@H](C(=O)NCCCNC(=O)c4ccc(-c5c6nc(c(-c7c(F)c(F)c(F)c(F)c7F)c7ccc([nH]7)c(-c7c(F)c(F)c(F)c(F)c7F)c7nc(c(-c8c(F)c(F)c(F)c(F)c8F)c8ccc5[nH]8)C=C7)C=C6)cc4)[C@@H]4CC[C@H]3O4)sc2C)cc1
REMARK SMILES IDX 17 1 16 2 14 3 15 4 13 6 12 7 89 8 86 9 88 10 90 11 87 12
REMARK SMILES IDX 10 13 9 14 11 16 8 17 6 18 7 19 92 20 91 21 93 22 5 23 1 24
REMARK SMILES IDX 2 25 3 26 95 27 4 28 94 29 18 30 19 31 20 32 21 33 22 35
REMARK SMILES IDX 23 36 24 37 85 38 25 39 84 40 26 41 27 42 28 43 78 44 29 45
REMARK SMILES IDX 83 46 77 47 79 48 30 49 82 50 76 51 75 52 31 54 63 55 43 56
REMARK SMILES IDX 62 57 44 58 47 59 61 60 80 61 45 62 46 63 60 65 81 66 48 67
REMARK SMILES IDX 32 68 33 69 41 70 34 71 35 72 39 73 42 74 36 75 37 76 40 77
REMARK SMILES IDX 38 78 64 79 65 80 73 81 66 82 67 83 71 84 74 85 68 86 69 87
REMARK SMILES IDX 72 88 70 89 49 90 50 91 58 92 51 93 52 94 56 95 59 96 53 97
REMARK SMILES IDX 54 98 57 99 55 100
REMARK H PARENT 16 5 9 15 20 34 79 53 47 64
REMARK Flexibility Score: inf
ROOT
ATOM      1  C   UNL A   1      31.743  28.863  27.281  1.00  0.00     0.117 C 
ENDROOT
BRANCH   1   2
ATOM      2  N   UNL A   1      32.271  27.654  26.674  1.00  0.00    -0.356 N 
ATOM      3  C   UNL A   1      32.473  27.480  25.336  1.00  0.00     0.226 C 
ATOM      4  O   UNL A   1      33.619  27.215  24.971  1.00  0.00    -0.275 OA
ATOM      5  H   UNL A   1      32.500  26.906  27.271  1.00  0.00     0.163 HD
BRANCH   3   6
ATOM      6  C   UNL A   1      31.350  27.743  24.359  1.00  0.00     0.122 C 
ATOM      7  C   UNL A   1      30.977  26.916  23.112  1.00  0.00     0.123 C 
ATOM      8  C   UNL A   1      30.347  28.027  22.253  1.00  0.00     0.132 C 
ATOM      9  C   UNL A   1      31.376  29.188  23.769  1.00  0.00     0.132 C 
ATOM     10  C   UNL A   1      29.204  28.773  22.996  1.00  0.00     0.035 C 
ATOM     11  O   UNL A   1      31.421  28.982  22.329  1.00  0.00    -0.373 OA
ATOM     12  C   UNL A   1      29.975  29.776  23.864  1.00  0.00     0.035 C 
BRANCH   7  13
ATOM     13  C   UNL A   1      31.713  25.936  22.149  1.00  0.00     0.232 C 
ATOM     14  N   UNL A   1      32.667  24.988  22.276  1.00  0.00    -0.302 N 
ATOM     15  H   UNL A   1      33.010  24.702  21.398  1.00  0.00     0.172 HD
ATOM     16  O   UNL A   1      31.398  26.101  20.945  1.00  0.00    -0.274 OA
BRANCH  14  17
ATOM     17  C   UNL A   1      33.282  24.321  23.295  1.00  0.00     0.190 A 
ATOM     18  C   UNL A   1      34.881  23.385  24.549  1.00  0.00     0.086 A 
ATOM     19  N   UNL A   1      34.590  24.249  23.471  1.00  0.00    -0.220 NA
ATOM     20  C   UNL A   1      33.747  22.918  25.201  1.00  0.00     0.031 A 
ATOM     21  S   UNL A   1      32.369  23.521  24.429  1.00  0.00    -0.101 S 
ATOM     22  C   UNL A   1      33.514  22.062  26.393  1.00  0.00     0.059 C 
BRANCH  18  23
ATOM     23  C   UNL A   1      36.241  23.008  24.965  1.00  0.00     0.001 A 
ATOM     24  C   UNL A   1      40.022  21.561  26.540  1.00  0.00     0.044 C 
ATOM     25  C   UNL A   1      38.733  22.080  25.971  1.00  0.00    -0.051 A 
ATOM     26  C   UNL A   1      38.295  23.389  26.224  1.00  0.00     0.004 A 
ATOM     27  C   UNL A   1      37.946  21.260  25.164  1.00  0.00     0.004 A 
ATOM     28  C   UNL A   1      37.058  23.850  25.727  1.00  0.00     0.010 A 
ATOM     29  C   UNL A   1      36.733  21.728  24.654  1.00  0.00     0.010 A 
ENDBRANCH  18  23
ENDBRANCH  14  17
ENDBRANCH   7  13
ENDBRANCH   3   6
ENDBRANCH   1   2
BRANCH   1  30
ATOM     30  C   UNL A   1      32.614  30.095  27.157  1.00  0.00     0.042 C 
BRANCH  30  31
ATOM     31  C   UNL A   1      34.108  29.809  27.186  1.00  0.00     0.118 C 
BRANCH  31  32
ATOM     32  N   UNL A   1      34.793  30.873  27.906  1.00  0.00    -0.352 N 
ATOM     33  C   UNL A   1      35.832  30.853  28.797  1.00  0.00     0.251 C 
ATOM     34  H   UNL A   1      34.444  31.774  27.719  1.00  0.00     0.163 HD
ATOM     35  O   UNL A   1      35.946  31.771  29.590  1.00  0.00    -0.269 OA
BRANCH  33  36
ATOM     36  C   UNL A   1      36.944  29.874  28.641  1.00  0.00     0.039 A 
ATOM     37  C   UNL A   1      37.102  28.965  29.701  1.00  0.00     0.014 A 
ATOM     38  C   UNL A   1      37.903  29.939  27.638  1.00  0.00     0.014 A 
ATOM     39  C   UNL A   1      38.306  28.291  29.868  1.00  0.00     0.010 A 
ATOM     40  C   UNL A   1      39.123  29.325  27.833  1.00  0.00     0.010 A 
ATOM     41  C   UNL A   1      39.344  28.564  28.984  1.00  0.00    -0.014 A 
BRANCH  41  42
ATOM     42  C   UNL A   1      40.721  28.163  29.209  1.00  0.00     0.031 A 
ATOM     43  C   UNL A   1      41.233  26.907  28.640  1.00  0.00     0.074 A 
ATOM     44  C   UNL A   1      41.543  29.034  29.830  1.00  0.00     0.049 A 
ATOM     45  N   UNL A   1      42.303  26.310  29.038  1.00  0.00    -0.248 NA
ATOM     46  C   UNL A   1      40.528  26.185  27.590  1.00  0.00     0.031 C 
ATOM     47  C   UNL A   1      43.000  29.002  29.882  1.00  0.00     0.029 A 
ATOM     48  N   UNL A   1      41.182  30.053  30.729  1.00  0.00    -0.354 N 
ATOM     49  C   UNL A   1      42.590  25.309  28.135  1.00  0.00     0.074 A 
ATOM     50  C   UNL A   1      41.403  25.211  27.319  1.00  0.00     0.031 C 
ATOM     51  C   UNL A   1      43.408  29.710  30.948  1.00  0.00     0.029 A 
ATOM     52  C   UNL A   1      42.215  30.070  31.695  1.00  0.00     0.049 A 
ATOM     53  H   UNL A   1      40.384  30.628  30.693  1.00  0.00     0.167 HD
ATOM     54  C   UNL A   1      43.856  24.795  28.114  1.00  0.00     0.037 A 
ATOM     55  C   UNL A   1      41.976  29.719  32.992  1.00  0.00     0.037 A 
ATOM     56  C   UNL A   1      44.644  25.328  29.230  1.00  0.00     0.049 A 
ATOM     57  C   UNL A   1      42.826  28.569  33.477  1.00  0.00     0.074 A 
ATOM     58  C   UNL A   1      45.591  26.336  29.317  1.00  0.00     0.029 A 
ATOM     59  N   UNL A   1      44.277  25.022  30.537  1.00  0.00    -0.354 N 
ATOM     60  N   UNL A   1      43.361  27.677  32.692  1.00  0.00    -0.248 NA
ATOM     61  C   UNL A   1      43.126  28.331  34.885  1.00  0.00     0.031 C 
ATOM     62  C   UNL A   1      45.757  26.668  30.685  1.00  0.00     0.029 A 
ATOM     63  C   UNL A   1      44.928  25.848  31.431  1.00  0.00     0.049 A 
ATOM     64  H   UNL A   1      43.639  24.315  30.789  1.00  0.00     0.167 HD
ATOM     65  C   UNL A   1      44.064  26.770  33.442  1.00  0.00     0.074 A 
ATOM     66  C   UNL A   1      43.896  27.231  34.808  1.00  0.00     0.031 C 
ATOM     67  C   UNL A   1      44.719  25.717  32.867  1.00  0.00     0.037 A 
BRANCH  54  68
ATOM     68  C   UNL A   1      44.488  24.049  26.947  1.00  0.00     0.064 A 
ATOM     69  C   UNL A   1      44.188  22.683  26.722  1.00  0.00     0.173 A 
ATOM     70  C   UNL A   1      45.446  24.575  26.060  1.00  0.00     0.173 A 
ATOM     71  F   UNL A   1      43.219  22.056  27.401  1.00  0.00    -0.203 F 
ATOM     72  C   UNL A   1      44.871  21.899  25.784  1.00  0.00     0.198 A 
ATOM     73  C   UNL A   1      46.156  23.785  25.147  1.00  0.00     0.198 A 
ATOM     74  F   UNL A   1      45.697  25.883  25.985  1.00  0.00    -0.203 F 
ATOM     75  F   UNL A   1      44.549  20.607  25.637  1.00  0.00    -0.200 F 
ATOM     76  C   UNL A   1      45.879  22.443  25.019  1.00  0.00     0.200 A 
ATOM     77  F   UNL A   1      47.108  24.345  24.388  1.00  0.00    -0.200 F 
ATOM     78  F   UNL A   1      46.556  21.688  24.144  1.00  0.00    -0.200 F 
ENDBRANCH  54  68
BRANCH  55  79
ATOM     79  C   UNL A   1      40.578  29.989  33.422  1.00  0.00     0.064 A 
ATOM     80  C   UNL A   1      40.185  31.330  33.605  1.00  0.00     0.173 A 
ATOM     81  C   UNL A   1      39.566  29.035  33.264  1.00  0.00     0.173 A 
ATOM     82  F   UNL A   1      41.117  32.285  33.767  1.00  0.00    -0.203 F 
ATOM     83  C   UNL A   1      38.850  31.715  33.503  1.00  0.00     0.198 A 
ATOM     84  C   UNL A   1      38.226  29.423  33.181  1.00  0.00     0.198 A 
ATOM     85  F   UNL A   1      39.872  27.744  33.079  1.00  0.00    -0.203 F 
ATOM     86  F   UNL A   1      38.522  33.014  33.564  1.00  0.00    -0.200 F 
ATOM     87  C   UNL A   1      37.874  30.763  33.262  1.00  0.00     0.200 A 
ATOM     88  F   UNL A   1      37.280  28.505  32.933  1.00  0.00    -0.200 F 
ATOM     89  F   UNL A   1      36.602  31.140  33.073  1.00  0.00    -0.200 F 
ENDBRANCH  55  79
BRANCH  67  90
ATOM     90  C   UNL A   1      45.314  24.519  33.578  1.00  0.00     0.064 A 
ATOM     91  C   UNL A   1      44.630  23.316  33.812  1.00  0.00     0.173 A 
ATOM     92  C   UNL A   1      46.690  24.505  33.926  1.00  0.00     0.173 A 
ATOM     93  F   UNL A   1      43.362  23.141  33.419  1.00  0.00    -0.203 F 
ATOM     94  C   UNL A   1      45.250  22.211  34.407  1.00  0.00     0.198 A 
ATOM     95  C   UNL A   1      47.320  23.381  34.460  1.00  0.00     0.198 A 
ATOM     96  F   UNL A   1      47.478  25.572  33.733  1.00  0.00    -0.203 F 
ATOM     97  F   UNL A   1      44.536  21.101  34.648  1.00  0.00    -0.200 F 
ATOM     98  C   UNL A   1      46.596  22.238  34.717  1.00  0.00     0.200 A 
ATOM     99  F   UNL A   1      48.639  23.408  34.701  1.00  0.00    -0.200 F 
ATOM    100  F   UNL A   1      47.196  21.160  35.237  1.00  0.00    -0.200 F 
ENDBRANCH  67  90
ENDBRANCH  41  42
ENDBRANCH  33  36
ENDBRANCH  31  32
ENDBRANCH  30  31
ENDBRANCH   1  30
TORSDOF 13
ENDMDL
MODEL 2
REMARK VINA RESULT:     -14.7      3.960     10.451
REMARK SMILES Cc1ccc(-c2nc(NC(=O)[C@H]3[C@@H](C(=O)NCCCNC(=O)c4ccc(-c5c6nc(c(-c7c(F)c(F)c(F)c(F)c7F)c7ccc([nH]7)c(-c7c(F)c(F)c(F)c(F)c7F)c7nc(c(-c8c(F)c(F)c(F)c(F)c8F)c8ccc5[nH]8)C=C7)C=C6)cc4)[C@@H]4CC[C@H]3O4)sc2C)cc1
REMARK SMILES IDX 17 1 16 2 14 3 15 4 13 6 12 7 89 8 86 9 88 10 90 11 87 12
REMARK SMILES IDX 10 13 9 14 11 16 8 17 6 18 7 19 92 20 91 21 93 22 5 23 1 24
REMARK SMILES IDX 2 25 3 26 95 27 4 28 94 29 18 30 19 31 20 32 21 33 22 35
REMARK SMILES IDX 23 36 24 37 85 38 25 39 84 40 26 41 27 42 28 43 78 44 29 45
REMARK SMILES IDX 83 46 77 47 79 48 30 49 82 50 76 51 75 52 31 54 63 55 43 56
REMARK SMILES IDX 62 57 44 58 47 59 61 60 80 61 45 62 46 63 60 65 81 66 48 67
REMARK SMILES IDX 32 68 33 69 41 70 34 71 35 72 39 73 42 74 36 75 37 76 40 77
REMARK SMILES IDX 38 78 64 79 65 80 73 81 66 82 67 83 71 84 74 85 68 86 69 87
REMARK SMILES IDX 72 88 70 89 49 90 50 91 58 92 51 93 52 94 56 95 59 96 53 97
REMARK SMILES IDX 54 98 57 99 55 100
REMARK H PARENT 16 5 9 15 20 34 79 53 47 64
REMARK Flexibility Score: inf
ROOT
ATOM      1  C   UNL A   1      36.467  21.116  25.380  1.00  0.00     0.117 C 
ENDROOT
BRANCH   1   2
ATOM      2  N   UNL A   1      35.794  21.850  26.437  1.00  0.00    -0.356 N 
ATOM      3  C   UNL A   1      34.451  21.818  26.672  1.00  0.00     0.226 C 
ATOM      4  O   UNL A   1      34.084  21.442  27.787  1.00  0.00    -0.275 OA
ATOM      5  H   UNL A   1      36.348  22.411  27.027  1.00  0.00     0.163 HD
BRANCH   3   6
ATOM      6  C   UNL A   1      33.478  22.107  25.552  1.00  0.00     0.122 C 
ATOM      7  C   UNL A   1      32.500  23.295  25.441  1.00  0.00     0.123 C 
ATOM      8  C   UNL A   1      31.405  22.637  24.581  1.00  0.00     0.132 C 
ATOM      9  C   UNL A   1      32.535  20.905  25.235  1.00  0.00     0.132 C 
ATOM     10  C   UNL A   1      31.969  22.037  23.264  1.00  0.00     0.035 C 
ATOM     11  O   UNL A   1      31.196  21.458  25.377  1.00  0.00    -0.373 OA
ATOM     12  C   UNL A   1      32.521  20.683  23.728  1.00  0.00     0.035 C 
BRANCH   7  13
ATOM     13  C   UNL A   1      31.798  24.273  26.430  1.00  0.00     0.232 C 
ATOM     14  N   UNL A   1      31.574  25.604  26.479  1.00  0.00    -0.302 N 
ATOM     15  H   UNL A   1      31.249  25.883  27.365  1.00  0.00     0.172 HD
ATOM     16  O   UNL A   1      31.391  23.708  27.474  1.00  0.00    -0.274 OA
BRANCH  14  17
ATOM     17  C   UNL A   1      31.677  26.666  25.628  1.00  0.00     0.190 A 
ATOM     18  C   UNL A   1      31.110  28.385  24.313  1.00  0.00     0.086 A 
ATOM     19  N   UNL A   1      30.682  27.472  25.301  1.00  0.00    -0.220 NA
ATOM     20  C   UNL A   1      32.462  28.276  24.013  1.00  0.00     0.031 A 
ATOM     21  S   UNL A   1      33.139  27.021  24.921  1.00  0.00    -0.101 S 
ATOM     22  C   UNL A   1      33.390  29.019  23.120  1.00  0.00     0.059 C 
BRANCH  18  23
ATOM     23  C   UNL A   1      30.234  29.368  23.657  1.00  0.00     0.001 A 
ATOM     24  C   UNL A   1      28.060  32.376  21.399  1.00  0.00     0.044 C 
ATOM     25  C   UNL A   1      28.781  31.328  22.197  1.00  0.00    -0.051 A 
ATOM     26  C   UNL A   1      29.166  31.557  23.527  1.00  0.00     0.004 A 
ATOM     27  C   UNL A   1      29.076  30.092  21.623  1.00  0.00     0.004 A 
ATOM     28  C   UNL A   1      29.888  30.586  24.252  1.00  0.00     0.010 A 
ATOM     29  C   UNL A   1      29.771  29.124  22.352  1.00  0.00     0.010 A 
ENDBRANCH  18  23
ENDBRANCH  14  17
ENDBRANCH   7  13
ENDBRANCH   3   6
ENDBRANCH   1   2
BRANCH   1  30
ATOM     30  C   UNL A   1      37.935  21.433  25.193  1.00  0.00     0.042 C 
BRANCH  30  31
ATOM     31  C   UNL A   1      38.327  22.846  25.601  1.00  0.00     0.118 C 
BRANCH  31  32
ATOM     32  N   UNL A   1      39.663  22.832  26.179  1.00  0.00    -0.352 N 
ATOM     33  C   UNL A   1      40.532  23.840  26.500  1.00  0.00     0.251 C 
ATOM     34  H   UNL A   1      40.007  21.930  26.374  1.00  0.00     0.163 HD
ATOM     35  O   UNL A   1      41.725  23.595  26.550  1.00  0.00    -0.269 OA
BRANCH  33  36
ATOM     36  C   UNL A   1      40.025  25.137  27.026  1.00  0.00     0.039 A 
ATOM     37  C   UNL A   1      40.411  26.276  26.301  1.00  0.00     0.014 A 
ATOM     38  C   UNL A   1      39.380  25.282  28.249  1.00  0.00     0.014 A 
ATOM     39  C   UNL A   1      40.351  27.533  26.892  1.00  0.00     0.010 A 
ATOM     40  C   UNL A   1      39.378  26.516  28.865  1.00  0.00     0.010 A 
ATOM     41  C   UNL A   1      39.930  27.621  28.214  1.00  0.00    -0.014 A 
BRANCH  41  42
ATOM     42  C   UNL A   1      40.094  28.808  29.035  1.00  0.00     0.031 A 
ATOM     43  C   UNL A   1      39.040  29.833  29.080  1.00  0.00     0.074 A 
ATOM     44  C   UNL A   1      41.167  28.874  29.851  1.00  0.00     0.049 A 
ATOM     45  N   UNL A   1      39.214  31.040  29.498  1.00  0.00    -0.248 NA
ATOM     46  C   UNL A   1      37.690  29.582  28.595  1.00  0.00     0.031 C 
ATOM     47  C   UNL A   1      41.379  29.780  30.973  1.00  0.00     0.029 A 
ATOM     48  N   UNL A   1      42.403  28.225  29.686  1.00  0.00    -0.354 N 
ATOM     49  C   UNL A   1      37.974  31.631  29.614  1.00  0.00     0.074 A 
ATOM     50  C   UNL A   1      37.078  30.718  28.943  1.00  0.00     0.031 C 
ATOM     51  C   UNL A   1      42.698  29.871  31.210  1.00  0.00     0.029 A 
ATOM     52  C   UNL A   1      43.367  29.155  30.137  1.00  0.00     0.049 A 
ATOM     53  H   UNL A   1      42.562  27.319  29.332  1.00  0.00     0.167 HD
ATOM     54  C   UNL A   1      37.857  32.750  30.389  1.00  0.00     0.037 A 
ATOM     55  C   UNL A   1      44.269  29.712  29.278  1.00  0.00     0.037 A 
ATOM     56  C   UNL A   1      39.179  33.210  30.827  1.00  0.00     0.049 A 
ATOM     57  C   UNL A   1      44.212  31.220  29.229  1.00  0.00     0.074 A 
ATOM     58  C   UNL A   1      39.879  33.067  32.014  1.00  0.00     0.029 A 
ATOM     59  N   UNL A   1      40.096  33.662  29.883  1.00  0.00    -0.354 N 
ATOM     60  N   UNL A   1      43.159  31.919  29.547  1.00  0.00    -0.248 NA
ATOM     61  C   UNL A   1      45.333  32.053  28.808  1.00  0.00     0.031 C 
ATOM     62  C   UNL A   1      41.237  33.392  31.766  1.00  0.00     0.029 A 
ATOM     63  C   UNL A   1      41.358  33.752  30.435  1.00  0.00     0.049 A 
ATOM     64  H   UNL A   1      39.875  33.884  28.949  1.00  0.00     0.167 HD
ATOM     65  C   UNL A   1      43.432  33.254  29.391  1.00  0.00     0.074 A 
ATOM     66  C   UNL A   1      44.810  33.285  28.938  1.00  0.00     0.031 C 
ATOM     67  C   UNL A   1      42.493  34.214  29.647  1.00  0.00     0.037 A 
BRANCH  54  68
ATOM     68  C   UNL A   1      36.564  33.270  31.000  1.00  0.00     0.064 A 
ATOM     69  C   UNL A   1      35.599  33.921  30.193  1.00  0.00     0.173 A 
ATOM     70  C   UNL A   1      36.232  33.238  32.368  1.00  0.00     0.173 A 
ATOM     71  F   UNL A   1      35.702  33.944  28.858  1.00  0.00    -0.203 F 
ATOM     72  C   UNL A   1      34.482  34.578  30.723  1.00  0.00     0.198 A 
ATOM     73  C   UNL A   1      35.135  33.924  32.904  1.00  0.00     0.198 A 
ATOM     74  F   UNL A   1      36.909  32.490  33.242  1.00  0.00    -0.203 F 
ATOM     75  F   UNL A   1      33.620  35.192  29.901  1.00  0.00    -0.200 F 
ATOM     76  C   UNL A   1      34.268  34.608  32.083  1.00  0.00     0.200 A 
ATOM     77  F   UNL A   1      34.928  33.909  34.229  1.00  0.00    -0.200 F 
ATOM     78  F   UNL A   1      33.218  35.263  32.596  1.00  0.00    -0.200 F 
ENDBRANCH  54  68
BRANCH  55  79
ATOM     79  C   UNL A   1      44.597  28.832  28.124  1.00  0.00     0.064 A 
ATOM     80  C   UNL A   1      45.358  27.671  28.367  1.00  0.00     0.173 A 
ATOM     81  C   UNL A   1      43.870  28.890  26.929  1.00  0.00     0.173 A 
ATOM     82  F   UNL A   1      46.078  27.567  29.497  1.00  0.00    -0.203 F 
ATOM     83  C   UNL A   1      45.289  26.568  27.520  1.00  0.00     0.198 A 
ATOM     84  C   UNL A   1      43.818  27.788  26.071  1.00  0.00     0.198 A 
ATOM     85  F   UNL A   1      43.121  29.963  26.641  1.00  0.00    -0.203 F 
ATOM     86  F   UNL A   1      45.931  25.436  27.841  1.00  0.00    -0.200 F 
ATOM     87  C   UNL A   1      44.496  26.618  26.386  1.00  0.00     0.200 A 
ATOM     88  F   UNL A   1      43.039  27.828  24.981  1.00  0.00    -0.200 F 
ATOM     89  F   UNL A   1      44.355  25.529  25.617  1.00  0.00    -0.200 F 
ENDBRANCH  55  79
BRANCH  67  90
ATOM     90  C   UNL A   1      42.573  35.682  29.286  1.00  0.00     0.064 A 
ATOM     91  C   UNL A   1      43.365  36.624  29.962  1.00  0.00     0.173 A 
ATOM     92  C   UNL A   1      41.938  36.165  28.110  1.00  0.00     0.173 A 
ATOM     93  F   UNL A   1      44.120  36.280  31.011  1.00  0.00    -0.203 F 
ATOM     94  C   UNL A   1      43.462  37.955  29.539  1.00  0.00     0.198 A 
ATOM     95  C   UNL A   1      42.088  37.476  27.658  1.00  0.00     0.198 A 
ATOM     96  F   UNL A   1      41.174  35.373  27.345  1.00  0.00    -0.203 F 
ATOM     97  F   UNL A   1      44.198  38.822  30.249  1.00  0.00    -0.200 F 
ATOM     98  C   UNL A   1      42.837  38.377  28.382  1.00  0.00     0.200 A 
ATOM     99  F   UNL A   1      41.521  37.850  26.501  1.00  0.00    -0.200 F 
ATOM    100  F   UNL A   1      42.976  39.638  27.954  1.00  0.00    -0.200 F 
ENDBRANCH  67  90
ENDBRANCH  41  42
ENDBRANCH  33  36
ENDBRANCH  31  32
ENDBRANCH  30  31
ENDBRANCH   1  30
TORSDOF 13
ENDMDL
MODEL 3
REMARK VINA RESULT:     -14.3      1.621      2.428
REMARK SMILES Cc1ccc(-c2nc(NC(=O)[C@H]3[C@@H](C(=O)NCCCNC(=O)c4ccc(-c5c6nc(c(-c7c(F)c(F)c(F)c(F)c7F)c7ccc([nH]7)c(-c7c(F)c(F)c(F)c(F)c7F)c7nc(c(-c8c(F)c(F)c(F)c(F)c8F)c8ccc5[nH]8)C=C7)C=C6)cc4)[C@@H]4CC[C@H]3O4)sc2C)cc1
REMARK SMILES IDX 17 1 16 2 14 3 15 4 13 6 12 7 89 8 86 9 88 10 90 11 87 12
REMARK SMILES IDX 10 13 9 14 11 16 8 17 6 18 7 19 92 20 91 21 93 22 5 23 1 24
REMARK SMILES IDX 2 25 3 26 95 27 4 28 94 29 18 30 19 31 20 32 21 33 22 35
REMARK SMILES IDX 23 36 24 37 85 38 25 39 84 40 26 41 27 42 28 43 78 44 29 45
REMARK SMILES IDX 83 46 77 47 79 48 30 49 82 50 76 51 75 52 31 54 63 55 43 56
REMARK SMILES IDX 62 57 44 58 47 59 61 60 80 61 45 62 46 63 60 65 81 66 48 67
REMARK SMILES IDX 32 68 33 69 41 70 34 71 35 72 39 73 42 74 36 75 37 76 40 77
REMARK SMILES IDX 38 78 64 79 65 80 73 81 66 82 67 83 71 84 74 85 68 86 69 87
REMARK SMILES IDX 72 88 70 89 49 90 50 91 58 92 51 93 52 94 56 95 59 96 53 97
REMARK SMILES IDX 54 98 57 99 55 100
REMARK H PARENT 16 5 9 15 20 34 79 53 47 64
REMARK Flexibility Score: inf
ROOT
ATOM      1  C   UNL A   1      33.475  29.888  27.362  1.00  0.00     0.117 C 
ENDROOT
BRANCH   1   2
ATOM      2  N   UNL A   1      32.152  29.294  27.439  1.00  0.00    -0.356 N 
ATOM      3  C   UNL A   1      31.776  28.147  26.803  1.00  0.00     0.226 C 
ATOM      4  O   UNL A   1      31.364  27.223  27.506  1.00  0.00    -0.275 OA
ATOM      5  H   UNL A   1      31.477  29.752  27.991  1.00  0.00     0.163 HD
BRANCH   3   6
ATOM      6  C   UNL A   1      31.996  27.999  25.315  1.00  0.00     0.122 C 
ATOM      7  C   UNL A   1      31.114  27.234  24.307  1.00  0.00     0.123 C 
ATOM      8  C   UNL A   1      32.187  26.862  23.267  1.00  0.00     0.132 C 
ATOM      9  C   UNL A   1      33.413  27.451  24.957  1.00  0.00     0.132 C 
ATOM     10  C   UNL A   1      32.966  28.103  22.752  1.00  0.00     0.035 C 
ATOM     11  O   UNL A   1      33.143  26.263  24.160  1.00  0.00    -0.373 OA
ATOM     12  C   UNL A   1      34.007  28.322  23.858  1.00  0.00     0.035 C 
BRANCH   7  13
ATOM     13  C   UNL A   1      30.092  26.059  24.369  1.00  0.00     0.232 C 
ATOM     14  N   UNL A   1      30.157  24.731  24.605  1.00  0.00    -0.302 N 
ATOM     15  H   UNL A   1      29.312  24.282  24.376  1.00  0.00     0.172 HD
ATOM     16  O   UNL A   1      28.925  26.406  24.063  1.00  0.00    -0.274 OA
BRANCH  14  17
ATOM     17  C   UNL A   1      31.082  23.845  25.078  1.00  0.00     0.190 A 
ATOM     18  C   UNL A   1      32.400  22.045  25.231  1.00  0.00     0.086 A 
ATOM     19  N   UNL A   1      31.555  22.813  24.402  1.00  0.00    -0.220 NA
ATOM     20  C   UNL A   1      32.597  22.605  26.486  1.00  0.00     0.031 A 
ATOM     21  S   UNL A   1      31.694  24.029  26.612  1.00  0.00    -0.101 S 
ATOM     22  C   UNL A   1      33.420  22.240  27.669  1.00  0.00     0.059 C 
BRANCH  18  23
ATOM     23  C   UNL A   1      33.028  20.776  24.827  1.00  0.00     0.001 A 
ATOM     24  C   UNL A   1      34.630  16.814  24.053  1.00  0.00     0.044 C 
ATOM     25  C   UNL A   1      34.091  18.195  24.290  1.00  0.00    -0.051 A 
ATOM     26  C   UNL A   1      34.916  19.235  24.743  1.00  0.00     0.004 A 
ATOM     27  C   UNL A   1      32.745  18.470  24.051  1.00  0.00     0.004 A 
ATOM     28  C   UNL A   1      34.390  20.516  25.012  1.00  0.00     0.010 A 
ATOM     29  C   UNL A   1      32.232  19.746  24.296  1.00  0.00     0.010 A 
ENDBRANCH  18  23
ENDBRANCH  14  17
ENDBRANCH   7  13
ENDBRANCH   3   6
ENDBRANCH   1   2
BRANCH   1  30
ATOM     30  C   UNL A   1      33.537  31.384  27.586  1.00  0.00     0.042 C 
BRANCH  30  31
ATOM     31  C   UNL A   1      34.948  31.944  27.682  1.00  0.00     0.118 C 
BRANCH  31  32
ATOM     32  N   UNL A   1      35.313  32.107  29.082  1.00  0.00    -0.352 N 
ATOM     33  C   UNL A   1      35.866  31.245  29.990  1.00  0.00     0.251 C 
ATOM     34  H   UNL A   1      35.127  33.004  29.443  1.00  0.00     0.163 HD
ATOM     35  O   UNL A   1      35.677  31.441  31.178  1.00  0.00    -0.269 OA
BRANCH  33  36
ATOM     36  C   UNL A   1      36.883  30.244  29.562  1.00  0.00     0.039 A 
ATOM     37  C   UNL A   1      37.056  29.151  30.427  1.00  0.00     0.014 A 
ATOM     38  C   UNL A   1      37.759  30.431  28.499  1.00  0.00     0.014 A 
ATOM     39  C   UNL A   1      38.215  28.386  30.360  1.00  0.00     0.010 A 
ATOM     40  C   UNL A   1      38.939  29.718  28.469  1.00  0.00     0.010 A 
ATOM     41  C   UNL A   1      39.194  28.750  29.443  1.00  0.00    -0.014 A 
BRANCH  41  42
ATOM     42  C   UNL A   1      40.550  28.231  29.463  1.00  0.00     0.031 A 
ATOM     43  C   UNL A   1      40.844  26.893  28.926  1.00  0.00     0.074 A 
ATOM     44  C   UNL A   1      41.541  29.058  29.858  1.00  0.00     0.049 A 
ATOM     45  N   UNL A   1      41.913  26.222  29.186  1.00  0.00    -0.248 NA
ATOM     46  C   UNL A   1      39.905  26.173  28.079  1.00  0.00     0.031 C 
ATOM     47  C   UNL A   1      42.976  28.886  29.663  1.00  0.00     0.029 A 
ATOM     48  N   UNL A   1      41.434  30.168  30.713  1.00  0.00    -0.354 N 
ATOM     49  C   UNL A   1      41.949  25.137  28.338  1.00  0.00     0.074 A 
ATOM     50  C   UNL A   1      40.631  25.100  27.748  1.00  0.00     0.031 C 
ATOM     51  C   UNL A   1      43.626  29.623  30.579  1.00  0.00     0.029 A 
ATOM     52  C   UNL A   1      42.619  30.151  31.484  1.00  0.00     0.049 A 
ATOM     53  H   UNL A   1      40.694  30.816  30.765  1.00  0.00     0.167 HD
ATOM     54  C   UNL A   1      43.142  24.500  28.146  1.00  0.00     0.037 A 
ATOM     55  C   UNL A   1      42.586  29.917  32.828  1.00  0.00     0.037 A 
ATOM     56  C   UNL A   1      44.158  25.030  29.061  1.00  0.00     0.049 A 
ATOM     57  C   UNL A   1      43.407  28.726  33.259  1.00  0.00     0.074 A 
ATOM     58  C   UNL A   1      45.188  25.943  28.897  1.00  0.00     0.029 A 
ATOM     59  N   UNL A   1      44.005  24.854  30.433  1.00  0.00    -0.354 N 
ATOM     60  N   UNL A   1      43.716  27.732  32.474  1.00  0.00    -0.248 NA
ATOM     61  C   UNL A   1      43.932  28.559  34.610  1.00  0.00     0.031 C 
ATOM     62  C   UNL A   1      45.622  26.352  30.183  1.00  0.00     0.029 A 
ATOM     63  C   UNL A   1      44.873  25.672  31.128  1.00  0.00     0.049 A 
ATOM     64  H   UNL A   1      43.364  24.233  30.850  1.00  0.00     0.167 HD
ATOM     65  C   UNL A   1      44.462  26.814  33.169  1.00  0.00     0.074 A 
ATOM     66  C   UNL A   1      44.579  27.385  34.498  1.00  0.00     0.031 C 
ATOM     67  C   UNL A   1      44.912  25.664  32.584  1.00  0.00     0.037 A 
BRANCH  54  68
ATOM     68  C   UNL A   1      43.491  23.615  26.958  1.00  0.00     0.064 A 
ATOM     69  C   UNL A   1      43.074  22.262  26.924  1.00  0.00     0.173 A 
ATOM     70  C   UNL A   1      44.286  23.993  25.859  1.00  0.00     0.173 A 
ATOM     71  F   UNL A   1      42.222  21.767  27.831  1.00  0.00    -0.203 F 
ATOM     72  C   UNL A   1      43.515  21.354  25.953  1.00  0.00     0.198 A 
ATOM     73  C   UNL A   1      44.757  23.079  24.908  1.00  0.00     0.198 A 
ATOM     74  F   UNL A   1      44.592  25.268  25.613  1.00  0.00    -0.203 F 
ATOM     75  F   UNL A   1      43.097  20.081  25.994  1.00  0.00    -0.200 F 
ATOM     76  C   UNL A   1      44.384  21.756  24.964  1.00  0.00     0.200 A 
ATOM     77  F   UNL A   1      45.574  23.502  23.932  1.00  0.00    -0.200 F 
ATOM     78  F   UNL A   1      44.833  20.882  24.052  1.00  0.00    -0.200 F 
ENDBRANCH  54  68
BRANCH  55  79
ATOM     79  C   UNL A   1      41.315  30.354  33.465  1.00  0.00     0.064 A 
ATOM     80  C   UNL A   1      41.119  31.732  33.685  1.00  0.00     0.173 A 
ATOM     81  C   UNL A   1      40.183  29.530  33.483  1.00  0.00     0.173 A 
ATOM     82  F   UNL A   1      42.172  32.566  33.683  1.00  0.00    -0.203 F 
ATOM     83  C   UNL A   1      39.841  32.277  33.784  1.00  0.00     0.198 A 
ATOM     84  C   UNL A   1      38.903  30.077  33.602  1.00  0.00     0.198 A 
ATOM     85  F   UNL A   1      40.300  28.211  33.274  1.00  0.00    -0.203 F 
ATOM     86  F   UNL A   1      39.684  33.605  33.873  1.00  0.00    -0.200 F 
ATOM     87  C   UNL A   1      38.732  31.450  33.714  1.00  0.00     0.200 A 
ATOM     88  F   UNL A   1      37.827  29.282  33.519  1.00  0.00    -0.200 F 
ATOM     89  F   UNL A   1      37.500  31.979  33.718  1.00  0.00    -0.200 F 
ENDBRANCH  55  79
BRANCH  67  90
ATOM     90  C   UNL A   1      45.519  24.466  33.284  1.00  0.00     0.064 A 
ATOM     91  C   UNL A   1      46.827  24.424  33.794  1.00  0.00     0.173 A 
ATOM     92  C   UNL A   1      44.716  23.338  33.599  1.00  0.00     0.173 A 
ATOM     93  F   UNL A   1      47.656  25.469  33.685  1.00  0.00    -0.203 F 
ATOM     94  C   UNL A   1      47.314  23.319  34.501  1.00  0.00     0.198 A 
ATOM     95  C   UNL A   1      45.186  22.267  34.358  1.00  0.00     0.198 A 
ATOM     96  F   UNL A   1      43.438  23.251  33.205  1.00  0.00    -0.203 F 
ATOM     97  F   UNL A   1      48.586  23.315  34.927  1.00  0.00    -0.200 F 
ATOM     98  C   UNL A   1      46.492  22.249  34.795  1.00  0.00     0.200 A 
ATOM     99  F   UNL A   1      44.355  21.265  34.681  1.00  0.00    -0.200 F 
ATOM    100  F   UNL A   1      46.948  21.218  35.518  1.00  0.00    -0.200 F 
ENDBRANCH  67  90
ENDBRANCH  41  42
ENDBRANCH  33  36
ENDBRANCH  31  32
ENDBRANCH  30  31
ENDBRANCH   1  30
TORSDOF 13
ENDMDL
