MODEL 1
REMARK VINA RESULT:     -12.2      0.000      0.000
REMARK SMILES O=C(NCCCNC(=O)c1ccc(-c2c3nc(c(-c4c(F)c(F)c(F)c(F)c4F)c4ccc([nH]4)c(-c4c(F)c(F)c(F)c(F)c4F)c4nc(c(-c5c(F)c(F)c(F)c(F)c5F)c5ccc2[nH]5)C=C4)C=C3)cc1)c1ccc(NC(=S)NC(=O)C(Cl)(Cl)Cl)cc1
REMARK SMILES IDX 4 1 3 2 1 3 2 4 73 6 74 7 88 8 75 9 87 10 76 11 77 12 78 14
REMARK SMILES IDX 79 15 80 16 81 17 82 19 83 20 84 21 85 22 86 23 5 24 6 25
REMARK SMILES IDX 7 26 8 27 9 29 10 30 11 31 72 32 12 33 71 34 13 35 14 36
REMARK SMILES IDX 15 37 65 38 16 39 70 40 64 41 66 42 17 43 69 44 63 45 62 46
REMARK SMILES IDX 18 48 50 49 30 50 49 51 31 52 34 53 48 54 67 55 32 56 33 57
REMARK SMILES IDX 47 59 68 60 35 61 19 62 20 63 28 64 21 65 22 66 26 67 29 68
REMARK SMILES IDX 23 69 24 70 27 71 25 72 51 73 52 74 60 75 53 76 54 77 58 78
REMARK SMILES IDX 61 79 55 80 56 81 59 82 57 83 36 84 37 85 45 86 38 87 39 88
REMARK SMILES IDX 43 89 46 90 40 91 41 92 44 93 42 94
REMARK H PARENT 3 5 77 13 80 18 7 28 66 47 34 58
REMARK Flexibility Score: inf
ROOT
ATOM      1  C   UNL A   1      31.658  30.683  26.212  1.00  0.00     0.118 C 
ENDROOT
BRANCH   1   2
ATOM      2  N   UNL A   1      31.038  30.452  24.914  1.00  0.00    -0.352 N 
ATOM      3  O   UNL A   1      30.547  29.296  23.026  1.00  0.00    -0.269 OA
ATOM      4  C   UNL A   1      31.031  29.306  24.152  1.00  0.00     0.251 C 
ATOM      5  H   UNL A   1      30.556  31.220  24.531  1.00  0.00     0.163 HD
BRANCH   4   6
ATOM      6  C   UNL A   1      31.662  28.090  24.695  1.00  0.00     0.039 A 
ATOM      7  C   UNL A   1      32.979  27.758  24.361  1.00  0.00     0.016 A 
ATOM      8  C   UNL A   1      30.903  27.241  25.494  1.00  0.00     0.016 A 
ATOM      9  C   UNL A   1      33.487  26.495  24.693  1.00  0.00     0.027 A 
ATOM     10  C   UNL A   1      31.412  25.983  25.811  1.00  0.00     0.027 A 
ATOM     11  C   UNL A   1      32.662  25.571  25.320  1.00  0.00     0.040 A 
BRANCH  11  12
ATOM     12  N   UNL A   1      33.000  24.231  25.524  1.00  0.00    -0.332 N 
ATOM     13  H   UNL A   1      33.332  24.075  26.437  1.00  0.00     0.169 HD
BRANCH  12  14
ATOM     14  C   UNL A   1      32.988  23.109  24.804  1.00  0.00     0.177 C 
ATOM     15  S   UNL A   1      31.776  22.998  23.641  1.00  0.00    -0.040 S 
BRANCH  14  16
ATOM     16  N   UNL A   1      33.867  22.057  24.829  1.00  0.00    -0.299 N 
ATOM     17  C   UNL A   1      35.163  21.524  24.888  1.00  0.00     0.278 C 
ATOM     18  H   UNL A   1      33.286  21.264  24.780  1.00  0.00     0.172 HD
ATOM     19  O   UNL A   1      35.156  20.283  25.001  1.00  0.00    -0.270 OA
BRANCH  17  20
ATOM     20  C   UNL A   1      36.489  22.293  24.810  1.00  0.00     0.269 C 
ATOM     21  Cl  UNL A   1      36.581  23.687  25.883  1.00  0.00    -0.073 Cl
ATOM     22  Cl  UNL A   1      37.832  21.136  25.001  1.00  0.00    -0.073 Cl
ATOM     23  Cl  UNL A   1      36.653  22.953  23.126  1.00  0.00    -0.073 Cl
ENDBRANCH  17  20
ENDBRANCH  14  16
ENDBRANCH  12  14
ENDBRANCH  11  12
ENDBRANCH   4   6
ENDBRANCH   1   2
BRANCH   1  24
ATOM     24  C   UNL A   1      31.403  32.086  26.757  1.00  0.00     0.042 C 
BRANCH  24  25
ATOM     25  C   UNL A   1      32.659  32.844  27.175  1.00  0.00     0.118 C 
BRANCH  25  26
ATOM     26  N   UNL A   1      32.393  34.203  27.628  1.00  0.00    -0.352 N 
ATOM     27  C   UNL A   1      32.996  34.955  28.609  1.00  0.00     0.251 C 
ATOM     28  H   UNL A   1      31.660  34.657  27.155  1.00  0.00     0.163 HD
ATOM     29  O   UNL A   1      32.528  36.055  28.893  1.00  0.00    -0.269 OA
BRANCH  27  30
ATOM     30  C   UNL A   1      34.175  34.453  29.356  1.00  0.00     0.039 A 
ATOM     31  C   UNL A   1      33.971  33.858  30.607  1.00  0.00     0.014 A 
ATOM     32  C   UNL A   1      35.476  34.578  28.863  1.00  0.00     0.014 A 
ATOM     33  C   UNL A   1      35.050  33.321  31.317  1.00  0.00     0.010 A 
ATOM     34  C   UNL A   1      36.538  33.968  29.529  1.00  0.00     0.010 A 
ATOM     35  C   UNL A   1      36.339  33.329  30.762  1.00  0.00    -0.014 A 
BRANCH  35  36
ATOM     36  C   UNL A   1      37.483  32.663  31.446  1.00  0.00     0.031 A 
ATOM     37  C   UNL A   1      38.181  31.494  30.807  1.00  0.00     0.074 A 
ATOM     38  C   UNL A   1      37.851  33.067  32.679  1.00  0.00     0.049 A 
ATOM     39  N   UNL A   1      39.141  30.738  31.282  1.00  0.00    -0.248 NA
ATOM     40  C   UNL A   1      37.723  31.103  29.465  1.00  0.00     0.031 C 
ATOM     41  C   UNL A   1      37.228  34.155  33.433  1.00  0.00     0.029 A 
ATOM     42  N   UNL A   1      38.831  32.599  33.522  1.00  0.00    -0.354 N 
ATOM     43  C   UNL A   1      39.387  29.777  30.310  1.00  0.00     0.074 A 
ATOM     44  C   UNL A   1      38.440  30.010  29.240  1.00  0.00     0.031 C 
ATOM     45  C   UNL A   1      37.853  34.287  34.614  1.00  0.00     0.029 A 
ATOM     46  C   UNL A   1      38.892  33.268  34.720  1.00  0.00     0.049 A 
ATOM     47  H   UNL A   1      39.432  31.856  33.287  1.00  0.00     0.167 HD
ATOM     48  C   UNL A   1      40.329  28.804  30.297  1.00  0.00     0.037 A 
ATOM     49  C   UNL A   1      39.688  33.076  35.790  1.00  0.00     0.037 A 
ATOM     50  C   UNL A   1      41.288  28.587  31.350  1.00  0.00     0.049 A 
ATOM     51  C   UNL A   1      40.722  31.983  35.754  1.00  0.00     0.074 A 
ATOM     52  C   UNL A   1      42.320  27.665  31.400  1.00  0.00     0.029 A 
ATOM     53  N   UNL A   1      41.329  29.297  32.541  1.00  0.00    -0.354 N 
ATOM     54  N   UNL A   1      40.989  31.125  34.799  1.00  0.00    -0.248 NA
ATOM     55  C   UNL A   1      41.572  31.836  36.945  1.00  0.00     0.031 C 
ATOM     56  C   UNL A   1      42.953  27.784  32.642  1.00  0.00     0.029 A 
ATOM     57  C   UNL A   1      42.354  28.818  33.342  1.00  0.00     0.049 A 
ATOM     58  H   UNL A   1      40.721  30.033  32.781  1.00  0.00     0.167 HD
ATOM     59  C   UNL A   1      42.053  30.361  35.257  1.00  0.00     0.074 A 
ATOM     60  C   UNL A   1      42.395  30.866  36.571  1.00  0.00     0.031 C 
ATOM     61  C   UNL A   1      42.691  29.333  34.645  1.00  0.00     0.037 A 
BRANCH  48  62
ATOM     62  C   UNL A   1      40.375  27.895  29.101  1.00  0.00     0.064 A 
ATOM     63  C   UNL A   1      39.638  26.701  29.054  1.00  0.00     0.173 A 
ATOM     64  C   UNL A   1      41.134  28.240  27.972  1.00  0.00     0.173 A 
ATOM     65  F   UNL A   1      38.903  26.320  30.110  1.00  0.00    -0.203 F 
ATOM     66  C   UNL A   1      39.685  25.872  27.936  1.00  0.00     0.198 A 
ATOM     67  C   UNL A   1      41.152  27.425  26.843  1.00  0.00     0.198 A 
ATOM     68  F   UNL A   1      41.851  29.373  27.958  1.00  0.00    -0.203 F 
ATOM     69  F   UNL A   1      39.014  24.712  27.937  1.00  0.00    -0.200 F 
ATOM     70  C   UNL A   1      40.435  26.238  26.829  1.00  0.00     0.200 A 
ATOM     71  F   UNL A   1      41.865  27.788  25.767  1.00  0.00    -0.200 F 
ATOM     72  F   UNL A   1      40.473  25.443  25.751  1.00  0.00    -0.200 F 
ENDBRANCH  48  62
BRANCH  49  73
ATOM     73  C   UNL A   1      39.555  33.954  36.983  1.00  0.00     0.064 A 
ATOM     74  C   UNL A   1      38.780  33.560  38.083  1.00  0.00     0.173 A 
ATOM     75  C   UNL A   1      40.186  35.204  37.045  1.00  0.00     0.173 A 
ATOM     76  F   UNL A   1      38.138  32.383  38.063  1.00  0.00    -0.203 F 
ATOM     77  C   UNL A   1      38.623  34.393  39.190  1.00  0.00     0.198 A 
ATOM     78  C   UNL A   1      40.054  36.023  38.164  1.00  0.00     0.198 A 
ATOM     79  F   UNL A   1      40.942  35.627  36.021  1.00  0.00    -0.203 F 
ATOM     80  F   UNL A   1      37.835  34.013  40.204  1.00  0.00    -0.200 F 
ATOM     81  C   UNL A   1      39.264  35.621  39.231  1.00  0.00     0.200 A 
ATOM     82  F   UNL A   1      40.688  37.203  38.208  1.00  0.00    -0.200 F 
ATOM     83  F   UNL A   1      39.115  36.421  40.297  1.00  0.00    -0.200 F 
ENDBRANCH  49  73
BRANCH  61  84
ATOM     84  C   UNL A   1      43.849  28.710  35.370  1.00  0.00     0.064 A 
ATOM     85  C   UNL A   1      45.170  29.135  35.160  1.00  0.00     0.173 A 
ATOM     86  C   UNL A   1      43.630  27.694  36.314  1.00  0.00     0.173 A 
ATOM     87  F   UNL A   1      45.434  30.092  34.258  1.00  0.00    -0.203 F 
ATOM     88  C   UNL A   1      46.229  28.544  35.844  1.00  0.00     0.198 A 
ATOM     89  C   UNL A   1      44.689  27.130  37.021  1.00  0.00     0.198 A 
ATOM     90  F   UNL A   1      42.387  27.255  36.560  1.00  0.00    -0.203 F 
ATOM     91  F   UNL A   1      47.487  28.930  35.586  1.00  0.00    -0.200 F 
ATOM     92  C   UNL A   1      45.988  27.549  36.778  1.00  0.00     0.200 A 
ATOM     93  F   UNL A   1      44.452  26.179  37.934  1.00  0.00    -0.200 F 
ATOM     94  F   UNL A   1      47.009  26.987  37.441  1.00  0.00    -0.200 F 
ENDBRANCH  61  84
ENDBRANCH  35  36
ENDBRANCH  27  30
ENDBRANCH  25  26
ENDBRANCH  24  25
ENDBRANCH   1  24
TORSDOF 14
ENDMDL
MODEL 2
REMARK VINA RESULT:     -12.2      1.471      2.314
REMARK SMILES O=C(NCCCNC(=O)c1ccc(-c2c3nc(c(-c4c(F)c(F)c(F)c(F)c4F)c4ccc([nH]4)c(-c4c(F)c(F)c(F)c(F)c4F)c4nc(c(-c5c(F)c(F)c(F)c(F)c5F)c5ccc2[nH]5)C=C4)C=C3)cc1)c1ccc(NC(=S)NC(=O)C(Cl)(Cl)Cl)cc1
REMARK SMILES IDX 4 1 3 2 1 3 2 4 73 6 74 7 88 8 75 9 87 10 76 11 77 12 78 14
REMARK SMILES IDX 79 15 80 16 81 17 82 19 83 20 84 21 85 22 86 23 5 24 6 25
REMARK SMILES IDX 7 26 8 27 9 29 10 30 11 31 72 32 12 33 71 34 13 35 14 36
REMARK SMILES IDX 15 37 65 38 16 39 70 40 64 41 66 42 17 43 69 44 63 45 62 46
REMARK SMILES IDX 18 48 50 49 30 50 49 51 31 52 34 53 48 54 67 55 32 56 33 57
REMARK SMILES IDX 47 59 68 60 35 61 19 62 20 63 28 64 21 65 22 66 26 67 29 68
REMARK SMILES IDX 23 69 24 70 27 71 25 72 51 73 52 74 60 75 53 76 54 77 58 78
REMARK SMILES IDX 61 79 55 80 56 81 59 82 57 83 36 84 37 85 45 86 38 87 39 88
REMARK SMILES IDX 43 89 46 90 40 91 41 92 44 93 42 94
REMARK H PARENT 3 5 77 13 80 18 7 28 66 47 34 58
REMARK Flexibility Score: inf
ROOT
ATOM      1  C   UNL A   1      31.825  30.527  26.893  1.00  0.00     0.118 C 
ENDROOT
BRANCH   1   2
ATOM      2  N   UNL A   1      33.128  30.248  27.484  1.00  0.00    -0.352 N 
ATOM      3  O   UNL A   1      35.034  29.075  27.841  1.00  0.00    -0.269 OA
ATOM      4  C   UNL A   1      34.014  29.239  27.183  1.00  0.00     0.251 C 
ATOM      5  H   UNL A   1      33.412  30.867  28.194  1.00  0.00     0.163 HD
BRANCH   4   6
ATOM      6  C   UNL A   1      33.694  28.321  26.075  1.00  0.00     0.039 A 
ATOM      7  C   UNL A   1      33.175  27.049  26.330  1.00  0.00     0.016 A 
ATOM      8  C   UNL A   1      33.980  28.718  24.772  1.00  0.00     0.016 A 
ATOM      9  C   UNL A   1      33.092  26.108  25.294  1.00  0.00     0.027 A 
ATOM     10  C   UNL A   1      33.903  27.773  23.751  1.00  0.00     0.027 A 
ATOM     11  C   UNL A   1      33.561  26.440  24.031  1.00  0.00     0.040 A 
BRANCH  11  12
ATOM     12  N   UNL A   1      33.702  25.528  22.982  1.00  0.00    -0.332 N 
ATOM     13  H   UNL A   1      34.648  25.360  22.771  1.00  0.00     0.169 HD
BRANCH  12  14
ATOM     14  C   UNL A   1      32.887  24.826  22.194  1.00  0.00     0.177 C 
ATOM     15  S   UNL A   1      32.204  25.671  20.909  1.00  0.00    -0.040 S 
BRANCH  14  16
ATOM     16  N   UNL A   1      32.577  23.492  22.241  1.00  0.00    -0.299 N 
ATOM     17  C   UNL A   1      32.571  22.242  22.877  1.00  0.00     0.278 C 
ATOM     18  H   UNL A   1      32.124  23.324  21.384  1.00  0.00     0.172 HD
ATOM     19  O   UNL A   1      31.900  21.399  22.250  1.00  0.00    -0.270 OA
BRANCH  17  20
ATOM     20  C   UNL A   1      33.289  21.855  24.177  1.00  0.00     0.269 C 
ATOM     21  Cl  UNL A   1      32.655  22.647  25.616  1.00  0.00    -0.073 Cl
ATOM     22  Cl  UNL A   1      33.350  20.077  24.290  1.00  0.00    -0.073 Cl
ATOM     23  Cl  UNL A   1      35.019  22.391  24.039  1.00  0.00    -0.073 Cl
ENDBRANCH  17  20
ENDBRANCH  14  16
ENDBRANCH  12  14
ENDBRANCH  11  12
ENDBRANCH   4   6
ENDBRANCH   1   2
BRANCH   1  24
ATOM     24  C   UNL A   1      31.501  32.017  26.833  1.00  0.00     0.042 C 
BRANCH  24  25
ATOM     25  C   UNL A   1      32.708  32.937  26.994  1.00  0.00     0.118 C 
BRANCH  25  26
ATOM     26  N   UNL A   1      32.371  34.246  27.538  1.00  0.00    -0.352 N 
ATOM     27  C   UNL A   1      32.931  34.958  28.574  1.00  0.00     0.251 C 
ATOM     28  H   UNL A   1      31.619  34.695  27.091  1.00  0.00     0.163 HD
ATOM     29  O   UNL A   1      32.406  36.010  28.929  1.00  0.00    -0.269 OA
BRANCH  27  30
ATOM     30  C   UNL A   1      34.130  34.464  29.295  1.00  0.00     0.039 A 
ATOM     31  C   UNL A   1      33.953  33.836  30.534  1.00  0.00     0.014 A 
ATOM     32  C   UNL A   1      35.420  34.628  28.789  1.00  0.00     0.014 A 
ATOM     33  C   UNL A   1      35.052  33.306  31.218  1.00  0.00     0.010 A 
ATOM     34  C   UNL A   1      36.504  34.025  29.428  1.00  0.00     0.010 A 
ATOM     35  C   UNL A   1      36.334  33.354  30.648  1.00  0.00    -0.014 A 
BRANCH  35  36
ATOM     36  C   UNL A   1      37.500  32.697  31.303  1.00  0.00     0.031 A 
ATOM     37  C   UNL A   1      38.209  31.552  30.633  1.00  0.00     0.074 A 
ATOM     38  C   UNL A   1      37.880  33.087  32.537  1.00  0.00     0.049 A 
ATOM     39  N   UNL A   1      39.189  30.806  31.080  1.00  0.00    -0.248 NA
ATOM     40  C   UNL A   1      37.736  31.176  29.291  1.00  0.00     0.031 C 
ATOM     41  C   UNL A   1      37.250  34.150  33.319  1.00  0.00     0.029 A 
ATOM     42  N   UNL A   1      38.881  32.622  33.356  1.00  0.00    -0.354 N 
ATOM     43  C   UNL A   1      39.437  29.867  30.087  1.00  0.00     0.074 A 
ATOM     44  C   UNL A   1      38.469  30.100  29.037  1.00  0.00     0.031 C 
ATOM     45  C   UNL A   1      37.891  34.273  34.493  1.00  0.00     0.029 A 
ATOM     46  C   UNL A   1      38.949  33.272  34.565  1.00  0.00     0.049 A 
ATOM     47  H   UNL A   1      39.492  31.894  33.100  1.00  0.00     0.167 HD
ATOM     48  C   UNL A   1      40.396  28.911  30.043  1.00  0.00     0.037 A 
ATOM     49  C   UNL A   1      39.765  33.075  35.619  1.00  0.00     0.037 A 
ATOM     50  C   UNL A   1      41.375  28.693  31.078  1.00  0.00     0.049 A 
ATOM     51  C   UNL A   1      40.818  32.003  35.548  1.00  0.00     0.074 A 
ATOM     52  C   UNL A   1      42.424  27.790  31.096  1.00  0.00     0.029 A 
ATOM     53  N   UNL A   1      41.422  29.383  32.279  1.00  0.00    -0.354 N 
ATOM     54  N   UNL A   1      41.085  31.166  34.574  1.00  0.00    -0.248 NA
ATOM     55  C   UNL A   1      41.689  31.850  36.723  1.00  0.00     0.031 C 
ATOM     56  C   UNL A   1      43.074  27.898  32.330  1.00  0.00     0.029 A 
ATOM     57  C   UNL A   1      42.468  28.909  33.057  1.00  0.00     0.049 A 
ATOM     58  H   UNL A   1      40.805  30.104  32.542  1.00  0.00     0.167 HD
ATOM     59  C   UNL A   1      42.169  30.414  35.003  1.00  0.00     0.074 A 
ATOM     60  C   UNL A   1      42.523  30.902  36.320  1.00  0.00     0.031 C 
ATOM     61  C   UNL A   1      42.816  29.408  34.363  1.00  0.00     0.037 A 
BRANCH  48  62
ATOM     62  C   UNL A   1      40.439  28.023  28.831  1.00  0.00     0.064 A 
ATOM     63  C   UNL A   1      41.198  28.359  27.699  1.00  0.00     0.173 A 
ATOM     64  C   UNL A   1      39.746  26.803  28.815  1.00  0.00     0.173 A 
ATOM     65  F   UNL A   1      41.873  29.518  27.658  1.00  0.00    -0.203 F 
ATOM     66  C   UNL A   1      41.235  27.523  26.585  1.00  0.00     0.198 A 
ATOM     67  C   UNL A   1      39.812  25.954  27.714  1.00  0.00     0.198 A 
ATOM     68  F   UNL A   1      39.012  26.428  29.874  1.00  0.00    -0.203 F 
ATOM     69  F   UNL A   1      41.923  27.892  25.496  1.00  0.00    -0.200 F 
ATOM     70  C   UNL A   1      40.548  26.318  26.596  1.00  0.00     0.200 A 
ATOM     71  F   UNL A   1      39.161  24.782  27.732  1.00  0.00    -0.200 F 
ATOM     72  F   UNL A   1      40.591  25.512  25.528  1.00  0.00    -0.200 F 
ENDBRANCH  48  62
BRANCH  49  73
ATOM     73  C   UNL A   1      39.635  33.931  36.829  1.00  0.00     0.064 A 
ATOM     74  C   UNL A   1      38.846  33.525  37.915  1.00  0.00     0.173 A 
ATOM     75  C   UNL A   1      40.284  35.170  36.922  1.00  0.00     0.173 A 
ATOM     76  F   UNL A   1      38.187  32.358  37.865  1.00  0.00    -0.203 F 
ATOM     77  C   UNL A   1      38.692  34.338  39.037  1.00  0.00     0.198 A 
ATOM     78  C   UNL A   1      40.155  35.967  38.057  1.00  0.00     0.198 A 
ATOM     79  F   UNL A   1      41.055  35.603  35.913  1.00  0.00    -0.203 F 
ATOM     80  F   UNL A   1      37.890  33.948  40.037  1.00  0.00    -0.200 F 
ATOM     81  C   UNL A   1      39.351  35.555  39.109  1.00  0.00     0.200 A 
ATOM     82  F   UNL A   1      40.806  37.136  38.131  1.00  0.00    -0.200 F 
ATOM     83  F   UNL A   1      39.205  36.334  40.190  1.00  0.00    -0.200 F 
ENDBRANCH  49  73
BRANCH  61  84
ATOM     84  C   UNL A   1      43.996  28.793  35.059  1.00  0.00     0.064 A 
ATOM     85  C   UNL A   1      43.862  27.683  35.906  1.00  0.00     0.173 A 
ATOM     86  C   UNL A   1      45.287  29.304  34.849  1.00  0.00     0.173 A 
ATOM     87  F   UNL A   1      42.648  27.167  36.152  1.00  0.00    -0.203 F 
ATOM     88  C   UNL A   1      44.969  27.128  36.541  1.00  0.00     0.198 A 
ATOM     89  C   UNL A   1      46.397  28.724  35.458  1.00  0.00     0.198 A 
ATOM     90  F   UNL A   1      45.475  30.359  34.043  1.00  0.00    -0.203 F 
ATOM     91  F   UNL A   1      44.808  26.101  37.388  1.00  0.00    -0.200 F 
ATOM     92  C   UNL A   1      46.236  27.643  36.310  1.00  0.00     0.200 A 
ATOM     93  F   UNL A   1      47.621  29.215  35.223  1.00  0.00    -0.200 F 
ATOM     94  F   UNL A   1      47.302  27.102  36.917  1.00  0.00    -0.200 F 
ENDBRANCH  61  84
ENDBRANCH  35  36
ENDBRANCH  27  30
ENDBRANCH  25  26
ENDBRANCH  24  25
ENDBRANCH   1  24
TORSDOF 14
ENDMDL
MODEL 3
REMARK VINA RESULT:     -12.2      1.071      2.036
REMARK SMILES O=C(NCCCNC(=O)c1ccc(-c2c3nc(c(-c4c(F)c(F)c(F)c(F)c4F)c4ccc([nH]4)c(-c4c(F)c(F)c(F)c(F)c4F)c4nc(c(-c5c(F)c(F)c(F)c(F)c5F)c5ccc2[nH]5)C=C4)C=C3)cc1)c1ccc(NC(=S)NC(=O)C(Cl)(Cl)Cl)cc1
REMARK SMILES IDX 4 1 3 2 1 3 2 4 73 6 74 7 88 8 75 9 87 10 76 11 77 12 78 14
REMARK SMILES IDX 79 15 80 16 81 17 82 19 83 20 84 21 85 22 86 23 5 24 6 25
REMARK SMILES IDX 7 26 8 27 9 29 10 30 11 31 72 32 12 33 71 34 13 35 14 36
REMARK SMILES IDX 15 37 65 38 16 39 70 40 64 41 66 42 17 43 69 44 63 45 62 46
REMARK SMILES IDX 18 48 50 49 30 50 49 51 31 52 34 53 48 54 67 55 32 56 33 57
REMARK SMILES IDX 47 59 68 60 35 61 19 62 20 63 28 64 21 65 22 66 26 67 29 68
REMARK SMILES IDX 23 69 24 70 27 71 25 72 51 73 52 74 60 75 53 76 54 77 58 78
REMARK SMILES IDX 61 79 55 80 56 81 59 82 57 83 36 84 37 85 45 86 38 87 39 88
REMARK SMILES IDX 43 89 46 90 40 91 41 92 44 93 42 94
REMARK H PARENT 3 5 77 13 80 18 7 28 66 47 34 58
REMARK Flexibility Score: inf
ROOT
ATOM      1  C   UNL A   1      31.674  30.697  26.108  1.00  0.00     0.118 C 
ENDROOT
BRANCH   1   2
ATOM      2  N   UNL A   1      31.609  29.787  27.245  1.00  0.00    -0.352 N 
ATOM      3  O   UNL A   1      31.527  27.776  28.289  1.00  0.00    -0.269 OA
ATOM      4  C   UNL A   1      31.702  28.414  27.257  1.00  0.00     0.251 C 
ATOM      5  H   UNL A   1      31.483  30.213  28.123  1.00  0.00     0.163 HD
BRANCH   4   6
ATOM      6  C   UNL A   1      31.972  27.710  25.991  1.00  0.00     0.039 A 
ATOM      7  C   UNL A   1      30.928  27.382  25.120  1.00  0.00     0.016 A 
ATOM      8  C   UNL A   1      33.276  27.317  25.707  1.00  0.00     0.016 A 
ATOM      9  C   UNL A   1      31.164  26.519  24.041  1.00  0.00     0.027 A 
ATOM     10  C   UNL A   1      33.499  26.450  24.639  1.00  0.00     0.027 A 
ATOM     11  C   UNL A   1      32.426  25.968  23.871  1.00  0.00     0.040 A 
BRANCH  11  12
ATOM     12  N   UNL A   1      32.723  24.958  22.953  1.00  0.00    -0.332 N 
ATOM     13  H   UNL A   1      32.403  25.181  22.050  1.00  0.00     0.169 HD
BRANCH  12  14
ATOM     14  C   UNL A   1      33.328  23.770  22.984  1.00  0.00     0.177 C 
ATOM     15  S   UNL A   1      32.311  22.430  23.010  1.00  0.00    -0.040 S 
BRANCH  14  16
ATOM     16  N   UNL A   1      34.667  23.481  22.929  1.00  0.00    -0.299 N 
ATOM     17  C   UNL A   1      35.828  22.881  23.437  1.00  0.00     0.278 C 
ATOM     18  H   UNL A   1      34.971  23.925  22.105  1.00  0.00     0.172 HD
ATOM     19  O   UNL A   1      36.789  22.975  22.649  1.00  0.00    -0.270 OA
BRANCH  17  20
ATOM     20  C   UNL A   1      35.999  22.187  24.796  1.00  0.00     0.269 C 
ATOM     21  Cl  UNL A   1      35.004  20.749  25.004  1.00  0.00    -0.073 Cl
ATOM     22  Cl  UNL A   1      37.738  21.919  25.087  1.00  0.00    -0.073 Cl
ATOM     23  Cl  UNL A   1      35.465  23.349  26.086  1.00  0.00    -0.073 Cl
ENDBRANCH  17  20
ENDBRANCH  14  16
ENDBRANCH  12  14
ENDBRANCH  11  12
ENDBRANCH   4   6
ENDBRANCH   1   2
BRANCH   1  24
ATOM     24  C   UNL A   1      31.451  32.156  26.497  1.00  0.00     0.042 C 
BRANCH  24  25
ATOM     25  C   UNL A   1      32.654  32.832  27.147  1.00  0.00     0.118 C 
BRANCH  25  26
ATOM     26  N   UNL A   1      32.378  34.184  27.614  1.00  0.00    -0.352 N 
ATOM     27  C   UNL A   1      32.986  34.936  28.593  1.00  0.00     0.251 C 
ATOM     28  H   UNL A   1      31.635  34.634  27.153  1.00  0.00     0.163 HD
ATOM     29  O   UNL A   1      32.509  36.028  28.891  1.00  0.00    -0.269 OA
BRANCH  27  30
ATOM     30  C   UNL A   1      34.179  34.441  29.322  1.00  0.00     0.039 A 
ATOM     31  C   UNL A   1      33.993  33.807  30.557  1.00  0.00     0.014 A 
ATOM     32  C   UNL A   1      35.474  34.612  28.829  1.00  0.00     0.014 A 
ATOM     33  C   UNL A   1      35.087  33.276  31.248  1.00  0.00     0.010 A 
ATOM     34  C   UNL A   1      36.553  34.008  29.474  1.00  0.00     0.010 A 
ATOM     35  C   UNL A   1      36.374  33.330  30.689  1.00  0.00    -0.014 A 
BRANCH  35  36
ATOM     36  C   UNL A   1      37.536  32.673  31.351  1.00  0.00     0.031 A 
ATOM     37  C   UNL A   1      38.222  31.501  30.704  1.00  0.00     0.074 A 
ATOM     38  C   UNL A   1      37.932  33.088  32.571  1.00  0.00     0.049 A 
ATOM     39  N   UNL A   1      39.195  30.751  31.162  1.00  0.00    -0.248 NA
ATOM     40  C   UNL A   1      37.732  31.097  29.377  1.00  0.00     0.031 C 
ATOM     41  C   UNL A   1      37.325  34.181  33.331  1.00  0.00     0.029 A 
ATOM     42  N   UNL A   1      38.934  32.630  33.394  1.00  0.00    -0.354 N 
ATOM     43  C   UNL A   1      39.420  29.783  30.192  1.00  0.00     0.074 A 
ATOM     44  C   UNL A   1      38.447  30.005  29.144  1.00  0.00     0.031 C 
ATOM     45  C   UNL A   1      37.978  34.325  34.495  1.00  0.00     0.029 A 
ATOM     46  C   UNL A   1      39.022  33.309  34.585  1.00  0.00     0.049 A 
ATOM     47  H   UNL A   1      39.532  31.886  33.151  1.00  0.00     0.167 HD
ATOM     48  C   UNL A   1      40.364  28.812  30.165  1.00  0.00     0.037 A 
ATOM     49  C   UNL A   1      39.845  33.128  35.636  1.00  0.00     0.037 A 
ATOM     50  C   UNL A   1      41.349  28.606  31.197  1.00  0.00     0.049 A 
ATOM     51  C   UNL A   1      40.880  32.038  35.584  1.00  0.00     0.074 A 
ATOM     52  C   UNL A   1      42.385  27.688  31.229  1.00  0.00     0.029 A 
ATOM     53  N   UNL A   1      41.417  29.326  32.380  1.00  0.00    -0.354 N 
ATOM     54  N   UNL A   1      41.127  31.173  34.630  1.00  0.00    -0.248 NA
ATOM     55  C   UNL A   1      41.759  31.902  36.755  1.00  0.00     0.031 C 
ATOM     56  C   UNL A   1      43.047  27.819  32.454  1.00  0.00     0.029 A 
ATOM     57  C   UNL A   1      42.463  28.857  33.160  1.00  0.00     0.049 A 
ATOM     58  H   UNL A   1      40.813  30.063  32.629  1.00  0.00     0.167 HD
ATOM     59  C   UNL A   1      42.203  30.415  35.069  1.00  0.00     0.074 A 
ATOM     60  C   UNL A   1      42.575  30.932  36.370  1.00  0.00     0.031 C 
ATOM     61  C   UNL A   1      42.829  29.384  34.451  1.00  0.00     0.037 A 
BRANCH  48  62
ATOM     62  C   UNL A   1      40.384  27.894  28.976  1.00  0.00     0.064 A 
ATOM     63  C   UNL A   1      41.158  28.176  27.839  1.00  0.00     0.173 A 
ATOM     64  C   UNL A   1      39.652  26.696  28.987  1.00  0.00     0.173 A 
ATOM     65  F   UNL A   1      41.870  29.311  27.772  1.00  0.00    -0.203 F 
ATOM     66  C   UNL A   1      41.172  27.311  26.747  1.00  0.00     0.198 A 
ATOM     67  C   UNL A   1      39.695  25.818  27.908  1.00  0.00     0.198 A 
ATOM     68  F   UNL A   1      38.902  26.372  30.051  1.00  0.00    -0.203 F 
ATOM     69  F   UNL A   1      41.877  27.630  25.653  1.00  0.00    -0.200 F 
ATOM     70  C   UNL A   1      40.447  26.130  26.785  1.00  0.00     0.200 A 
ATOM     71  F   UNL A   1      39.006  24.669  27.952  1.00  0.00    -0.200 F 
ATOM     72  F   UNL A   1      40.468  25.296  25.737  1.00  0.00    -0.200 F 
ENDBRANCH  48  62
BRANCH  49  73
ATOM     73  C   UNL A   1      39.738  34.015  36.825  1.00  0.00     0.064 A 
ATOM     74  C   UNL A   1      40.447  35.224  36.887  1.00  0.00     0.173 A 
ATOM     75  C   UNL A   1      38.939  33.672  37.925  1.00  0.00     0.173 A 
ATOM     76  F   UNL A   1      41.242  35.586  35.870  1.00  0.00    -0.203 F 
ATOM     77  C   UNL A   1      40.378  36.043  38.013  1.00  0.00     0.198 A 
ATOM     78  C   UNL A   1      38.847  34.507  39.037  1.00  0.00     0.198 A 
ATOM     79  F   UNL A   1      38.237  32.529  37.915  1.00  0.00    -0.203 F 
ATOM     80  F   UNL A   1      41.107  37.166  38.065  1.00  0.00    -0.200 F 
ATOM     81  C   UNL A   1      39.574  35.687  39.084  1.00  0.00     0.200 A 
ATOM     82  F   UNL A   1      38.056  34.167  40.064  1.00  0.00    -0.200 F 
ATOM     83  F   UNL A   1      39.506  36.476  40.165  1.00  0.00    -0.200 F 
ENDBRANCH  49  73
BRANCH  61  84
ATOM     84  C   UNL A   1      44.007  28.770  35.152  1.00  0.00     0.064 A 
ATOM     85  C   UNL A   1      45.311  29.252  34.971  1.00  0.00     0.173 A 
ATOM     86  C   UNL A   1      43.821  27.702  36.046  1.00  0.00     0.173 A 
ATOM     87  F   UNL A   1      45.544  30.260  34.116  1.00  0.00    -0.203 F 
ATOM     88  C   UNL A   1      46.389  28.669  35.632  1.00  0.00     0.198 A 
ATOM     89  C   UNL A   1      44.896  27.145  36.732  1.00  0.00     0.198 A 
ATOM     90  F   UNL A   1      42.594  27.207  36.263  1.00  0.00    -0.203 F 
ATOM     91  F   UNL A   1      47.633  29.112  35.401  1.00  0.00    -0.200 F 
ATOM     92  C   UNL A   1      46.180  27.622  36.517  1.00  0.00     0.200 A 
ATOM     93  F   UNL A   1      44.690  26.143  37.597  1.00  0.00    -0.200 F 
ATOM     94  F   UNL A   1      47.218  27.067  37.158  1.00  0.00    -0.200 F 
ENDBRANCH  61  84
ENDBRANCH  35  36
ENDBRANCH  27  30
ENDBRANCH  25  26
ENDBRANCH  24  25
ENDBRANCH   1  24
TORSDOF 14
ENDMDL
