MODEL 1
REMARK VINA RESULT:     -13.9      0.000      0.000
REMARK SMILES C[C@H]1CC[C@H]([NH2+]Cc2c(C(=O)NCCCNC(=O)c3ccc(-c4c5nc(c(-c6c(F)c(F)c(F)c(F)c6F)c6ccc([nH]6)c(-c6c(F)c(F)c(F)c(F)c6F)c6nc(c(-c7c(F)c(F)c(F)c(F)c7F)c7ccc4[nH]7)C=C6)C=C5)cc3)n(Cc3ccccc3F)c3ccccc23)CC1
REMARK SMILES IDX 13 1 12 2 10 3 11 4 9 6 8 7 96 8 82 9 91 10 95 11 92 12
REMARK SMILES IDX 94 13 93 14 7 15 6 16 5 19 1 20 2 21 3 22 98 23 4 24 97 25
REMARK SMILES IDX 83 26 84 27 85 28 89 29 86 30 88 31 90 32 87 33 14 34 15 35
REMARK SMILES IDX 16 36 17 37 18 39 19 40 20 41 81 42 21 43 80 44 22 45 23 46
REMARK SMILES IDX 24 47 74 48 25 49 79 50 73 51 75 52 26 53 78 54 72 55 71 56
REMARK SMILES IDX 27 58 59 59 39 60 58 61 40 62 43 63 57 64 76 65 41 66 42 67
REMARK SMILES IDX 56 69 77 70 44 71 28 72 29 73 37 74 30 75 31 76 35 77 38 78
REMARK SMILES IDX 32 79 33 80 36 81 34 82 60 83 61 84 69 85 62 86 63 87 67 88
REMARK SMILES IDX 70 89 64 90 65 91 68 92 66 93 45 94 46 95 54 96 47 97 48 98
REMARK SMILES IDX 52 99 55 100 49 101 50 102 53 103 51 104
REMARK H PARENT 12 5 6 17 6 18 16 38 75 57 43 68
REMARK Flexibility Score: inf
ROOT
ATOM      1  C   UNL A   1      37.008  23.304  25.783  1.00  0.00     0.118 C 
ENDROOT
BRANCH   1   2
ATOM      2  N   UNL A   1      36.782  23.097  24.371  1.00  0.00    -0.351 N 
ATOM      3  C   UNL A   1      35.636  23.119  23.623  1.00  0.00     0.268 C 
ATOM      4  O   UNL A   1      35.861  22.929  22.404  1.00  0.00    -0.268 OA
ATOM      5  H   UNL A   1      37.598  22.907  23.856  1.00  0.00     0.163 HD
BRANCH   3   6
ATOM      6  C   UNL A   1      34.273  23.275  24.137  1.00  0.00     0.117 A 
ATOM      7  C   UNL A   1      33.177  24.061  23.724  1.00  0.00     0.045 A 
ATOM      8  C   UNL A   1      32.229  24.045  24.800  1.00  0.00     0.009 A 
ATOM      9  N   UNL A   1      33.711  22.419  25.118  1.00  0.00    -0.331 N 
ATOM     10  C   UNL A   1      32.465  22.887  25.520  1.00  0.00     0.049 A 
ATOM     11  C   UNL A   1      31.095  24.829  25.112  1.00  0.00     0.011 A 
ATOM     12  C   UNL A   1      31.503  22.389  26.419  1.00  0.00     0.027 A 
ATOM     13  C   UNL A   1      30.216  24.416  26.116  1.00  0.00     0.001 A 
ATOM     14  C   UNL A   1      30.399  23.187  26.733  1.00  0.00     0.002 A 
BRANCH   7  15
ATOM     15  C   UNL A   1      32.836  24.814  22.471  1.00  0.00     0.300 C 
BRANCH  15  16
ATOM     16  N   UNL A   1      33.695  25.933  22.148  1.00  0.00    -0.340 N 
ATOM     17  H   UNL A   1      34.625  25.680  22.482  1.00  0.00     0.346 HD
ATOM     18  H   UNL A   1      33.526  26.039  21.147  1.00  0.00     0.346 HD
BRANCH  16  19
ATOM     19  C   UNL A   1      33.448  27.292  22.632  1.00  0.00     0.182 C 
ATOM     20  C   UNL A   1      31.232  30.071  25.277  1.00  0.00     0.007 C 
ATOM     21  C   UNL A   1      31.852  28.851  24.612  1.00  0.00    -0.014 C 
ATOM     22  C   UNL A   1      33.382  28.929  24.595  1.00  0.00     0.009 C 
ATOM     23  C   UNL A   1      31.346  28.681  23.180  1.00  0.00     0.009 C 
ATOM     24  C   UNL A   1      33.965  27.632  24.035  1.00  0.00     0.065 C 
ATOM     25  C   UNL A   1      31.909  27.412  22.560  1.00  0.00     0.065 C 
ENDBRANCH  16  19
ENDBRANCH  15  16
ENDBRANCH   7  15
BRANCH   9  26
ATOM     26  C   UNL A   1      34.228  21.107  25.548  1.00  0.00     0.161 C 
BRANCH  26  27
ATOM     27  C   UNL A   1      33.756  19.921  24.738  1.00  0.00     0.008 A 
ATOM     28  C   UNL A   1      32.522  19.907  24.066  1.00  0.00     0.008 A 
ATOM     29  C   UNL A   1      34.604  18.830  24.528  1.00  0.00     0.128 A 
ATOM     30  C   UNL A   1      32.152  18.848  23.232  1.00  0.00     0.001 A 
ATOM     31  C   UNL A   1      34.236  17.758  23.712  1.00  0.00     0.039 A 
ATOM     32  F   UNL A   1      35.827  18.809  25.073  1.00  0.00    -0.207 F 
ATOM     33  C   UNL A   1      33.007  17.767  23.058  1.00  0.00     0.003 A 
ENDBRANCH  26  27
ENDBRANCH   9  26
ENDBRANCH   3   6
ENDBRANCH   1   2
BRANCH   1  34
ATOM     34  C   UNL A   1      38.426  23.724  26.157  1.00  0.00     0.042 C 
BRANCH  34  35
ATOM     35  C   UNL A   1      39.379  22.609  26.642  1.00  0.00     0.118 C 
BRANCH  35  36
ATOM     36  N   UNL A   1      40.687  22.515  26.007  1.00  0.00    -0.352 N 
ATOM     37  C   UNL A   1      41.870  23.200  26.137  1.00  0.00     0.251 C 
ATOM     38  H   UNL A   1      40.733  21.801  25.331  1.00  0.00     0.163 HD
ATOM     39  O   UNL A   1      42.897  22.620  25.772  1.00  0.00    -0.269 OA
BRANCH  37  40
ATOM     40  C   UNL A   1      41.990  24.608  26.602  1.00  0.00     0.039 A 
ATOM     41  C   UNL A   1      42.427  24.954  27.875  1.00  0.00     0.014 A 
ATOM     42  C   UNL A   1      41.471  25.623  25.774  1.00  0.00     0.014 A 
ATOM     43  C   UNL A   1      42.299  26.261  28.341  1.00  0.00     0.010 A 
ATOM     44  C   UNL A   1      41.346  26.939  26.235  1.00  0.00     0.010 A 
ATOM     45  C   UNL A   1      41.722  27.252  27.541  1.00  0.00    -0.014 A 
BRANCH  45  46
ATOM     46  C   UNL A   1      41.525  28.568  28.155  1.00  0.00     0.031 A 
ATOM     47  C   UNL A   1      42.606  29.585  27.993  1.00  0.00     0.074 A 
ATOM     48  C   UNL A   1      40.414  28.939  28.823  1.00  0.00     0.049 A 
ATOM     49  N   UNL A   1      43.284  30.196  28.916  1.00  0.00    -0.248 NA
ATOM     50  C   UNL A   1      42.968  29.976  26.625  1.00  0.00     0.031 C 
ATOM     51  C   UNL A   1      39.118  28.266  28.887  1.00  0.00     0.029 A 
ATOM     52  N   UNL A   1      40.213  30.085  29.543  1.00  0.00    -0.354 N 
ATOM     53  C   UNL A   1      44.085  31.131  28.262  1.00  0.00     0.074 A 
ATOM     54  C   UNL A   1      43.883  30.922  26.848  1.00  0.00     0.031 C 
ATOM     55  C   UNL A   1      38.212  29.106  29.437  1.00  0.00     0.029 A 
ATOM     56  C   UNL A   1      38.892  30.314  29.880  1.00  0.00     0.049 A 
ATOM     57  H   UNL A   1      40.944  30.692  29.800  1.00  0.00     0.167 HD
ATOM     58  C   UNL A   1      44.791  32.097  28.912  1.00  0.00     0.037 A 
ATOM     59  C   UNL A   1      38.377  31.438  30.427  1.00  0.00     0.037 A 
ATOM     60  C   UNL A   1      44.947  31.829  30.312  1.00  0.00     0.049 A 
ATOM     61  C   UNL A   1      39.473  32.192  31.082  1.00  0.00     0.074 A 
ATOM     62  C   UNL A   1      45.555  30.833  31.050  1.00  0.00     0.029 A 
ATOM     63  N   UNL A   1      44.216  32.553  31.219  1.00  0.00    -0.354 N 
ATOM     64  N   UNL A   1      40.065  31.834  32.187  1.00  0.00    -0.248 NA
ATOM     65  C   UNL A   1      40.153  33.225  30.316  1.00  0.00     0.031 C 
ATOM     66  C   UNL A   1      44.785  30.721  32.243  1.00  0.00     0.029 A 
ATOM     67  C   UNL A   1      43.751  31.652  32.142  1.00  0.00     0.049 A 
ATOM     68  H   UNL A   1      44.058  33.525  31.210  1.00  0.00     0.167 HD
ATOM     69  C   UNL A   1      41.365  32.297  32.057  1.00  0.00     0.074 A 
ATOM     70  C   UNL A   1      41.324  33.250  30.958  1.00  0.00     0.031 C 
ATOM     71  C   UNL A   1      42.407  31.660  32.667  1.00  0.00     0.037 A 
BRANCH  58  72
ATOM     72  C   UNL A   1      45.204  33.408  28.305  1.00  0.00     0.064 A 
ATOM     73  C   UNL A   1      44.236  34.370  27.952  1.00  0.00     0.173 A 
ATOM     74  C   UNL A   1      46.510  33.648  27.835  1.00  0.00     0.173 A 
ATOM     75  F   UNL A   1      42.953  34.209  28.307  1.00  0.00    -0.203 F 
ATOM     76  C   UNL A   1      44.556  35.484  27.172  1.00  0.00     0.198 A 
ATOM     77  C   UNL A   1      46.836  34.785  27.097  1.00  0.00     0.198 A 
ATOM     78  F   UNL A   1      47.485  32.743  28.001  1.00  0.00    -0.203 F 
ATOM     79  F   UNL A   1      43.588  36.329  26.788  1.00  0.00    -0.200 F 
ATOM     80  C   UNL A   1      45.855  35.694  26.749  1.00  0.00     0.200 A 
ATOM     81  F   UNL A   1      48.095  34.961  26.673  1.00  0.00    -0.200 F 
ATOM     82  F   UNL A   1      46.157  36.744  25.974  1.00  0.00    -0.200 F 
ENDBRANCH  58  72
BRANCH  59  83
ATOM     83  C   UNL A   1      37.020  31.997  30.247  1.00  0.00     0.064 A 
ATOM     84  C   UNL A   1      36.076  31.987  31.284  1.00  0.00     0.173 A 
ATOM     85  C   UNL A   1      36.699  32.768  29.113  1.00  0.00     0.173 A 
ATOM     86  F   UNL A   1      36.330  31.327  32.424  1.00  0.00    -0.203 F 
ATOM     87  C   UNL A   1      34.879  32.704  31.190  1.00  0.00     0.198 A 
ATOM     88  C   UNL A   1      35.499  33.471  29.013  1.00  0.00     0.198 A 
ATOM     89  F   UNL A   1      37.582  32.926  28.116  1.00  0.00    -0.203 F 
ATOM     90  F   UNL A   1      34.022  32.712  32.220  1.00  0.00    -0.200 F 
ATOM     91  C   UNL A   1      34.592  33.445  30.054  1.00  0.00     0.200 A 
ATOM     92  F   UNL A   1      35.253  34.212  27.924  1.00  0.00    -0.200 F 
ATOM     93  F   UNL A   1      33.464  34.165  29.980  1.00  0.00    -0.200 F 
ENDBRANCH  59  83
BRANCH  71  94
ATOM     94  C   UNL A   1      42.088  30.644  33.723  1.00  0.00     0.064 A 
ATOM     95  C   UNL A   1      41.711  29.323  33.426  1.00  0.00     0.173 A 
ATOM     96  C   UNL A   1      42.319  30.966  35.067  1.00  0.00     0.173 A 
ATOM     97  F   UNL A   1      41.585  28.913  32.156  1.00  0.00    -0.203 F 
ATOM     98  C   UNL A   1      41.524  28.383  34.436  1.00  0.00     0.198 A 
ATOM     99  C   UNL A   1      42.166  30.014  36.072  1.00  0.00     0.198 A 
ATOM    100  F   UNL A   1      42.747  32.194  35.402  1.00  0.00    -0.203 F 
ATOM    101  F   UNL A   1      41.156  27.130  34.128  1.00  0.00    -0.200 F 
ATOM    102  C   UNL A   1      41.757  28.728  35.758  1.00  0.00     0.200 A 
ATOM    103  F   UNL A   1      42.444  30.334  37.344  1.00  0.00    -0.200 F 
ATOM    104  F   UNL A   1      41.621  27.810  36.725  1.00  0.00    -0.200 F 
ENDBRANCH  71  94
ENDBRANCH  45  46
ENDBRANCH  37  40
ENDBRANCH  35  36
ENDBRANCH  34  35
ENDBRANCH   1  34
TORSDOF 15
ENDMDL
MODEL 2
REMARK VINA RESULT:     -13.8      1.704      4.564
REMARK SMILES C[C@H]1CC[C@H]([NH2+]Cc2c(C(=O)NCCCNC(=O)c3ccc(-c4c5nc(c(-c6c(F)c(F)c(F)c(F)c6F)c6ccc([nH]6)c(-c6c(F)c(F)c(F)c(F)c6F)c6nc(c(-c7c(F)c(F)c(F)c(F)c7F)c7ccc4[nH]7)C=C6)C=C5)cc3)n(Cc3ccccc3F)c3ccccc23)CC1
REMARK SMILES IDX 13 1 12 2 10 3 11 4 9 6 8 7 96 8 82 9 91 10 95 11 92 12
REMARK SMILES IDX 94 13 93 14 7 15 6 16 5 19 1 20 2 21 3 22 98 23 4 24 97 25
REMARK SMILES IDX 83 26 84 27 85 28 89 29 86 30 88 31 90 32 87 33 14 34 15 35
REMARK SMILES IDX 16 36 17 37 18 39 19 40 20 41 81 42 21 43 80 44 22 45 23 46
REMARK SMILES IDX 24 47 74 48 25 49 79 50 73 51 75 52 26 53 78 54 72 55 71 56
REMARK SMILES IDX 27 58 59 59 39 60 58 61 40 62 43 63 57 64 76 65 41 66 42 67
REMARK SMILES IDX 56 69 77 70 44 71 28 72 29 73 37 74 30 75 31 76 35 77 38 78
REMARK SMILES IDX 32 79 33 80 36 81 34 82 60 83 61 84 69 85 62 86 63 87 67 88
REMARK SMILES IDX 70 89 64 90 65 91 68 92 66 93 45 94 46 95 54 96 47 97 48 98
REMARK SMILES IDX 52 99 55 100 49 101 50 102 53 103 51 104
REMARK H PARENT 12 5 6 17 6 18 16 38 75 57 43 68
REMARK Flexibility Score: inf
ROOT
ATOM      1  C   UNL A   1      35.906  23.051  26.217  1.00  0.00     0.118 C 
ENDROOT
BRANCH   1   2
ATOM      2  N   UNL A   1      34.631  22.716  26.806  1.00  0.00    -0.351 N 
ATOM      3  C   UNL A   1      33.350  22.880  26.352  1.00  0.00     0.268 C 
ATOM      4  O   UNL A   1      32.500  22.417  27.148  1.00  0.00    -0.268 OA
ATOM      5  H   UNL A   1      34.695  22.294  27.692  1.00  0.00     0.163 HD
BRANCH   3   6
ATOM      6  C   UNL A   1      32.954  23.567  25.120  1.00  0.00     0.117 A 
ATOM      7  C   UNL A   1      32.856  23.145  23.777  1.00  0.00     0.045 A 
ATOM      8  C   UNL A   1      32.738  24.331  22.979  1.00  0.00     0.009 A 
ATOM      9  N   UNL A   1      32.347  24.848  25.105  1.00  0.00    -0.331 N 
ATOM     10  C   UNL A   1      32.214  25.313  23.802  1.00  0.00     0.049 A 
ATOM     11  C   UNL A   1      32.878  24.595  21.597  1.00  0.00     0.011 A 
ATOM     12  C   UNL A   1      31.652  26.484  23.259  1.00  0.00     0.027 A 
ATOM     13  C   UNL A   1      32.462  25.822  21.076  1.00  0.00     0.001 A 
ATOM     14  C   UNL A   1      31.818  26.738  21.895  1.00  0.00     0.002 A 
BRANCH   7  15
ATOM     15  C   UNL A   1      32.820  21.809  23.094  1.00  0.00     0.300 C 
BRANCH  15  16
ATOM     16  N   UNL A   1      32.259  20.717  23.862  1.00  0.00    -0.340 N 
ATOM     17  H   UNL A   1      32.061  21.097  24.788  1.00  0.00     0.346 HD
ATOM     18  H   UNL A   1      31.491  20.417  23.261  1.00  0.00     0.346 HD
BRANCH  16  19
ATOM     19  C   UNL A   1      32.967  19.456  24.086  1.00  0.00     0.182 C 
ATOM     20  C   UNL A   1      32.926  15.217  25.376  1.00  0.00     0.007 C 
ATOM     21  C   UNL A   1      32.557  16.621  24.916  1.00  0.00    -0.014 C 
ATOM     22  C   UNL A   1      33.198  16.963  23.568  1.00  0.00     0.009 C 
ATOM     23  C   UNL A   1      32.972  17.670  25.946  1.00  0.00     0.009 C 
ATOM     24  C   UNL A   1      32.703  18.325  23.085  1.00  0.00     0.065 C 
ATOM     25  C   UNL A   1      32.521  19.056  25.511  1.00  0.00     0.065 C 
ENDBRANCH  16  19
ENDBRANCH  15  16
ENDBRANCH   7  15
BRANCH   9  26
ATOM     26  C   UNL A   1      31.744  25.553  26.251  1.00  0.00     0.161 C 
BRANCH  26  27
ATOM     27  C   UNL A   1      32.243  26.960  26.488  1.00  0.00     0.008 A 
ATOM     28  C   UNL A   1      31.403  27.997  26.930  1.00  0.00     0.008 A 
ATOM     29  C   UNL A   1      33.608  27.248  26.392  1.00  0.00     0.128 A 
ATOM     30  C   UNL A   1      31.904  29.262  27.251  1.00  0.00     0.001 A 
ATOM     31  C   UNL A   1      34.115  28.514  26.691  1.00  0.00     0.039 A 
ATOM     32  F   UNL A   1      34.479  26.290  26.052  1.00  0.00    -0.207 F 
ATOM     33  C   UNL A   1      33.262  29.525  27.126  1.00  0.00     0.003 A 
ENDBRANCH  26  27
ENDBRANCH   9  26
ENDBRANCH   3   6
ENDBRANCH   1   2
BRANCH   1  34
ATOM     34  C   UNL A   1      36.730  21.861  25.733  1.00  0.00     0.042 C 
BRANCH  34  35
ATOM     35  C   UNL A   1      38.168  22.156  25.255  1.00  0.00     0.118 C 
BRANCH  35  36
ATOM     36  N   UNL A   1      39.267  21.676  26.083  1.00  0.00    -0.352 N 
ATOM     37  C   UNL A   1      40.017  22.220  27.095  1.00  0.00     0.251 C 
ATOM     38  H   UNL A   1      39.532  20.753  25.867  1.00  0.00     0.163 HD
ATOM     39  O   UNL A   1      40.576  21.434  27.866  1.00  0.00    -0.269 OA
BRANCH  37  40
ATOM     40  C   UNL A   1      40.270  23.675  27.277  1.00  0.00     0.039 A 
ATOM     41  C   UNL A   1      41.363  24.176  27.975  1.00  0.00     0.014 A 
ATOM     42  C   UNL A   1      39.264  24.576  26.875  1.00  0.00     0.014 A 
ATOM     43  C   UNL A   1      41.431  25.525  28.319  1.00  0.00     0.010 A 
ATOM     44  C   UNL A   1      39.330  25.933  27.212  1.00  0.00     0.010 A 
ATOM     45  C   UNL A   1      40.398  26.402  27.976  1.00  0.00    -0.014 A 
BRANCH  45  46
ATOM     46  C   UNL A   1      40.502  27.775  28.478  1.00  0.00     0.031 A 
ATOM     47  C   UNL A   1      41.681  28.588  28.056  1.00  0.00     0.074 A 
ATOM     48  C   UNL A   1      39.583  28.372  29.264  1.00  0.00     0.049 A 
ATOM     49  N   UNL A   1      42.585  29.149  28.801  1.00  0.00    -0.248 NA
ATOM     50  C   UNL A   1      41.868  28.811  26.616  1.00  0.00     0.031 C 
ATOM     51  C   UNL A   1      38.229  27.925  29.590  1.00  0.00     0.029 A 
ATOM     52  N   UNL A   1      39.676  29.586  29.888  1.00  0.00    -0.354 N 
ATOM     53  C   UNL A   1      43.397  29.889  27.943  1.00  0.00     0.074 A 
ATOM     54  C   UNL A   1      42.937  29.610  26.604  1.00  0.00     0.031 C 
ATOM     55  C   UNL A   1      37.561  28.940  30.182  1.00  0.00     0.029 A 
ATOM     56  C   UNL A   1      38.476  30.051  30.395  1.00  0.00     0.049 A 
ATOM     57  H   UNL A   1      40.521  30.084  29.971  1.00  0.00     0.167 HD
ATOM     58  C   UNL A   1      44.336  30.774  28.380  1.00  0.00     0.037 A 
ATOM     59  C   UNL A   1      38.230  31.283  30.898  1.00  0.00     0.037 A 
ATOM     60  C   UNL A   1      44.677  30.590  29.761  1.00  0.00     0.049 A 
ATOM     61  C   UNL A   1      39.518  31.895  31.302  1.00  0.00     0.074 A 
ATOM     62  C   UNL A   1      45.243  29.566  30.495  1.00  0.00     0.029 A 
ATOM     63  N   UNL A   1      44.220  31.490  30.690  1.00  0.00    -0.354 N 
ATOM     64  N   UNL A   1      40.224  31.530  32.336  1.00  0.00    -0.248 NA
ATOM     65  C   UNL A   1      40.210  32.743  30.344  1.00  0.00     0.031 C 
ATOM     66  C   UNL A   1      44.670  29.672  31.795  1.00  0.00     0.029 A 
ATOM     67  C   UNL A   1      43.784  30.748  31.758  1.00  0.00     0.049 A 
ATOM     68  H   UNL A   1      44.209  32.471  30.608  1.00  0.00     0.167 HD
ATOM     69  C   UNL A   1      41.539  31.764  31.968  1.00  0.00     0.074 A 
ATOM     70  C   UNL A   1      41.460  32.626  30.797  1.00  0.00     0.031 C 
ATOM     71  C   UNL A   1      42.561  31.014  32.475  1.00  0.00     0.037 A 
BRANCH  58  72
ATOM     72  C   UNL A   1      44.834  31.951  27.591  1.00  0.00     0.064 A 
ATOM     73  C   UNL A   1      46.139  31.958  27.062  1.00  0.00     0.173 A 
ATOM     74  C   UNL A   1      44.145  33.180  27.546  1.00  0.00     0.173 A 
ATOM     75  F   UNL A   1      46.898  30.853  27.101  1.00  0.00    -0.203 F 
ATOM     76  C   UNL A   1      46.716  33.119  26.539  1.00  0.00     0.198 A 
ATOM     77  C   UNL A   1      44.705  34.325  26.981  1.00  0.00     0.198 A 
ATOM     78  F   UNL A   1      42.947  33.326  28.131  1.00  0.00    -0.203 F 
ATOM     79  F   UNL A   1      47.991  33.101  26.124  1.00  0.00    -0.200 F 
ATOM     80  C   UNL A   1      45.998  34.299  26.494  1.00  0.00     0.200 A 
ATOM     81  F   UNL A   1      44.005  35.468  26.968  1.00  0.00    -0.200 F 
ATOM     82  F   UNL A   1      46.561  35.420  26.024  1.00  0.00    -0.200 F 
ENDBRANCH  58  72
BRANCH  59  83
ATOM     83  C   UNL A   1      36.961  32.039  30.868  1.00  0.00     0.064 A 
ATOM     84  C   UNL A   1      36.121  32.114  31.990  1.00  0.00     0.173 A 
ATOM     85  C   UNL A   1      36.658  32.904  29.798  1.00  0.00     0.173 A 
ATOM     86  F   UNL A   1      36.375  31.368  33.076  1.00  0.00    -0.203 F 
ATOM     87  C   UNL A   1      35.040  33.000  32.036  1.00  0.00     0.198 A 
ATOM     88  C   UNL A   1      35.571  33.776  29.839  1.00  0.00     0.198 A 
ATOM     89  F   UNL A   1      37.463  32.983  28.728  1.00  0.00    -0.203 F 
ATOM     90  F   UNL A   1      34.289  33.080  33.142  1.00  0.00    -0.200 F 
ATOM     91  C   UNL A   1      34.767  33.830  30.960  1.00  0.00     0.200 A 
ATOM     92  F   UNL A   1      35.342  34.599  28.806  1.00  0.00    -0.200 F 
ATOM     93  F   UNL A   1      33.756  34.708  31.020  1.00  0.00    -0.200 F 
ENDBRANCH  59  83
BRANCH  71  94
ATOM     94  C   UNL A   1      42.271  30.146  33.663  1.00  0.00     0.064 A 
ATOM     95  C   UNL A   1      41.785  28.832  33.551  1.00  0.00     0.173 A 
ATOM     96  C   UNL A   1      42.640  30.595  34.938  1.00  0.00     0.173 A 
ATOM     97  F   UNL A   1      41.520  28.296  32.352  1.00  0.00    -0.203 F 
ATOM     98  C   UNL A   1      41.627  28.024  34.675  1.00  0.00     0.198 A 
ATOM     99  C   UNL A   1      42.516  29.772  36.055  1.00  0.00     0.198 A 
ATOM    100  F   UNL A   1      43.174  31.816  35.094  1.00  0.00    -0.203 F 
ATOM    101  F   UNL A   1      41.154  26.776  34.544  1.00  0.00    -0.200 F 
ATOM    102  C   UNL A   1      41.998  28.493  35.925  1.00  0.00     0.200 A 
ATOM    103  F   UNL A   1      42.925  30.207  37.255  1.00  0.00    -0.200 F 
ATOM    104  F   UNL A   1      41.889  27.698  36.999  1.00  0.00    -0.200 F 
ENDBRANCH  71  94
ENDBRANCH  45  46
ENDBRANCH  37  40
ENDBRANCH  35  36
ENDBRANCH  34  35
ENDBRANCH   1  34
TORSDOF 15
ENDMDL
MODEL 3
REMARK VINA RESULT:     -13.8      1.254      4.170
REMARK SMILES C[C@H]1CC[C@H]([NH2+]Cc2c(C(=O)NCCCNC(=O)c3ccc(-c4c5nc(c(-c6c(F)c(F)c(F)c(F)c6F)c6ccc([nH]6)c(-c6c(F)c(F)c(F)c(F)c6F)c6nc(c(-c7c(F)c(F)c(F)c(F)c7F)c7ccc4[nH]7)C=C6)C=C5)cc3)n(Cc3ccccc3F)c3ccccc23)CC1
REMARK SMILES IDX 13 1 12 2 10 3 11 4 9 6 8 7 96 8 82 9 91 10 95 11 92 12
REMARK SMILES IDX 94 13 93 14 7 15 6 16 5 19 1 20 2 21 3 22 98 23 4 24 97 25
REMARK SMILES IDX 83 26 84 27 85 28 89 29 86 30 88 31 90 32 87 33 14 34 15 35
REMARK SMILES IDX 16 36 17 37 18 39 19 40 20 41 81 42 21 43 80 44 22 45 23 46
REMARK SMILES IDX 24 47 74 48 25 49 79 50 73 51 75 52 26 53 78 54 72 55 71 56
REMARK SMILES IDX 27 58 59 59 39 60 58 61 40 62 43 63 57 64 76 65 41 66 42 67
REMARK SMILES IDX 56 69 77 70 44 71 28 72 29 73 37 74 30 75 31 76 35 77 38 78
REMARK SMILES IDX 32 79 33 80 36 81 34 82 60 83 61 84 69 85 62 86 63 87 67 88
REMARK SMILES IDX 70 89 64 90 65 91 68 92 66 93 45 94 46 95 54 96 47 97 48 98
REMARK SMILES IDX 52 99 55 100 49 101 50 102 53 103 51 104
REMARK H PARENT 12 5 6 17 6 18 16 38 75 57 43 68
REMARK Flexibility Score: inf
ROOT
ATOM      1  C   UNL A   1      37.515  23.433  25.758  1.00  0.00     0.118 C 
ENDROOT
BRANCH   1   2
ATOM      2  N   UNL A   1      37.034  23.448  24.396  1.00  0.00    -0.351 N 
ATOM      3  C   UNL A   1      35.766  23.463  23.881  1.00  0.00     0.268 C 
ATOM      4  O   UNL A   1      35.762  23.515  22.629  1.00  0.00    -0.268 OA
ATOM      5  H   UNL A   1      37.746  23.447  23.717  1.00  0.00     0.163 HD
BRANCH   3   6
ATOM      6  C   UNL A   1      34.523  23.367  24.650  1.00  0.00     0.117 A 
ATOM      7  C   UNL A   1      33.940  22.326  25.404  1.00  0.00     0.045 A 
ATOM      8  C   UNL A   1      32.579  22.704  25.647  1.00  0.00     0.009 A 
ATOM      9  N   UNL A   1      33.713  24.488  24.962  1.00  0.00    -0.331 N 
ATOM     10  C   UNL A   1      32.530  24.085  25.571  1.00  0.00     0.049 A 
ATOM     11  C   UNL A   1      31.434  21.999  26.086  1.00  0.00     0.011 A 
ATOM     12  C   UNL A   1      31.436  24.797  26.096  1.00  0.00     0.027 A 
ATOM     13  C   UNL A   1      30.286  22.700  26.463  1.00  0.00     0.001 A 
ATOM     14  C   UNL A   1      30.305  24.086  26.506  1.00  0.00     0.002 A 
BRANCH   7  15
ATOM     15  C   UNL A   1      34.444  21.032  25.974  1.00  0.00     0.300 C 
BRANCH  15  16
ATOM     16  N   UNL A   1      34.835  20.022  25.013  1.00  0.00    -0.340 N 
ATOM     17  H   UNL A   1      35.013  20.519  24.140  1.00  0.00     0.346 HD
ATOM     18  H   UNL A   1      35.603  19.561  25.502  1.00  0.00     0.346 HD
BRANCH  16  19
ATOM     19  C   UNL A   1      33.983  18.885  24.664  1.00  0.00     0.182 C 
ATOM     20  C   UNL A   1      32.695  14.704  25.372  1.00  0.00     0.007 C 
ATOM     21  C   UNL A   1      33.288  16.102  25.483  1.00  0.00    -0.014 C 
ATOM     22  C   UNL A   1      32.211  17.186  25.379  1.00  0.00     0.009 C 
ATOM     23  C   UNL A   1      34.345  16.344  24.406  1.00  0.00     0.009 C 
ATOM     24  C   UNL A   1      32.830  18.562  25.621  1.00  0.00     0.065 C 
ATOM     25  C   UNL A   1      34.986  17.712  24.583  1.00  0.00     0.065 C 
ENDBRANCH  16  19
ENDBRANCH  15  16
ENDBRANCH   7  15
BRANCH   9  26
ATOM     26  C   UNL A   1      34.095  25.909  24.862  1.00  0.00     0.161 C 
BRANCH  26  27
ATOM     27  C   UNL A   1      33.163  26.780  24.051  1.00  0.00     0.008 A 
ATOM     28  C   UNL A   1      32.614  26.365  22.825  1.00  0.00     0.008 A 
ATOM     29  C   UNL A   1      32.712  27.999  24.567  1.00  0.00     0.128 A 
ATOM     30  C   UNL A   1      31.667  27.137  22.146  1.00  0.00     0.001 A 
ATOM     31  C   UNL A   1      31.781  28.787  23.886  1.00  0.00     0.039 A 
ATOM     32  F   UNL A   1      33.132  28.422  25.766  1.00  0.00    -0.207 F 
ATOM     33  C   UNL A   1      31.253  28.354  22.673  1.00  0.00     0.003 A 
ENDBRANCH  26  27
ENDBRANCH   9  26
ENDBRANCH   3   6
ENDBRANCH   1   2
BRANCH   1  34
ATOM     34  C   UNL A   1      38.421  22.257  26.112  1.00  0.00     0.042 C 
BRANCH  34  35
ATOM     35  C   UNL A   1      39.730  22.586  26.862  1.00  0.00     0.118 C 
BRANCH  35  36
ATOM     36  N   UNL A   1      40.970  22.570  26.096  1.00  0.00    -0.352 N 
ATOM     37  C   UNL A   1      42.104  23.342  26.087  1.00  0.00     0.251 C 
ATOM     38  H   UNL A   1      41.000  21.841  25.435  1.00  0.00     0.163 HD
ATOM     39  O   UNL A   1      43.130  22.829  25.630  1.00  0.00    -0.269 OA
BRANCH  37  40
ATOM     40  C   UNL A   1      42.165  24.768  26.507  1.00  0.00     0.039 A 
ATOM     41  C   UNL A   1      42.776  25.191  27.681  1.00  0.00     0.014 A 
ATOM     42  C   UNL A   1      41.417  25.706  25.768  1.00  0.00     0.014 A 
ATOM     43  C   UNL A   1      42.603  26.493  28.146  1.00  0.00     0.010 A 
ATOM     44  C   UNL A   1      41.244  27.017  26.226  1.00  0.00     0.010 A 
ATOM     45  C   UNL A   1      41.805  27.401  27.444  1.00  0.00    -0.014 A 
BRANCH  45  46
ATOM     46  C   UNL A   1      41.588  28.711  28.067  1.00  0.00     0.031 A 
ATOM     47  C   UNL A   1      42.660  29.741  27.922  1.00  0.00     0.074 A 
ATOM     48  C   UNL A   1      40.468  29.065  28.728  1.00  0.00     0.049 A 
ATOM     49  N   UNL A   1      43.324  30.352  28.856  1.00  0.00    -0.248 NA
ATOM     50  C   UNL A   1      43.030  30.146  26.560  1.00  0.00     0.031 C 
ATOM     51  C   UNL A   1      39.179  28.378  28.776  1.00  0.00     0.029 A 
ATOM     52  N   UNL A   1      40.249  30.204  29.455  1.00  0.00    -0.354 N 
ATOM     53  C   UNL A   1      44.120  31.300  28.215  1.00  0.00     0.074 A 
ATOM     54  C   UNL A   1      43.932  31.100  26.798  1.00  0.00     0.031 C 
ATOM     55  C   UNL A   1      38.259  29.204  29.325  1.00  0.00     0.029 A 
ATOM     56  C   UNL A   1      38.922  30.416  29.782  1.00  0.00     0.049 A 
ATOM     57  H   UNL A   1      40.971  30.816  29.722  1.00  0.00     0.167 HD
ATOM     58  C   UNL A   1      44.810  32.269  28.878  1.00  0.00     0.037 A 
ATOM     59  C   UNL A   1      38.390  31.530  30.334  1.00  0.00     0.037 A 
ATOM     60  C   UNL A   1      44.957  31.992  30.278  1.00  0.00     0.049 A 
ATOM     61  C   UNL A   1      39.473  32.290  31.003  1.00  0.00     0.074 A 
ATOM     62  C   UNL A   1      45.569  30.997  31.013  1.00  0.00     0.029 A 
ATOM     63  N   UNL A   1      44.210  32.701  31.184  1.00  0.00    -0.354 N 
ATOM     64  N   UNL A   1      40.059  31.931  32.110  1.00  0.00    -0.248 NA
ATOM     65  C   UNL A   1      40.149  33.336  30.251  1.00  0.00     0.031 C 
ATOM     66  C   UNL A   1      44.790  30.868  32.199  1.00  0.00     0.029 A 
ATOM     67  C   UNL A   1      43.748  31.788  32.096  1.00  0.00     0.049 A 
ATOM     68  H   UNL A   1      44.042  33.671  31.181  1.00  0.00     0.167 HD
ATOM     69  C   UNL A   1      41.355  32.408  31.995  1.00  0.00     0.074 A 
ATOM     70  C   UNL A   1      41.313  33.369  30.903  1.00  0.00     0.031 C 
ATOM     71  C   UNL A   1      42.399  31.778  32.609  1.00  0.00     0.037 A 
BRANCH  58  72
ATOM     72  C   UNL A   1      45.214  33.589  28.285  1.00  0.00     0.064 A 
ATOM     73  C   UNL A   1      44.238  34.499  27.833  1.00  0.00     0.173 A 
ATOM     74  C   UNL A   1      46.544  33.883  27.924  1.00  0.00     0.173 A 
ATOM     75  F   UNL A   1      42.937  34.284  28.079  1.00  0.00    -0.203 F 
ATOM     76  C   UNL A   1      44.573  35.616  27.062  1.00  0.00     0.198 A 
ATOM     77  C   UNL A   1      46.880  35.023  27.196  1.00  0.00     0.198 A 
ATOM     78  F   UNL A   1      47.540  33.027  28.190  1.00  0.00    -0.203 F 
ATOM     79  F   UNL A   1      43.605  36.409  26.581  1.00  0.00    -0.200 F 
ATOM     80  C   UNL A   1      45.893  35.880  26.748  1.00  0.00     0.200 A 
ATOM     81  F   UNL A   1      48.162  35.252  26.879  1.00  0.00    -0.200 F 
ATOM     82  F   UNL A   1      46.212  36.932  25.983  1.00  0.00    -0.200 F 
ENDBRANCH  58  72
BRANCH  59  83
ATOM     83  C   UNL A   1      37.029  32.076  30.146  1.00  0.00     0.064 A 
ATOM     84  C   UNL A   1      36.076  32.047  31.175  1.00  0.00     0.173 A 
ATOM     85  C   UNL A   1      36.710  32.853  29.015  1.00  0.00     0.173 A 
ATOM     86  F   UNL A   1      36.327  31.381  32.311  1.00  0.00    -0.203 F 
ATOM     87  C   UNL A   1      34.873  32.752  31.075  1.00  0.00     0.198 A 
ATOM     88  C   UNL A   1      35.504  33.543  28.910  1.00  0.00     0.198 A 
ATOM     89  F   UNL A   1      37.600  33.028  28.027  1.00  0.00    -0.203 F 
ATOM     90  F   UNL A   1      34.007  32.742  32.098  1.00  0.00    -0.200 F 
ATOM     91  C   UNL A   1      34.588  33.499  29.943  1.00  0.00     0.200 A 
ATOM     92  F   UNL A   1      35.259  34.291  27.825  1.00  0.00    -0.200 F 
ATOM     93  F   UNL A   1      33.453  34.208  29.865  1.00  0.00    -0.200 F 
ENDBRANCH  59  83
BRANCH  71  94
ATOM     94  C   UNL A   1      42.082  30.751  33.655  1.00  0.00     0.064 A 
ATOM     95  C   UNL A   1      41.708  29.432  33.344  1.00  0.00     0.173 A 
ATOM     96  C   UNL A   1      42.312  31.059  35.002  1.00  0.00     0.173 A 
ATOM     97  F   UNL A   1      41.583  29.035  32.071  1.00  0.00    -0.203 F 
ATOM     98  C   UNL A   1      41.523  28.481  34.345  1.00  0.00     0.198 A 
ATOM     99  C   UNL A   1      42.161  30.097  35.998  1.00  0.00     0.198 A 
ATOM    100  F   UNL A   1      42.737  32.285  35.350  1.00  0.00    -0.203 F 
ATOM    101  F   UNL A   1      41.158  27.231  34.024  1.00  0.00    -0.200 F 
ATOM    102  C   UNL A   1      41.755  28.813  35.670  1.00  0.00     0.200 A 
ATOM    103  F   UNL A   1      42.438  30.404  37.273  1.00  0.00    -0.200 F 
ATOM    104  F   UNL A   1      41.620  27.885  36.628  1.00  0.00    -0.200 F 
ENDBRANCH  71  94
ENDBRANCH  45  46
ENDBRANCH  37  40
ENDBRANCH  35  36
ENDBRANCH  34  35
ENDBRANCH   1  34
TORSDOF 15
ENDMDL
