MODEL 1
REMARK VINA RESULT:     -12.1      0.000      0.000
REMARK SMILES O=C(NCCCNC(=O)c1csc(S(=O)(=O)Nc2ccc(F)cc2)c1)c1ccc(-c2c3nc(c(-c4c(F)c(F)c(F)c(F)c4F)c4ccc([nH]4)c(-c4c(F)c(F)c(F)c(F)c4F)c4nc(c(-c5c(F)c(F)c(F)c(F)c5F)c5ccc2[nH]5)C=C4)C=C3)cc1
REMARK SMILES IDX 5 1 4 2 3 3 1 4 2 5 26 7 27 8 88 9 28 10 87 11 29 12 30 13
REMARK SMILES IDX 31 14 81 15 32 16 86 17 80 18 82 19 33 20 85 21 79 22 78 23
REMARK SMILES IDX 34 25 66 26 46 27 65 28 47 29 50 30 64 31 83 32 48 33 49 34
REMARK SMILES IDX 63 36 84 37 51 38 35 39 36 40 44 41 37 42 38 43 42 44 45 45
REMARK SMILES IDX 39 46 40 47 43 48 41 49 67 50 68 51 76 52 69 53 70 54 74 55
REMARK SMILES IDX 77 56 71 57 72 58 75 59 73 60 52 61 53 62 61 63 54 64 55 65
REMARK SMILES IDX 59 66 62 67 56 68 57 69 60 70 58 71 6 72 7 73 8 74 9 76
REMARK SMILES IDX 10 77 11 78 25 79 12 80 13 81 14 82 15 83 16 84 17 85 18 87
REMARK SMILES IDX 19 88 24 89 20 90 23 91 21 92 22 93
REMARK H PARENT 3 6 82 24 50 35 7 75 17 86
REMARK Flexibility Score: inf
ROOT
ATOM      1  C   UNL A   1      31.506  32.139  26.890  1.00  0.00     0.042 C 
ENDROOT
BRANCH   1   2
ATOM      2  C   UNL A   1      32.711  33.071  26.897  1.00  0.00     0.118 C 
BRANCH   2   3
ATOM      3  N   UNL A   1      32.475  34.309  27.627  1.00  0.00    -0.352 N 
ATOM      4  O   UNL A   1      32.573  35.815  29.289  1.00  0.00    -0.269 OA
ATOM      5  C   UNL A   1      33.057  34.815  28.764  1.00  0.00     0.251 C 
ATOM      6  H   UNL A   1      31.776  34.881  27.238  1.00  0.00     0.163 HD
BRANCH   5   7
ATOM      7  C   UNL A   1      34.241  34.172  29.379  1.00  0.00     0.039 A 
ATOM      8  C   UNL A   1      34.110  33.191  30.361  1.00  0.00     0.014 A 
ATOM      9  C   UNL A   1      35.515  34.517  28.911  1.00  0.00     0.014 A 
ATOM     10  C   UNL A   1      35.243  32.668  30.978  1.00  0.00     0.010 A 
ATOM     11  C   UNL A   1      36.652  33.922  29.467  1.00  0.00     0.010 A 
ATOM     12  C   UNL A   1      36.528  33.014  30.527  1.00  0.00    -0.014 A 
BRANCH  12  13
ATOM     13  C   UNL A   1      37.714  32.357  31.135  1.00  0.00     0.031 A 
ATOM     14  C   UNL A   1      38.184  32.720  32.515  1.00  0.00     0.074 A 
ATOM     15  C   UNL A   1      38.350  31.396  30.437  1.00  0.00     0.049 A 
ATOM     16  N   UNL A   1      39.184  32.223  33.201  1.00  0.00    -0.248 NA
ATOM     17  C   UNL A   1      37.442  33.776  33.220  1.00  0.00     0.031 C 
ATOM     18  C   UNL A   1      37.991  30.966  29.084  1.00  0.00     0.029 A 
ATOM     19  N   UNL A   1      39.412  30.592  30.769  1.00  0.00    -0.354 N 
ATOM     20  C   UNL A   1      39.200  32.911  34.407  1.00  0.00     0.074 A 
ATOM     21  C   UNL A   1      38.126  33.880  34.352  1.00  0.00     0.031 C 
ATOM     22  C   UNL A   1      38.779  29.944  28.723  1.00  0.00     0.029 A 
ATOM     23  C   UNL A   1      39.740  29.687  29.790  1.00  0.00     0.049 A 
ATOM     24  H   UNL A   1      39.892  30.659  31.626  1.00  0.00     0.167 HD
ATOM     25  C   UNL A   1      40.029  32.738  35.464  1.00  0.00     0.037 A 
ATOM     26  C   UNL A   1      40.714  28.758  29.748  1.00  0.00     0.037 A 
ATOM     27  C   UNL A   1      41.084  31.759  35.520  1.00  0.00     0.049 A 
ATOM     28  C   UNL A   1      41.637  28.611  30.922  1.00  0.00     0.074 A 
ATOM     29  C   UNL A   1      41.954  31.489  36.563  1.00  0.00     0.029 A 
ATOM     30  N   UNL A   1      41.415  30.892  34.489  1.00  0.00    -0.354 N 
ATOM     31  N   UNL A   1      41.626  29.254  32.064  1.00  0.00    -0.248 NA
ATOM     32  C   UNL A   1      42.712  27.616  30.801  1.00  0.00     0.031 C 
ATOM     33  C   UNL A   1      42.839  30.490  36.148  1.00  0.00     0.029 A 
ATOM     34  C   UNL A   1      42.491  30.101  34.865  1.00  0.00     0.049 A 
ATOM     35  H   UNL A   1      40.954  30.843  33.620  1.00  0.00     0.167 HD
ATOM     36  C   UNL A   1      42.681  28.737  32.801  1.00  0.00     0.074 A 
ATOM     37  C   UNL A   1      43.301  27.713  31.985  1.00  0.00     0.031 C 
ATOM     38  C   UNL A   1      43.100  29.088  34.041  1.00  0.00     0.037 A 
BRANCH  25  39
ATOM     39  C   UNL A   1      39.841  33.625  36.660  1.00  0.00     0.064 A 
ATOM     40  C   UNL A   1      38.941  33.267  37.676  1.00  0.00     0.173 A 
ATOM     41  C   UNL A   1      40.481  34.868  36.759  1.00  0.00     0.173 A 
ATOM     42  F   UNL A   1      38.296  32.092  37.624  1.00  0.00    -0.203 F 
ATOM     43  C   UNL A   1      38.677  34.128  38.737  1.00  0.00     0.198 A 
ATOM     44  C   UNL A   1      40.233  35.718  37.835  1.00  0.00     0.198 A 
ATOM     45  F   UNL A   1      41.357  35.254  35.820  1.00  0.00    -0.203 F 
ATOM     46  F   UNL A   1      37.787  33.780  39.677  1.00  0.00    -0.200 F 
ATOM     47  C   UNL A   1      39.324  35.353  38.817  1.00  0.00     0.200 A 
ATOM     48  F   UNL A   1      40.874  36.892  37.922  1.00  0.00    -0.200 F 
ATOM     49  F   UNL A   1      39.073  36.180  39.841  1.00  0.00    -0.200 F 
ENDBRANCH  25  39
BRANCH  26  50
ATOM     50  C   UNL A   1      40.848  27.898  28.545  1.00  0.00     0.064 A 
ATOM     51  C   UNL A   1      41.621  28.300  27.445  1.00  0.00     0.173 A 
ATOM     52  C   UNL A   1      40.164  26.679  28.453  1.00  0.00     0.173 A 
ATOM     53  F   UNL A   1      42.290  29.461  27.484  1.00  0.00    -0.203 F 
ATOM     54  C   UNL A   1      41.682  27.528  26.288  1.00  0.00     0.198 A 
ATOM     55  C   UNL A   1      40.247  25.894  27.304  1.00  0.00     0.198 A 
ATOM     56  F   UNL A   1      39.427  26.245  29.486  1.00  0.00    -0.203 F 
ATOM     57  F   UNL A   1      42.392  27.957  25.235  1.00  0.00    -0.200 F 
ATOM     58  C   UNL A   1      40.997  26.324  26.219  1.00  0.00     0.200 A 
ATOM     59  F   UNL A   1      39.602  24.721  27.249  1.00  0.00    -0.200 F 
ATOM     60  F   UNL A   1      41.060  25.578  25.108  1.00  0.00    -0.200 F 
ENDBRANCH  26  50
BRANCH  38  61
ATOM     61  C   UNL A   1      44.280  28.354  34.605  1.00  0.00     0.064 A 
ATOM     62  C   UNL A   1      45.582  28.833  34.398  1.00  0.00     0.173 A 
ATOM     63  C   UNL A   1      44.124  27.139  35.289  1.00  0.00     0.173 A 
ATOM     64  F   UNL A   1      45.781  29.987  33.745  1.00  0.00    -0.203 F 
ATOM     65  C   UNL A   1      46.687  28.115  34.844  1.00  0.00     0.198 A 
ATOM     66  C   UNL A   1      45.232  26.437  35.756  1.00  0.00     0.198 A 
ATOM     67  F   UNL A   1      42.898  26.648  35.523  1.00  0.00    -0.203 F 
ATOM     68  F   UNL A   1      47.923  28.577  34.608  1.00  0.00    -0.200 F 
ATOM     69  C   UNL A   1      46.512  26.920  35.524  1.00  0.00     0.200 A 
ATOM     70  F   UNL A   1      45.061  25.294  36.434  1.00  0.00    -0.200 F 
ATOM     71  F   UNL A   1      47.577  26.234  35.960  1.00  0.00    -0.200 F 
ENDBRANCH  38  61
ENDBRANCH  12  13
ENDBRANCH   5   7
ENDBRANCH   2   3
ENDBRANCH   1   2
BRANCH   1  72
ATOM     72  C   UNL A   1      31.837  30.657  27.039  1.00  0.00     0.118 C 
BRANCH  72  73
ATOM     73  N   UNL A   1      33.218  30.412  27.425  1.00  0.00    -0.352 N 
ATOM     74  C   UNL A   1      34.083  29.390  27.126  1.00  0.00     0.252 C 
ATOM     75  H   UNL A   1      33.602  31.107  28.007  1.00  0.00     0.163 HD
ATOM     76  O   UNL A   1      35.153  29.345  27.733  1.00  0.00    -0.269 OA
BRANCH  74  77
ATOM     77  C   UNL A   1      33.707  28.344  26.183  1.00  0.00     0.051 A 
ATOM     78  C   UNL A   1      33.487  27.011  26.467  1.00  0.00     0.080 A 
ATOM     79  C   UNL A   1      33.422  28.596  24.797  1.00  0.00     0.048 A 
ATOM     80  S   UNL A   1      33.244  26.067  25.060  1.00  0.00    -0.130 S 
ATOM     81  C   UNL A   1      33.350  27.443  24.042  1.00  0.00     0.141 A 
BRANCH  81  82
ATOM     82  S   UNL A   1      33.406  27.088  22.294  1.00  0.00     0.271 S 
ATOM     83  O   UNL A   1      34.191  28.163  21.728  1.00  0.00    -0.200 OA
ATOM     84  O   UNL A   1      33.821  25.704  22.197  1.00  0.00    -0.200 OA
BRANCH  82  85
ATOM     85  N   UNL A   1      31.875  27.147  21.595  1.00  0.00    -0.279 N 
ATOM     86  H   UNL A   1      31.723  26.680  20.742  1.00  0.00     0.180 HD
BRANCH  85  87
ATOM     87  C   UNL A   1      30.798  27.847  22.198  1.00  0.00     0.049 A 
ATOM     88  C   UNL A   1      29.811  27.214  22.960  1.00  0.00     0.030 A 
ATOM     89  C   UNL A   1      30.730  29.228  21.980  1.00  0.00     0.030 A 
ATOM     90  C   UNL A   1      28.700  27.943  23.395  1.00  0.00     0.041 A 
ATOM     91  C   UNL A   1      29.629  29.957  22.430  1.00  0.00     0.041 A 
ATOM     92  C   UNL A   1      28.613  29.303  23.116  1.00  0.00     0.123 A 
ATOM     93  F   UNL A   1      27.535  29.992  23.509  1.00  0.00    -0.207 F 
ENDBRANCH  85  87
ENDBRANCH  82  85
ENDBRANCH  81  82
ENDBRANCH  74  77
ENDBRANCH  72  73
ENDBRANCH   1  72
TORSDOF 13
ENDMDL
MODEL 2
REMARK VINA RESULT:     -12.0      0.276      1.704
REMARK SMILES O=C(NCCCNC(=O)c1csc(S(=O)(=O)Nc2ccc(F)cc2)c1)c1ccc(-c2c3nc(c(-c4c(F)c(F)c(F)c(F)c4F)c4ccc([nH]4)c(-c4c(F)c(F)c(F)c(F)c4F)c4nc(c(-c5c(F)c(F)c(F)c(F)c5F)c5ccc2[nH]5)C=C4)C=C3)cc1
REMARK SMILES IDX 5 1 4 2 3 3 1 4 2 5 26 7 27 8 88 9 28 10 87 11 29 12 30 13
REMARK SMILES IDX 31 14 81 15 32 16 86 17 80 18 82 19 33 20 85 21 79 22 78 23
REMARK SMILES IDX 34 25 66 26 46 27 65 28 47 29 50 30 64 31 83 32 48 33 49 34
REMARK SMILES IDX 63 36 84 37 51 38 35 39 36 40 44 41 37 42 38 43 42 44 45 45
REMARK SMILES IDX 39 46 40 47 43 48 41 49 67 50 68 51 76 52 69 53 70 54 74 55
REMARK SMILES IDX 77 56 71 57 72 58 75 59 73 60 52 61 53 62 61 63 54 64 55 65
REMARK SMILES IDX 59 66 62 67 56 68 57 69 60 70 58 71 6 72 7 73 8 74 9 76
REMARK SMILES IDX 10 77 11 78 25 79 12 80 13 81 14 82 15 83 16 84 17 85 18 87
REMARK SMILES IDX 19 88 24 89 20 90 23 91 21 92 22 93
REMARK H PARENT 3 6 82 24 50 35 7 75 17 86
REMARK Flexibility Score: inf
ROOT
ATOM      1  C   UNL A   1      31.439  32.143  26.897  1.00  0.00     0.042 C 
ENDROOT
BRANCH   1   2
ATOM      2  C   UNL A   1      32.641  33.079  26.869  1.00  0.00     0.118 C 
BRANCH   2   3
ATOM      3  N   UNL A   1      32.434  34.305  27.626  1.00  0.00    -0.352 N 
ATOM      4  O   UNL A   1      32.578  35.777  29.315  1.00  0.00    -0.269 OA
ATOM      5  C   UNL A   1      33.041  34.782  28.762  1.00  0.00     0.251 C 
ATOM      6  H   UNL A   1      31.736  34.893  27.260  1.00  0.00     0.163 HD
BRANCH   5   7
ATOM      7  C   UNL A   1      34.226  34.112  29.345  1.00  0.00     0.039 A 
ATOM      8  C   UNL A   1      35.522  34.532  29.046  1.00  0.00     0.014 A 
ATOM      9  C   UNL A   1      34.031  33.077  30.267  1.00  0.00     0.014 A 
ATOM     10  C   UNL A   1      36.615  33.828  29.544  1.00  0.00     0.010 A 
ATOM     11  C   UNL A   1      35.130  32.429  30.840  1.00  0.00     0.010 A 
ATOM     12  C   UNL A   1      36.433  32.779  30.460  1.00  0.00    -0.014 A 
BRANCH  12  13
ATOM     13  C   UNL A   1      37.623  32.117  31.055  1.00  0.00     0.031 A 
ATOM     14  C   UNL A   1      38.082  32.444  32.447  1.00  0.00     0.074 A 
ATOM     15  C   UNL A   1      38.272  31.183  30.333  1.00  0.00     0.049 A 
ATOM     16  N   UNL A   1      39.084  31.938  33.124  1.00  0.00    -0.248 NA
ATOM     17  C   UNL A   1      37.326  33.472  33.179  1.00  0.00     0.031 C 
ATOM     18  C   UNL A   1      37.924  30.789  28.965  1.00  0.00     0.029 A 
ATOM     19  N   UNL A   1      39.340  30.381  30.647  1.00  0.00    -0.354 N 
ATOM     20  C   UNL A   1      39.087  32.590  34.349  1.00  0.00     0.074 A 
ATOM     21  C   UNL A   1      38.003  33.550  34.317  1.00  0.00     0.031 C 
ATOM     22  C   UNL A   1      38.725  29.786  28.580  1.00  0.00     0.029 A 
ATOM     23  C   UNL A   1      39.683  29.507  29.644  1.00  0.00     0.049 A 
ATOM     24  H   UNL A   1      39.815  30.427  31.508  1.00  0.00     0.167 HD
ATOM     25  C   UNL A   1      39.912  32.395  35.405  1.00  0.00     0.037 A 
ATOM     26  C   UNL A   1      40.666  28.590  29.580  1.00  0.00     0.037 A 
ATOM     27  C   UNL A   1      40.976  31.426  35.438  1.00  0.00     0.049 A 
ATOM     28  C   UNL A   1      41.584  28.418  30.754  1.00  0.00     0.074 A 
ATOM     29  C   UNL A   1      41.844  31.134  36.477  1.00  0.00     0.029 A 
ATOM     30  N   UNL A   1      41.321  30.592  34.385  1.00  0.00    -0.354 N 
ATOM     31  N   UNL A   1      41.561  29.027  31.914  1.00  0.00    -0.248 NA
ATOM     32  C   UNL A   1      42.670  27.438  30.610  1.00  0.00     0.031 C 
ATOM     33  C   UNL A   1      42.741  30.157  36.039  1.00  0.00     0.029 A 
ATOM     34  C   UNL A   1      42.403  29.802  34.743  1.00  0.00     0.049 A 
ATOM     35  H   UNL A   1      40.865  30.564  33.512  1.00  0.00     0.167 HD
ATOM     36  C   UNL A   1      42.618  28.500  32.642  1.00  0.00     0.074 A 
ATOM     37  C   UNL A   1      43.252  27.507  31.800  1.00  0.00     0.031 C 
ATOM     38  C   UNL A   1      43.027  28.819  33.893  1.00  0.00     0.037 A 
BRANCH  25  39
ATOM     39  C   UNL A   1      39.709  33.245  36.625  1.00  0.00     0.064 A 
ATOM     40  C   UNL A   1      38.769  32.876  37.601  1.00  0.00     0.173 A 
ATOM     41  C   UNL A   1      40.376  34.468  36.787  1.00  0.00     0.173 A 
ATOM     42  F   UNL A   1      38.098  31.720  37.488  1.00  0.00    -0.203 F 
ATOM     43  C   UNL A   1      38.494  33.706  38.683  1.00  0.00     0.198 A 
ATOM     44  C   UNL A   1      40.115  35.286  37.884  1.00  0.00     0.198 A 
ATOM     45  F   UNL A   1      41.289  34.863  35.888  1.00  0.00    -0.203 F 
ATOM     46  F   UNL A   1      37.567  33.349  39.584  1.00  0.00    -0.200 F 
ATOM     47  C   UNL A   1      39.168  34.910  38.825  1.00  0.00     0.200 A 
ATOM     48  F   UNL A   1      40.782  36.440  38.031  1.00  0.00    -0.200 F 
ATOM     49  F   UNL A   1      38.906  35.708  39.869  1.00  0.00    -0.200 F 
ENDBRANCH  25  39
BRANCH  26  50
ATOM     50  C   UNL A   1      40.815  27.767  28.353  1.00  0.00     0.064 A 
ATOM     51  C   UNL A   1      40.197  26.513  28.239  1.00  0.00     0.173 A 
ATOM     52  C   UNL A   1      41.620  28.198  27.291  1.00  0.00     0.173 A 
ATOM     53  F   UNL A   1      39.421  26.054  29.232  1.00  0.00    -0.203 F 
ATOM     54  C   UNL A   1      40.401  25.709  27.121  1.00  0.00     0.198 A 
ATOM     55  C   UNL A   1      41.802  27.404  26.160  1.00  0.00     0.198 A 
ATOM     56  F   UNL A   1      42.216  29.398  27.346  1.00  0.00    -0.203 F 
ATOM     57  F   UNL A   1      39.834  24.496  27.057  1.00  0.00    -0.200 F 
ATOM     58  C   UNL A   1      41.201  26.156  26.080  1.00  0.00     0.200 A 
ATOM     59  F   UNL A   1      42.557  27.848  25.147  1.00  0.00    -0.200 F 
ATOM     60  F   UNL A   1      41.393  25.385  25.001  1.00  0.00    -0.200 F 
ENDBRANCH  26  50
BRANCH  38  61
ATOM     61  C   UNL A   1      44.211  28.081  34.442  1.00  0.00     0.064 A 
ATOM     62  C   UNL A   1      44.039  26.870  35.130  1.00  0.00     0.173 A 
ATOM     63  C   UNL A   1      45.507  28.608  34.348  1.00  0.00     0.173 A 
ATOM     64  F   UNL A   1      42.819  26.329  35.251  1.00  0.00    -0.203 F 
ATOM     65  C   UNL A   1      45.122  26.222  35.716  1.00  0.00     0.198 A 
ATOM     66  C   UNL A   1      46.591  27.942  34.914  1.00  0.00     0.198 A 
ATOM     67  F   UNL A   1      45.723  29.756  33.688  1.00  0.00    -0.203 F 
ATOM     68  F   UNL A   1      44.930  25.082  36.396  1.00  0.00    -0.200 F 
ATOM     69  C   UNL A   1      46.397  26.756  35.606  1.00  0.00     0.200 A 
ATOM     70  F   UNL A   1      47.826  28.448  34.786  1.00  0.00    -0.200 F 
ATOM     71  F   UNL A   1      47.439  26.126  36.163  1.00  0.00    -0.200 F 
ENDBRANCH  38  61
ENDBRANCH  12  13
ENDBRANCH   5   7
ENDBRANCH   2   3
ENDBRANCH   1   2
BRANCH   1  72
ATOM     72  C   UNL A   1      31.778  30.659  26.990  1.00  0.00     0.118 C 
BRANCH  72  73
ATOM     73  N   UNL A   1      33.158  30.408  27.379  1.00  0.00    -0.352 N 
ATOM     74  C   UNL A   1      34.012  29.372  27.100  1.00  0.00     0.252 C 
ATOM     75  H   UNL A   1      33.549  31.110  27.947  1.00  0.00     0.163 HD
ATOM     76  O   UNL A   1      35.082  29.328  27.706  1.00  0.00    -0.269 OA
BRANCH  74  77
ATOM     77  C   UNL A   1      33.624  28.311  26.177  1.00  0.00     0.051 A 
ATOM     78  C   UNL A   1      33.411  26.982  26.483  1.00  0.00     0.080 A 
ATOM     79  C   UNL A   1      33.319  28.543  24.792  1.00  0.00     0.048 A 
ATOM     80  S   UNL A   1      33.150  26.018  25.094  1.00  0.00    -0.130 S 
ATOM     81  C   UNL A   1      33.239  27.379  24.054  1.00  0.00     0.141 A 
BRANCH  81  82
ATOM     82  S   UNL A   1      33.270  26.999  22.312  1.00  0.00     0.271 S 
ATOM     83  O   UNL A   1      34.071  28.050  21.723  1.00  0.00    -0.200 OA
ATOM     84  O   UNL A   1      33.657  25.605  22.230  1.00  0.00    -0.200 OA
BRANCH  82  85
ATOM     85  N   UNL A   1      31.735  27.078  21.626  1.00  0.00    -0.279 N 
ATOM     86  H   UNL A   1      31.567  26.610  20.776  1.00  0.00     0.180 HD
BRANCH  85  87
ATOM     87  C   UNL A   1      30.674  27.798  22.236  1.00  0.00     0.049 A 
ATOM     88  C   UNL A   1      29.691  27.185  23.020  1.00  0.00     0.030 A 
ATOM     89  C   UNL A   1      30.618  29.176  22.001  1.00  0.00     0.030 A 
ATOM     90  C   UNL A   1      28.595  27.931  23.462  1.00  0.00     0.041 A 
ATOM     91  C   UNL A   1      29.531  29.923  22.459  1.00  0.00     0.041 A 
ATOM     92  C   UNL A   1      28.519  29.289  23.167  1.00  0.00     0.123 A 
ATOM     93  F   UNL A   1      27.454  29.994  23.567  1.00  0.00    -0.207 F 
ENDBRANCH  85  87
ENDBRANCH  82  85
ENDBRANCH  81  82
ENDBRANCH  74  77
ENDBRANCH  72  73
ENDBRANCH   1  72
TORSDOF 13
ENDMDL
MODEL 3
REMARK VINA RESULT:     -11.9      4.528      9.196
REMARK SMILES O=C(NCCCNC(=O)c1csc(S(=O)(=O)Nc2ccc(F)cc2)c1)c1ccc(-c2c3nc(c(-c4c(F)c(F)c(F)c(F)c4F)c4ccc([nH]4)c(-c4c(F)c(F)c(F)c(F)c4F)c4nc(c(-c5c(F)c(F)c(F)c(F)c5F)c5ccc2[nH]5)C=C4)C=C3)cc1
REMARK SMILES IDX 5 1 4 2 3 3 1 4 2 5 26 7 27 8 88 9 28 10 87 11 29 12 30 13
REMARK SMILES IDX 31 14 81 15 32 16 86 17 80 18 82 19 33 20 85 21 79 22 78 23
REMARK SMILES IDX 34 25 66 26 46 27 65 28 47 29 50 30 64 31 83 32 48 33 49 34
REMARK SMILES IDX 63 36 84 37 51 38 35 39 36 40 44 41 37 42 38 43 42 44 45 45
REMARK SMILES IDX 39 46 40 47 43 48 41 49 67 50 68 51 76 52 69 53 70 54 74 55
REMARK SMILES IDX 77 56 71 57 72 58 75 59 73 60 52 61 53 62 61 63 54 64 55 65
REMARK SMILES IDX 59 66 62 67 56 68 57 69 60 70 58 71 6 72 7 73 8 74 9 76
REMARK SMILES IDX 10 77 11 78 25 79 12 80 13 81 14 82 15 83 16 84 17 85 18 87
REMARK SMILES IDX 19 88 24 89 20 90 23 91 21 92 22 93
REMARK H PARENT 3 6 82 24 50 35 7 75 17 86
REMARK Flexibility Score: inf
ROOT
ATOM      1  C   UNL A   1      35.157  22.804  25.645  1.00  0.00     0.042 C 
ENDROOT
BRANCH   1   2
ATOM      2  C   UNL A   1      36.440  23.481  26.109  1.00  0.00     0.118 C 
BRANCH   2   3
ATOM      3  N   UNL A   1      37.596  22.596  26.092  1.00  0.00    -0.352 N 
ATOM      4  O   UNL A   1      39.747  21.953  26.128  1.00  0.00    -0.269 OA
ATOM      5  C   UNL A   1      38.920  22.829  26.373  1.00  0.00     0.251 C 
ATOM      6  H   UNL A   1      37.393  21.669  25.832  1.00  0.00     0.163 HD
BRANCH   5   7
ATOM      7  C   UNL A   1      39.374  24.117  26.946  1.00  0.00     0.039 A 
ATOM      8  C   UNL A   1      39.262  24.389  28.309  1.00  0.00     0.014 A 
ATOM      9  C   UNL A   1      39.988  25.051  26.103  1.00  0.00     0.014 A 
ATOM     10  C   UNL A   1      39.620  25.641  28.801  1.00  0.00     0.010 A 
ATOM     11  C   UNL A   1      40.433  26.274  26.615  1.00  0.00     0.010 A 
ATOM     12  C   UNL A   1      40.226  26.593  27.964  1.00  0.00    -0.014 A 
BRANCH  12  13
ATOM     13  C   UNL A   1      40.693  27.879  28.543  1.00  0.00     0.031 A 
ATOM     14  C   UNL A   1      42.152  28.138  28.790  1.00  0.00     0.074 A 
ATOM     15  C   UNL A   1      39.783  28.835  28.813  1.00  0.00     0.049 A 
ATOM     16  N   UNL A   1      42.728  29.216  29.263  1.00  0.00    -0.248 NA
ATOM     17  C   UNL A   1      43.090  27.051  28.470  1.00  0.00     0.031 C 
ATOM     18  C   UNL A   1      38.338  28.695  28.623  1.00  0.00     0.029 A 
ATOM     19  N   UNL A   1      39.933  30.117  29.281  1.00  0.00    -0.354 N 
ATOM     20  C   UNL A   1      44.087  28.934  29.310  1.00  0.00     0.074 A 
ATOM     21  C   UNL A   1      44.251  27.574  28.842  1.00  0.00     0.031 C 
ATOM     22  C   UNL A   1      37.740  29.858  28.918  1.00  0.00     0.029 A 
ATOM     23  C   UNL A   1      38.749  30.806  29.378  1.00  0.00     0.049 A 
ATOM     24  H   UNL A   1      40.805  30.504  29.524  1.00  0.00     0.167 HD
ATOM     25  C   UNL A   1      45.101  29.743  29.697  1.00  0.00     0.037 A 
ATOM     26  C   UNL A   1      38.498  32.060  29.801  1.00  0.00     0.037 A 
ATOM     27  C   UNL A   1      44.934  31.102  30.144  1.00  0.00     0.049 A 
ATOM     28  C   UNL A   1      39.639  32.922  30.253  1.00  0.00     0.074 A 
ATOM     29  C   UNL A   1      45.908  32.010  30.525  1.00  0.00     0.029 A 
ATOM     30  N   UNL A   1      43.714  31.749  30.272  1.00  0.00    -0.354 N 
ATOM     31  N   UNL A   1      40.921  32.649  30.271  1.00  0.00    -0.248 NA
ATOM     32  C   UNL A   1      39.302  34.263  30.751  1.00  0.00     0.031 C 
ATOM     33  C   UNL A   1      45.276  33.190  30.926  1.00  0.00     0.029 A 
ATOM     34  C   UNL A   1      43.910  33.037  30.749  1.00  0.00     0.049 A 
ATOM     35  H   UNL A   1      42.838  31.354  30.057  1.00  0.00     0.167 HD
ATOM     36  C   UNL A   1      41.544  33.784  30.770  1.00  0.00     0.074 A 
ATOM     37  C   UNL A   1      40.502  34.757  31.026  1.00  0.00     0.031 C 
ATOM     38  C   UNL A   1      42.862  33.994  31.001  1.00  0.00     0.037 A 
BRANCH  25  39
ATOM     39  C   UNL A   1      46.496  29.191  29.661  1.00  0.00     0.064 A 
ATOM     40  C   UNL A   1      47.275  29.300  28.499  1.00  0.00     0.173 A 
ATOM     41  C   UNL A   1      47.031  28.477  30.743  1.00  0.00     0.173 A 
ATOM     42  F   UNL A   1      46.807  29.967  27.432  1.00  0.00    -0.203 F 
ATOM     43  C   UNL A   1      48.529  28.701  28.415  1.00  0.00     0.198 A 
ATOM     44  C   UNL A   1      48.295  27.899  30.665  1.00  0.00     0.198 A 
ATOM     45  F   UNL A   1      46.331  28.351  31.881  1.00  0.00    -0.203 F 
ATOM     46  F   UNL A   1      49.239  28.789  27.282  1.00  0.00    -0.200 F 
ATOM     47  C   UNL A   1      49.039  28.002  29.499  1.00  0.00     0.200 A 
ATOM     48  F   UNL A   1      48.796  27.240  31.720  1.00  0.00    -0.200 F 
ATOM     49  F   UNL A   1      50.247  27.429  29.420  1.00  0.00    -0.200 F 
ENDBRANCH  25  39
BRANCH  26  50
ATOM     50  C   UNL A   1      37.100  32.560  29.804  1.00  0.00     0.064 A 
ATOM     51  C   UNL A   1      36.576  33.261  28.707  1.00  0.00     0.173 A 
ATOM     52  C   UNL A   1      36.277  32.390  30.924  1.00  0.00     0.173 A 
ATOM     53  F   UNL A   1      37.327  33.454  27.613  1.00  0.00    -0.203 F 
ATOM     54  C   UNL A   1      35.292  33.797  28.743  1.00  0.00     0.198 A 
ATOM     55  C   UNL A   1      34.982  32.904  30.949  1.00  0.00     0.198 A 
ATOM     56  F   UNL A   1      36.728  31.711  31.989  1.00  0.00    -0.203 F 
ATOM     57  F   UNL A   1      34.832  34.500  27.699  1.00  0.00    -0.200 F 
ATOM     58  C   UNL A   1      34.494  33.615  29.863  1.00  0.00     0.200 A 
ATOM     59  F   UNL A   1      34.206  32.708  32.023  1.00  0.00    -0.200 F 
ATOM     60  F   UNL A   1      33.256  34.126  29.896  1.00  0.00    -0.200 F 
ENDBRANCH  26  50
BRANCH  38  61
ATOM     61  C   UNL A   1      43.263  35.331  31.549  1.00  0.00     0.064 A 
ATOM     62  C   UNL A   1      43.172  35.594  32.924  1.00  0.00     0.173 A 
ATOM     63  C   UNL A   1      43.670  36.373  30.703  1.00  0.00     0.173 A 
ATOM     64  F   UNL A   1      42.782  34.631  33.771  1.00  0.00    -0.203 F 
ATOM     65  C   UNL A   1      43.460  36.857  33.430  1.00  0.00     0.198 A 
ATOM     66  C   UNL A   1      43.983  37.628  31.218  1.00  0.00     0.198 A 
ATOM     67  F   UNL A   1      43.787  36.165  29.383  1.00  0.00    -0.203 F 
ATOM     68  F   UNL A   1      43.336  37.095  34.744  1.00  0.00    -0.200 F 
ATOM     69  C   UNL A   1      43.868  37.873  32.578  1.00  0.00     0.200 A 
ATOM     70  F   UNL A   1      44.400  38.602  30.396  1.00  0.00    -0.200 F 
ATOM     71  F   UNL A   1      44.154  39.086  33.069  1.00  0.00    -0.200 F 
ENDBRANCH  38  61
ENDBRANCH  12  13
ENDBRANCH   5   7
ENDBRANCH   2   3
ENDBRANCH   1   2
BRANCH   1  72
ATOM     72  C   UNL A   1      34.514  21.871  26.667  1.00  0.00     0.118 C 
BRANCH  72  73
ATOM     73  N   UNL A   1      33.795  20.762  26.059  1.00  0.00    -0.352 N 
ATOM     74  C   UNL A   1      32.657  20.720  25.294  1.00  0.00     0.252 C 
ATOM     75  H   UNL A   1      34.199  19.880  26.228  1.00  0.00     0.163 HD
ATOM     76  O   UNL A   1      32.166  19.617  25.052  1.00  0.00    -0.269 OA
BRANCH  74  77
ATOM     77  C   UNL A   1      32.004  21.948  24.857  1.00  0.00     0.051 A 
ATOM     78  C   UNL A   1      31.897  22.415  23.562  1.00  0.00     0.080 A 
ATOM     79  C   UNL A   1      31.287  22.820  25.747  1.00  0.00     0.048 A 
ATOM     80  S   UNL A   1      31.220  23.984  23.481  1.00  0.00    -0.130 S 
ATOM     81  C   UNL A   1      30.983  24.041  25.178  1.00  0.00     0.141 A 
BRANCH  81  82
ATOM     82  S   UNL A   1      30.476  25.626  25.819  1.00  0.00     0.271 S 
ATOM     83  O   UNL A   1      30.564  26.523  24.687  1.00  0.00    -0.200 OA
ATOM     84  O   UNL A   1      29.225  25.380  26.505  1.00  0.00    -0.200 OA
BRANCH  82  85
ATOM     85  N   UNL A   1      31.532  26.189  27.003  1.00  0.00    -0.279 N 
ATOM     86  H   UNL A   1      31.659  25.657  27.822  1.00  0.00     0.180 HD
BRANCH  85  87
ATOM     87  C   UNL A   1      32.247  27.407  26.857  1.00  0.00     0.049 A 
ATOM     88  C   UNL A   1      33.553  27.468  26.360  1.00  0.00     0.030 A 
ATOM     89  C   UNL A   1      31.603  28.580  27.265  1.00  0.00     0.030 A 
ATOM     90  C   UNL A   1      34.248  28.680  26.387  1.00  0.00     0.041 A 
ATOM     91  C   UNL A   1      32.292  29.793  27.274  1.00  0.00     0.041 A 
ATOM     92  C   UNL A   1      33.615  29.829  26.855  1.00  0.00     0.123 A 
ATOM     93  F   UNL A   1      34.292  30.982  26.905  1.00  0.00    -0.207 F 
ENDBRANCH  85  87
ENDBRANCH  82  85
ENDBRANCH  81  82
ENDBRANCH  74  77
ENDBRANCH  72  73
ENDBRANCH   1  72
TORSDOF 13
ENDMDL
