MODEL 1
REMARK VINA RESULT:     -11.8      0.000      0.000
REMARK SMILES C[C@H](CC(=O)NCCCNC(=O)c1ccc(-c2c3nc(c(-c4c(F)c(F)c(F)c(F)c4F)c4ccc([nH]4)c(-c4c(F)c(F)c(F)c(F)c4F)c4nc(c(-c5c(F)c(F)c(F)c(F)c5F)c5ccc2[nH]5)C=C4)C=C3)cc1)N1C(=O)CCCC1=O
REMARK SMILES IDX 8 1 7 2 6 3 4 4 5 5 3 7 2 8 1 9 76 10 77 11 82 12 78 13
REMARK SMILES IDX 79 14 81 15 83 16 80 17 9 18 10 19 11 20 12 22 13 23 14 24
REMARK SMILES IDX 75 25 15 26 74 27 16 28 17 29 18 30 68 31 19 32 73 33 67 34
REMARK SMILES IDX 69 35 20 36 72 37 66 38 65 39 21 41 53 42 33 43 52 44 34 45
REMARK SMILES IDX 37 46 51 47 70 48 35 49 36 50 50 52 71 53 38 54 22 55 23 56
REMARK SMILES IDX 31 57 24 58 25 59 29 60 32 61 26 62 27 63 30 64 28 65 54 66
REMARK SMILES IDX 55 67 63 68 56 69 57 70 61 71 64 72 58 73 59 74 62 75 60 76
REMARK SMILES IDX 39 77 40 78 48 79 41 80 42 81 46 82 49 83 43 84 44 85 47 86
REMARK SMILES IDX 45 87
REMARK H PARENT 6 6 10 21 69 40 37 51
REMARK Flexibility Score: inf
ROOT
ATOM      1  C   UNL A   1      37.830  19.665  24.996  1.00  0.00     0.042 C 
ENDROOT
BRANCH   1   2
ATOM      2  C   UNL A   1      36.625  20.597  25.000  1.00  0.00     0.117 C 
BRANCH   2   3
ATOM      3  N   UNL A   1      35.373  19.858  25.049  1.00  0.00    -0.356 N 
ATOM      4  C   UNL A   1      34.083  20.306  25.038  1.00  0.00     0.222 C 
ATOM      5  O   UNL A   1      33.180  19.470  25.032  1.00  0.00    -0.275 OA
ATOM      6  H   UNL A   1      35.472  18.880  25.099  1.00  0.00     0.163 HD
BRANCH   4   7
ATOM      7  C   UNL A   1      33.788  21.788  24.946  1.00  0.00     0.125 C 
BRANCH   7   8
ATOM      8  C   UNL A   1      33.301  22.472  26.236  1.00  0.00     0.099 C 
ATOM      9  C   UNL A   1      34.076  22.067  27.496  1.00  0.00     0.032 C 
BRANCH   8  10
ATOM     10  N   UNL A   1      33.041  23.927  26.110  1.00  0.00    -0.279 N 
ATOM     11  C   UNL A   1      34.127  24.715  25.719  1.00  0.00     0.229 C 
ATOM     12  C   UNL A   1      31.845  24.466  26.576  1.00  0.00     0.229 C 
ATOM     13  O   UNL A   1      35.273  24.273  25.607  1.00  0.00    -0.274 OA
ATOM     14  C   UNL A   1      33.863  26.170  25.404  1.00  0.00     0.101 C 
ATOM     15  C   UNL A   1      31.539  25.890  26.169  1.00  0.00     0.101 C 
ATOM     16  O   UNL A   1      31.042  23.860  27.281  1.00  0.00    -0.274 OA
ATOM     17  C   UNL A   1      32.764  26.768  26.250  1.00  0.00     0.020 C 
ENDBRANCH   8  10
ENDBRANCH   7   8
ENDBRANCH   4   7
ENDBRANCH   2   3
ENDBRANCH   1   2
BRANCH   1  18
ATOM     18  C   UNL A   1      39.050  20.232  25.726  1.00  0.00     0.118 C 
BRANCH  18  19
ATOM     19  N   UNL A   1      40.091  19.226  25.861  1.00  0.00    -0.352 N 
ATOM     20  C   UNL A   1      41.450  19.325  26.009  1.00  0.00     0.251 C 
ATOM     21  H   UNL A   1      39.758  18.300  25.843  1.00  0.00     0.163 HD
ATOM     22  O   UNL A   1      42.125  18.309  25.815  1.00  0.00    -0.269 OA
BRANCH  20  23
ATOM     23  C   UNL A   1      42.152  20.577  26.398  1.00  0.00     0.039 A 
ATOM     24  C   UNL A   1      42.135  20.939  27.753  1.00  0.00     0.014 A 
ATOM     25  C   UNL A   1      42.678  21.479  25.470  1.00  0.00     0.014 A 
ATOM     26  C   UNL A   1      42.630  22.181  28.174  1.00  0.00     0.010 A 
ATOM     27  C   UNL A   1      43.226  22.697  25.896  1.00  0.00     0.010 A 
ATOM     28  C   UNL A   1      43.180  23.077  27.247  1.00  0.00    -0.014 A 
BRANCH  28  29
ATOM     29  C   UNL A   1      43.622  24.441  27.659  1.00  0.00     0.031 A 
ATOM     30  C   UNL A   1      42.597  25.486  28.026  1.00  0.00     0.074 A 
ATOM     31  C   UNL A   1      44.929  24.764  27.705  1.00  0.00     0.049 A 
ATOM     32  N   UNL A   1      42.762  26.762  28.278  1.00  0.00    -0.248 NA
ATOM     33  C   UNL A   1      41.199  25.036  28.113  1.00  0.00     0.031 C 
ATOM     34  C   UNL A   1      46.037  23.855  27.416  1.00  0.00     0.029 A 
ATOM     35  N   UNL A   1      45.546  25.955  28.008  1.00  0.00    -0.354 N 
ATOM     36  C   UNL A   1      41.493  27.268  28.529  1.00  0.00     0.074 A 
ATOM     37  C   UNL A   1      40.563  26.169  28.376  1.00  0.00     0.031 C 
ATOM     38  C   UNL A   1      47.197  24.517  27.561  1.00  0.00     0.029 A 
ATOM     39  C   UNL A   1      46.915  25.908  27.909  1.00  0.00     0.049 A 
ATOM     40  H   UNL A   1      45.052  26.765  28.271  1.00  0.00     0.167 HD
ATOM     41  C   UNL A   1      41.131  28.529  28.868  1.00  0.00     0.037 A 
ATOM     42  C   UNL A   1      47.838  26.880  28.058  1.00  0.00     0.037 A 
ATOM     43  C   UNL A   1      42.044  29.625  29.059  1.00  0.00     0.049 A 
ATOM     44  C   UNL A   1      47.407  28.283  28.395  1.00  0.00     0.074 A 
ATOM     45  C   UNL A   1      41.760  30.939  29.393  1.00  0.00     0.029 A 
ATOM     46  N   UNL A   1      43.421  29.532  28.947  1.00  0.00    -0.354 N 
ATOM     47  N   UNL A   1      46.201  28.751  28.603  1.00  0.00    -0.248 NA
ATOM     48  C   UNL A   1      48.469  29.294  28.513  1.00  0.00     0.031 C 
ATOM     49  C   UNL A   1      42.965  31.646  29.466  1.00  0.00     0.029 A 
ATOM     50  C   UNL A   1      44.000  30.764  29.208  1.00  0.00     0.049 A 
ATOM     51  H   UNL A   1      43.917  28.712  28.719  1.00  0.00     0.167 HD
ATOM     52  C   UNL A   1      46.362  30.097  28.906  1.00  0.00     0.074 A 
ATOM     53  C   UNL A   1      47.782  30.373  28.861  1.00  0.00     0.031 C 
ATOM     54  C   UNL A   1      45.415  31.022  29.192  1.00  0.00     0.037 A 
BRANCH  41  55
ATOM     55  C   UNL A   1      39.670  28.803  29.060  1.00  0.00     0.064 A 
ATOM     56  C   UNL A   1      39.059  28.663  30.314  1.00  0.00     0.173 A 
ATOM     57  C   UNL A   1      38.887  29.270  27.993  1.00  0.00     0.173 A 
ATOM     58  F   UNL A   1      39.765  28.209  31.361  1.00  0.00    -0.203 F 
ATOM     59  C   UNL A   1      37.712  28.967  30.490  1.00  0.00     0.198 A 
ATOM     60  C   UNL A   1      37.546  29.593  28.179  1.00  0.00     0.198 A 
ATOM     61  F   UNL A   1      39.429  29.427  26.776  1.00  0.00    -0.203 F 
ATOM     62  F   UNL A   1      37.140  28.797  31.691  1.00  0.00    -0.200 F 
ATOM     63  C   UNL A   1      36.959  29.438  29.426  1.00  0.00     0.200 A 
ATOM     64  F   UNL A   1      36.823  30.060  27.151  1.00  0.00    -0.200 F 
ATOM     65  F   UNL A   1      35.665  29.740  29.599  1.00  0.00    -0.200 F 
ENDBRANCH  41  55
BRANCH  42  66
ATOM     66  C   UNL A   1      49.279  26.569  27.877  1.00  0.00     0.064 A 
ATOM     67  C   UNL A   1      50.116  26.371  28.984  1.00  0.00     0.173 A 
ATOM     68  C   UNL A   1      49.854  26.505  26.601  1.00  0.00     0.173 A 
ATOM     69  F   UNL A   1      49.614  26.452  30.224  1.00  0.00    -0.203 F 
ATOM     70  C   UNL A   1      51.480  26.138  28.820  1.00  0.00     0.198 A 
ATOM     71  C   UNL A   1      51.213  26.248  26.438  1.00  0.00     0.198 A 
ATOM     72  F   UNL A   1      49.094  26.691  25.511  1.00  0.00    -0.203 F 
ATOM     73  F   UNL A   1      52.267  25.998  29.896  1.00  0.00    -0.200 F 
ATOM     74  C   UNL A   1      52.027  26.073  27.547  1.00  0.00     0.200 A 
ATOM     75  F   UNL A   1      51.736  26.177  25.206  1.00  0.00    -0.200 F 
ATOM     76  F   UNL A   1      53.339  25.852  27.390  1.00  0.00    -0.200 F 
ENDBRANCH  42  66
BRANCH  54  77
ATOM     77  C   UNL A   1      45.878  32.406  29.536  1.00  0.00     0.064 A 
ATOM     78  C   UNL A   1      46.196  32.768  30.852  1.00  0.00     0.173 A 
ATOM     79  C   UNL A   1      46.049  33.365  28.527  1.00  0.00     0.173 A 
ATOM     80  F   UNL A   1      46.035  31.888  31.852  1.00  0.00    -0.203 F 
ATOM     81  C   UNL A   1      46.655  34.049  31.149  1.00  0.00     0.198 A 
ATOM     82  C   UNL A   1      46.527  34.639  28.825  1.00  0.00     0.198 A 
ATOM     83  F   UNL A   1      45.761  33.065  27.252  1.00  0.00    -0.203 F 
ATOM     84  F   UNL A   1      46.923  34.385  32.418  1.00  0.00    -0.200 F 
ATOM     85  C   UNL A   1      46.826  34.981  30.136  1.00  0.00     0.200 A 
ATOM     86  F   UNL A   1      46.699  35.536  27.844  1.00  0.00    -0.200 F 
ATOM     87  F   UNL A   1      47.273  36.211  30.423  1.00  0.00    -0.200 F 
ENDBRANCH  54  77
ENDBRANCH  28  29
ENDBRANCH  20  23
ENDBRANCH  18  19
ENDBRANCH   1  18
TORSDOF 12
ENDMDL
MODEL 2
REMARK VINA RESULT:     -11.8      5.825     10.938
REMARK SMILES C[C@H](CC(=O)NCCCNC(=O)c1ccc(-c2c3nc(c(-c4c(F)c(F)c(F)c(F)c4F)c4ccc([nH]4)c(-c4c(F)c(F)c(F)c(F)c4F)c4nc(c(-c5c(F)c(F)c(F)c(F)c5F)c5ccc2[nH]5)C=C4)C=C3)cc1)N1C(=O)CCCC1=O
REMARK SMILES IDX 8 1 7 2 6 3 4 4 5 5 3 7 2 8 1 9 76 10 77 11 82 12 78 13
REMARK SMILES IDX 79 14 81 15 83 16 80 17 9 18 10 19 11 20 12 22 13 23 14 24
REMARK SMILES IDX 75 25 15 26 74 27 16 28 17 29 18 30 68 31 19 32 73 33 67 34
REMARK SMILES IDX 69 35 20 36 72 37 66 38 65 39 21 41 53 42 33 43 52 44 34 45
REMARK SMILES IDX 37 46 51 47 70 48 35 49 36 50 50 52 71 53 38 54 22 55 23 56
REMARK SMILES IDX 31 57 24 58 25 59 29 60 32 61 26 62 27 63 30 64 28 65 54 66
REMARK SMILES IDX 55 67 63 68 56 69 57 70 61 71 64 72 58 73 59 74 62 75 60 76
REMARK SMILES IDX 39 77 40 78 48 79 41 80 42 81 46 82 49 83 43 84 44 85 47 86
REMARK SMILES IDX 45 87
REMARK H PARENT 6 6 10 21 69 40 37 51
REMARK Flexibility Score: inf
ROOT
ATOM      1  C   UNL A   1      31.413  32.023  26.510  1.00  0.00     0.042 C 
ENDROOT
BRANCH   1   2
ATOM      2  C   UNL A   1      31.604  30.622  25.941  1.00  0.00     0.117 C 
BRANCH   2   3
ATOM      3  N   UNL A   1      30.837  30.428  24.720  1.00  0.00    -0.356 N 
ATOM      4  C   UNL A   1      30.723  29.330  23.915  1.00  0.00     0.222 C 
ATOM      5  O   UNL A   1      29.957  29.395  22.953  1.00  0.00    -0.275 OA
ATOM      6  H   UNL A   1      30.319  31.212  24.427  1.00  0.00     0.163 HD
BRANCH   4   7
ATOM      7  C   UNL A   1      31.453  28.049  24.259  1.00  0.00     0.125 C 
BRANCH   7   8
ATOM      8  C   UNL A   1      32.686  27.711  23.402  1.00  0.00     0.099 C 
ATOM      9  C   UNL A   1      33.639  28.891  23.174  1.00  0.00     0.032 C 
BRANCH   8  10
ATOM     10  N   UNL A   1      33.355  26.433  23.750  1.00  0.00    -0.279 N 
ATOM     11  C   UNL A   1      33.837  26.327  25.058  1.00  0.00     0.229 C 
ATOM     12  C   UNL A   1      33.665  25.512  22.753  1.00  0.00     0.229 C 
ATOM     13  O   UNL A   1      33.837  27.269  25.853  1.00  0.00    -0.274 OA
ATOM     14  C   UNL A   1      34.361  24.982  25.507  1.00  0.00     0.101 C 
ATOM     15  C   UNL A   1      34.089  24.136  23.211  1.00  0.00     0.101 C 
ATOM     16  O   UNL A   1      33.611  25.753  21.550  1.00  0.00    -0.274 OA
ATOM     17  C   UNL A   1      35.023  24.204  24.394  1.00  0.00     0.020 C 
ENDBRANCH   8  10
ENDBRANCH   7   8
ENDBRANCH   4   7
ENDBRANCH   2   3
ENDBRANCH   1   2
BRANCH   1  18
ATOM     18  C   UNL A   1      32.628  32.545  27.280  1.00  0.00     0.118 C 
BRANCH  18  19
ATOM     19  N   UNL A   1      32.486  33.961  27.580  1.00  0.00    -0.352 N 
ATOM     20  C   UNL A   1      33.027  34.752  28.559  1.00  0.00     0.251 C 
ATOM     21  H   UNL A   1      31.887  34.443  26.964  1.00  0.00     0.163 HD
ATOM     22  O   UNL A   1      32.516  35.859  28.754  1.00  0.00    -0.269 OA
BRANCH  20  23
ATOM     23  C   UNL A   1      34.197  34.357  29.389  1.00  0.00     0.039 A 
ATOM     24  C   UNL A   1      35.471  34.464  28.812  1.00  0.00     0.014 A 
ATOM     25  C   UNL A   1      34.076  33.741  30.637  1.00  0.00     0.014 A 
ATOM     26  C   UNL A   1      36.604  33.961  29.466  1.00  0.00     0.010 A 
ATOM     27  C   UNL A   1      35.216  33.289  31.318  1.00  0.00     0.010 A 
ATOM     28  C   UNL A   1      36.489  33.364  30.729  1.00  0.00    -0.014 A 
BRANCH  28  29
ATOM     29  C   UNL A   1      37.664  32.736  31.397  1.00  0.00     0.031 A 
ATOM     30  C   UNL A   1      38.401  31.606  30.719  1.00  0.00     0.074 A 
ATOM     31  C   UNL A   1      38.082  33.155  32.607  1.00  0.00     0.049 A 
ATOM     32  N   UNL A   1      39.357  30.838  31.185  1.00  0.00    -0.248 NA
ATOM     33  C   UNL A   1      38.005  31.296  29.337  1.00  0.00     0.031 C 
ATOM     34  C   UNL A   1      37.497  34.257  33.370  1.00  0.00     0.029 A 
ATOM     35  N   UNL A   1      39.098  32.695  33.411  1.00  0.00    -0.354 N 
ATOM     36  C   UNL A   1      39.657  29.944  30.165  1.00  0.00     0.074 A 
ATOM     37  C   UNL A   1      38.767  30.247  29.063  1.00  0.00     0.031 C 
ATOM     38  C   UNL A   1      38.166  34.392  34.528  1.00  0.00     0.029 A 
ATOM     39  C   UNL A   1      39.197  33.359  34.610  1.00  0.00     0.049 A 
ATOM     40  H   UNL A   1      39.697  31.958  33.152  1.00  0.00     0.167 HD
ATOM     41  C   UNL A   1      40.595  28.966  30.139  1.00  0.00     0.037 A 
ATOM     42  C   UNL A   1      40.010  33.147  35.664  1.00  0.00     0.037 A 
ATOM     43  C   UNL A   1      41.509  28.673  31.210  1.00  0.00     0.049 A 
ATOM     44  C   UNL A   1      41.016  32.028  35.627  1.00  0.00     0.074 A 
ATOM     45  C   UNL A   1      42.485  27.692  31.270  1.00  0.00     0.029 A 
ATOM     46  N   UNL A   1      41.574  29.372  32.404  1.00  0.00    -0.354 N 
ATOM     47  N   UNL A   1      41.269  31.174  34.666  1.00  0.00    -0.248 NA
ATOM     48  C   UNL A   1      41.848  31.841  36.826  1.00  0.00     0.031 C 
ATOM     49  C   UNL A   1      43.128  27.785  32.509  1.00  0.00     0.029 A 
ATOM     50  C   UNL A   1      42.573  28.843  33.207  1.00  0.00     0.049 A 
ATOM     51  H   UNL A   1      40.997  30.132  32.648  1.00  0.00     0.167 HD
ATOM     52  C   UNL A   1      42.305  30.374  35.131  1.00  0.00     0.074 A 
ATOM     53  C   UNL A   1      42.639  30.844  36.458  1.00  0.00     0.031 C 
ATOM     54  C   UNL A   1      42.920  29.338  34.512  1.00  0.00     0.037 A 
BRANCH  41  55
ATOM     55  C   UNL A   1      40.685  28.126  28.901  1.00  0.00     0.064 A 
ATOM     56  C   UNL A   1      39.936  26.950  28.759  1.00  0.00     0.173 A 
ATOM     57  C   UNL A   1      41.482  28.536  27.820  1.00  0.00     0.173 A 
ATOM     58  F   UNL A   1      39.168  26.514  29.769  1.00  0.00    -0.203 F 
ATOM     59  C   UNL A   1      39.992  26.205  27.585  1.00  0.00     0.198 A 
ATOM     60  C   UNL A   1      41.518  27.799  26.640  1.00  0.00     0.198 A 
ATOM     61  F   UNL A   1      42.212  29.658  27.906  1.00  0.00    -0.203 F 
ATOM     62  F   UNL A   1      39.290  25.067  27.481  1.00  0.00    -0.200 F 
ATOM     63  C   UNL A   1      40.777  26.632  26.524  1.00  0.00     0.200 A 
ATOM     64  F   UNL A   1      42.268  28.220  25.612  1.00  0.00    -0.200 F 
ATOM     65  F   UNL A   1      40.821  25.919  25.391  1.00  0.00    -0.200 F 
ENDBRANCH  41  55
BRANCH  42  66
ATOM     66  C   UNL A   1      39.904  34.010  36.868  1.00  0.00     0.064 A 
ATOM     67  C   UNL A   1      39.056  33.663  37.930  1.00  0.00     0.173 A 
ATOM     68  C   UNL A   1      40.614  35.214  36.965  1.00  0.00     0.173 A 
ATOM     69  F   UNL A   1      38.335  32.534  37.867  1.00  0.00    -0.203 F 
ATOM     70  C   UNL A   1      38.909  34.498  39.034  1.00  0.00     0.198 A 
ATOM     71  C   UNL A   1      40.484  36.037  38.081  1.00  0.00     0.198 A 
ATOM     72  F   UNL A   1      41.436  35.591  35.974  1.00  0.00    -0.203 F 
ATOM     73  F   UNL A   1      38.056  34.166  40.014  1.00  0.00    -0.200 F 
ATOM     74  C   UNL A   1      39.626  35.683  39.111  1.00  0.00     0.200 A 
ATOM     75  F   UNL A   1      41.186  37.177  38.156  1.00  0.00    -0.200 F 
ATOM     76  F   UNL A   1      39.481  36.488  40.172  1.00  0.00    -0.200 F 
ENDBRANCH  42  66
BRANCH  54  77
ATOM     77  C   UNL A   1      44.055  28.674  35.232  1.00  0.00     0.064 A 
ATOM     78  C   UNL A   1      43.843  27.595  36.101  1.00  0.00     0.173 A 
ATOM     79  C   UNL A   1      45.375  29.094  35.012  1.00  0.00     0.173 A 
ATOM     80  F   UNL A   1      42.596  27.167  36.354  1.00  0.00    -0.203 F 
ATOM     81  C   UNL A   1      44.912  26.970  36.737  1.00  0.00     0.198 A 
ATOM     82  C   UNL A   1      46.443  28.454  35.635  1.00  0.00     0.198 A 
ATOM     83  F   UNL A   1      45.629  30.121  34.186  1.00  0.00    -0.203 F 
ATOM     84  F   UNL A   1      44.685  25.960  37.589  1.00  0.00    -0.200 F 
ATOM     85  C   UNL A   1      46.211  27.394  36.499  1.00  0.00     0.200 A 
ATOM     86  F   UNL A   1      47.698  28.861  35.397  1.00  0.00    -0.200 F 
ATOM     87  F   UNL A   1      47.239  26.787  37.109  1.00  0.00    -0.200 F 
ENDBRANCH  54  77
ENDBRANCH  28  29
ENDBRANCH  20  23
ENDBRANCH  18  19
ENDBRANCH   1  18
TORSDOF 12
ENDMDL
MODEL 3
REMARK VINA RESULT:     -11.8      4.847     10.029
REMARK SMILES C[C@H](CC(=O)NCCCNC(=O)c1ccc(-c2c3nc(c(-c4c(F)c(F)c(F)c(F)c4F)c4ccc([nH]4)c(-c4c(F)c(F)c(F)c(F)c4F)c4nc(c(-c5c(F)c(F)c(F)c(F)c5F)c5ccc2[nH]5)C=C4)C=C3)cc1)N1C(=O)CCCC1=O
REMARK SMILES IDX 8 1 7 2 6 3 4 4 5 5 3 7 2 8 1 9 76 10 77 11 82 12 78 13
REMARK SMILES IDX 79 14 81 15 83 16 80 17 9 18 10 19 11 20 12 22 13 23 14 24
REMARK SMILES IDX 75 25 15 26 74 27 16 28 17 29 18 30 68 31 19 32 73 33 67 34
REMARK SMILES IDX 69 35 20 36 72 37 66 38 65 39 21 41 53 42 33 43 52 44 34 45
REMARK SMILES IDX 37 46 51 47 70 48 35 49 36 50 50 52 71 53 38 54 22 55 23 56
REMARK SMILES IDX 31 57 24 58 25 59 29 60 32 61 26 62 27 63 30 64 28 65 54 66
REMARK SMILES IDX 55 67 63 68 56 69 57 70 61 71 64 72 58 73 59 74 62 75 60 76
REMARK SMILES IDX 39 77 40 78 48 79 41 80 42 81 46 82 49 83 43 84 44 85 47 86
REMARK SMILES IDX 45 87
REMARK H PARENT 6 6 10 21 69 40 37 51
REMARK Flexibility Score: inf
ROOT
ATOM      1  C   UNL A   1      31.373  28.697  25.051  1.00  0.00     0.042 C 
ENDROOT
BRANCH   1   2
ATOM      2  C   UNL A   1      31.209  28.615  23.539  1.00  0.00     0.117 C 
BRANCH   2   3
ATOM      3  N   UNL A   1      32.472  28.328  22.875  1.00  0.00    -0.356 N 
ATOM      4  C   UNL A   1      32.910  27.187  22.268  1.00  0.00     0.222 C 
ATOM      5  O   UNL A   1      34.013  27.208  21.721  1.00  0.00    -0.275 OA
ATOM      6  H   UNL A   1      33.112  29.076  22.864  1.00  0.00     0.163 HD
BRANCH   4   7
ATOM      7  C   UNL A   1      32.018  25.965  22.198  1.00  0.00     0.125 C 
BRANCH   7   8
ATOM      8  C   UNL A   1      31.991  25.063  23.445  1.00  0.00     0.099 C 
ATOM      9  C   UNL A   1      30.811  24.083  23.489  1.00  0.00     0.032 C 
BRANCH   8  10
ATOM     10  N   UNL A   1      33.300  24.472  23.815  1.00  0.00    -0.279 N 
ATOM     11  C   UNL A   1      33.889  24.961  24.985  1.00  0.00     0.229 C 
ATOM     12  C   UNL A   1      33.976  23.650  22.917  1.00  0.00     0.229 C 
ATOM     13  O   UNL A   1      33.434  25.917  25.617  1.00  0.00    -0.274 OA
ATOM     14  C   UNL A   1      35.129  24.263  25.495  1.00  0.00     0.101 C 
ATOM     15  C   UNL A   1      35.153  22.874  23.461  1.00  0.00     0.101 C 
ATOM     16  O   UNL A   1      33.671  23.523  21.734  1.00  0.00    -0.274 OA
ATOM     17  C   UNL A   1      35.997  23.717  24.386  1.00  0.00     0.020 C 
ENDBRANCH   8  10
ENDBRANCH   7   8
ENDBRANCH   4   7
ENDBRANCH   2   3
ENDBRANCH   1   2
BRANCH   1  18
ATOM     18  C   UNL A   1      32.662  29.395  25.493  1.00  0.00     0.118 C 
BRANCH  18  19
ATOM     19  N   UNL A   1      32.388  30.743  25.967  1.00  0.00    -0.352 N 
ATOM     20  C   UNL A   1      32.988  31.520  26.922  1.00  0.00     0.251 C 
ATOM     21  H   UNL A   1      31.629  31.179  25.517  1.00  0.00     0.163 HD
ATOM     22  O   UNL A   1      32.377  32.517  27.321  1.00  0.00    -0.269 OA
BRANCH  20  23
ATOM     23  C   UNL A   1      34.331  31.238  27.495  1.00  0.00     0.039 A 
ATOM     24  C   UNL A   1      34.626  29.912  27.845  1.00  0.00     0.014 A 
ATOM     25  C   UNL A   1      35.238  32.241  27.848  1.00  0.00     0.014 A 
ATOM     26  C   UNL A   1      35.801  29.592  28.538  1.00  0.00     0.010 A 
ATOM     27  C   UNL A   1      36.442  31.915  28.490  1.00  0.00     0.010 A 
ATOM     28  C   UNL A   1      36.724  30.593  28.871  1.00  0.00    -0.014 A 
BRANCH  28  29
ATOM     29  C   UNL A   1      37.931  30.289  29.692  1.00  0.00     0.031 A 
ATOM     30  C   UNL A   1      39.014  29.397  29.137  1.00  0.00     0.074 A 
ATOM     31  C   UNL A   1      38.073  30.795  30.933  1.00  0.00     0.049 A 
ATOM     32  N   UNL A   1      40.072  28.902  29.734  1.00  0.00    -0.248 NA
ATOM     33  C   UNL A   1      38.886  29.003  27.726  1.00  0.00     0.031 C 
ATOM     34  C   UNL A   1      37.132  31.700  31.591  1.00  0.00     0.029 A 
ATOM     35  N   UNL A   1      39.066  30.611  31.865  1.00  0.00    -0.354 N 
ATOM     36  C   UNL A   1      40.718  28.125  28.781  1.00  0.00     0.074 A 
ATOM     37  C   UNL A   1      39.922  28.192  27.573  1.00  0.00     0.031 C 
ATOM     38  C   UNL A   1      37.595  31.998  32.817  1.00  0.00     0.029 A 
ATOM     39  C   UNL A   1      38.841  31.270  33.049  1.00  0.00     0.049 A 
ATOM     40  H   UNL A   1      39.864  30.058  31.699  1.00  0.00     0.167 HD
ATOM     41  C   UNL A   1      41.874  27.426  28.893  1.00  0.00     0.037 A 
ATOM     42  C   UNL A   1      39.545  31.270  34.199  1.00  0.00     0.037 A 
ATOM     43  C   UNL A   1      42.694  27.375  30.074  1.00  0.00     0.049 A 
ATOM     44  C   UNL A   1      40.805  30.453  34.312  1.00  0.00     0.074 A 
ATOM     45  C   UNL A   1      43.877  26.683  30.276  1.00  0.00     0.029 A 
ATOM     46  N   UNL A   1      42.427  28.058  31.249  1.00  0.00    -0.354 N 
ATOM     47  N   UNL A   1      41.387  29.702  33.410  1.00  0.00    -0.248 NA
ATOM     48  C   UNL A   1      41.502  30.482  35.607  1.00  0.00     0.031 C 
ATOM     49  C   UNL A   1      44.316  26.932  31.581  1.00  0.00     0.029 A 
ATOM     50  C   UNL A   1      43.423  27.804  32.179  1.00  0.00     0.049 A 
ATOM     51  H   UNL A   1      41.646  28.639  31.401  1.00  0.00     0.167 HD
ATOM     52  C   UNL A   1      42.530  29.197  34.017  1.00  0.00     0.074 A 
ATOM     53  C   UNL A   1      42.565  29.729  35.362  1.00  0.00     0.031 C 
ATOM     54  C   UNL A   1      43.465  28.363  33.504  1.00  0.00     0.037 A 
BRANCH  41  55
ATOM     55  C   UNL A   1      42.332  26.648  27.697  1.00  0.00     0.064 A 
ATOM     56  C   UNL A   1      43.271  27.173  26.799  1.00  0.00     0.173 A 
ATOM     57  C   UNL A   1      41.873  25.339  27.481  1.00  0.00     0.173 A 
ATOM     58  F   UNL A   1      43.730  28.424  26.959  1.00  0.00    -0.203 F 
ATOM     59  C   UNL A   1      43.726  26.422  25.719  1.00  0.00     0.198 A 
ATOM     60  C   UNL A   1      42.346  24.584  26.412  1.00  0.00     0.198 A 
ATOM     61  F   UNL A   1      40.979  24.790  28.316  1.00  0.00    -0.203 F 
ATOM     62  F   UNL A   1      44.602  26.955  24.856  1.00  0.00    -0.200 F 
ATOM     63  C   UNL A   1      43.269  25.127  25.529  1.00  0.00     0.200 A 
ATOM     64  F   UNL A   1      41.912  23.328  26.237  1.00  0.00    -0.200 F 
ATOM     65  F   UNL A   1      43.714  24.402  24.495  1.00  0.00    -0.200 F 
ENDBRANCH  41  55
BRANCH  42  66
ATOM     66  C   UNL A   1      39.071  32.067  35.359  1.00  0.00     0.064 A 
ATOM     67  C   UNL A   1      39.395  33.425  35.480  1.00  0.00     0.173 A 
ATOM     68  C   UNL A   1      38.320  31.479  36.387  1.00  0.00     0.173 A 
ATOM     69  F   UNL A   1      40.136  34.022  34.535  1.00  0.00    -0.203 F 
ATOM     70  C   UNL A   1      39.002  34.161  36.596  1.00  0.00     0.198 A 
ATOM     71  C   UNL A   1      37.907  32.222  37.490  1.00  0.00     0.198 A 
ATOM     72  F   UNL A   1      37.987  30.181  36.318  1.00  0.00    -0.203 F 
ATOM     73  F   UNL A   1      39.366  35.446  36.711  1.00  0.00    -0.200 F 
ATOM     74  C   UNL A   1      38.256  33.560  37.598  1.00  0.00     0.200 A 
ATOM     75  F   UNL A   1      37.178  31.640  38.452  1.00  0.00    -0.200 F 
ATOM     76  F   UNL A   1      37.881  34.267  38.673  1.00  0.00    -0.200 F 
ENDBRANCH  42  66
BRANCH  54  77
ATOM     77  C   UNL A   1      44.637  28.014  34.372  1.00  0.00     0.064 A 
ATOM     78  C   UNL A   1      45.792  28.808  34.399  1.00  0.00     0.173 A 
ATOM     79  C   UNL A   1      44.581  26.900  35.221  1.00  0.00     0.173 A 
ATOM     80  F   UNL A   1      45.897  29.876  33.594  1.00  0.00    -0.203 F 
ATOM     81  C   UNL A   1      46.859  28.487  35.235  1.00  0.00     0.198 A 
ATOM     82  C   UNL A   1      45.641  26.594  36.071  1.00  0.00     0.198 A 
ATOM     83  F   UNL A   1      43.495  26.113  35.233  1.00  0.00    -0.203 F 
ATOM     84  F   UNL A   1      47.968  29.240  35.223  1.00  0.00    -0.200 F 
ATOM     85  C   UNL A   1      46.780  27.386  36.075  1.00  0.00     0.200 A 
ATOM     86  F   UNL A   1      45.561  25.533  36.887  1.00  0.00    -0.200 F 
ATOM     87  F   UNL A   1      47.806  27.082  36.883  1.00  0.00    -0.200 F 
ENDBRANCH  54  77
ENDBRANCH  28  29
ENDBRANCH  20  23
ENDBRANCH  18  19
ENDBRANCH   1  18
TORSDOF 12
ENDMDL
