MODEL 1
REMARK VINA RESULT:     -12.3      0.000      0.000
REMARK SMILES C[NH2+][C@]1(C(=O)NCCCNC(=O)c2ccc(-c3c4nc(c(-c5c(F)c(F)c(F)c(F)c5F)c5ccc([nH]5)c(-c5c(F)c(F)c(F)c(F)c5F)c5nc(c(-c6c(F)c(F)c(F)c(F)c6F)c6ccc3[nH]6)C=C5)C=C4)cc2)CC[C@H](Sc2ccc(Cl)cn2)C1
REMARK SMILES IDX 8 1 7 2 6 3 4 4 5 5 3 7 76 8 87 9 77 10 78 11 2 12 1 13
REMARK SMILES IDX 79 16 80 17 81 18 86 19 82 20 85 21 83 22 84 23 9 24 10 25
REMARK SMILES IDX 11 26 12 28 13 29 14 30 75 31 15 32 74 33 16 34 17 35 18 36
REMARK SMILES IDX 68 37 19 38 73 39 67 40 69 41 20 42 72 43 66 44 65 45 21 47
REMARK SMILES IDX 53 48 33 49 52 50 34 51 37 52 51 53 70 54 35 55 36 56 50 58
REMARK SMILES IDX 71 59 38 60 22 61 23 62 31 63 24 64 25 65 29 66 32 67 26 68
REMARK SMILES IDX 27 69 30 70 28 71 54 72 55 73 63 74 56 75 57 76 61 77 64 78
REMARK SMILES IDX 58 79 59 80 62 81 60 82 39 83 40 84 48 85 41 86 42 87 46 88
REMARK SMILES IDX 49 89 43 90 44 91 47 92 45 93
REMARK H PARENT 6 6 2 14 2 15 10 27 69 46 37 57
REMARK Flexibility Score: inf
ROOT
ATOM      1  C   UNL A   1      31.433  32.167  26.511  1.00  0.00     0.042 C 
ENDROOT
BRANCH   1   2
ATOM      2  C   UNL A   1      31.617  30.696  26.168  1.00  0.00     0.118 C 
BRANCH   2   3
ATOM      3  N   UNL A   1      31.054  30.374  24.869  1.00  0.00    -0.351 N 
ATOM      4  C   UNL A   1      31.166  29.303  24.031  1.00  0.00     0.281 C 
ATOM      5  O   UNL A   1      30.627  29.479  22.934  1.00  0.00    -0.268 OA
ATOM      6  H   UNL A   1      30.466  31.079  24.515  1.00  0.00     0.163 HD
BRANCH   4   7
ATOM      7  C   UNL A   1      31.906  27.993  24.454  1.00  0.00     0.176 C 
ATOM      8  C   UNL A   1      33.225  28.322  25.174  1.00  0.00     0.080 C 
ATOM      9  C   UNL A   1      31.102  27.187  25.499  1.00  0.00     0.094 C 
ATOM     10  C   UNL A   1      33.502  27.117  26.063  1.00  0.00     0.022 C 
ATOM     11  C   UNL A   1      32.126  26.592  26.492  1.00  0.00     0.060 C 
BRANCH   7  12
ATOM     12  N   UNL A   1      32.309  27.054  23.364  1.00  0.00    -0.336 N 
ATOM     13  C   UNL A   1      33.391  27.444  22.479  1.00  0.00     0.331 C 
ATOM     14  H   UNL A   1      32.584  26.178  23.807  1.00  0.00     0.346 HD
ATOM     15  H   UNL A   1      31.491  27.013  22.755  1.00  0.00     0.346 HD
ENDBRANCH   7  12
BRANCH  11  16
ATOM     16  S   UNL A   1      31.965  24.770  26.451  1.00  0.00    -0.103 SA
BRANCH  16  17
ATOM     17  C   UNL A   1      33.388  24.168  25.579  1.00  0.00     0.096 A 
ATOM     18  C   UNL A   1      34.560  23.700  26.161  1.00  0.00     0.037 A 
ATOM     19  N   UNL A   1      33.227  24.195  24.235  1.00  0.00    -0.248 NA
ATOM     20  C   UNL A   1      35.613  23.285  25.339  1.00  0.00     0.025 A 
ATOM     21  C   UNL A   1      34.251  23.770  23.457  1.00  0.00     0.132 A 
ATOM     22  C   UNL A   1      35.457  23.320  23.961  1.00  0.00     0.059 A 
ATOM     23  Cl  UNL A   1      36.719  22.814  22.918  1.00  0.00    -0.083 Cl
ENDBRANCH  16  17
ENDBRANCH  11  16
ENDBRANCH   4   7
ENDBRANCH   2   3
ENDBRANCH   1   2
BRANCH   1  24
ATOM     24  C   UNL A   1      32.591  32.765  27.294  1.00  0.00     0.118 C 
BRANCH  24  25
ATOM     25  N   UNL A   1      32.389  34.172  27.612  1.00  0.00    -0.352 N 
ATOM     26  C   UNL A   1      32.986  34.951  28.570  1.00  0.00     0.251 C 
ATOM     27  H   UNL A   1      31.722  34.634  27.055  1.00  0.00     0.163 HD
ATOM     28  O   UNL A   1      32.539  36.068  28.820  1.00  0.00    -0.269 OA
BRANCH  26  29
ATOM     29  C   UNL A   1      34.149  34.436  29.321  1.00  0.00     0.039 A 
ATOM     30  C   UNL A   1      33.937  33.795  30.544  1.00  0.00     0.014 A 
ATOM     31  C   UNL A   1      35.443  34.581  28.819  1.00  0.00     0.014 A 
ATOM     32  C   UNL A   1      35.021  33.238  31.227  1.00  0.00     0.010 A 
ATOM     33  C   UNL A   1      36.503  33.936  29.444  1.00  0.00     0.010 A 
ATOM     34  C   UNL A   1      36.307  33.269  30.662  1.00  0.00    -0.014 A 
BRANCH  34  35
ATOM     35  C   UNL A   1      37.465  32.633  31.338  1.00  0.00     0.031 A 
ATOM     36  C   UNL A   1      38.191  31.498  30.670  1.00  0.00     0.074 A 
ATOM     37  C   UNL A   1      37.818  33.029  32.576  1.00  0.00     0.049 A 
ATOM     38  N   UNL A   1      39.174  30.761  31.123  1.00  0.00    -0.248 NA
ATOM     39  C   UNL A   1      37.731  31.118  29.324  1.00  0.00     0.031 C 
ATOM     40  C   UNL A   1      37.160  34.084  33.349  1.00  0.00     0.029 A 
ATOM     41  N   UNL A   1      38.815  32.583  33.409  1.00  0.00    -0.354 N 
ATOM     42  C   UNL A   1      39.432  29.825  30.130  1.00  0.00     0.074 A 
ATOM     43  C   UNL A   1      38.465  30.043  29.079  1.00  0.00     0.031 C 
ATOM     44  C   UNL A   1      37.788  34.223  34.527  1.00  0.00     0.029 A 
ATOM     45  C   UNL A   1      38.861  33.239  34.614  1.00  0.00     0.049 A 
ATOM     46  H   UNL A   1      39.437  31.860  33.164  1.00  0.00     0.167 HD
ATOM     47  C   UNL A   1      40.407  28.886  30.087  1.00  0.00     0.037 A 
ATOM     48  C   UNL A   1      39.675  33.060  35.672  1.00  0.00     0.037 A 
ATOM     49  C   UNL A   1      41.384  28.692  31.125  1.00  0.00     0.049 A 
ATOM     50  C   UNL A   1      40.744  32.003  35.602  1.00  0.00     0.074 A 
ATOM     51  C   UNL A   1      42.452  27.812  31.150  1.00  0.00     0.029 A 
ATOM     52  N   UNL A   1      41.410  29.388  32.324  1.00  0.00    -0.354 N 
ATOM     53  N   UNL A   1      41.027  31.172  34.627  1.00  0.00    -0.248 NA
ATOM     54  C   UNL A   1      41.612  31.861  36.779  1.00  0.00     0.031 C 
ATOM     55  C   UNL A   1      43.087  27.934  32.389  1.00  0.00     0.029 A 
ATOM     56  C   UNL A   1      42.460  28.937  33.109  1.00  0.00     0.049 A 
ATOM     57  H   UNL A   1      40.777  30.097  32.581  1.00  0.00     0.167 HD
ATOM     58  C   UNL A   1      42.125  30.437  35.056  1.00  0.00     0.074 A 
ATOM     59  C   UNL A   1      42.464  30.930  36.375  1.00  0.00     0.031 C 
ATOM     60  C   UNL A   1      42.792  29.446  34.416  1.00  0.00     0.037 A 
BRANCH  47  61
ATOM     61  C   UNL A   1      40.464  27.997  28.876  1.00  0.00     0.064 A 
ATOM     62  C   UNL A   1      39.767  26.781  28.818  1.00  0.00     0.173 A 
ATOM     63  C   UNL A   1      41.201  28.383  27.746  1.00  0.00     0.173 A 
ATOM     64  F   UNL A   1      39.056  26.358  29.875  1.00  0.00    -0.203 F 
ATOM     65  C   UNL A   1      39.834  25.967  27.690  1.00  0.00     0.198 A 
ATOM     66  C   UNL A   1      41.237  27.584  26.606  1.00  0.00     0.198 A 
ATOM     67  F   UNL A   1      41.882  29.539  27.743  1.00  0.00    -0.203 F 
ATOM     68  F   UNL A   1      39.207  24.783  27.681  1.00  0.00    -0.200 F 
ATOM     69  C   UNL A   1      40.562  26.373  26.582  1.00  0.00     0.200 A 
ATOM     70  F   UNL A   1      41.929  27.985  25.530  1.00  0.00    -0.200 F 
ATOM     71  F   UNL A   1      40.619  25.594  25.494  1.00  0.00    -0.200 F 
ENDBRANCH  47  61
BRANCH  48  72
ATOM     72  C   UNL A   1      39.528  33.917  36.879  1.00  0.00     0.064 A 
ATOM     73  C   UNL A   1      38.778  33.484  37.983  1.00  0.00     0.173 A 
ATOM     74  C   UNL A   1      40.122  35.185  36.953  1.00  0.00     0.173 A 
ATOM     75  F   UNL A   1      38.175  32.287  37.954  1.00  0.00    -0.203 F 
ATOM     76  C   UNL A   1      38.605  34.299  39.100  1.00  0.00     0.198 A 
ATOM     77  C   UNL A   1      39.976  35.985  38.085  1.00  0.00     0.198 A 
ATOM     78  F   UNL A   1      40.857  35.644  35.929  1.00  0.00    -0.203 F 
ATOM     79  F   UNL A   1      37.839  33.881  40.118  1.00  0.00    -0.200 F 
ATOM     80  C   UNL A   1      39.209  35.546  39.153  1.00  0.00     0.200 A 
ATOM     81  F   UNL A   1      40.576  37.181  38.139  1.00  0.00    -0.200 F 
ATOM     82  F   UNL A   1      39.046  36.327  40.229  1.00  0.00    -0.200 F 
ENDBRANCH  48  72
BRANCH  60  83
ATOM     83  C   UNL A   1      43.988  28.860  35.109  1.00  0.00     0.064 A 
ATOM     84  C   UNL A   1      43.874  27.789  36.007  1.00  0.00     0.173 A 
ATOM     85  C   UNL A   1      45.274  29.352  34.836  1.00  0.00     0.173 A 
ATOM     86  F   UNL A   1      42.667  27.291  36.314  1.00  0.00    -0.203 F 
ATOM     87  C   UNL A   1      44.998  27.253  36.629  1.00  0.00     0.198 A 
ATOM     88  C   UNL A   1      46.399  28.791  35.432  1.00  0.00     0.198 A 
ATOM     89  F   UNL A   1      45.441  30.370  33.978  1.00  0.00    -0.203 F 
ATOM     90  F   UNL A   1      44.860  26.266  37.525  1.00  0.00    -0.200 F 
ATOM     91  C   UNL A   1      46.260  27.748  36.335  1.00  0.00     0.200 A 
ATOM     92  F   UNL A   1      47.619  29.259  35.132  1.00  0.00    -0.200 F 
ATOM     93  F   UNL A   1      47.342  27.225  36.927  1.00  0.00    -0.200 F 
ENDBRANCH  60  83
ENDBRANCH  34  35
ENDBRANCH  26  29
ENDBRANCH  24  25
ENDBRANCH   1  24
TORSDOF 13
ENDMDL
MODEL 2
REMARK VINA RESULT:     -12.3      1.060      2.124
REMARK SMILES C[NH2+][C@]1(C(=O)NCCCNC(=O)c2ccc(-c3c4nc(c(-c5c(F)c(F)c(F)c(F)c5F)c5ccc([nH]5)c(-c5c(F)c(F)c(F)c(F)c5F)c5nc(c(-c6c(F)c(F)c(F)c(F)c6F)c6ccc3[nH]6)C=C5)C=C4)cc2)CC[C@H](Sc2ccc(Cl)cn2)C1
REMARK SMILES IDX 8 1 7 2 6 3 4 4 5 5 3 7 76 8 87 9 77 10 78 11 2 12 1 13
REMARK SMILES IDX 79 16 80 17 81 18 86 19 82 20 85 21 83 22 84 23 9 24 10 25
REMARK SMILES IDX 11 26 12 28 13 29 14 30 75 31 15 32 74 33 16 34 17 35 18 36
REMARK SMILES IDX 68 37 19 38 73 39 67 40 69 41 20 42 72 43 66 44 65 45 21 47
REMARK SMILES IDX 53 48 33 49 52 50 34 51 37 52 51 53 70 54 35 55 36 56 50 58
REMARK SMILES IDX 71 59 38 60 22 61 23 62 31 63 24 64 25 65 29 66 32 67 26 68
REMARK SMILES IDX 27 69 30 70 28 71 54 72 55 73 63 74 56 75 57 76 61 77 64 78
REMARK SMILES IDX 58 79 59 80 62 81 60 82 39 83 40 84 48 85 41 86 42 87 46 88
REMARK SMILES IDX 49 89 43 90 44 91 47 92 45 93
REMARK H PARENT 6 6 2 14 2 15 10 27 69 46 37 57
REMARK Flexibility Score: inf
ROOT
ATOM      1  C   UNL A   1      31.408  32.189  26.667  1.00  0.00     0.042 C 
ENDROOT
BRANCH   1   2
ATOM      2  C   UNL A   1      31.656  30.777  26.157  1.00  0.00     0.118 C 
BRANCH   2   3
ATOM      3  N   UNL A   1      32.899  30.231  26.672  1.00  0.00    -0.351 N 
ATOM      4  C   UNL A   1      33.546  29.042  26.508  1.00  0.00     0.281 C 
ATOM      5  O   UNL A   1      34.530  28.913  27.243  1.00  0.00    -0.268 OA
ATOM      6  H   UNL A   1      33.377  30.851  27.268  1.00  0.00     0.163 HD
BRANCH   4   7
ATOM      7  C   UNL A   1      33.066  27.972  25.475  1.00  0.00     0.176 C 
ATOM      8  C   UNL A   1      33.385  28.420  24.040  1.00  0.00     0.080 C 
ATOM      9  C   UNL A   1      33.831  26.637  25.628  1.00  0.00     0.094 C 
ATOM     10  C   UNL A   1      33.491  27.131  23.236  1.00  0.00     0.022 C 
ATOM     11  C   UNL A   1      34.055  26.083  24.203  1.00  0.00     0.060 C 
BRANCH   7  12
ATOM     12  N   UNL A   1      31.605  27.660  25.444  1.00  0.00    -0.336 N 
ATOM     13  C   UNL A   1      31.079  26.709  26.405  1.00  0.00     0.331 C 
ATOM     14  H   UNL A   1      31.107  28.538  25.587  1.00  0.00     0.346 HD
ATOM     15  H   UNL A   1      31.465  27.205  24.541  1.00  0.00     0.346 HD
ENDBRANCH   7  12
BRANCH  11  16
ATOM     16  S   UNL A   1      33.249  24.444  24.097  1.00  0.00    -0.103 SA
BRANCH  16  17
ATOM     17  C   UNL A   1      34.547  23.245  24.258  1.00  0.00     0.096 A 
ATOM     18  C   UNL A   1      35.824  23.352  23.723  1.00  0.00     0.037 A 
ATOM     19  N   UNL A   1      34.174  22.167  24.990  1.00  0.00    -0.248 NA
ATOM     20  C   UNL A   1      36.734  22.305  23.909  1.00  0.00     0.025 A 
ATOM     21  C   UNL A   1      35.076  21.174  25.175  1.00  0.00     0.132 A 
ATOM     22  C   UNL A   1      36.354  21.195  24.648  1.00  0.00     0.059 A 
ATOM     23  Cl  UNL A   1      37.439  19.894  24.906  1.00  0.00    -0.083 Cl
ENDBRANCH  16  17
ENDBRANCH  11  16
ENDBRANCH   4   7
ENDBRANCH   2   3
ENDBRANCH   1   2
BRANCH   1  24
ATOM     24  C   UNL A   1      32.641  32.853  27.260  1.00  0.00     0.118 C 
BRANCH  24  25
ATOM     25  N   UNL A   1      32.410  34.244  27.627  1.00  0.00    -0.352 N 
ATOM     26  C   UNL A   1      32.981  34.997  28.621  1.00  0.00     0.251 C 
ATOM     27  H   UNL A   1      31.743  34.715  27.077  1.00  0.00     0.163 HD
ATOM     28  O   UNL A   1      32.511  36.096  28.905  1.00  0.00    -0.269 OA
BRANCH  26  29
ATOM     29  C   UNL A   1      34.141  34.474  29.369  1.00  0.00     0.039 A 
ATOM     30  C   UNL A   1      33.929  33.837  30.594  1.00  0.00     0.014 A 
ATOM     31  C   UNL A   1      35.435  34.607  28.862  1.00  0.00     0.014 A 
ATOM     32  C   UNL A   1      35.010  33.273  31.275  1.00  0.00     0.010 A 
ATOM     33  C   UNL A   1      36.492  33.955  29.486  1.00  0.00     0.010 A 
ATOM     34  C   UNL A   1      36.294  33.292  30.706  1.00  0.00    -0.014 A 
BRANCH  34  35
ATOM     35  C   UNL A   1      37.449  32.648  31.380  1.00  0.00     0.031 A 
ATOM     36  C   UNL A   1      38.159  31.500  30.716  1.00  0.00     0.074 A 
ATOM     37  C   UNL A   1      37.815  33.049  32.613  1.00  0.00     0.049 A 
ATOM     38  N   UNL A   1      39.136  30.756  31.168  1.00  0.00    -0.248 NA
ATOM     39  C   UNL A   1      37.686  31.115  29.375  1.00  0.00     0.031 C 
ATOM     40  C   UNL A   1      37.173  34.117  33.382  1.00  0.00     0.029 A 
ATOM     41  N   UNL A   1      38.811  32.598  33.442  1.00  0.00    -0.354 N 
ATOM     42  C   UNL A   1      39.378  29.810  30.180  1.00  0.00     0.074 A 
ATOM     43  C   UNL A   1      38.406  30.031  29.133  1.00  0.00     0.031 C 
ATOM     44  C   UNL A   1      37.809  34.257  34.555  1.00  0.00     0.029 A 
ATOM     45  C   UNL A   1      38.872  33.262  34.643  1.00  0.00     0.049 A 
ATOM     46  H   UNL A   1      39.424  31.866  33.199  1.00  0.00     0.167 HD
ATOM     47  C   UNL A   1      40.342  28.860  30.138  1.00  0.00     0.037 A 
ATOM     48  C   UNL A   1      39.690  33.081  35.697  1.00  0.00     0.037 A 
ATOM     49  C   UNL A   1      41.323  28.662  31.171  1.00  0.00     0.049 A 
ATOM     50  C   UNL A   1      40.747  32.011  35.629  1.00  0.00     0.074 A 
ATOM     51  C   UNL A   1      42.381  27.770  31.197  1.00  0.00     0.029 A 
ATOM     52  N   UNL A   1      41.364  29.366  32.365  1.00  0.00    -0.354 N 
ATOM     53  N   UNL A   1      41.014  31.171  34.658  1.00  0.00    -0.248 NA
ATOM     54  C   UNL A   1      41.621  31.869  36.801  1.00  0.00     0.031 C 
ATOM     55  C   UNL A   1      43.025  27.894  32.431  1.00  0.00     0.029 A 
ATOM     56  C   UNL A   1      42.413  28.909  33.148  1.00  0.00     0.049 A 
ATOM     57  H   UNL A   1      40.741  30.084  32.621  1.00  0.00     0.167 HD
ATOM     58  C   UNL A   1      42.107  30.427  35.086  1.00  0.00     0.074 A 
ATOM     59  C   UNL A   1      42.460  30.925  36.399  1.00  0.00     0.031 C 
ATOM     60  C   UNL A   1      42.759  29.424  34.449  1.00  0.00     0.037 A 
BRANCH  47  61
ATOM     61  C   UNL A   1      40.381  27.961  28.933  1.00  0.00     0.064 A 
ATOM     62  C   UNL A   1      41.144  28.278  27.799  1.00  0.00     0.173 A 
ATOM     63  C   UNL A   1      39.668  26.752  28.925  1.00  0.00     0.173 A 
ATOM     64  F   UNL A   1      41.835  29.427  27.748  1.00  0.00    -0.203 F 
ATOM     65  C   UNL A   1      41.165  27.437  26.689  1.00  0.00     0.198 A 
ATOM     66  C   UNL A   1      39.720  25.896  27.829  1.00  0.00     0.198 A 
ATOM     67  F   UNL A   1      38.927  26.396  29.985  1.00  0.00    -0.203 F 
ATOM     68  F   UNL A   1      41.855  27.789  25.596  1.00  0.00    -0.200 F 
ATOM     69  C   UNL A   1      40.460  26.243  26.708  1.00  0.00     0.200 A 
ATOM     70  F   UNL A   1      39.051  24.735  27.854  1.00  0.00    -0.200 F 
ATOM     71  F   UNL A   1      40.487  25.430  25.644  1.00  0.00    -0.200 F 
ENDBRANCH  47  61
BRANCH  48  72
ATOM     72  C   UNL A   1      39.560  33.948  36.899  1.00  0.00     0.064 A 
ATOM     73  C   UNL A   1      38.793  33.542  38.000  1.00  0.00     0.173 A 
ATOM     74  C   UNL A   1      40.188  35.200  36.969  1.00  0.00     0.173 A 
ATOM     75  F   UNL A   1      38.158  32.362  37.975  1.00  0.00    -0.203 F 
ATOM     76  C   UNL A   1      38.636  34.368  39.113  1.00  0.00     0.198 A 
ATOM     77  C   UNL A   1      40.058  36.010  38.096  1.00  0.00     0.198 A 
ATOM     78  F   UNL A   1      40.941  35.634  35.947  1.00  0.00    -0.203 F 
ATOM     79  F   UNL A   1      37.854  33.976  40.128  1.00  0.00    -0.200 F 
ATOM     80  C   UNL A   1      39.273  35.598  39.163  1.00  0.00     0.200 A 
ATOM     81  F   UNL A   1      40.690  37.190  38.147  1.00  0.00    -0.200 F 
ATOM     82  F   UNL A   1      39.125  36.389  40.233  1.00  0.00    -0.200 F 
ENDBRANCH  48  72
BRANCH  60  83
ATOM     83  C   UNL A   1      43.953  28.829  35.139  1.00  0.00     0.064 A 
ATOM     84  C   UNL A   1      45.247  29.336  34.951  1.00  0.00     0.173 A 
ATOM     85  C   UNL A   1      43.791  27.762  36.036  1.00  0.00     0.173 A 
ATOM     86  F   UNL A   1      45.458  30.346  34.094  1.00  0.00    -0.203 F 
ATOM     87  C   UNL A   1      46.338  28.777  35.610  1.00  0.00     0.198 A 
ATOM     88  C   UNL A   1      44.878  27.228  36.721  1.00  0.00     0.198 A 
ATOM     89  F   UNL A   1      42.573  27.245  36.260  1.00  0.00    -0.203 F 
ATOM     90  F   UNL A   1      47.572  29.241  35.374  1.00  0.00    -0.200 F 
ATOM     91  C   UNL A   1      46.152  27.730  36.501  1.00  0.00     0.200 A 
ATOM     92  F   UNL A   1      44.693  26.229  37.595  1.00  0.00    -0.200 F 
ATOM     93  F   UNL A   1      47.202  27.199  37.143  1.00  0.00    -0.200 F 
ENDBRANCH  60  83
ENDBRANCH  34  35
ENDBRANCH  26  29
ENDBRANCH  24  25
ENDBRANCH   1  24
TORSDOF 13
ENDMDL
MODEL 3
REMARK VINA RESULT:     -12.3      1.903      3.024
REMARK SMILES C[NH2+][C@]1(C(=O)NCCCNC(=O)c2ccc(-c3c4nc(c(-c5c(F)c(F)c(F)c(F)c5F)c5ccc([nH]5)c(-c5c(F)c(F)c(F)c(F)c5F)c5nc(c(-c6c(F)c(F)c(F)c(F)c6F)c6ccc3[nH]6)C=C5)C=C4)cc2)CC[C@H](Sc2ccc(Cl)cn2)C1
REMARK SMILES IDX 8 1 7 2 6 3 4 4 5 5 3 7 76 8 87 9 77 10 78 11 2 12 1 13
REMARK SMILES IDX 79 16 80 17 81 18 86 19 82 20 85 21 83 22 84 23 9 24 10 25
REMARK SMILES IDX 11 26 12 28 13 29 14 30 75 31 15 32 74 33 16 34 17 35 18 36
REMARK SMILES IDX 68 37 19 38 73 39 67 40 69 41 20 42 72 43 66 44 65 45 21 47
REMARK SMILES IDX 53 48 33 49 52 50 34 51 37 52 51 53 70 54 35 55 36 56 50 58
REMARK SMILES IDX 71 59 38 60 22 61 23 62 31 63 24 64 25 65 29 66 32 67 26 68
REMARK SMILES IDX 27 69 30 70 28 71 54 72 55 73 63 74 56 75 57 76 61 77 64 78
REMARK SMILES IDX 58 79 59 80 62 81 60 82 39 83 40 84 48 85 41 86 42 87 46 88
REMARK SMILES IDX 49 89 43 90 44 91 47 92 45 93
REMARK H PARENT 6 6 2 14 2 15 10 27 69 46 37 57
REMARK Flexibility Score: inf
ROOT
ATOM      1  C   UNL A   1      31.403  32.234  26.632  1.00  0.00     0.042 C 
ENDROOT
BRANCH   1   2
ATOM      2  C   UNL A   1      31.650  30.825  26.115  1.00  0.00     0.118 C 
BRANCH   2   3
ATOM      3  N   UNL A   1      32.879  30.265  26.649  1.00  0.00    -0.351 N 
ATOM      4  C   UNL A   1      33.500  29.058  26.519  1.00  0.00     0.281 C 
ATOM      5  O   UNL A   1      34.479  28.927  27.260  1.00  0.00    -0.268 OA
ATOM      6  H   UNL A   1      33.369  30.890  27.229  1.00  0.00     0.163 HD
BRANCH   4   7
ATOM      7  C   UNL A   1      32.998  27.971  25.514  1.00  0.00     0.176 C 
ATOM      8  C   UNL A   1      32.992  26.582  26.173  1.00  0.00     0.080 C 
ATOM      9  C   UNL A   1      31.525  28.197  25.106  1.00  0.00     0.094 C 
ATOM     10  C   UNL A   1      31.942  25.786  25.410  1.00  0.00     0.022 C 
ATOM     11  C   UNL A   1      30.871  26.802  24.994  1.00  0.00     0.060 C 
BRANCH   7  12
ATOM     12  N   UNL A   1      33.794  27.778  24.263  1.00  0.00    -0.336 N 
ATOM     13  C   UNL A   1      33.710  28.789  23.227  1.00  0.00     0.331 C 
ATOM     14  H   UNL A   1      34.774  27.709  24.537  1.00  0.00     0.346 HD
ATOM     15  H   UNL A   1      33.387  26.946  23.834  1.00  0.00     0.346 HD
ENDBRANCH   7  12
BRANCH  11  16
ATOM     16  S   UNL A   1      30.258  26.597  23.283  1.00  0.00    -0.103 SA
BRANCH  16  17
ATOM     17  C   UNL A   1      29.469  28.127  22.855  1.00  0.00     0.096 A 
ATOM     18  C   UNL A   1      28.197  28.524  23.247  1.00  0.00     0.037 A 
ATOM     19  N   UNL A   1      30.251  28.920  22.083  1.00  0.00    -0.248 NA
ATOM     20  C   UNL A   1      27.695  29.752  22.802  1.00  0.00     0.025 A 
ATOM     21  C   UNL A   1      29.755  30.114  21.680  1.00  0.00     0.132 A 
ATOM     22  C   UNL A   1      28.489  30.563  22.004  1.00  0.00     0.059 A 
ATOM     23  Cl  UNL A   1      27.917  32.078  21.444  1.00  0.00    -0.083 Cl
ENDBRANCH  16  17
ENDBRANCH  11  16
ENDBRANCH   4   7
ENDBRANCH   2   3
ENDBRANCH   1   2
BRANCH   1  24
ATOM     24  C   UNL A   1      32.619  32.869  27.289  1.00  0.00     0.118 C 
BRANCH  24  25
ATOM     25  N   UNL A   1      32.404  34.266  27.641  1.00  0.00    -0.352 N 
ATOM     26  C   UNL A   1      32.988  35.025  28.623  1.00  0.00     0.251 C 
ATOM     27  H   UNL A   1      31.738  34.737  27.090  1.00  0.00     0.163 HD
ATOM     28  O   UNL A   1      32.531  36.132  28.896  1.00  0.00    -0.269 OA
BRANCH  26  29
ATOM     29  C   UNL A   1      34.148  34.500  29.370  1.00  0.00     0.039 A 
ATOM     30  C   UNL A   1      33.937  33.878  30.603  1.00  0.00     0.014 A 
ATOM     31  C   UNL A   1      35.440  34.615  28.854  1.00  0.00     0.014 A 
ATOM     32  C   UNL A   1      35.017  33.312  31.284  1.00  0.00     0.010 A 
ATOM     33  C   UNL A   1      36.494  33.960  29.479  1.00  0.00     0.010 A 
ATOM     34  C   UNL A   1      36.298  33.313  30.707  1.00  0.00    -0.014 A 
BRANCH  34  35
ATOM     35  C   UNL A   1      37.451  32.665  31.381  1.00  0.00     0.031 A 
ATOM     36  C   UNL A   1      38.159  31.518  30.716  1.00  0.00     0.074 A 
ATOM     37  C   UNL A   1      37.816  33.064  32.615  1.00  0.00     0.049 A 
ATOM     38  N   UNL A   1      39.134  30.770  31.169  1.00  0.00    -0.248 NA
ATOM     39  C   UNL A   1      37.687  31.136  29.375  1.00  0.00     0.031 C 
ATOM     40  C   UNL A   1      37.175  34.132  33.385  1.00  0.00     0.029 A 
ATOM     41  N   UNL A   1      38.811  32.610  33.445  1.00  0.00    -0.354 N 
ATOM     42  C   UNL A   1      39.376  29.826  30.180  1.00  0.00     0.074 A 
ATOM     43  C   UNL A   1      38.406  30.050  29.132  1.00  0.00     0.031 C 
ATOM     44  C   UNL A   1      37.810  34.269  34.560  1.00  0.00     0.029 A 
ATOM     45  C   UNL A   1      38.871  33.272  34.647  1.00  0.00     0.049 A 
ATOM     46  H   UNL A   1      39.422  31.877  33.201  1.00  0.00     0.167 HD
ATOM     47  C   UNL A   1      40.338  28.874  30.137  1.00  0.00     0.037 A 
ATOM     48  C   UNL A   1      39.687  33.088  35.702  1.00  0.00     0.037 A 
ATOM     49  C   UNL A   1      41.317  28.673  31.171  1.00  0.00     0.049 A 
ATOM     50  C   UNL A   1      40.742  32.016  35.633  1.00  0.00     0.074 A 
ATOM     51  C   UNL A   1      42.374  27.778  31.197  1.00  0.00     0.029 A 
ATOM     52  N   UNL A   1      41.358  29.375  32.366  1.00  0.00    -0.354 N 
ATOM     53  N   UNL A   1      41.009  31.177  34.661  1.00  0.00    -0.248 NA
ATOM     54  C   UNL A   1      41.614  31.870  36.806  1.00  0.00     0.031 C 
ATOM     55  C   UNL A   1      43.017  27.899  32.432  1.00  0.00     0.029 A 
ATOM     56  C   UNL A   1      42.405  28.914  33.149  1.00  0.00     0.049 A 
ATOM     57  H   UNL A   1      40.736  30.093  32.622  1.00  0.00     0.167 HD
ATOM     58  C   UNL A   1      42.100  30.430  35.089  1.00  0.00     0.074 A 
ATOM     59  C   UNL A   1      42.452  30.926  36.403  1.00  0.00     0.031 C 
ATOM     60  C   UNL A   1      42.751  29.427  34.451  1.00  0.00     0.037 A 
BRANCH  47  61
ATOM     61  C   UNL A   1      40.377  27.977  28.931  1.00  0.00     0.064 A 
ATOM     62  C   UNL A   1      41.131  28.300  27.793  1.00  0.00     0.173 A 
ATOM     63  C   UNL A   1      39.672  26.763  28.925  1.00  0.00     0.173 A 
ATOM     64  F   UNL A   1      41.814  29.454  27.740  1.00  0.00    -0.203 F 
ATOM     65  C   UNL A   1      41.152  27.461  26.682  1.00  0.00     0.198 A 
ATOM     66  C   UNL A   1      39.724  25.908  27.828  1.00  0.00     0.198 A 
ATOM     67  F   UNL A   1      38.939  26.401  29.989  1.00  0.00    -0.203 F 
ATOM     68  F   UNL A   1      41.834  27.819  25.586  1.00  0.00    -0.200 F 
ATOM     69  C   UNL A   1      40.455  26.262  26.703  1.00  0.00     0.200 A 
ATOM     70  F   UNL A   1      39.063  24.743  27.855  1.00  0.00    -0.200 F 
ATOM     71  F   UNL A   1      40.482  25.450  25.638  1.00  0.00    -0.200 F 
ENDBRANCH  47  61
BRANCH  48  72
ATOM     72  C   UNL A   1      39.558  33.954  36.905  1.00  0.00     0.064 A 
ATOM     73  C   UNL A   1      38.791  33.546  38.006  1.00  0.00     0.173 A 
ATOM     74  C   UNL A   1      40.185  35.206  36.976  1.00  0.00     0.173 A 
ATOM     75  F   UNL A   1      38.157  32.365  37.979  1.00  0.00    -0.203 F 
ATOM     76  C   UNL A   1      38.635  34.370  39.120  1.00  0.00     0.198 A 
ATOM     77  C   UNL A   1      40.055  36.014  38.104  1.00  0.00     0.198 A 
ATOM     78  F   UNL A   1      40.937  35.641  35.954  1.00  0.00    -0.203 F 
ATOM     79  F   UNL A   1      37.853  33.977  40.135  1.00  0.00    -0.200 F 
ATOM     80  C   UNL A   1      39.271  35.600  39.171  1.00  0.00     0.200 A 
ATOM     81  F   UNL A   1      40.687  37.194  38.157  1.00  0.00    -0.200 F 
ATOM     82  F   UNL A   1      39.124  36.390  40.243  1.00  0.00    -0.200 F 
ENDBRANCH  48  72
BRANCH  60  83
ATOM     83  C   UNL A   1      43.943  28.829  35.142  1.00  0.00     0.064 A 
ATOM     84  C   UNL A   1      43.829  27.717  35.989  1.00  0.00     0.173 A 
ATOM     85  C   UNL A   1      45.226  29.353  34.918  1.00  0.00     0.173 A 
ATOM     86  F   UNL A   1      42.624  27.186  36.248  1.00  0.00    -0.203 F 
ATOM     87  C   UNL A   1      44.949  27.171  36.609  1.00  0.00     0.198 A 
ATOM     88  C   UNL A   1      46.348  28.783  35.511  1.00  0.00     0.198 A 
ATOM     89  F   UNL A   1      45.393  30.411  34.110  1.00  0.00    -0.203 F 
ATOM     90  F   UNL A   1      44.810  26.143  37.457  1.00  0.00    -0.200 F 
ATOM     91  C   UNL A   1      46.208  27.699  36.363  1.00  0.00     0.200 A 
ATOM     92  F   UNL A   1      47.565  29.283  35.257  1.00  0.00    -0.200 F 
ATOM     93  F   UNL A   1      47.287  27.167  36.954  1.00  0.00    -0.200 F 
ENDBRANCH  60  83
ENDBRANCH  34  35
ENDBRANCH  26  29
ENDBRANCH  24  25
ENDBRANCH   1  24
TORSDOF 13
ENDMDL
