MODEL 1
REMARK VINA RESULT:     -13.3      0.000      0.000
REMARK SMILES NS(=O)(=O)c1ccc(-n2nc(C(=O)NCCCC(=O)NCCCNC(=O)c3ccc(-c4c5nc(c(-c6c(F)c(F)c(F)c(F)c6F)c6ccc([nH]6)c(-c6c(F)c(F)c(F)c(F)c6F)c6nc(c(-c7c(F)c(F)c(F)c(F)c7F)c7ccc4[nH]7)C=C6)C=C5)cc3)cc2-c2ccccc2)cc1
REMARK SMILES IDX 18 1 19 2 20 3 17 5 16 6 15 7 14 8 12 9 13 10 11 12 9 13
REMARK SMILES IDX 10 14 91 15 90 16 8 17 5 18 6 19 99 20 7 21 98 22 2 23 3 24
REMARK SMILES IDX 4 25 1 26 92 29 93 30 97 31 94 32 96 33 95 34 21 35 22 36
REMARK SMILES IDX 23 37 24 38 25 39 26 41 27 42 28 43 89 44 29 45 88 46 30 47
REMARK SMILES IDX 31 48 32 49 82 50 33 51 87 52 81 53 83 54 34 55 86 56 80 57
REMARK SMILES IDX 79 58 35 60 67 61 47 62 66 63 48 64 51 65 65 66 84 67 49 68
REMARK SMILES IDX 50 69 64 71 85 72 52 73 36 74 37 75 45 76 38 77 39 78 43 79
REMARK SMILES IDX 46 80 40 81 41 82 44 83 42 84 68 85 69 86 77 87 70 88 71 89
REMARK SMILES IDX 75 90 78 91 72 92 73 93 76 94 74 95 53 96 54 97 62 98 55 99
REMARK SMILES IDX 56 100 60 101 63 102 57 103 58 104 61 105 59 106
REMARK H PARENT 20 4 14 11 1 27 1 28 24 40 83 59 51 70
REMARK Flexibility Score: inf
ROOT
ATOM      1  C   UNL A   1      35.151  22.304  26.141  1.00  0.00     0.220 C 
ATOM      2  O   UNL A   1      34.337  22.067  27.035  1.00  0.00    -0.275 OA
ATOM      3  N   UNL A   1      36.436  22.572  26.501  1.00  0.00    -0.356 N 
ATOM      4  H   UNL A   1      36.607  22.511  27.469  1.00  0.00     0.163 HD
ENDROOT
BRANCH   1   5
ATOM      5  C   UNL A   1      34.728  22.286  24.686  1.00  0.00     0.102 C 
BRANCH   5   6
ATOM      6  C   UNL A   1      33.550  21.358  24.384  1.00  0.00     0.031 C 
BRANCH   6   7
ATOM      7  C   UNL A   1      32.173  22.008  24.376  1.00  0.00     0.116 C 
BRANCH   7   8
ATOM      8  N   UNL A   1      31.472  21.932  25.644  1.00  0.00    -0.351 N 
ATOM      9  C   UNL A   1      31.025  22.932  26.482  1.00  0.00     0.271 C 
ATOM     10  O   UNL A   1      30.431  22.577  27.501  1.00  0.00    -0.267 OA
ATOM     11  H   UNL A   1      31.285  21.017  25.957  1.00  0.00     0.163 HD
BRANCH   9  12
ATOM     12  C   UNL A   1      31.265  24.345  26.147  1.00  0.00     0.151 A 
ATOM     13  N   UNL A   1      30.903  26.279  25.288  1.00  0.00    -0.232 N 
ATOM     14  N   UNL A   1      30.342  25.061  25.475  1.00  0.00    -0.162 NA
ATOM     15  C   UNL A   1      32.056  26.431  26.047  1.00  0.00     0.075 A 
ATOM     16  C   UNL A   1      32.384  25.156  26.455  1.00  0.00     0.065 A 
BRANCH  13  17
ATOM     17  C   UNL A   1      30.314  27.231  24.416  1.00  0.00     0.065 A 
ATOM     18  C   UNL A   1      29.122  29.224  22.880  1.00  0.00     0.082 A 
ATOM     19  C   UNL A   1      30.473  29.332  23.215  1.00  0.00     0.024 A 
ATOM     20  C   UNL A   1      28.379  28.098  23.259  1.00  0.00     0.024 A 
ATOM     21  C   UNL A   1      31.066  28.339  23.990  1.00  0.00     0.030 A 
ATOM     22  C   UNL A   1      28.983  27.084  24.009  1.00  0.00     0.030 A 
BRANCH  18  23
ATOM     23  S   UNL A   1      28.299  30.522  22.008  1.00  0.00     0.238 S 
ATOM     24  O   UNL A   1      27.280  31.071  22.885  1.00  0.00    -0.207 OA
ATOM     25  O   UNL A   1      28.027  30.081  20.671  1.00  0.00    -0.207 OA
BRANCH  23  26
ATOM     26  N   UNL A   1      29.453  31.740  21.862  1.00  0.00    -0.225 NA
ATOM     27  H   UNL A   1      28.986  32.634  21.714  1.00  0.00     0.137 HD
ATOM     28  H   UNL A   1      30.061  31.538  21.069  1.00  0.00     0.137 HD
ENDBRANCH  23  26
ENDBRANCH  18  23
ENDBRANCH  13  17
BRANCH  15  29
ATOM     29  C   UNL A   1      32.670  27.697  26.440  1.00  0.00     0.000 A 
ATOM     30  C   UNL A   1      34.025  27.936  26.161  1.00  0.00     0.010 A 
ATOM     31  C   UNL A   1      31.909  28.706  27.038  1.00  0.00     0.010 A 
ATOM     32  C   UNL A   1      34.614  29.153  26.501  1.00  0.00     0.001 A 
ATOM     33  C   UNL A   1      32.501  29.925  27.375  1.00  0.00     0.001 A 
ATOM     34  C   UNL A   1      33.852  30.147  27.109  1.00  0.00     0.000 A 
ENDBRANCH  15  29
ENDBRANCH   9  12
ENDBRANCH   7   8
ENDBRANCH   6   7
ENDBRANCH   5   6
ENDBRANCH   1   5
BRANCH   3  35
ATOM     35  C   UNL A   1      37.601  22.935  25.704  1.00  0.00     0.117 C 
BRANCH  35  36
ATOM     36  C   UNL A   1      38.515  21.733  25.437  1.00  0.00     0.042 C 
BRANCH  36  37
ATOM     37  C   UNL A   1      39.593  21.551  26.485  1.00  0.00     0.118 C 
BRANCH  37  38
ATOM     38  N   UNL A   1      40.944  21.534  25.932  1.00  0.00    -0.352 N 
ATOM     39  C   UNL A   1      41.817  22.600  25.821  1.00  0.00     0.251 C 
ATOM     40  H   UNL A   1      41.269  20.666  25.603  1.00  0.00     0.163 HD
ATOM     41  O   UNL A   1      42.731  22.579  25.004  1.00  0.00    -0.269 OA
BRANCH  39  42
ATOM     42  C   UNL A   1      41.629  23.773  26.696  1.00  0.00     0.039 A 
ATOM     43  C   UNL A   1      42.316  23.900  27.905  1.00  0.00     0.014 A 
ATOM     44  C   UNL A   1      40.757  24.775  26.276  1.00  0.00     0.014 A 
ATOM     45  C   UNL A   1      42.162  25.073  28.641  1.00  0.00     0.010 A 
ATOM     46  C   UNL A   1      40.763  25.999  26.889  1.00  0.00     0.010 A 
ATOM     47  C   UNL A   1      41.401  26.131  28.110  1.00  0.00    -0.014 A 
BRANCH  47  48
ATOM     48  C   UNL A   1      41.392  27.448  28.735  1.00  0.00     0.031 A 
ATOM     49  C   UNL A   1      42.498  28.307  28.253  1.00  0.00     0.074 A 
ATOM     50  C   UNL A   1      40.386  27.910  29.513  1.00  0.00     0.049 A 
ATOM     51  N   UNL A   1      43.559  28.623  28.914  1.00  0.00    -0.248 NA
ATOM     52  C   UNL A   1      42.552  28.682  26.829  1.00  0.00     0.031 C 
ATOM     53  C   UNL A   1      39.115  27.254  29.835  1.00  0.00     0.029 A 
ATOM     54  N   UNL A   1      40.250  29.122  30.126  1.00  0.00    -0.354 N 
ATOM     55  C   UNL A   1      44.290  29.456  28.077  1.00  0.00     0.074 A 
ATOM     56  C   UNL A   1      43.755  29.258  26.758  1.00  0.00     0.031 C 
ATOM     57  C   UNL A   1      38.261  28.150  30.382  1.00  0.00     0.029 A 
ATOM     58  C   UNL A   1      38.965  29.400  30.596  1.00  0.00     0.049 A 
ATOM     59  H   UNL A   1      41.001  29.751  30.232  1.00  0.00     0.167 HD
ATOM     60  C   UNL A   1      45.032  30.460  28.620  1.00  0.00     0.037 A 
ATOM     61  C   UNL A   1      38.516  30.578  31.111  1.00  0.00     0.037 A 
ATOM     62  C   UNL A   1      45.233  30.224  30.037  1.00  0.00     0.049 A 
ATOM     63  C   UNL A   1      39.711  31.338  31.551  1.00  0.00     0.074 A 
ATOM     64  C   UNL A   1      45.765  29.192  30.788  1.00  0.00     0.029 A 
ATOM     65  N   UNL A   1      44.471  30.964  30.908  1.00  0.00    -0.354 N 
ATOM     66  N   UNL A   1      40.450  30.990  32.567  1.00  0.00    -0.248 NA
ATOM     67  C   UNL A   1      40.353  32.205  30.576  1.00  0.00     0.031 C 
ATOM     68  C   UNL A   1      44.926  29.098  31.939  1.00  0.00     0.029 A 
ATOM     69  C   UNL A   1      43.993  30.132  31.883  1.00  0.00     0.049 A 
ATOM     70  H   UNL A   1      44.299  31.930  30.843  1.00  0.00     0.167 HD
ATOM     71  C   UNL A   1      41.748  31.172  32.121  1.00  0.00     0.074 A 
ATOM     72  C   UNL A   1      41.627  32.011  30.928  1.00  0.00     0.031 C 
ATOM     73  C   UNL A   1      42.751  30.369  32.578  1.00  0.00     0.037 A 
BRANCH  60  74
ATOM     74  C   UNL A   1      45.149  31.850  28.026  1.00  0.00     0.064 A 
ATOM     75  C   UNL A   1      46.442  32.383  27.831  1.00  0.00     0.173 A 
ATOM     76  C   UNL A   1      44.097  32.791  27.961  1.00  0.00     0.173 A 
ATOM     77  F   UNL A   1      47.521  31.585  27.864  1.00  0.00    -0.203 F 
ATOM     78  C   UNL A   1      46.669  33.755  27.721  1.00  0.00     0.198 A 
ATOM     79  C   UNL A   1      44.325  34.157  27.799  1.00  0.00     0.198 A 
ATOM     80  F   UNL A   1      42.817  32.464  28.155  1.00  0.00    -0.203 F 
ATOM     81  F   UNL A   1      47.925  34.220  27.701  1.00  0.00    -0.200 F 
ATOM     82  C   UNL A   1      45.611  34.643  27.721  1.00  0.00     0.200 A 
ATOM     83  F   UNL A   1      43.284  35.001  27.813  1.00  0.00    -0.200 F 
ATOM     84  F   UNL A   1      45.827  35.964  27.692  1.00  0.00    -0.200 F 
ENDBRANCH  60  74
BRANCH  61  85
ATOM     85  C   UNL A   1      37.178  31.222  31.032  1.00  0.00     0.064 A 
ATOM     86  C   UNL A   1      36.465  31.554  32.202  1.00  0.00     0.173 A 
ATOM     87  C   UNL A   1      36.713  31.810  29.841  1.00  0.00     0.173 A 
ATOM     88  F   UNL A   1      36.853  31.068  33.391  1.00  0.00    -0.203 F 
ATOM     89  C   UNL A   1      35.397  32.458  32.189  1.00  0.00     0.198 A 
ATOM     90  C   UNL A   1      35.641  32.707  29.828  1.00  0.00     0.198 A 
ATOM     91  F   UNL A   1      37.349  31.607  28.680  1.00  0.00    -0.203 F 
ATOM     92  F   UNL A   1      34.800  32.807  33.338  1.00  0.00    -0.200 F 
ATOM     93  C   UNL A   1      34.996  33.047  31.003  1.00  0.00     0.200 A 
ATOM     94  F   UNL A   1      35.283  33.297  28.678  1.00  0.00    -0.200 F 
ATOM     95  F   UNL A   1      34.024  33.970  30.998  1.00  0.00    -0.200 F 
ENDBRANCH  61  85
BRANCH  73  96
ATOM     96  C   UNL A   1      42.475  29.524  33.790  1.00  0.00     0.064 A 
ATOM     97  C   UNL A   1      41.891  28.244  33.761  1.00  0.00     0.173 A 
ATOM     98  C   UNL A   1      42.932  29.993  35.028  1.00  0.00     0.173 A 
ATOM     99  F   UNL A   1      41.516  27.679  32.606  1.00  0.00    -0.203 F 
ATOM    100  C   UNL A   1      41.727  27.498  34.928  1.00  0.00     0.198 A 
ATOM    101  C   UNL A   1      42.806  29.231  36.185  1.00  0.00     0.198 A 
ATOM    102  F   UNL A   1      43.543  31.186  35.110  1.00  0.00    -0.203 F 
ATOM    103  F   UNL A   1      41.148  26.290  34.879  1.00  0.00    -0.200 F 
ATOM    104  C   UNL A   1      42.191  27.990  36.137  1.00  0.00     0.200 A 
ATOM    105  F   UNL A   1      43.301  29.690  37.341  1.00  0.00    -0.200 F 
ATOM    106  F   UNL A   1      42.068  27.259  37.254  1.00  0.00    -0.200 F 
ENDBRANCH  73  96
ENDBRANCH  47  48
ENDBRANCH  39  42
ENDBRANCH  37  38
ENDBRANCH  36  37
ENDBRANCH  35  36
ENDBRANCH   3  35
TORSDOF 18
ENDMDL
MODEL 2
REMARK VINA RESULT:     -13.0      3.494      9.022
REMARK SMILES NS(=O)(=O)c1ccc(-n2nc(C(=O)NCCCC(=O)NCCCNC(=O)c3ccc(-c4c5nc(c(-c6c(F)c(F)c(F)c(F)c6F)c6ccc([nH]6)c(-c6c(F)c(F)c(F)c(F)c6F)c6nc(c(-c7c(F)c(F)c(F)c(F)c7F)c7ccc4[nH]7)C=C6)C=C5)cc3)cc2-c2ccccc2)cc1
REMARK SMILES IDX 18 1 19 2 20 3 17 5 16 6 15 7 14 8 12 9 13 10 11 12 9 13
REMARK SMILES IDX 10 14 91 15 90 16 8 17 5 18 6 19 99 20 7 21 98 22 2 23 3 24
REMARK SMILES IDX 4 25 1 26 92 29 93 30 97 31 94 32 96 33 95 34 21 35 22 36
REMARK SMILES IDX 23 37 24 38 25 39 26 41 27 42 28 43 89 44 29 45 88 46 30 47
REMARK SMILES IDX 31 48 32 49 82 50 33 51 87 52 81 53 83 54 34 55 86 56 80 57
REMARK SMILES IDX 79 58 35 60 67 61 47 62 66 63 48 64 51 65 65 66 84 67 49 68
REMARK SMILES IDX 50 69 64 71 85 72 52 73 36 74 37 75 45 76 38 77 39 78 43 79
REMARK SMILES IDX 46 80 40 81 41 82 44 83 42 84 68 85 69 86 77 87 70 88 71 89
REMARK SMILES IDX 75 90 78 91 72 92 73 93 76 94 74 95 53 96 54 97 62 98 55 99
REMARK SMILES IDX 56 100 60 101 63 102 57 103 58 104 61 105 59 106
REMARK H PARENT 20 4 14 11 1 27 1 28 24 40 83 59 51 70
REMARK Flexibility Score: inf
ROOT
ATOM      1  C   UNL A   1      32.869  29.237  24.977  1.00  0.00     0.220 C 
ATOM      2  O   UNL A   1      33.111  29.069  23.780  1.00  0.00    -0.275 OA
ATOM      3  N   UNL A   1      33.872  29.699  25.772  1.00  0.00    -0.356 N 
ATOM      4  H   UNL A   1      34.710  29.899  25.295  1.00  0.00     0.163 HD
ENDROOT
BRANCH   1   5
ATOM      5  C   UNL A   1      31.492  28.944  25.535  1.00  0.00     0.102 C 
BRANCH   5   6
ATOM      6  C   UNL A   1      31.261  27.478  25.908  1.00  0.00     0.031 C 
BRANCH   6   7
ATOM      7  C   UNL A   1      30.332  26.694  24.992  1.00  0.00     0.116 C 
BRANCH   7   8
ATOM      8  N   UNL A   1      30.633  26.835  23.580  1.00  0.00    -0.351 N 
ATOM      9  C   UNL A   1      31.522  26.147  22.781  1.00  0.00     0.271 C 
ATOM     10  O   UNL A   1      31.558  26.463  21.592  1.00  0.00    -0.267 OA
ATOM     11  H   UNL A   1      30.118  27.534  23.116  1.00  0.00     0.163 HD
BRANCH   9  12
ATOM     12  C   UNL A   1      32.376  25.094  23.356  1.00  0.00     0.151 A 
ATOM     13  N   UNL A   1      33.011  23.114  23.890  1.00  0.00    -0.232 N 
ATOM     14  N   UNL A   1      32.065  23.792  23.199  1.00  0.00    -0.162 NA
ATOM     15  C   UNL A   1      34.058  23.944  24.268  1.00  0.00     0.075 A 
ATOM     16  C   UNL A   1      33.582  25.224  24.086  1.00  0.00     0.065 A 
BRANCH  13  17
ATOM     17  C   UNL A   1      32.880  21.724  24.143  1.00  0.00     0.065 A 
ATOM     18  C   UNL A   1      32.835  18.979  24.603  1.00  0.00     0.082 A 
ATOM     19  C   UNL A   1      33.183  19.842  25.643  1.00  0.00     0.024 A 
ATOM     20  C   UNL A   1      32.452  19.481  23.353  1.00  0.00     0.024 A 
ATOM     21  C   UNL A   1      33.214  21.215  25.409  1.00  0.00     0.030 A 
ATOM     22  C   UNL A   1      32.449  20.862  23.127  1.00  0.00     0.030 A 
BRANCH  18  23
ATOM     23  S   UNL A   1      32.907  17.226  24.820  1.00  0.00     0.238 S 
ATOM     24  O   UNL A   1      31.683  16.809  25.482  1.00  0.00    -0.207 OA
ATOM     25  O   UNL A   1      34.213  16.872  25.294  1.00  0.00    -0.207 OA
BRANCH  23  26
ATOM     26  N   UNL A   1      32.799  16.596  23.262  1.00  0.00    -0.225 NA
ATOM     27  H   UNL A   1      33.717  16.269  22.964  1.00  0.00     0.137 HD
ATOM     28  H   UNL A   1      32.472  17.322  22.625  1.00  0.00     0.137 HD
ENDBRANCH  23  26
ENDBRANCH  18  23
ENDBRANCH  13  17
BRANCH  15  29
ATOM     29  C   UNL A   1      35.410  23.520  24.624  1.00  0.00     0.000 A 
ATOM     30  C   UNL A   1      36.035  24.051  25.764  1.00  0.00     0.010 A 
ATOM     31  C   UNL A   1      36.073  22.540  23.878  1.00  0.00     0.010 A 
ATOM     32  C   UNL A   1      37.312  23.630  26.134  1.00  0.00     0.001 A 
ATOM     33  C   UNL A   1      37.351  22.118  24.252  1.00  0.00     0.001 A 
ATOM     34  C   UNL A   1      37.969  22.664  25.377  1.00  0.00     0.000 A 
ENDBRANCH  15  29
ENDBRANCH   9  12
ENDBRANCH   7   8
ENDBRANCH   6   7
ENDBRANCH   5   6
ENDBRANCH   1   5
BRANCH   3  35
ATOM     35  C   UNL A   1      33.922  29.949  27.208  1.00  0.00     0.117 C 
BRANCH  35  36
ATOM     36  C   UNL A   1      33.332  31.315  27.578  1.00  0.00     0.042 C 
BRANCH  36  37
ATOM     37  C   UNL A   1      34.379  32.342  27.952  1.00  0.00     0.118 C 
BRANCH  37  38
ATOM     38  N   UNL A   1      34.316  32.752  29.352  1.00  0.00    -0.352 N 
ATOM     39  C   UNL A   1      35.062  32.254  30.405  1.00  0.00     0.251 C 
ATOM     40  H   UNL A   1      33.671  33.462  29.570  1.00  0.00     0.163 HD
ATOM     41  O   UNL A   1      34.665  32.364  31.560  1.00  0.00    -0.269 OA
BRANCH  39  42
ATOM     42  C   UNL A   1      36.342  31.579  30.119  1.00  0.00     0.039 A 
ATOM     43  C   UNL A   1      37.515  32.302  29.894  1.00  0.00     0.014 A 
ATOM     44  C   UNL A   1      36.362  30.187  30.098  1.00  0.00     0.014 A 
ATOM     45  C   UNL A   1      38.708  31.604  29.719  1.00  0.00     0.010 A 
ATOM     46  C   UNL A   1      37.552  29.511  30.130  1.00  0.00     0.010 A 
ATOM     47  C   UNL A   1      38.720  30.204  29.865  1.00  0.00    -0.014 A 
BRANCH  47  48
ATOM     48  C   UNL A   1      39.971  29.456  29.909  1.00  0.00     0.031 A 
ATOM     49  C   UNL A   1      40.455  29.251  31.294  1.00  0.00     0.074 A 
ATOM     50  C   UNL A   1      40.528  28.849  28.836  1.00  0.00     0.049 A 
ATOM     51  N   UNL A   1      41.450  29.853  31.850  1.00  0.00    -0.248 NA
ATOM     52  C   UNL A   1      39.635  28.466  32.234  1.00  0.00     0.031 C 
ATOM     53  C   UNL A   1      39.999  28.752  27.473  1.00  0.00     0.029 A 
ATOM     54  N   UNL A   1      41.670  28.105  28.757  1.00  0.00    -0.354 N 
ATOM     55  C   UNL A   1      41.543  29.325  33.131  1.00  0.00     0.074 A 
ATOM     56  C   UNL A   1      40.283  28.678  33.383  1.00  0.00     0.031 C 
ATOM     57  C   UNL A   1      40.689  27.820  26.776  1.00  0.00     0.029 A 
ATOM     58  C   UNL A   1      41.805  27.362  27.583  1.00  0.00     0.049 A 
ATOM     59  H   UNL A   1      42.347  28.093  29.472  1.00  0.00     0.167 HD
ATOM     60  C   UNL A   1      42.768  29.195  33.711  1.00  0.00     0.037 A 
ATOM     61  C   UNL A   1      42.760  26.433  27.304  1.00  0.00     0.037 A 
ATOM     62  C   UNL A   1      43.740  30.015  33.014  1.00  0.00     0.049 A 
ATOM     63  C   UNL A   1      43.897  26.697  28.219  1.00  0.00     0.074 A 
ATOM     64  C   UNL A   1      43.839  31.358  32.703  1.00  0.00     0.029 A 
ATOM     65  N   UNL A   1      44.605  29.371  32.163  1.00  0.00    -0.354 N 
ATOM     66  N   UNL A   1      44.663  27.747  28.128  1.00  0.00    -0.248 NA
ATOM     67  C   UNL A   1      43.880  26.042  29.517  1.00  0.00     0.031 C 
ATOM     68  C   UNL A   1      44.390  31.397  31.387  1.00  0.00     0.029 A 
ATOM     69  C   UNL A   1      44.691  30.091  31.003  1.00  0.00     0.049 A 
ATOM     70  H   UNL A   1      45.084  28.534  32.356  1.00  0.00     0.167 HD
ATOM     71  C   UNL A   1      44.825  28.164  29.439  1.00  0.00     0.074 A 
ATOM     72  C   UNL A   1      44.404  27.025  30.255  1.00  0.00     0.031 C 
ATOM     73  C   UNL A   1      44.983  29.488  29.725  1.00  0.00     0.037 A 
BRANCH  60  74
ATOM     74  C   UNL A   1      43.192  28.004  34.548  1.00  0.00     0.064 A 
ATOM     75  C   UNL A   1      43.665  28.247  35.855  1.00  0.00     0.173 A 
ATOM     76  C   UNL A   1      43.475  26.718  34.036  1.00  0.00     0.173 A 
ATOM     77  F   UNL A   1      43.451  29.431  36.450  1.00  0.00    -0.203 F 
ATOM     78  C   UNL A   1      44.472  27.331  36.533  1.00  0.00     0.198 A 
ATOM     79  C   UNL A   1      44.238  25.787  34.738  1.00  0.00     0.198 A 
ATOM     80  F   UNL A   1      43.130  26.334  32.805  1.00  0.00    -0.203 F 
ATOM     81  F   UNL A   1      45.028  27.675  37.702  1.00  0.00    -0.200 F 
ATOM     82  C   UNL A   1      44.771  26.107  35.967  1.00  0.00     0.200 A 
ATOM     83  F   UNL A   1      44.526  24.609  34.165  1.00  0.00    -0.200 F 
ATOM     84  F   UNL A   1      45.604  25.257  36.578  1.00  0.00    -0.200 F 
ENDBRANCH  60  74
BRANCH  61  85
ATOM     85  C   UNL A   1      42.690  25.183  26.500  1.00  0.00     0.064 A 
ATOM     86  C   UNL A   1      43.588  24.957  25.436  1.00  0.00     0.173 A 
ATOM     87  C   UNL A   1      41.970  24.060  26.947  1.00  0.00     0.173 A 
ATOM     88  F   UNL A   1      44.342  25.960  24.963  1.00  0.00    -0.203 F 
ATOM     89  C   UNL A   1      43.791  23.682  24.896  1.00  0.00     0.198 A 
ATOM     90  C   UNL A   1      42.169  22.789  26.402  1.00  0.00     0.198 A 
ATOM     91  F   UNL A   1      41.132  24.151  27.988  1.00  0.00    -0.203 F 
ATOM     92  F   UNL A   1      44.714  23.499  23.941  1.00  0.00    -0.200 F 
ATOM     93  C   UNL A   1      43.093  22.595  25.391  1.00  0.00     0.200 A 
ATOM     94  F   UNL A   1      41.511  21.738  26.912  1.00  0.00    -0.200 F 
ATOM     95  F   UNL A   1      43.341  21.361  24.929  1.00  0.00    -0.200 F 
ENDBRANCH  61  85
BRANCH  73  96
ATOM     96  C   UNL A   1      45.297  30.419  28.587  1.00  0.00     0.064 A 
ATOM     97  C   UNL A   1      44.335  31.047  27.775  1.00  0.00     0.173 A 
ATOM     98  C   UNL A   1      46.637  30.775  28.389  1.00  0.00     0.173 A 
ATOM     99  F   UNL A   1      43.026  30.838  27.961  1.00  0.00    -0.203 F 
ATOM    100  C   UNL A   1      44.710  31.948  26.778  1.00  0.00     0.198 A 
ATOM    101  C   UNL A   1      47.005  31.705  27.423  1.00  0.00     0.198 A 
ATOM    102  F   UNL A   1      47.594  30.246  29.168  1.00  0.00    -0.203 F 
ATOM    103  F   UNL A   1      43.777  32.518  26.001  1.00  0.00    -0.200 F 
ATOM    104  C   UNL A   1      46.043  32.281  26.608  1.00  0.00     0.200 A 
ATOM    105  F   UNL A   1      48.291  32.060  27.298  1.00  0.00    -0.200 F 
ATOM    106  F   UNL A   1      46.403  33.174  25.675  1.00  0.00    -0.200 F 
ENDBRANCH  73  96
ENDBRANCH  47  48
ENDBRANCH  39  42
ENDBRANCH  37  38
ENDBRANCH  36  37
ENDBRANCH  35  36
ENDBRANCH   3  35
TORSDOF 18
ENDMDL
MODEL 3
REMARK VINA RESULT:     -12.9      2.080      2.788
REMARK SMILES NS(=O)(=O)c1ccc(-n2nc(C(=O)NCCCC(=O)NCCCNC(=O)c3ccc(-c4c5nc(c(-c6c(F)c(F)c(F)c(F)c6F)c6ccc([nH]6)c(-c6c(F)c(F)c(F)c(F)c6F)c6nc(c(-c7c(F)c(F)c(F)c(F)c7F)c7ccc4[nH]7)C=C6)C=C5)cc3)cc2-c2ccccc2)cc1
REMARK SMILES IDX 18 1 19 2 20 3 17 5 16 6 15 7 14 8 12 9 13 10 11 12 9 13
REMARK SMILES IDX 10 14 91 15 90 16 8 17 5 18 6 19 99 20 7 21 98 22 2 23 3 24
REMARK SMILES IDX 4 25 1 26 92 29 93 30 97 31 94 32 96 33 95 34 21 35 22 36
REMARK SMILES IDX 23 37 24 38 25 39 26 41 27 42 28 43 89 44 29 45 88 46 30 47
REMARK SMILES IDX 31 48 32 49 82 50 33 51 87 52 81 53 83 54 34 55 86 56 80 57
REMARK SMILES IDX 79 58 35 60 67 61 47 62 66 63 48 64 51 65 65 66 84 67 49 68
REMARK SMILES IDX 50 69 64 71 85 72 52 73 36 74 37 75 45 76 38 77 39 78 43 79
REMARK SMILES IDX 46 80 40 81 41 82 44 83 42 84 68 85 69 86 77 87 70 88 71 89
REMARK SMILES IDX 75 90 78 91 72 92 73 93 76 94 74 95 53 96 54 97 62 98 55 99
REMARK SMILES IDX 56 100 60 101 63 102 57 103 58 104 61 105 59 106
REMARK H PARENT 20 4 14 11 1 27 1 28 24 40 83 59 51 70
REMARK Flexibility Score: inf
ROOT
ATOM      1  C   UNL A   1      38.607  21.696  25.631  1.00  0.00     0.220 C 
ATOM      2  O   UNL A   1      38.670  22.866  26.010  1.00  0.00    -0.275 OA
ATOM      3  N   UNL A   1      39.574  20.835  26.051  1.00  0.00    -0.356 N 
ATOM      4  H   UNL A   1      40.230  21.232  26.668  1.00  0.00     0.163 HD
ENDROOT
BRANCH   1   5
ATOM      5  C   UNL A   1      37.478  21.235  24.732  1.00  0.00     0.102 C 
BRANCH   5   6
ATOM      6  C   UNL A   1      36.079  21.492  25.296  1.00  0.00     0.031 C 
BRANCH   6   7
ATOM      7  C   UNL A   1      35.095  22.175  24.355  1.00  0.00     0.116 C 
BRANCH   7   8
ATOM      8  N   UNL A   1      33.782  21.559  24.321  1.00  0.00    -0.351 N 
ATOM      9  C   UNL A   1      32.526  22.125  24.393  1.00  0.00     0.271 C 
ATOM     10  O   UNL A   1      31.567  21.357  24.316  1.00  0.00    -0.267 OA
ATOM     11  H   UNL A   1      33.789  20.579  24.232  1.00  0.00     0.163 HD
BRANCH   9  12
ATOM     12  C   UNL A   1      32.374  23.580  24.557  1.00  0.00     0.151 A 
ATOM     13  N   UNL A   1      31.518  25.534  24.318  1.00  0.00    -0.232 N 
ATOM     14  N   UNL A   1      31.312  24.226  24.036  1.00  0.00    -0.162 NA
ATOM     15  C   UNL A   1      32.555  25.703  25.225  1.00  0.00     0.075 A 
ATOM     16  C   UNL A   1      33.211  24.491  25.245  1.00  0.00     0.065 A 
BRANCH  13  17
ATOM     17  C   UNL A   1      30.717  26.546  23.726  1.00  0.00     0.065 A 
ATOM     18  C   UNL A   1      29.198  28.657  22.734  1.00  0.00     0.082 A 
ATOM     19  C   UNL A   1      30.571  28.624  22.485  1.00  0.00     0.024 A 
ATOM     20  C   UNL A   1      28.571  27.613  23.426  1.00  0.00     0.024 A 
ATOM     21  C   UNL A   1      31.331  27.572  22.988  1.00  0.00     0.030 A 
ATOM     22  C   UNL A   1      29.329  26.538  23.903  1.00  0.00     0.030 A 
BRANCH  18  23
ATOM     23  S   UNL A   1      28.218  30.036  22.224  1.00  0.00     0.238 S 
ATOM     24  O   UNL A   1      27.063  30.111  23.101  1.00  0.00    -0.207 OA
ATOM     25  O   UNL A   1      28.115  30.027  20.794  1.00  0.00    -0.207 OA
BRANCH  23  26
ATOM     26  N   UNL A   1      29.147  31.388  22.607  1.00  0.00    -0.225 NA
ATOM     27  H   UNL A   1      28.889  32.162  21.995  1.00  0.00     0.137 HD
ATOM     28  H   UNL A   1      30.134  31.168  22.480  1.00  0.00     0.137 HD
ENDBRANCH  23  26
ENDBRANCH  18  23
ENDBRANCH  13  17
BRANCH  15  29
ATOM     29  C   UNL A   1      32.778  26.871  26.074  1.00  0.00     0.000 A 
ATOM     30  C   UNL A   1      33.999  27.561  26.013  1.00  0.00     0.010 A 
ATOM     31  C   UNL A   1      31.764  27.354  26.907  1.00  0.00     0.010 A 
ATOM     32  C   UNL A   1      34.212  28.696  26.792  1.00  0.00     0.001 A 
ATOM     33  C   UNL A   1      31.978  28.493  27.686  1.00  0.00     0.001 A 
ATOM     34  C   UNL A   1      33.201  29.162  27.630  1.00  0.00     0.000 A 
ENDBRANCH  15  29
ENDBRANCH   9  12
ENDBRANCH   7   8
ENDBRANCH   6   7
ENDBRANCH   5   6
ENDBRANCH   1   5
BRANCH   3  35
ATOM     35  C   UNL A   1      39.806  19.429  25.746  1.00  0.00     0.117 C 
BRANCH  35  36
ATOM     36  C   UNL A   1      41.249  19.003  26.046  1.00  0.00     0.042 C 
BRANCH  36  37
ATOM     37  C   UNL A   1      42.220  20.164  26.101  1.00  0.00     0.118 C 
BRANCH  37  38
ATOM     38  N   UNL A   1      43.477  19.902  25.408  1.00  0.00    -0.352 N 
ATOM     39  C   UNL A   1      44.332  20.830  24.842  1.00  0.00     0.251 C 
ATOM     40  H   UNL A   1      43.747  18.958  25.335  1.00  0.00     0.163 HD
ATOM     41  O   UNL A   1      45.119  20.503  23.961  1.00  0.00    -0.269 OA
BRANCH  39  42
ATOM     42  C   UNL A   1      44.278  22.229  25.310  1.00  0.00     0.039 A 
ATOM     43  C   UNL A   1      43.529  23.196  24.636  1.00  0.00     0.014 A 
ATOM     44  C   UNL A   1      44.981  22.565  26.464  1.00  0.00     0.014 A 
ATOM     45  C   UNL A   1      43.448  24.477  25.180  1.00  0.00     0.010 A 
ATOM     46  C   UNL A   1      44.738  23.751  27.102  1.00  0.00     0.010 A 
ATOM     47  C   UNL A   1      44.036  24.738  26.432  1.00  0.00    -0.014 A 
BRANCH  47  48
ATOM     48  C   UNL A   1      43.792  25.989  27.139  1.00  0.00     0.031 A 
ATOM     49  C   UNL A   1      44.749  27.050  26.751  1.00  0.00     0.074 A 
ATOM     50  C   UNL A   1      42.705  26.223  27.910  1.00  0.00     0.049 A 
ATOM     51  N   UNL A   1      45.726  27.492  27.467  1.00  0.00    -0.248 NA
ATOM     52  C   UNL A   1      44.772  27.526  25.357  1.00  0.00     0.031 C 
ATOM     53  C   UNL A   1      41.555  25.345  28.146  1.00  0.00     0.029 A 
ATOM     54  N   UNL A   1      42.354  27.350  28.594  1.00  0.00    -0.354 N 
ATOM     55  C   UNL A   1      46.326  28.490  26.710  1.00  0.00     0.074 A 
ATOM     56  C   UNL A   1      45.862  28.297  25.363  1.00  0.00     0.031 C 
ATOM     57  C   UNL A   1      40.550  26.047  28.719  1.00  0.00     0.029 A 
ATOM     58  C   UNL A   1      41.029  27.379  29.036  1.00  0.00     0.049 A 
ATOM     59  H   UNL A   1      42.985  28.086  28.765  1.00  0.00     0.167 HD
ATOM     60  C   UNL A   1      46.877  29.564  27.341  1.00  0.00     0.037 A 
ATOM     61  C   UNL A   1      40.378  28.428  29.610  1.00  0.00     0.037 A 
ATOM     62  C   UNL A   1      47.082  29.267  28.746  1.00  0.00     0.049 A 
ATOM     63  C   UNL A   1      41.418  29.343  30.138  1.00  0.00     0.074 A 
ATOM     64  C   UNL A   1      47.762  28.289  29.447  1.00  0.00     0.029 A 
ATOM     65  N   UNL A   1      46.187  29.809  29.636  1.00  0.00    -0.354 N 
ATOM     66  N   UNL A   1      42.181  29.053  31.154  1.00  0.00    -0.248 NA
ATOM     67  C   UNL A   1      41.928  30.370  29.243  1.00  0.00     0.031 C 
ATOM     68  C   UNL A   1      46.925  27.978  30.560  1.00  0.00     0.029 A 
ATOM     69  C   UNL A   1      45.832  28.844  30.538  1.00  0.00     0.049 A 
ATOM     70  H   UNL A   1      45.856  30.736  29.627  1.00  0.00     0.167 HD
ATOM     71  C   UNL A   1      43.440  29.479  30.766  1.00  0.00     0.074 A 
ATOM     72  C   UNL A   1      43.207  30.366  29.625  1.00  0.00     0.031 C 
ATOM     73  C   UNL A   1      44.553  28.824  31.205  1.00  0.00     0.037 A 
BRANCH  60  74
ATOM     74  C   UNL A   1      46.772  30.991  26.841  1.00  0.00     0.064 A 
ATOM     75  C   UNL A   1      47.925  31.803  26.905  1.00  0.00     0.173 A 
ATOM     76  C   UNL A   1      45.561  31.686  26.632  1.00  0.00     0.173 A 
ATOM     77  F   UNL A   1      49.136  31.256  27.095  1.00  0.00    -0.203 F 
ATOM     78  C   UNL A   1      47.852  33.197  26.900  1.00  0.00     0.198 A 
ATOM     79  C   UNL A   1      45.497  33.077  26.576  1.00  0.00     0.198 A 
ATOM     80  F   UNL A   1      44.373  31.077  26.579  1.00  0.00    -0.203 F 
ATOM     81  F   UNL A   1      48.956  33.920  27.127  1.00  0.00    -0.200 F 
ATOM     82  C   UNL A   1      46.635  33.834  26.751  1.00  0.00     0.200 A 
ATOM     83  F   UNL A   1      44.304  33.674  26.442  1.00  0.00    -0.200 F 
ATOM     84  F   UNL A   1      46.548  35.168  26.821  1.00  0.00    -0.200 F 
ENDBRANCH  60  74
BRANCH  61  85
ATOM     85  C   UNL A   1      38.952  28.845  29.527  1.00  0.00     0.064 A 
ATOM     86  C   UNL A   1      38.167  28.970  30.691  1.00  0.00     0.173 A 
ATOM     87  C   UNL A   1      38.424  29.431  28.361  1.00  0.00     0.173 A 
ATOM     88  F   UNL A   1      38.602  28.472  31.857  1.00  0.00    -0.203 F 
ATOM     89  C   UNL A   1      36.962  29.683  30.699  1.00  0.00     0.198 A 
ATOM     90  C   UNL A   1      37.217  30.136  28.370  1.00  0.00     0.198 A 
ATOM     91  F   UNL A   1      39.113  29.420  27.213  1.00  0.00    -0.203 F 
ATOM     92  F   UNL A   1      36.288  29.845  31.847  1.00  0.00    -0.200 F 
ATOM     93  C   UNL A   1      36.497  30.280  29.541  1.00  0.00     0.200 A 
ATOM     94  F   UNL A   1      36.793  30.739  27.250  1.00  0.00    -0.200 F 
ATOM     95  F   UNL A   1      35.384  31.027  29.564  1.00  0.00    -0.200 F 
ENDBRANCH  61  85
BRANCH  73  96
ATOM     96  C   UNL A   1      44.394  27.863  32.350  1.00  0.00     0.064 A 
ATOM     97  C   UNL A   1      44.172  26.481  32.214  1.00  0.00     0.173 A 
ATOM     98  C   UNL A   1      44.592  28.358  33.646  1.00  0.00     0.173 A 
ATOM     99  F   UNL A   1      44.070  25.910  31.007  1.00  0.00    -0.203 F 
ATOM    100  C   UNL A   1      44.100  25.648  33.331  1.00  0.00     0.198 A 
ATOM    101  C   UNL A   1      44.562  27.519  34.755  1.00  0.00     0.198 A 
ATOM    102  F   UNL A   1      44.859  29.660  33.834  1.00  0.00    -0.203 F 
ATOM    103  F   UNL A   1      43.865  24.336  33.178  1.00  0.00    -0.200 F 
ATOM    104  C   UNL A   1      44.302  26.167  34.599  1.00  0.00     0.200 A 
ATOM    105  F   UNL A   1      44.807  28.019  35.973  1.00  0.00    -0.200 F 
ATOM    106  F   UNL A   1      44.269  25.362  35.671  1.00  0.00    -0.200 F 
ENDBRANCH  73  96
ENDBRANCH  47  48
ENDBRANCH  39  42
ENDBRANCH  37  38
ENDBRANCH  36  37
ENDBRANCH  35  36
ENDBRANCH   3  35
TORSDOF 18
ENDMDL
