MODEL 1
REMARK VINA RESULT:     -12.3      0.000      0.000
REMARK SMILES Cc1nc(Oc2ccc(F)cc2)c(C(=O)NCCCNC(=O)c2ccc(-c3c4nc(c(-c5c(F)c(F)c(F)c(F)c5F)c5ccc([nH]5)c(-c5c(F)c(F)c(F)c(F)c5F)c5nc(c(-c6c(F)c(F)c(F)c(F)c6F)c6ccc3[nH]6)C=C5)C=C4)cc2)c(C)c1Cl
REMARK SMILES IDX 18 1 17 2 16 3 14 4 15 5 13 7 1 8 2 9 3 10 88 11 4 12 86 13
REMARK SMILES IDX 89 14 87 15 5 16 6 17 7 18 12 19 8 20 11 21 9 22 10 23 19 24
REMARK SMILES IDX 20 25 21 26 22 28 23 29 24 30 85 31 25 32 84 33 26 34 27 35
REMARK SMILES IDX 28 36 78 37 29 38 83 39 77 40 79 41 30 42 82 43 76 44 75 45
REMARK SMILES IDX 31 47 63 48 43 49 62 50 44 51 47 52 61 53 80 54 45 55 46 56
REMARK SMILES IDX 60 58 81 59 48 60 32 61 33 62 41 63 34 64 35 65 39 66 42 67
REMARK SMILES IDX 36 68 37 69 40 70 38 71 64 72 65 73 73 74 66 75 67 76 71 77
REMARK SMILES IDX 74 78 68 79 69 80 72 81 70 82 49 83 50 84 58 85 51 86 52 87
REMARK SMILES IDX 56 88 59 89 53 90 54 91 57 92 55 93
REMARK H PARENT 16 6 20 27 79 46 47 57
REMARK Flexibility Score: inf
ROOT
ATOM      1  C   UNL A   1      33.916  28.977  23.448  1.00  0.00     0.042 C 
ENDROOT
BRANCH   1   2
ATOM      2  C   UNL A   1      33.322  27.744  22.782  1.00  0.00     0.118 C 
BRANCH   2   3
ATOM      3  N   UNL A   1      33.956  26.559  23.310  1.00  0.00    -0.352 N 
ATOM      4  C   UNL A   1      33.275  25.368  23.330  1.00  0.00     0.257 C 
ATOM      5  O   UNL A   1      32.709  24.888  22.361  1.00  0.00    -0.269 OA
ATOM      6  H   UNL A   1      34.877  26.605  23.655  1.00  0.00     0.163 HD
BRANCH   4   7
ATOM      7  C   UNL A   1      33.146  24.757  24.664  1.00  0.00     0.106 A 
ATOM      8  C   UNL A   1      32.907  22.186  28.022  1.00  0.00     0.068 C 
ATOM      9  C   UNL A   1      32.930  23.185  26.900  1.00  0.00     0.060 A 
ATOM     10  N   UNL A   1      34.165  23.564  26.477  1.00  0.00    -0.216 NA
ATOM     11  C   UNL A   1      31.754  23.633  26.295  1.00  0.00     0.066 A 
ATOM     12  C   UNL A   1      34.273  24.344  25.373  1.00  0.00     0.232 A 
ATOM     13  C   UNL A   1      31.847  24.429  25.143  1.00  0.00    -0.012 A 
ATOM     14  Cl  UNL A   1      30.218  23.162  26.948  1.00  0.00    -0.082 Cl
ATOM     15  C   UNL A   1      30.615  24.906  24.420  1.00  0.00     0.047 C 
BRANCH  12  16
ATOM     16  O   UNL A   1      35.586  24.513  25.008  1.00  0.00    -0.438 OA
BRANCH  16  17
ATOM     17  C   UNL A   1      36.510  23.516  25.184  1.00  0.00     0.129 A 
ATOM     18  C   UNL A   1      37.565  23.817  26.051  1.00  0.00     0.050 A 
ATOM     19  C   UNL A   1      36.492  22.301  24.493  1.00  0.00     0.050 A 
ATOM     20  C   UNL A   1      38.570  22.880  26.287  1.00  0.00     0.043 A 
ATOM     21  C   UNL A   1      37.497  21.358  24.739  1.00  0.00     0.043 A 
ATOM     22  C   UNL A   1      38.521  21.654  25.637  1.00  0.00     0.123 A 
ATOM     23  F   UNL A   1      39.471  20.742  25.879  1.00  0.00    -0.207 F 
ENDBRANCH  16  17
ENDBRANCH  12  16
ENDBRANCH   4   7
ENDBRANCH   2   3
ENDBRANCH   1   2
BRANCH   1  24
ATOM     24  C   UNL A   1      33.744  28.931  24.952  1.00  0.00     0.118 C 
BRANCH  24  25
ATOM     25  N   UNL A   1      32.996  30.082  25.434  1.00  0.00    -0.352 N 
ATOM     26  C   UNL A   1      33.148  30.788  26.602  1.00  0.00     0.251 C 
ATOM     27  H   UNL A   1      32.280  30.401  24.837  1.00  0.00     0.163 HD
ATOM     28  O   UNL A   1      32.287  31.571  26.973  1.00  0.00    -0.269 OA
BRANCH  26  29
ATOM     29  C   UNL A   1      34.364  30.580  27.408  1.00  0.00     0.039 A 
ATOM     30  C   UNL A   1      35.236  31.651  27.618  1.00  0.00     0.014 A 
ATOM     31  C   UNL A   1      34.640  29.320  27.946  1.00  0.00     0.014 A 
ATOM     32  C   UNL A   1      36.370  31.464  28.408  1.00  0.00     0.010 A 
ATOM     33  C   UNL A   1      35.714  29.158  28.805  1.00  0.00     0.010 A 
ATOM     34  C   UNL A   1      36.605  30.221  29.014  1.00  0.00    -0.014 A 
BRANCH  34  35
ATOM     35  C   UNL A   1      37.827  29.969  29.806  1.00  0.00     0.031 A 
ATOM     36  C   UNL A   1      38.872  29.045  29.253  1.00  0.00     0.074 A 
ATOM     37  C   UNL A   1      37.956  30.506  31.031  1.00  0.00     0.049 A 
ATOM     38  N   UNL A   1      39.980  28.624  29.804  1.00  0.00    -0.248 NA
ATOM     39  C   UNL A   1      38.618  28.490  27.913  1.00  0.00     0.031 C 
ATOM     40  C   UNL A   1      36.976  31.375  31.679  1.00  0.00     0.029 A 
ATOM     41  N   UNL A   1      38.962  30.384  31.954  1.00  0.00    -0.354 N 
ATOM     42  C   UNL A   1      40.541  27.746  28.886  1.00  0.00     0.074 A 
ATOM     43  C   UNL A   1      39.622  27.640  27.776  1.00  0.00     0.031 C 
ATOM     44  C   UNL A   1      37.437  31.726  32.891  1.00  0.00     0.029 A 
ATOM     45  C   UNL A   1      38.730  31.083  33.112  1.00  0.00     0.049 A 
ATOM     46  H   UNL A   1      39.773  29.848  31.802  1.00  0.00     0.167 HD
ATOM     47  C   UNL A   1      41.734  27.112  28.952  1.00  0.00     0.037 A 
ATOM     48  C   UNL A   1      39.481  31.189  34.223  1.00  0.00     0.037 A 
ATOM     49  C   UNL A   1      42.652  27.255  30.049  1.00  0.00     0.049 A 
ATOM     50  C   UNL A   1      40.806  30.480  34.278  1.00  0.00     0.074 A 
ATOM     51  C   UNL A   1      43.921  26.726  30.185  1.00  0.00     0.029 A 
ATOM     52  N   UNL A   1      42.391  27.983  31.202  1.00  0.00    -0.354 N 
ATOM     53  N   UNL A   1      41.368  29.713  33.374  1.00  0.00    -0.248 NA
ATOM     54  C   UNL A   1      41.603  30.654  35.499  1.00  0.00     0.031 C 
ATOM     55  C   UNL A   1      44.409  27.092  31.443  1.00  0.00     0.029 A 
ATOM     56  C   UNL A   1      43.465  27.892  32.071  1.00  0.00     0.049 A 
ATOM     57  H   UNL A   1      41.566  28.489  31.375  1.00  0.00     0.167 HD
ATOM     58  C   UNL A   1      42.590  29.324  33.906  1.00  0.00     0.074 A 
ATOM     59  C   UNL A   1      42.693  29.953  35.208  1.00  0.00     0.031 C 
ATOM     60  C   UNL A   1      43.539  28.520  33.366  1.00  0.00     0.037 A 
BRANCH  47  61
ATOM     61  C   UNL A   1      42.106  26.219  27.805  1.00  0.00     0.064 A 
ATOM     62  C   UNL A   1      41.719  24.870  27.766  1.00  0.00     0.173 A 
ATOM     63  C   UNL A   1      42.854  26.717  26.729  1.00  0.00     0.173 A 
ATOM     64  F   UNL A   1      41.017  24.339  28.778  1.00  0.00    -0.203 F 
ATOM     65  C   UNL A   1      42.098  24.045  26.710  1.00  0.00     0.198 A 
ATOM     66  C   UNL A   1      43.203  25.898  25.658  1.00  0.00     0.198 A 
ATOM     67  F   UNL A   1      43.250  27.999  26.715  1.00  0.00    -0.203 F 
ATOM     68  F   UNL A   1      41.769  22.746  26.726  1.00  0.00    -0.200 F 
ATOM     69  C   UNL A   1      42.834  24.560  25.655  1.00  0.00     0.200 A 
ATOM     70  F   UNL A   1      43.905  26.400  24.634  1.00  0.00    -0.200 F 
ATOM     71  F   UNL A   1      43.197  23.766  24.638  1.00  0.00    -0.200 F 
ENDBRANCH  47  61
BRANCH  48  72
ATOM     72  C   UNL A   1      39.006  32.045  35.340  1.00  0.00     0.064 A 
ATOM     73  C   UNL A   1      38.294  31.491  36.412  1.00  0.00     0.173 A 
ATOM     74  C   UNL A   1      39.317  33.411  35.396  1.00  0.00     0.173 A 
ATOM     75  F   UNL A   1      37.961  30.192  36.394  1.00  0.00    -0.203 F 
ATOM     76  C   UNL A   1      37.914  32.272  37.502  1.00  0.00     0.198 A 
ATOM     77  C   UNL A   1      38.956  34.186  36.497  1.00  0.00     0.198 A 
ATOM     78  F   UNL A   1      40.006  33.985  34.399  1.00  0.00    -0.203 F 
ATOM     79  F   UNL A   1      37.223  31.720  38.509  1.00  0.00    -0.200 F 
ATOM     80  C   UNL A   1      38.254  33.615  37.548  1.00  0.00     0.200 A 
ATOM     81  F   UNL A   1      39.301  35.480  36.547  1.00  0.00    -0.200 F 
ATOM     82  F   UNL A   1      37.910  34.360  38.609  1.00  0.00    -0.200 F 
ENDBRANCH  48  72
BRANCH  60  83
ATOM     83  C   UNL A   1      44.774  28.266  34.178  1.00  0.00     0.064 A 
ATOM     84  C   UNL A   1      45.873  29.135  34.125  1.00  0.00     0.173 A 
ATOM     85  C   UNL A   1      44.823  27.196  35.084  1.00  0.00     0.173 A 
ATOM     86  F   UNL A   1      45.878  30.166  33.265  1.00  0.00    -0.203 F 
ATOM     87  C   UNL A   1      46.980  28.937  34.943  1.00  0.00     0.198 A 
ATOM     88  C   UNL A   1      45.920  27.018  35.922  1.00  0.00     0.198 A 
ATOM     89  F   UNL A   1      43.793  26.342  35.179  1.00  0.00    -0.203 F 
ATOM     90  F   UNL A   1      48.033  29.762  34.856  1.00  0.00    -0.200 F 
ATOM     91  C   UNL A   1      46.998  27.887  35.849  1.00  0.00     0.200 A 
ATOM     92  F   UNL A   1      45.927  26.013  36.809  1.00  0.00    -0.200 F 
ATOM     93  F   UNL A   1      48.057  27.710  36.652  1.00  0.00    -0.200 F 
ENDBRANCH  60  83
ENDBRANCH  34  35
ENDBRANCH  26  29
ENDBRANCH  24  25
ENDBRANCH   1  24
TORSDOF 12
ENDMDL
MODEL 2
REMARK VINA RESULT:     -12.3      2.875      4.742
REMARK SMILES Cc1nc(Oc2ccc(F)cc2)c(C(=O)NCCCNC(=O)c2ccc(-c3c4nc(c(-c5c(F)c(F)c(F)c(F)c5F)c5ccc([nH]5)c(-c5c(F)c(F)c(F)c(F)c5F)c5nc(c(-c6c(F)c(F)c(F)c(F)c6F)c6ccc3[nH]6)C=C5)C=C4)cc2)c(C)c1Cl
REMARK SMILES IDX 18 1 17 2 16 3 14 4 15 5 13 7 1 8 2 9 3 10 88 11 4 12 86 13
REMARK SMILES IDX 89 14 87 15 5 16 6 17 7 18 12 19 8 20 11 21 9 22 10 23 19 24
REMARK SMILES IDX 20 25 21 26 22 28 23 29 24 30 85 31 25 32 84 33 26 34 27 35
REMARK SMILES IDX 28 36 78 37 29 38 83 39 77 40 79 41 30 42 82 43 76 44 75 45
REMARK SMILES IDX 31 47 63 48 43 49 62 50 44 51 47 52 61 53 80 54 45 55 46 56
REMARK SMILES IDX 60 58 81 59 48 60 32 61 33 62 41 63 34 64 35 65 39 66 42 67
REMARK SMILES IDX 36 68 37 69 40 70 38 71 64 72 65 73 73 74 66 75 67 76 71 77
REMARK SMILES IDX 74 78 68 79 69 80 72 81 70 82 49 83 50 84 58 85 51 86 52 87
REMARK SMILES IDX 56 88 59 89 53 90 54 91 57 92 55 93
REMARK H PARENT 16 6 20 27 79 46 47 57
REMARK Flexibility Score: inf
ROOT
ATOM      1  C   UNL A   1      31.768  31.486  26.945  1.00  0.00     0.042 C 
ENDROOT
BRANCH   1   2
ATOM      2  C   UNL A   1      32.273  30.051  26.964  1.00  0.00     0.118 C 
BRANCH   2   3
ATOM      3  N   UNL A   1      31.484  29.251  26.057  1.00  0.00    -0.352 N 
ATOM      4  C   UNL A   1      31.343  27.904  26.274  1.00  0.00     0.257 C 
ATOM      5  O   UNL A   1      30.998  27.416  27.338  1.00  0.00    -0.269 OA
ATOM      6  H   UNL A   1      31.045  29.673  25.283  1.00  0.00     0.163 HD
BRANCH   4   7
ATOM      7  C   UNL A   1      31.784  27.053  25.156  1.00  0.00     0.106 A 
ATOM      8  C   UNL A   1      32.611  23.916  22.432  1.00  0.00     0.068 C 
ATOM      9  C   UNL A   1      32.414  25.092  23.346  1.00  0.00     0.060 A 
ATOM     10  N   UNL A   1      31.209  25.714  23.252  1.00  0.00    -0.216 NA
ATOM     11  C   UNL A   1      33.388  25.466  24.275  1.00  0.00     0.066 A 
ATOM     12  C   UNL A   1      30.898  26.686  24.145  1.00  0.00     0.232 A 
ATOM     13  C   UNL A   1      33.077  26.460  25.215  1.00  0.00    -0.012 A 
ATOM     14  Cl  UNL A   1      34.928  24.670  24.274  1.00  0.00    -0.082 Cl
ATOM     15  C   UNL A   1      34.068  26.877  26.270  1.00  0.00     0.047 C 
BRANCH  12  16
ATOM     16  O   UNL A   1      29.599  27.104  23.993  1.00  0.00    -0.438 OA
BRANCH  16  17
ATOM     17  C   UNL A   1      29.287  28.208  23.244  1.00  0.00     0.129 A 
ATOM     18  C   UNL A   1      27.927  28.524  23.170  1.00  0.00     0.050 A 
ATOM     19  C   UNL A   1      30.220  28.944  22.507  1.00  0.00     0.050 A 
ATOM     20  C   UNL A   1      27.498  29.617  22.419  1.00  0.00     0.043 A 
ATOM     21  C   UNL A   1      29.789  30.047  21.761  1.00  0.00     0.043 A 
ATOM     22  C   UNL A   1      28.435  30.376  21.730  1.00  0.00     0.123 A 
ATOM     23  F   UNL A   1      28.031  31.441  21.027  1.00  0.00    -0.207 F 
ENDBRANCH  16  17
ENDBRANCH  12  16
ENDBRANCH   4   7
ENDBRANCH   2   3
ENDBRANCH   1   2
BRANCH   1  24
ATOM     24  C   UNL A   1      32.906  32.472  26.785  1.00  0.00     0.118 C 
BRANCH  24  25
ATOM     25  N   UNL A   1      32.557  33.776  27.330  1.00  0.00    -0.352 N 
ATOM     26  C   UNL A   1      33.031  34.398  28.459  1.00  0.00     0.251 C 
ATOM     27  H   UNL A   1      31.888  34.283  26.817  1.00  0.00     0.163 HD
ATOM     28  O   UNL A   1      32.463  35.378  28.915  1.00  0.00    -0.269 OA
BRANCH  26  29
ATOM     29  C   UNL A   1      34.235  33.860  29.119  1.00  0.00     0.039 A 
ATOM     30  C   UNL A   1      35.482  34.412  28.820  1.00  0.00     0.014 A 
ATOM     31  C   UNL A   1      34.121  32.803  30.026  1.00  0.00     0.014 A 
ATOM     32  C   UNL A   1      36.618  33.927  29.468  1.00  0.00     0.010 A 
ATOM     33  C   UNL A   1      35.233  32.384  30.737  1.00  0.00     0.010 A 
ATOM     34  C   UNL A   1      36.494  32.920  30.439  1.00  0.00    -0.014 A 
BRANCH  34  35
ATOM     35  C   UNL A   1      37.681  32.339  31.100  1.00  0.00     0.031 A 
ATOM     36  C   UNL A   1      38.445  31.255  30.397  1.00  0.00     0.074 A 
ATOM     37  C   UNL A   1      38.016  32.729  32.341  1.00  0.00     0.049 A 
ATOM     38  N   UNL A   1      39.465  30.555  30.818  1.00  0.00    -0.248 NA
ATOM     39  C   UNL A   1      37.975  30.885  29.052  1.00  0.00     0.031 C 
ATOM     40  C   UNL A   1      37.309  33.737  33.129  1.00  0.00     0.029 A 
ATOM     41  N   UNL A   1      39.033  32.311  33.161  1.00  0.00    -0.354 N 
ATOM     42  C   UNL A   1      39.744  29.655  29.799  1.00  0.00     0.074 A 
ATOM     43  C   UNL A   1      38.746  29.848  28.771  1.00  0.00     0.031 C 
ATOM     44  C   UNL A   1      37.924  33.874  34.315  1.00  0.00     0.029 A 
ATOM     45  C   UNL A   1      39.049  32.945  34.378  1.00  0.00     0.049 A 
ATOM     46  H   UNL A   1      39.686  31.623  32.902  1.00  0.00     0.167 HD
ATOM     47  C   UNL A   1      40.763  28.769  29.717  1.00  0.00     0.037 A 
ATOM     48  C   UNL A   1      39.883  32.788  35.422  1.00  0.00     0.037 A 
ATOM     49  C   UNL A   1      41.765  28.613  30.734  1.00  0.00     0.049 A 
ATOM     50  C   UNL A   1      41.012  31.801  35.312  1.00  0.00     0.074 A 
ATOM     51  C   UNL A   1      42.887  27.806  30.722  1.00  0.00     0.029 A 
ATOM     52  N   UNL A   1      41.761  29.281  31.950  1.00  0.00    -0.354 N 
ATOM     53  N   UNL A   1      41.318  31.007  34.313  1.00  0.00    -0.248 NA
ATOM     54  C   UNL A   1      41.914  31.691  36.466  1.00  0.00     0.031 C 
ATOM     55  C   UNL A   1      43.535  27.948  31.952  1.00  0.00     0.029 A 
ATOM     56  C   UNL A   1      42.846  28.881  32.712  1.00  0.00     0.049 A 
ATOM     57  H   UNL A   1      41.087  29.941  32.230  1.00  0.00     0.167 HD
ATOM     58  C   UNL A   1      42.454  30.314  34.708  1.00  0.00     0.074 A 
ATOM     59  C   UNL A   1      42.791  30.793  36.034  1.00  0.00     0.031 C 
ATOM     60  C   UNL A   1      43.154  29.367  34.035  1.00  0.00     0.037 A 
BRANCH  47  61
ATOM     61  C   UNL A   1      40.837  27.915  28.485  1.00  0.00     0.064 A 
ATOM     62  C   UNL A   1      40.205  26.663  28.417  1.00  0.00     0.173 A 
ATOM     63  C   UNL A   1      41.544  28.353  27.357  1.00  0.00     0.173 A 
ATOM     64  F   UNL A   1      39.529  26.189  29.474  1.00  0.00    -0.203 F 
ATOM     65  C   UNL A   1      40.309  25.867  27.278  1.00  0.00     0.198 A 
ATOM     66  C   UNL A   1      41.620  27.569  26.208  1.00  0.00     0.198 A 
ATOM     67  F   UNL A   1      42.168  29.541  27.368  1.00  0.00    -0.203 F 
ATOM     68  F   UNL A   1      39.749  24.650  27.261  1.00  0.00    -0.200 F 
ATOM     69  C   UNL A   1      41.010  26.323  26.174  1.00  0.00     0.200 A 
ATOM     70  F   UNL A   1      42.289  28.016  25.137  1.00  0.00    -0.200 F 
ATOM     71  F   UNL A   1      41.109  25.558  25.078  1.00  0.00    -0.200 F 
ENDBRANCH  47  61
BRANCH  48  72
ATOM     72  C   UNL A   1      39.697  33.632  36.630  1.00  0.00     0.064 A 
ATOM     73  C   UNL A   1      40.266  34.910  36.704  1.00  0.00     0.173 A 
ATOM     74  C   UNL A   1      38.889  33.212  37.696  1.00  0.00     0.173 A 
ATOM     75  F   UNL A   1      41.058  35.347  35.714  1.00  0.00    -0.203 F 
ATOM     76  C   UNL A   1      40.031  35.740  37.798  1.00  0.00     0.198 A 
ATOM     77  C   UNL A   1      38.636  34.051  38.780  1.00  0.00     0.198 A 
ATOM     78  F   UNL A   1      38.314  32.001  37.668  1.00  0.00    -0.203 F 
ATOM     79  F   UNL A   1      40.596  36.953  37.849  1.00  0.00    -0.200 F 
ATOM     80  C   UNL A   1      39.208  35.314  38.830  1.00  0.00     0.200 A 
ATOM     81  F   UNL A   1      37.827  33.643  39.767  1.00  0.00    -0.200 F 
ATOM     82  F   UNL A   1      38.961  36.122  39.870  1.00  0.00    -0.200 F 
ENDBRANCH  48  72
BRANCH  60  83
ATOM     83  C   UNL A   1      44.354  28.779  34.715  1.00  0.00     0.064 A 
ATOM     84  C   UNL A   1      44.262  27.594  35.460  1.00  0.00     0.173 A 
ATOM     85  C   UNL A   1      45.622  29.352  34.543  1.00  0.00     0.173 A 
ATOM     86  F   UNL A   1      43.069  27.014  35.661  1.00  0.00    -0.203 F 
ATOM     87  C   UNL A   1      45.396  27.011  36.016  1.00  0.00     0.198 A 
ATOM     88  C   UNL A   1      46.758  28.751  35.077  1.00  0.00     0.198 A 
ATOM     89  F   UNL A   1      45.764  30.481  33.831  1.00  0.00    -0.203 F 
ATOM     90  F   UNL A   1      45.282  25.895  36.750  1.00  0.00    -0.200 F 
ATOM     91  C   UNL A   1      46.643  27.582  35.815  1.00  0.00     0.200 A 
ATOM     92  F   UNL A   1      47.965  29.295  34.865  1.00  0.00    -0.200 F 
ATOM     93  F   UNL A   1      47.737  27.008  36.334  1.00  0.00    -0.200 F 
ENDBRANCH  60  83
ENDBRANCH  34  35
ENDBRANCH  26  29
ENDBRANCH  24  25
ENDBRANCH   1  24
TORSDOF 12
ENDMDL
MODEL 3
REMARK VINA RESULT:     -12.3      4.712      9.784
REMARK SMILES Cc1nc(Oc2ccc(F)cc2)c(C(=O)NCCCNC(=O)c2ccc(-c3c4nc(c(-c5c(F)c(F)c(F)c(F)c5F)c5ccc([nH]5)c(-c5c(F)c(F)c(F)c(F)c5F)c5nc(c(-c6c(F)c(F)c(F)c(F)c6F)c6ccc3[nH]6)C=C5)C=C4)cc2)c(C)c1Cl
REMARK SMILES IDX 18 1 17 2 16 3 14 4 15 5 13 7 1 8 2 9 3 10 88 11 4 12 86 13
REMARK SMILES IDX 89 14 87 15 5 16 6 17 7 18 12 19 8 20 11 21 9 22 10 23 19 24
REMARK SMILES IDX 20 25 21 26 22 28 23 29 24 30 85 31 25 32 84 33 26 34 27 35
REMARK SMILES IDX 28 36 78 37 29 38 83 39 77 40 79 41 30 42 82 43 76 44 75 45
REMARK SMILES IDX 31 47 63 48 43 49 62 50 44 51 47 52 61 53 80 54 45 55 46 56
REMARK SMILES IDX 60 58 81 59 48 60 32 61 33 62 41 63 34 64 35 65 39 66 42 67
REMARK SMILES IDX 36 68 37 69 40 70 38 71 64 72 65 73 73 74 66 75 67 76 71 77
REMARK SMILES IDX 74 78 68 79 69 80 72 81 70 82 49 83 50 84 58 85 51 86 52 87
REMARK SMILES IDX 56 88 59 89 53 90 54 91 57 92 55 93
REMARK H PARENT 16 6 20 27 79 46 47 57
REMARK Flexibility Score: inf
ROOT
ATOM      1  C   UNL A   1      37.608  20.006  24.599  1.00  0.00     0.042 C 
ENDROOT
BRANCH   1   2
ATOM      2  C   UNL A   1      36.144  20.102  25.006  1.00  0.00     0.118 C 
BRANCH   2   3
ATOM      3  N   UNL A   1      35.790  21.487  25.207  1.00  0.00    -0.352 N 
ATOM      4  C   UNL A   1      34.816  21.822  26.114  1.00  0.00     0.257 C 
ATOM      5  O   UNL A   1      34.795  21.431  27.270  1.00  0.00    -0.269 OA
ATOM      6  H   UNL A   1      36.248  22.192  24.694  1.00  0.00     0.163 HD
BRANCH   4   7
ATOM      7  C   UNL A   1      33.691  22.588  25.551  1.00  0.00     0.106 A 
ATOM      8  C   UNL A   1      30.682  24.328  23.130  1.00  0.00     0.068 C 
ATOM      9  C   UNL A   1      31.735  23.810  24.067  1.00  0.00     0.060 A 
ATOM     10  N   UNL A   1      31.480  22.596  24.624  1.00  0.00    -0.216 NA
ATOM     11  C   UNL A   1      32.925  24.507  24.288  1.00  0.00     0.066 A 
ATOM     12  C   UNL A   1      32.445  21.992  25.360  1.00  0.00     0.232 A 
ATOM     13  C   UNL A   1      33.940  23.891  25.036  1.00  0.00    -0.012 A 
ATOM     14  Cl  UNL A   1      33.136  26.086  23.602  1.00  0.00    -0.082 Cl
ATOM     15  C   UNL A   1      35.262  24.574  25.272  1.00  0.00     0.047 C 
BRANCH  12  16
ATOM     16  O   UNL A   1      32.073  20.722  25.725  1.00  0.00    -0.438 OA
BRANCH  16  17
ATOM     17  C   UNL A   1      32.464  19.627  25.000  1.00  0.00     0.129 A 
ATOM     18  C   UNL A   1      32.903  18.531  25.750  1.00  0.00     0.050 A 
ATOM     19  C   UNL A   1      32.528  19.594  23.604  1.00  0.00     0.050 A 
ATOM     20  C   UNL A   1      33.341  17.372  25.111  1.00  0.00     0.043 A 
ATOM     21  C   UNL A   1      32.959  18.426  22.964  1.00  0.00     0.043 A 
ATOM     22  C   UNL A   1      33.354  17.326  23.724  1.00  0.00     0.123 A 
ATOM     23  F   UNL A   1      33.751  16.206  23.105  1.00  0.00    -0.207 F 
ENDBRANCH  16  17
ENDBRANCH  12  16
ENDBRANCH   4   7
ENDBRANCH   2   3
ENDBRANCH   1   2
BRANCH   1  24
ATOM     24  C   UNL A   1      38.527  20.306  25.764  1.00  0.00     0.118 C 
BRANCH  24  25
ATOM     25  N   UNL A   1      39.543  19.275  25.914  1.00  0.00    -0.352 N 
ATOM     26  C   UNL A   1      40.901  19.413  26.070  1.00  0.00     0.251 C 
ATOM     27  H   UNL A   1      39.211  18.349  25.903  1.00  0.00     0.163 HD
ATOM     28  O   UNL A   1      41.644  18.453  25.935  1.00  0.00    -0.269 OA
BRANCH  26  29
ATOM     29  C   UNL A   1      41.451  20.741  26.395  1.00  0.00     0.039 A 
ATOM     30  C   UNL A   1      41.744  21.052  27.725  1.00  0.00     0.014 A 
ATOM     31  C   UNL A   1      41.667  21.677  25.380  1.00  0.00     0.014 A 
ATOM     32  C   UNL A   1      42.295  22.296  28.031  1.00  0.00     0.010 A 
ATOM     33  C   UNL A   1      42.299  22.874  25.670  1.00  0.00     0.010 A 
ATOM     34  C   UNL A   1      42.587  23.205  27.002  1.00  0.00    -0.014 A 
BRANCH  34  35
ATOM     35  C   UNL A   1      43.112  24.555  27.294  1.00  0.00     0.031 A 
ATOM     36  C   UNL A   1      42.179  25.596  27.839  1.00  0.00     0.074 A 
ATOM     37  C   UNL A   1      44.390  24.856  27.003  1.00  0.00     0.049 A 
ATOM     38  N   UNL A   1      42.404  26.857  28.094  1.00  0.00    -0.248 NA
ATOM     39  C   UNL A   1      40.794  25.167  28.095  1.00  0.00     0.031 C 
ATOM     40  C   UNL A   1      45.364  23.931  26.425  1.00  0.00     0.029 A 
ATOM     41  N   UNL A   1      45.081  26.031  27.143  1.00  0.00    -0.354 N 
ATOM     42  C   UNL A   1      41.188  27.372  28.524  1.00  0.00     0.074 A 
ATOM     43  C   UNL A   1      40.214  26.308  28.429  1.00  0.00     0.031 C 
ATOM     44  C   UNL A   1      46.536  24.569  26.275  1.00  0.00     0.029 A 
ATOM     45  C   UNL A   1      46.385  25.952  26.721  1.00  0.00     0.049 A 
ATOM     46  H   UNL A   1      44.682  26.852  27.509  1.00  0.00     0.167 HD
ATOM     47  C   UNL A   1      40.919  28.614  28.988  1.00  0.00     0.037 A 
ATOM     48  C   UNL A   1      47.345  26.895  26.701  1.00  0.00     0.037 A 
ATOM     49  C   UNL A   1      41.907  29.650  29.108  1.00  0.00     0.049 A 
ATOM     50  C   UNL A   1      47.028  28.268  27.223  1.00  0.00     0.074 A 
ATOM     51  C   UNL A   1      41.766  30.918  29.640  1.00  0.00     0.029 A 
ATOM     52  N   UNL A   1      43.223  29.533  28.684  1.00  0.00    -0.354 N 
ATOM     53  N   UNL A   1      45.897  28.728  27.702  1.00  0.00    -0.248 NA
ATOM     54  C   UNL A   1      48.119  29.252  27.210  1.00  0.00     0.031 C 
ATOM     55  C   UNL A   1      42.985  31.586  29.492  1.00  0.00     0.029 A 
ATOM     56  C   UNL A   1      43.901  30.718  28.914  1.00  0.00     0.049 A 
ATOM     57  H   UNL A   1      43.618  28.726  28.281  1.00  0.00     0.167 HD
ATOM     58  C   UNL A   1      46.139  30.047  28.062  1.00  0.00     0.074 A 
ATOM     59  C   UNL A   1      47.532  30.309  27.759  1.00  0.00     0.031 C 
ATOM     60  C   UNL A   1      45.286  30.957  28.594  1.00  0.00     0.037 A 
BRANCH  47  61
ATOM     61  C   UNL A   1      39.506  28.905  29.402  1.00  0.00     0.064 A 
ATOM     62  C   UNL A   1      38.547  29.356  28.482  1.00  0.00     0.173 A 
ATOM     63  C   UNL A   1      39.103  28.726  30.733  1.00  0.00     0.173 A 
ATOM     64  F   UNL A   1      38.884  29.560  27.199  1.00  0.00    -0.203 F 
ATOM     65  C   UNL A   1      37.247  29.653  28.886  1.00  0.00     0.198 A 
ATOM     66  C   UNL A   1      37.794  28.992  31.128  1.00  0.00     0.198 A 
ATOM     67  F   UNL A   1      39.979  28.297  31.654  1.00  0.00    -0.203 F 
ATOM     68  F   UNL A   1      36.368  30.142  28.001  1.00  0.00    -0.200 F 
ATOM     69  C   UNL A   1      36.871  29.465  30.206  1.00  0.00     0.200 A 
ATOM     70  F   UNL A   1      37.428  28.800  32.402  1.00  0.00    -0.200 F 
ATOM     71  F   UNL A   1      35.620  29.749  30.594  1.00  0.00    -0.200 F 
ENDBRANCH  47  61
BRANCH  48  72
ATOM     72  C   UNL A   1      48.701  26.536  26.214  1.00  0.00     0.064 A 
ATOM     73  C   UNL A   1      49.093  26.839  24.903  1.00  0.00     0.173 A 
ATOM     74  C   UNL A   1      49.653  25.957  27.065  1.00  0.00     0.173 A 
ATOM     75  F   UNL A   1      48.212  27.381  24.050  1.00  0.00    -0.203 F 
ATOM     76  C   UNL A   1      50.389  26.580  24.462  1.00  0.00     0.198 A 
ATOM     77  C   UNL A   1      50.955  25.717  26.630  1.00  0.00     0.198 A 
ATOM     78  F   UNL A   1      49.328  25.657  28.331  1.00  0.00    -0.203 F 
ATOM     79  F   UNL A   1      50.736  26.868  23.201  1.00  0.00    -0.200 F 
ATOM     80  C   UNL A   1      51.322  26.029  25.329  1.00  0.00     0.200 A 
ATOM     81  F   UNL A   1      51.859  25.201  27.474  1.00  0.00    -0.200 F 
ATOM     82  F   UNL A   1      52.575  25.802  24.912  1.00  0.00    -0.200 F 
ENDBRANCH  48  72
BRANCH  60  83
ATOM     83  C   UNL A   1      45.826  32.326  28.883  1.00  0.00     0.064 A 
ATOM     84  C   UNL A   1      45.685  33.374  27.962  1.00  0.00     0.173 A 
ATOM     85  C   UNL A   1      46.407  32.614  30.127  1.00  0.00     0.173 A 
ATOM     86  F   UNL A   1      45.147  33.145  26.755  1.00  0.00    -0.203 F 
ATOM     87  C   UNL A   1      46.115  34.660  28.274  1.00  0.00     0.198 A 
ATOM     88  C   UNL A   1      46.809  33.907  30.446  1.00  0.00     0.198 A 
ATOM     89  F   UNL A   1      46.556  31.647  31.045  1.00  0.00    -0.203 F 
ATOM     90  F   UNL A   1      45.998  35.642  27.369  1.00  0.00    -0.200 F 
ATOM     91  C   UNL A   1      46.665  34.929  29.518  1.00  0.00     0.200 A 
ATOM     92  F   UNL A   1      47.324  34.168  31.656  1.00  0.00    -0.200 F 
ATOM     93  F   UNL A   1      47.060  36.173  29.825  1.00  0.00    -0.200 F 
ENDBRANCH  60  83
ENDBRANCH  34  35
ENDBRANCH  26  29
ENDBRANCH  24  25
ENDBRANCH   1  24
TORSDOF 12
ENDMDL
