MODEL 1
REMARK VINA RESULT:     -14.0      0.000      0.000
REMARK SMILES O=C(NCCCNC(=O)c1ccc(-c2c3nc(c(-c4c(F)c(F)c(F)c(F)c4F)c4ccc([nH]4)c(-c4c(F)c(F)c(F)c(F)c4F)c4nc(c(-c5c(F)c(F)c(F)c(F)c5F)c5ccc2[nH]5)C=C4)C=C3)cc1)C1=Cc2cc(S(F)(F)(F)(F)F)cc(Br)c2O[C@@H]1C(F)(F)F
REMARK SMILES IDX 5 1 4 2 3 3 1 4 2 5 73 7 74 8 89 9 75 10 88 11 76 12 87 13
REMARK SMILES IDX 77 14 85 15 84 16 86 17 90 18 91 19 92 20 93 21 78 22 79 23
REMARK SMILES IDX 80 24 81 25 82 26 83 27 6 28 7 29 8 30 9 32 10 33 11 34
REMARK SMILES IDX 72 35 12 36 71 37 13 38 14 39 15 40 65 41 16 42 70 43 64 44
REMARK SMILES IDX 66 45 17 46 69 47 63 48 62 49 18 51 50 52 30 53 49 54 31 55
REMARK SMILES IDX 34 56 48 57 67 58 32 59 33 60 47 62 68 63 35 64 19 65 20 66
REMARK SMILES IDX 28 67 21 68 22 69 26 70 29 71 23 72 24 73 27 74 25 75 51 76
REMARK SMILES IDX 52 77 60 78 53 79 54 80 58 81 61 82 55 83 56 84 59 85 57 86
REMARK SMILES IDX 36 87 37 88 45 89 38 90 39 91 43 92 46 93 40 94 41 95 44 96
REMARK SMILES IDX 42 97
REMARK H PARENT 3 6 7 31 66 50 34 61
REMARK Flexibility Score: inf
ROOT
ATOM      1  C   UNL A   1      33.352  27.847  24.366  1.00  0.00     0.042 C 
ENDROOT
BRANCH   1   2
ATOM      2  C   UNL A   1      33.566  26.461  24.950  1.00  0.00     0.118 C 
BRANCH   2   3
ATOM      3  N   UNL A   1      33.998  25.543  23.887  1.00  0.00    -0.352 N 
ATOM      4  O   UNL A   1      33.595  23.533  22.686  1.00  0.00    -0.270 OA
ATOM      5  C   UNL A   1      33.221  24.327  23.605  1.00  0.00     0.251 C 
ATOM      6  H   UNL A   1      34.807  25.742  23.362  1.00  0.00     0.163 HD
BRANCH   5   7
ATOM      7  C   UNL A   1      31.972  24.019  24.414  1.00  0.00     0.067 C 
ATOM      8  C   UNL A   1      31.827  22.802  25.005  1.00  0.00     0.025 C 
ATOM      9  C   UNL A   1      30.884  25.070  24.562  1.00  0.00     0.314 C 
ATOM     10  C   UNL A   1      32.915  21.751  24.857  1.00  0.00     0.020 A 
ATOM     11  O   UNL A   1      34.476  23.502  25.237  1.00  0.00    -0.474 OA
ATOM     12  C   UNL A   1      32.596  20.454  24.489  1.00  0.00     0.036 A 
ATOM     13  C   UNL A   1      34.176  22.131  25.017  1.00  0.00     0.142 A 
ATOM     14  C   UNL A   1      33.677  19.547  24.593  1.00  0.00     0.109 A 
ATOM     15  C   UNL A   1      35.196  21.211  24.972  1.00  0.00     0.062 A 
ATOM     16  C   UNL A   1      34.947  19.900  24.671  1.00  0.00     0.044 A 
ATOM     17  Br  UNL A   1      37.033  21.785  25.344  1.00  0.00    -0.047 Br
BRANCH   9  18
ATOM     18  C   UNL A   1      30.692  25.397  26.034  1.00  0.00     0.429 C 
ATOM     19  F   UNL A   1      31.777  25.037  26.713  1.00  0.00    -0.167 F 
ATOM     20  F   UNL A   1      30.494  26.705  26.175  1.00  0.00    -0.167 F 
ATOM     21  F   UNL A   1      29.636  24.736  26.501  1.00  0.00    -0.167 F 
ENDBRANCH   9  18
BRANCH  14  22
ATOM     22  S   UNL A   1      33.292  17.779  24.621  1.00  0.00     0.310 S 
ATOM     23  F   UNL A   1      31.778  18.031  24.220  1.00  0.00    -0.094 F 
ATOM     24  F   UNL A   1      32.845  17.917  26.126  1.00  0.00    -0.094 F 
ATOM     25  F   UNL A   1      32.970  16.257  24.637  1.00  0.00    -0.094 F 
ATOM     26  F   UNL A   1      33.609  17.687  23.077  1.00  0.00    -0.094 F 
ATOM     27  F   UNL A   1      33.514  19.342  24.560  1.00  0.00    -0.094 F 
ENDBRANCH  14  22
ENDBRANCH   5   7
ENDBRANCH   2   3
ENDBRANCH   1   2
BRANCH   1  28
ATOM     28  C   UNL A   1      34.016  28.882  25.259  1.00  0.00     0.118 C 
BRANCH  28  29
ATOM     29  N   UNL A   1      33.033  29.912  25.629  1.00  0.00    -0.352 N 
ATOM     30  C   UNL A   1      33.294  30.799  26.772  1.00  0.00     0.251 C 
ATOM     31  H   UNL A   1      32.202  30.007  25.112  1.00  0.00     0.163 HD
ATOM     32  O   UNL A   1      32.446  31.688  27.093  1.00  0.00    -0.269 OA
BRANCH  30  33
ATOM     33  C   UNL A   1      34.579  30.651  27.571  1.00  0.00     0.039 A 
ATOM     34  C   UNL A   1      34.764  29.402  28.141  1.00  0.00     0.014 A 
ATOM     35  C   UNL A   1      35.526  31.580  27.626  1.00  0.00     0.014 A 
ATOM     36  C   UNL A   1      35.883  29.325  29.004  1.00  0.00     0.010 A 
ATOM     37  C   UNL A   1      36.656  31.383  28.382  1.00  0.00     0.010 A 
ATOM     38  C   UNL A   1      36.876  30.195  29.020  1.00  0.00    -0.014 A 
BRANCH  38  39
ATOM     39  C   UNL A   1      38.196  29.890  29.712  1.00  0.00     0.031 A 
ATOM     40  C   UNL A   1      39.113  28.994  29.160  1.00  0.00     0.074 A 
ATOM     41  C   UNL A   1      38.319  30.446  30.975  1.00  0.00     0.049 A 
ATOM     42  N   UNL A   1      40.246  28.552  29.707  1.00  0.00    -0.248 NA
ATOM     43  C   UNL A   1      38.967  28.378  27.834  1.00  0.00     0.031 C 
ATOM     44  C   UNL A   1      37.402  31.357  31.534  1.00  0.00     0.029 A 
ATOM     45  N   UNL A   1      39.316  30.231  31.899  1.00  0.00    -0.354 N 
ATOM     46  C   UNL A   1      40.868  27.719  28.868  1.00  0.00     0.074 A 
ATOM     47  C   UNL A   1      40.051  27.591  27.654  1.00  0.00     0.031 C 
ATOM     48  C   UNL A   1      37.835  31.677  32.782  1.00  0.00     0.029 A 
ATOM     49  C   UNL A   1      39.029  30.972  33.023  1.00  0.00     0.049 A 
ATOM     50  H   UNL A   1      40.099  29.646  31.778  1.00  0.00     0.167 HD
ATOM     51  C   UNL A   1      42.085  27.065  29.068  1.00  0.00     0.037 A 
ATOM     52  C   UNL A   1      39.753  31.041  34.202  1.00  0.00     0.037 A 
ATOM     53  C   UNL A   1      42.831  27.169  30.231  1.00  0.00     0.049 A 
ATOM     54  C   UNL A   1      40.941  30.340  34.425  1.00  0.00     0.074 A 
ATOM     55  C   UNL A   1      44.063  26.521  30.445  1.00  0.00     0.029 A 
ATOM     56  N   UNL A   1      42.531  27.891  31.365  1.00  0.00    -0.354 N 
ATOM     57  N   UNL A   1      41.582  29.540  33.572  1.00  0.00    -0.248 NA
ATOM     58  C   UNL A   1      41.700  30.381  35.682  1.00  0.00     0.031 C 
ATOM     59  C   UNL A   1      44.495  26.841  31.695  1.00  0.00     0.029 A 
ATOM     60  C   UNL A   1      43.540  27.693  32.281  1.00  0.00     0.049 A 
ATOM     61  H   UNL A   1      41.733  28.452  31.497  1.00  0.00     0.167 HD
ATOM     62  C   UNL A   1      42.695  29.065  34.135  1.00  0.00     0.074 A 
ATOM     63  C   UNL A   1      42.783  29.593  35.503  1.00  0.00     0.031 C 
ATOM     64  C   UNL A   1      43.642  28.214  33.561  1.00  0.00     0.037 A 
BRANCH  51  65
ATOM     65  C   UNL A   1      42.620  26.190  27.947  1.00  0.00     0.064 A 
ATOM     66  C   UNL A   1      42.285  24.846  27.944  1.00  0.00     0.173 A 
ATOM     67  C   UNL A   1      43.345  26.721  26.970  1.00  0.00     0.173 A 
ATOM     68  F   UNL A   1      41.364  24.326  28.750  1.00  0.00    -0.203 F 
ATOM     69  C   UNL A   1      43.010  24.076  27.004  1.00  0.00     0.198 A 
ATOM     70  C   UNL A   1      43.913  25.922  26.007  1.00  0.00     0.198 A 
ATOM     71  F   UNL A   1      43.523  28.038  26.923  1.00  0.00    -0.203 F 
ATOM     72  F   UNL A   1      43.027  22.756  27.167  1.00  0.00    -0.200 F 
ATOM     73  C   UNL A   1      43.671  24.577  25.977  1.00  0.00     0.200 A 
ATOM     74  F   UNL A   1      44.708  26.466  25.090  1.00  0.00    -0.200 F 
ATOM     75  F   UNL A   1      44.081  23.813  24.967  1.00  0.00    -0.200 F 
ENDBRANCH  51  65
BRANCH  52  76
ATOM     76  C   UNL A   1      39.226  31.930  35.318  1.00  0.00     0.064 A 
ATOM     77  C   UNL A   1      39.631  33.254  35.365  1.00  0.00     0.173 A 
ATOM     78  C   UNL A   1      38.435  31.417  36.252  1.00  0.00     0.173 A 
ATOM     79  F   UNL A   1      40.204  33.874  34.338  1.00  0.00    -0.203 F 
ATOM     80  C   UNL A   1      39.381  33.884  36.607  1.00  0.00     0.198 A 
ATOM     81  C   UNL A   1      38.121  32.141  37.378  1.00  0.00     0.198 A 
ATOM     82  F   UNL A   1      37.942  30.191  36.099  1.00  0.00    -0.203 F 
ATOM     83  F   UNL A   1      40.041  35.008  36.874  1.00  0.00    -0.200 F 
ATOM     84  C   UNL A   1      38.538  33.436  37.519  1.00  0.00     0.200 A 
ATOM     85  F   UNL A   1      37.401  31.575  38.343  1.00  0.00    -0.200 F 
ATOM     86  F   UNL A   1      38.117  34.202  38.521  1.00  0.00    -0.200 F 
ENDBRANCH  52  76
BRANCH  64  87
ATOM     87  C   UNL A   1      44.858  27.837  34.391  1.00  0.00     0.064 A 
ATOM     88  C   UNL A   1      44.709  26.676  35.131  1.00  0.00     0.173 A 
ATOM     89  C   UNL A   1      46.016  28.487  34.355  1.00  0.00     0.173 A 
ATOM     90  F   UNL A   1      43.665  25.862  35.001  1.00  0.00    -0.203 F 
ATOM     91  C   UNL A   1      45.767  26.435  36.039  1.00  0.00     0.198 A 
ATOM     92  C   UNL A   1      47.054  28.111  35.173  1.00  0.00     0.198 A 
ATOM     93  F   UNL A   1      46.170  29.510  33.520  1.00  0.00    -0.203 F 
ATOM     94  F   UNL A   1      45.551  25.568  37.025  1.00  0.00    -0.200 F 
ATOM     95  C   UNL A   1      46.954  27.009  35.974  1.00  0.00     0.200 A 
ATOM     96  F   UNL A   1      48.172  28.832  35.184  1.00  0.00    -0.200 F 
ATOM     97  F   UNL A   1      47.998  26.539  36.652  1.00  0.00    -0.200 F 
ENDBRANCH  64  87
ENDBRANCH  38  39
ENDBRANCH  30  33
ENDBRANCH  28  29
ENDBRANCH   1  28
TORSDOF 12
ENDMDL
MODEL 2
REMARK VINA RESULT:     -14.0      0.265      1.579
REMARK SMILES O=C(NCCCNC(=O)c1ccc(-c2c3nc(c(-c4c(F)c(F)c(F)c(F)c4F)c4ccc([nH]4)c(-c4c(F)c(F)c(F)c(F)c4F)c4nc(c(-c5c(F)c(F)c(F)c(F)c5F)c5ccc2[nH]5)C=C4)C=C3)cc1)C1=Cc2cc(S(F)(F)(F)(F)F)cc(Br)c2O[C@@H]1C(F)(F)F
REMARK SMILES IDX 5 1 4 2 3 3 1 4 2 5 73 7 74 8 89 9 75 10 88 11 76 12 87 13
REMARK SMILES IDX 77 14 85 15 84 16 86 17 90 18 91 19 92 20 93 21 78 22 79 23
REMARK SMILES IDX 80 24 81 25 82 26 83 27 6 28 7 29 8 30 9 32 10 33 11 34
REMARK SMILES IDX 72 35 12 36 71 37 13 38 14 39 15 40 65 41 16 42 70 43 64 44
REMARK SMILES IDX 66 45 17 46 69 47 63 48 62 49 18 51 50 52 30 53 49 54 31 55
REMARK SMILES IDX 34 56 48 57 67 58 32 59 33 60 47 62 68 63 35 64 19 65 20 66
REMARK SMILES IDX 28 67 21 68 22 69 26 70 29 71 23 72 24 73 27 74 25 75 51 76
REMARK SMILES IDX 52 77 60 78 53 79 54 80 58 81 61 82 55 83 56 84 59 85 57 86
REMARK SMILES IDX 36 87 37 88 45 89 38 90 39 91 43 92 46 93 40 94 41 95 44 96
REMARK SMILES IDX 42 97
REMARK H PARENT 3 6 7 31 66 50 34 61
REMARK Flexibility Score: inf
ROOT
ATOM      1  C   UNL A   1      33.358  27.868  24.287  1.00  0.00     0.042 C 
ENDROOT
BRANCH   1   2
ATOM      2  C   UNL A   1      33.510  26.479  24.883  1.00  0.00     0.118 C 
BRANCH   2   3
ATOM      3  N   UNL A   1      33.951  25.543  23.838  1.00  0.00    -0.352 N 
ATOM      4  O   UNL A   1      33.562  23.510  22.672  1.00  0.00    -0.270 OA
ATOM      5  C   UNL A   1      33.181  24.319  23.575  1.00  0.00     0.251 C 
ATOM      6  H   UNL A   1      34.761  25.736  23.314  1.00  0.00     0.163 HD
BRANCH   5   7
ATOM      7  C   UNL A   1      31.929  24.020  24.383  1.00  0.00     0.067 C 
ATOM      8  C   UNL A   1      31.783  22.811  24.989  1.00  0.00     0.025 C 
ATOM      9  C   UNL A   1      30.840  25.072  24.515  1.00  0.00     0.314 C 
ATOM     10  C   UNL A   1      32.871  21.758  24.857  1.00  0.00     0.020 A 
ATOM     11  O   UNL A   1      34.431  23.515  25.221  1.00  0.00    -0.474 OA
ATOM     12  C   UNL A   1      32.555  20.457  24.504  1.00  0.00     0.036 A 
ATOM     13  C   UNL A   1      34.132  22.142  25.017  1.00  0.00     0.142 A 
ATOM     14  C   UNL A   1      33.636  19.552  24.623  1.00  0.00     0.109 A 
ATOM     15  C   UNL A   1      35.153  21.221  24.987  1.00  0.00     0.062 A 
ATOM     16  C   UNL A   1      34.905  19.907  24.701  1.00  0.00     0.044 A 
ATOM     17  Br  UNL A   1      36.988  21.801  25.357  1.00  0.00    -0.047 Br
BRANCH   9  18
ATOM     18  C   UNL A   1      30.643  25.418  25.982  1.00  0.00     0.429 C 
ATOM     19  F   UNL A   1      30.533  26.737  26.116  1.00  0.00    -0.167 F 
ATOM     20  F   UNL A   1      29.537  24.832  26.431  1.00  0.00    -0.167 F 
ATOM     21  F   UNL A   1      31.689  24.987  26.683  1.00  0.00    -0.167 F 
ENDBRANCH   9  18
BRANCH  14  22
ATOM     22  S   UNL A   1      33.252  17.784  24.672  1.00  0.00     0.310 S 
ATOM     23  F   UNL A   1      31.778  18.018  24.133  1.00  0.00    -0.094 F 
ATOM     24  F   UNL A   1      32.675  17.966  26.127  1.00  0.00    -0.094 F 
ATOM     25  F   UNL A   1      32.931  16.262  24.706  1.00  0.00    -0.094 F 
ATOM     26  F   UNL A   1      33.703  17.647  23.165  1.00  0.00    -0.094 F 
ATOM     27  F   UNL A   1      33.477  19.345  24.582  1.00  0.00    -0.094 F 
ENDBRANCH  14  22
ENDBRANCH   5   7
ENDBRANCH   2   3
ENDBRANCH   1   2
BRANCH   1  28
ATOM     28  C   UNL A   1      33.997  28.890  25.212  1.00  0.00     0.118 C 
BRANCH  28  29
ATOM     29  N   UNL A   1      33.011  29.925  25.555  1.00  0.00    -0.352 N 
ATOM     30  C   UNL A   1      33.252  30.821  26.696  1.00  0.00     0.251 C 
ATOM     31  H   UNL A   1      32.190  30.019  25.021  1.00  0.00     0.163 HD
ATOM     32  O   UNL A   1      32.400  31.715  26.993  1.00  0.00    -0.269 OA
BRANCH  30  33
ATOM     33  C   UNL A   1      34.521  30.675  27.521  1.00  0.00     0.039 A 
ATOM     34  C   UNL A   1      34.719  29.414  28.058  1.00  0.00     0.014 A 
ATOM     35  C   UNL A   1      35.446  31.622  27.625  1.00  0.00     0.014 A 
ATOM     36  C   UNL A   1      35.819  29.335  28.945  1.00  0.00     0.010 A 
ATOM     37  C   UNL A   1      36.562  31.426  28.402  1.00  0.00     0.010 A 
ATOM     38  C   UNL A   1      36.793  30.224  29.011  1.00  0.00    -0.014 A 
BRANCH  38  39
ATOM     39  C   UNL A   1      38.102  29.927  29.724  1.00  0.00     0.031 A 
ATOM     40  C   UNL A   1      39.044  29.054  29.177  1.00  0.00     0.074 A 
ATOM     41  C   UNL A   1      38.190  30.461  31.000  1.00  0.00     0.049 A 
ATOM     42  N   UNL A   1      40.172  28.618  29.740  1.00  0.00    -0.248 NA
ATOM     43  C   UNL A   1      38.935  28.459  27.837  1.00  0.00     0.031 C 
ATOM     44  C   UNL A   1      37.248  31.348  31.555  1.00  0.00     0.029 A 
ATOM     45  N   UNL A   1      39.171  30.243  31.940  1.00  0.00    -0.354 N 
ATOM     46  C   UNL A   1      40.823  27.811  28.900  1.00  0.00     0.074 A 
ATOM     47  C   UNL A   1      40.034  27.692  27.666  1.00  0.00     0.031 C 
ATOM     48  C   UNL A   1      37.649  31.652  32.818  1.00  0.00     0.029 A 
ATOM     49  C   UNL A   1      38.849  30.960  33.072  1.00  0.00     0.049 A 
ATOM     50  H   UNL A   1      39.965  29.673  31.826  1.00  0.00     0.167 HD
ATOM     51  C   UNL A   1      42.045  27.170  29.113  1.00  0.00     0.037 A 
ATOM     52  C   UNL A   1      39.547  31.019  34.267  1.00  0.00     0.037 A 
ATOM     53  C   UNL A   1      42.766  27.264  30.294  1.00  0.00     0.049 A 
ATOM     54  C   UNL A   1      40.741  30.331  34.502  1.00  0.00     0.074 A 
ATOM     55  C   UNL A   1      44.003  26.630  30.522  1.00  0.00     0.029 A 
ATOM     56  N   UNL A   1      42.431  27.962  31.434  1.00  0.00    -0.354 N 
ATOM     57  N   UNL A   1      41.411  29.556  33.649  1.00  0.00    -0.248 NA
ATOM     58  C   UNL A   1      41.472  30.361  35.776  1.00  0.00     0.031 C 
ATOM     59  C   UNL A   1      44.404  26.934  31.786  1.00  0.00     0.029 A 
ATOM     60  C   UNL A   1      43.423  27.761  32.367  1.00  0.00     0.049 A 
ATOM     61  H   UNL A   1      41.622  28.508  31.559  1.00  0.00     0.167 HD
ATOM     62  C   UNL A   1      42.519  29.087  34.227  1.00  0.00     0.074 A 
ATOM     63  C   UNL A   1      42.570  29.592  35.605  1.00  0.00     0.031 C 
ATOM     64  C   UNL A   1      43.491  28.261  33.658  1.00  0.00     0.037 A 
BRANCH  51  65
ATOM     65  C   UNL A   1      42.617  26.323  27.989  1.00  0.00     0.064 A 
ATOM     66  C   UNL A   1      43.571  26.888  27.159  1.00  0.00     0.173 A 
ATOM     67  C   UNL A   1      42.247  25.056  27.849  1.00  0.00     0.173 A 
ATOM     68  F   UNL A   1      44.154  28.056  27.414  1.00  0.00    -0.203 F 
ATOM     69  C   UNL A   1      43.870  26.110  26.015  1.00  0.00     0.198 A 
ATOM     70  C   UNL A   1      42.685  24.313  26.780  1.00  0.00     0.198 A 
ATOM     71  F   UNL A   1      41.442  24.501  28.752  1.00  0.00    -0.203 F 
ATOM     72  F   UNL A   1      44.483  26.712  25.000  1.00  0.00    -0.200 F 
ATOM     73  C   UNL A   1      43.583  24.828  25.887  1.00  0.00     0.200 A 
ATOM     74  F   UNL A   1      42.229  23.075  26.611  1.00  0.00    -0.200 F 
ATOM     75  F   UNL A   1      44.138  24.077  24.939  1.00  0.00    -0.200 F 
ENDBRANCH  51  65
BRANCH  52  76
ATOM     76  C   UNL A   1      38.983  31.879  35.386  1.00  0.00     0.064 A 
ATOM     77  C   UNL A   1      39.320  33.222  35.431  1.00  0.00     0.173 A 
ATOM     78  C   UNL A   1      38.227  31.327  36.327  1.00  0.00     0.173 A 
ATOM     79  F   UNL A   1      39.852  33.871  34.399  1.00  0.00    -0.203 F 
ATOM     80  C   UNL A   1      39.047  33.839  36.675  1.00  0.00     0.198 A 
ATOM     81  C   UNL A   1      37.885  32.034  37.455  1.00  0.00     0.198 A 
ATOM     82  F   UNL A   1      37.797  30.077  36.178  1.00  0.00    -0.203 F 
ATOM     83  F   UNL A   1      39.650  34.996  36.936  1.00  0.00    -0.200 F 
ATOM     84  C   UNL A   1      38.235  33.349  37.593  1.00  0.00     0.200 A 
ATOM     85  F   UNL A   1      37.203  31.431  38.425  1.00  0.00    -0.200 F 
ATOM     86  F   UNL A   1      37.783  34.092  38.599  1.00  0.00    -0.200 F 
ENDBRANCH  52  76
BRANCH  64  87
ATOM     87  C   UNL A   1      44.694  27.886  34.507  1.00  0.00     0.064 A 
ATOM     88  C   UNL A   1      45.751  28.777  34.428  1.00  0.00     0.173 A 
ATOM     89  C   UNL A   1      44.725  26.854  35.343  1.00  0.00     0.173 A 
ATOM     90  F   UNL A   1      45.666  29.950  33.804  1.00  0.00    -0.203 F 
ATOM     91  C   UNL A   1      46.929  28.328  35.069  1.00  0.00     0.198 A 
ATOM     92  C   UNL A   1      45.869  26.554  36.041  1.00  0.00     0.198 A 
ATOM     93  F   UNL A   1      43.638  26.105  35.504  1.00  0.00    -0.203 F 
ATOM     94  F   UNL A   1      48.075  28.926  34.749  1.00  0.00    -0.200 F 
ATOM     95  C   UNL A   1      46.971  27.358  35.964  1.00  0.00     0.200 A 
ATOM     96  F   UNL A   1      45.904  25.464  36.803  1.00  0.00    -0.200 F 
ATOM     97  F   UNL A   1      48.030  27.174  36.748  1.00  0.00    -0.200 F 
ENDBRANCH  64  87
ENDBRANCH  38  39
ENDBRANCH  30  33
ENDBRANCH  28  29
ENDBRANCH   1  28
TORSDOF 12
ENDMDL
MODEL 3
REMARK VINA RESULT:     -14.0      2.431      4.424
REMARK SMILES O=C(NCCCNC(=O)c1ccc(-c2c3nc(c(-c4c(F)c(F)c(F)c(F)c4F)c4ccc([nH]4)c(-c4c(F)c(F)c(F)c(F)c4F)c4nc(c(-c5c(F)c(F)c(F)c(F)c5F)c5ccc2[nH]5)C=C4)C=C3)cc1)C1=Cc2cc(S(F)(F)(F)(F)F)cc(Br)c2O[C@@H]1C(F)(F)F
REMARK SMILES IDX 5 1 4 2 3 3 1 4 2 5 73 7 74 8 89 9 75 10 88 11 76 12 87 13
REMARK SMILES IDX 77 14 85 15 84 16 86 17 90 18 91 19 92 20 93 21 78 22 79 23
REMARK SMILES IDX 80 24 81 25 82 26 83 27 6 28 7 29 8 30 9 32 10 33 11 34
REMARK SMILES IDX 72 35 12 36 71 37 13 38 14 39 15 40 65 41 16 42 70 43 64 44
REMARK SMILES IDX 66 45 17 46 69 47 63 48 62 49 18 51 50 52 30 53 49 54 31 55
REMARK SMILES IDX 34 56 48 57 67 58 32 59 33 60 47 62 68 63 35 64 19 65 20 66
REMARK SMILES IDX 28 67 21 68 22 69 26 70 29 71 23 72 24 73 27 74 25 75 51 76
REMARK SMILES IDX 52 77 60 78 53 79 54 80 58 81 61 82 55 83 56 84 59 85 57 86
REMARK SMILES IDX 36 87 37 88 45 89 38 90 39 91 43 92 46 93 40 94 41 95 44 96
REMARK SMILES IDX 42 97
REMARK H PARENT 3 6 7 31 66 50 34 61
REMARK Flexibility Score: inf
ROOT
ATOM      1  C   UNL A   1      31.635  29.303  27.061  1.00  0.00     0.042 C 
ENDROOT
BRANCH   1   2
ATOM      2  C   UNL A   1      32.014  27.920  27.563  1.00  0.00     0.118 C 
BRANCH   2   3
ATOM      3  N   UNL A   1      33.232  27.467  26.876  1.00  0.00    -0.352 N 
ATOM      4  O   UNL A   1      34.277  25.811  25.531  1.00  0.00    -0.270 OA
ATOM      5  C   UNL A   1      33.224  26.203  26.125  1.00  0.00     0.251 C 
ATOM      6  H   UNL A   1      34.052  28.009  26.917  1.00  0.00     0.163 HD
BRANCH   5   7
ATOM      7  C   UNL A   1      31.958  25.365  26.059  1.00  0.00     0.067 C 
ATOM      8  C   UNL A   1      30.931  25.747  25.254  1.00  0.00     0.025 C 
ATOM      9  C   UNL A   1      31.839  24.099  26.893  1.00  0.00     0.314 C 
ATOM     10  C   UNL A   1      31.049  27.012  24.420  1.00  0.00     0.020 A 
ATOM     11  O   UNL A   1      33.263  26.312  23.911  1.00  0.00    -0.474 OA
ATOM     12  C   UNL A   1      30.032  27.952  24.417  1.00  0.00     0.036 A 
ATOM     13  C   UNL A   1      32.181  27.220  23.759  1.00  0.00     0.142 A 
ATOM     14  C   UNL A   1      30.192  28.966  23.443  1.00  0.00     0.109 A 
ATOM     15  C   UNL A   1      32.317  28.306  22.927  1.00  0.00     0.062 A 
ATOM     16  C   UNL A   1      31.328  29.245  22.831  1.00  0.00     0.044 A 
ATOM     17  Br  UNL A   1      33.952  28.511  21.865  1.00  0.00    -0.047 Br
BRANCH   9  18
ATOM     18  C   UNL A   1      31.628  22.905  25.977  1.00  0.00     0.429 C 
ATOM     19  F   UNL A   1      32.205  23.141  24.802  1.00  0.00    -0.167 F 
ATOM     20  F   UNL A   1      32.169  21.822  26.528  1.00  0.00    -0.167 F 
ATOM     21  F   UNL A   1      30.324  22.709  25.799  1.00  0.00    -0.167 F 
ENDBRANCH   9  18
BRANCH  14  22
ATOM     22  S   UNL A   1      28.736  29.949  23.005  1.00  0.00     0.310 S 
ATOM     23  F   UNL A   1      29.504  30.695  21.835  1.00  0.00    -0.094 F 
ATOM     24  F   UNL A   1      29.238  31.090  23.970  1.00  0.00    -0.094 F 
ATOM     25  F   UNL A   1      27.479  30.783  22.628  1.00  0.00    -0.094 F 
ATOM     26  F   UNL A   1      28.323  28.859  21.940  1.00  0.00    -0.094 F 
ATOM     27  F   UNL A   1      30.065  29.143  23.294  1.00  0.00    -0.094 F 
ENDBRANCH  14  22
ENDBRANCH   5   7
ENDBRANCH   2   3
ENDBRANCH   1   2
BRANCH   1  28
ATOM     28  C   UNL A   1      32.894  30.088  26.738  1.00  0.00     0.118 C 
BRANCH  28  29
ATOM     29  N   UNL A   1      32.644  31.522  26.945  1.00  0.00    -0.352 N 
ATOM     30  C   UNL A   1      33.639  32.348  27.646  1.00  0.00     0.251 C 
ATOM     31  H   UNL A   1      31.812  31.930  26.614  1.00  0.00     0.163 HD
ATOM     32  O   UNL A   1      33.423  33.587  27.826  1.00  0.00    -0.269 OA
BRANCH  30  33
ATOM     33  C   UNL A   1      34.925  31.718  28.156  1.00  0.00     0.039 A 
ATOM     34  C   UNL A   1      36.005  32.583  28.222  1.00  0.00     0.014 A 
ATOM     35  C   UNL A   1      35.003  30.481  28.631  1.00  0.00     0.014 A 
ATOM     36  C   UNL A   1      37.227  31.949  28.552  1.00  0.00     0.010 A 
ATOM     37  C   UNL A   1      36.204  29.971  29.062  1.00  0.00     0.010 A 
ATOM     38  C   UNL A   1      37.326  30.751  29.099  1.00  0.00    -0.014 A 
BRANCH  38  39
ATOM     39  C   UNL A   1      38.617  30.266  29.736  1.00  0.00     0.031 A 
ATOM     40  C   UNL A   1      39.409  29.294  29.122  1.00  0.00     0.074 A 
ATOM     41  C   UNL A   1      38.837  30.749  31.016  1.00  0.00     0.049 A 
ATOM     42  N   UNL A   1      40.496  28.699  29.616  1.00  0.00    -0.248 NA
ATOM     43  C   UNL A   1      39.157  28.756  27.778  1.00  0.00     0.031 C 
ATOM     44  C   UNL A   1      38.049  31.736  31.639  1.00  0.00     0.029 A 
ATOM     45  N   UNL A   1      39.827  30.379  31.900  1.00  0.00    -0.354 N 
ATOM     46  C   UNL A   1      40.993  27.837  28.726  1.00  0.00     0.074 A 
ATOM     47  C   UNL A   1      40.136  27.857  27.533  1.00  0.00     0.031 C 
ATOM     48  C   UNL A   1      38.548  31.949  32.885  1.00  0.00     0.029 A 
ATOM     49  C   UNL A   1      39.658  31.100  33.061  1.00  0.00     0.049 A 
ATOM     50  H   UNL A   1      40.532  29.714  31.732  1.00  0.00     0.167 HD
ATOM     51  C   UNL A   1      42.129  27.038  28.862  1.00  0.00     0.037 A 
ATOM     52  C   UNL A   1      40.415  31.034  34.219  1.00  0.00     0.037 A 
ATOM     53  C   UNL A   1      42.913  27.004  30.004  1.00  0.00     0.049 A 
ATOM     54  C   UNL A   1      41.518  30.190  34.377  1.00  0.00     0.074 A 
ATOM     55  C   UNL A   1      44.065  26.208  30.155  1.00  0.00     0.029 A 
ATOM     56  N   UNL A   1      42.729  27.707  31.175  1.00  0.00    -0.354 N 
ATOM     57  N   UNL A   1      42.038  29.358  33.473  1.00  0.00    -0.248 NA
ATOM     58  C   UNL A   1      42.308  30.089  35.611  1.00  0.00     0.031 C 
ATOM     59  C   UNL A   1      44.564  26.422  31.402  1.00  0.00     0.029 A 
ATOM     60  C   UNL A   1      43.731  27.353  32.051  1.00  0.00     0.049 A 
ATOM     61  H   UNL A   1      42.006  28.351  31.354  1.00  0.00     0.167 HD
ATOM     62  C   UNL A   1      43.101  28.733  33.983  1.00  0.00     0.074 A 
ATOM     63  C   UNL A   1      43.286  29.188  35.367  1.00  0.00     0.031 C 
ATOM     64  C   UNL A   1      43.927  27.803  33.347  1.00  0.00     0.037 A 
BRANCH  51  65
ATOM     65  C   UNL A   1      42.529  26.155  27.691  1.00  0.00     0.064 A 
ATOM     66  C   UNL A   1      41.974  24.889  27.601  1.00  0.00     0.173 A 
ATOM     67  C   UNL A   1      43.348  26.616  26.754  1.00  0.00     0.173 A 
ATOM     68  F   UNL A   1      40.966  24.484  28.368  1.00  0.00    -0.203 F 
ATOM     69  C   UNL A   1      42.575  24.068  26.618  1.00  0.00     0.198 A 
ATOM     70  C   UNL A   1      43.791  25.793  25.745  1.00  0.00     0.198 A 
ATOM     71  F   UNL A   1      43.746  27.885  26.791  1.00  0.00    -0.203 F 
ATOM     72  F   UNL A   1      42.368  22.756  26.698  1.00  0.00    -0.200 F 
ATOM     73  C   UNL A   1      43.328  24.513  25.629  1.00  0.00     0.200 A 
ATOM     74  F   UNL A   1      44.680  26.251  24.870  1.00  0.00    -0.200 F 
ATOM     75  F   UNL A   1      43.620  23.754  24.576  1.00  0.00    -0.200 F 
ENDBRANCH  51  65
BRANCH  52  76
ATOM     76  C   UNL A   1      40.025  31.929  35.385  1.00  0.00     0.064 A 
ATOM     77  C   UNL A   1      39.018  31.511  36.240  1.00  0.00     0.173 A 
ATOM     78  C   UNL A   1      40.610  33.111  35.534  1.00  0.00     0.173 A 
ATOM     79  F   UNL A   1      38.584  30.255  36.290  1.00  0.00    -0.203 F 
ATOM     80  C   UNL A   1      38.495  32.543  37.054  1.00  0.00     0.198 A 
ATOM     81  C   UNL A   1      40.128  34.019  36.446  1.00  0.00     0.198 A 
ATOM     82  F   UNL A   1      41.671  33.419  34.795  1.00  0.00    -0.203 F 
ATOM     83  F   UNL A   1      37.314  32.336  37.631  1.00  0.00    -0.200 F 
ATOM     84  C   UNL A   1      39.097  33.695  37.284  1.00  0.00     0.200 A 
ATOM     85  F   UNL A   1      40.674  35.231  36.516  1.00  0.00    -0.200 F 
ATOM     86  F   UNL A   1      38.720  34.498  38.274  1.00  0.00    -0.200 F 
ENDBRANCH  52  76
BRANCH  64  87
ATOM     87  C   UNL A   1      45.111  27.252  34.124  1.00  0.00     0.064 A 
ATOM     88  C   UNL A   1      44.846  26.084  34.819  1.00  0.00     0.173 A 
ATOM     89  C   UNL A   1      46.335  27.765  34.080  1.00  0.00     0.173 A 
ATOM     90  F   UNL A   1      43.712  25.402  34.686  1.00  0.00    -0.203 F 
ATOM     91  C   UNL A   1      45.892  25.682  35.683  1.00  0.00     0.198 A 
ATOM     92  C   UNL A   1      47.343  27.237  34.849  1.00  0.00     0.198 A 
ATOM     93  F   UNL A   1      46.586  28.801  33.284  1.00  0.00    -0.203 F 
ATOM     94  F   UNL A   1      45.602  24.803  36.639  1.00  0.00    -0.200 F 
ATOM     95  C   UNL A   1      47.136  26.118  35.607  1.00  0.00     0.200 A 
ATOM     96  F   UNL A   1      48.537  27.823  34.857  1.00  0.00    -0.200 F 
ATOM     97  F   UNL A   1      48.135  25.502  36.233  1.00  0.00    -0.200 F 
ENDBRANCH  64  87
ENDBRANCH  38  39
ENDBRANCH  30  33
ENDBRANCH  28  29
ENDBRANCH   1  28
TORSDOF 12
ENDMDL
