MODEL 1
REMARK VINA RESULT:     -12.0      0.000      0.000
REMARK SMILES COc1ccc(S(=O)(=O)N[C@H]2C=C[C@@H](C(=O)NCCCNC(=O)c3ccc(-c4c5nc(c(-c6c(F)c(F)c(F)c(F)c6F)c6ccc([nH]6)c(-c6c(F)c(F)c(F)c(F)c6F)c6nc(c(-c7c(F)c(F)c(F)c(F)c7F)c7ccc4[nH]7)C=C6)C=C5)cc3)C2)cc1
REMARK SMILES IDX 18 1 17 2 15 3 16 4 14 6 11 7 12 8 87 9 13 10 10 11 7 13
REMARK SMILES IDX 8 14 9 15 6 16 3 17 4 18 89 19 5 20 88 21 2 22 1 23 19 24
REMARK SMILES IDX 20 25 21 26 22 27 23 29 24 30 25 31 86 32 26 33 85 34 27 35
REMARK SMILES IDX 28 36 29 37 79 38 30 39 84 40 78 41 80 42 31 43 83 44 77 45
REMARK SMILES IDX 76 46 32 48 64 49 44 50 63 51 45 52 48 53 62 54 81 55 46 56
REMARK SMILES IDX 47 57 61 59 82 60 49 61 33 62 34 63 42 64 35 65 36 66 40 67
REMARK SMILES IDX 43 68 37 69 38 70 41 71 39 72 65 73 66 74 74 75 67 76 68 77
REMARK SMILES IDX 72 78 75 79 69 80 70 81 73 82 71 83 50 84 51 85 59 86 52 87
REMARK SMILES IDX 53 88 57 89 60 90 54 91 55 92 58 93 56 94
REMARK H PARENT 17 5 10 12 21 28 80 47 48 58
REMARK Flexibility Score: inf
ROOT
ATOM      1  C   UNL A   1      32.445  27.114  26.606  1.00  0.00     0.117 C 
ENDROOT
BRANCH   1   2
ATOM      2  N   UNL A   1      31.442  26.059  26.648  1.00  0.00    -0.356 N 
ATOM      3  C   UNL A   1      31.424  24.739  26.330  1.00  0.00     0.226 C 
ATOM      4  O   UNL A   1      30.327  24.183  26.491  1.00  0.00    -0.274 OA
ATOM      5  H   UNL A   1      30.574  26.377  26.985  1.00  0.00     0.163 HD
BRANCH   3   6
ATOM      6  C   UNL A   1      32.584  23.919  25.737  1.00  0.00     0.103 C 
ATOM      7  C   UNL A   1      34.006  24.910  23.984  1.00  0.00     0.093 C 
ATOM      8  C   UNL A   1      34.751  24.666  25.264  1.00  0.00    -0.011 C 
ATOM      9  C   UNL A   1      32.746  24.069  24.208  1.00  0.00     0.042 C 
ATOM     10  C   UNL A   1      33.975  24.140  26.221  1.00  0.00    -0.016 C 
BRANCH   7  11
ATOM     11  N   UNL A   1      33.743  26.358  23.919  1.00  0.00    -0.204 NA
ATOM     12  H   UNL A   1      32.965  26.554  24.549  1.00  0.00     0.142 HD
BRANCH  11  13
ATOM     13  S   UNL A   1      33.350  27.026  22.406  1.00  0.00     0.241 S 
ATOM     14  O   UNL A   1      33.374  25.982  21.409  1.00  0.00    -0.207 OA
ATOM     15  O   UNL A   1      34.179  28.208  22.318  1.00  0.00    -0.207 OA
BRANCH  13  16
ATOM     16  C   UNL A   1      31.675  27.586  22.582  1.00  0.00     0.082 A 
ATOM     17  C   UNL A   1      29.049  28.474  23.007  1.00  0.00     0.118 A 
ATOM     18  C   UNL A   1      30.014  29.335  22.470  1.00  0.00     0.048 A 
ATOM     19  C   UNL A   1      29.394  27.160  23.292  1.00  0.00     0.048 A 
ATOM     20  C   UNL A   1      31.332  28.901  22.266  1.00  0.00     0.025 A 
ATOM     21  C   UNL A   1      30.702  26.733  23.087  1.00  0.00     0.025 A 
BRANCH  17  22
ATOM     22  O   UNL A   1      27.803  29.004  23.202  1.00  0.00    -0.497 OA
ATOM     23  C   UNL A   1      27.675  30.388  22.885  1.00  0.00     0.278 C 
ENDBRANCH  17  22
ENDBRANCH  13  16
ENDBRANCH  11  13
ENDBRANCH   7  11
ENDBRANCH   3   6
ENDBRANCH   1   2
BRANCH   1  24
ATOM     24  C   UNL A   1      31.900  28.462  26.118  1.00  0.00     0.042 C 
BRANCH  24  25
ATOM     25  C   UNL A   1      32.943  29.463  25.619  1.00  0.00     0.118 C 
BRANCH  25  26
ATOM     26  N   UNL A   1      32.625  30.828  26.003  1.00  0.00    -0.352 N 
ATOM     27  C   UNL A   1      33.174  31.613  26.991  1.00  0.00     0.251 C 
ATOM     28  H   UNL A   1      31.909  31.254  25.479  1.00  0.00     0.163 HD
ATOM     29  O   UNL A   1      32.614  32.661  27.306  1.00  0.00    -0.269 OA
BRANCH  27  30
ATOM     30  C   UNL A   1      34.427  31.226  27.684  1.00  0.00     0.039 A 
ATOM     31  C   UNL A   1      34.542  29.928  28.193  1.00  0.00     0.014 A 
ATOM     32  C   UNL A   1      35.450  32.149  27.917  1.00  0.00     0.014 A 
ATOM     33  C   UNL A   1      35.689  29.547  28.899  1.00  0.00     0.010 A 
ATOM     34  C   UNL A   1      36.619  31.754  28.575  1.00  0.00     0.010 A 
ATOM     35  C   UNL A   1      36.748  30.452  29.084  1.00  0.00    -0.014 A 
BRANCH  35  36
ATOM     36  C   UNL A   1      37.978  30.045  29.819  1.00  0.00     0.031 A 
ATOM     37  C   UNL A   1      38.250  30.558  31.208  1.00  0.00     0.074 A 
ATOM     38  C   UNL A   1      38.877  29.237  29.226  1.00  0.00     0.049 A 
ATOM     39  N   UNL A   1      39.279  30.334  31.989  1.00  0.00    -0.248 NA
ATOM     40  C   UNL A   1      37.242  31.456  31.789  1.00  0.00     0.031 C 
ATOM     41  C   UNL A   1      38.764  28.703  27.870  1.00  0.00     0.029 A 
ATOM     42  N   UNL A   1      40.070  28.733  29.686  1.00  0.00    -0.354 N 
ATOM     43  C   UNL A   1      39.047  31.068  33.145  1.00  0.00     0.074 A 
ATOM     44  C   UNL A   1      37.803  31.782  32.945  1.00  0.00     0.031 C 
ATOM     45  C   UNL A   1      39.836  27.937  27.610  1.00  0.00     0.029 A 
ATOM     46  C   UNL A   1      40.725  27.947  28.770  1.00  0.00     0.049 A 
ATOM     47  H   UNL A   1      40.422  28.917  30.586  1.00  0.00     0.167 HD
ATOM     48  C   UNL A   1      39.788  31.126  34.278  1.00  0.00     0.037 A 
ATOM     49  C   UNL A   1      41.909  27.310  28.849  1.00  0.00     0.037 A 
ATOM     50  C   UNL A   1      41.017  30.407  34.492  1.00  0.00     0.049 A 
ATOM     51  C   UNL A   1      42.714  27.385  30.118  1.00  0.00     0.074 A 
ATOM     52  C   UNL A   1      41.809  30.366  35.627  1.00  0.00     0.029 A 
ATOM     53  N   UNL A   1      41.637  29.604  33.547  1.00  0.00    -0.354 N 
ATOM     54  N   UNL A   1      42.450  28.032  31.227  1.00  0.00    -0.248 NA
ATOM     55  C   UNL A   1      43.976  26.633  30.149  1.00  0.00     0.031 C 
ATOM     56  C   UNL A   1      42.926  29.568  35.357  1.00  0.00     0.029 A 
ATOM     57  C   UNL A   1      42.810  29.077  34.066  1.00  0.00     0.049 A 
ATOM     58  H   UNL A   1      41.295  29.433  32.639  1.00  0.00     0.167 HD
ATOM     59  C   UNL A   1      43.500  27.752  32.092  1.00  0.00     0.074 A 
ATOM     60  C   UNL A   1      44.398  26.862  31.386  1.00  0.00     0.031 C 
ATOM     61  C   UNL A   1      43.700  28.194  33.357  1.00  0.00     0.037 A 
BRANCH  48  62
ATOM     62  C   UNL A   1      39.282  32.004  35.388  1.00  0.00     0.064 A 
ATOM     63  C   UNL A   1      38.460  31.498  36.406  1.00  0.00     0.173 A 
ATOM     64  C   UNL A   1      39.647  33.357  35.451  1.00  0.00     0.173 A 
ATOM     65  F   UNL A   1      38.077  30.213  36.387  1.00  0.00    -0.203 F 
ATOM     66  C   UNL A   1      37.994  32.323  37.428  1.00  0.00     0.198 A 
ATOM     67  C   UNL A   1      39.202  34.172  36.490  1.00  0.00     0.198 A 
ATOM     68  F   UNL A   1      40.439  33.890  34.509  1.00  0.00    -0.203 F 
ATOM     69  F   UNL A   1      37.167  31.829  38.360  1.00  0.00    -0.200 F 
ATOM     70  C   UNL A   1      38.368  33.657  37.471  1.00  0.00     0.200 A 
ATOM     71  F   UNL A   1      39.575  35.459  36.538  1.00  0.00    -0.200 F 
ATOM     72  F   UNL A   1      37.920  34.448  38.455  1.00  0.00    -0.200 F 
ENDBRANCH  48  62
BRANCH  49  73
ATOM     73  C   UNL A   1      42.395  26.524  27.688  1.00  0.00     0.064 A 
ATOM     74  C   UNL A   1      43.309  27.073  26.777  1.00  0.00     0.173 A 
ATOM     75  C   UNL A   1      41.969  25.205  27.473  1.00  0.00     0.173 A 
ATOM     76  F   UNL A   1      43.726  28.338  26.929  1.00  0.00    -0.203 F 
ATOM     77  C   UNL A   1      43.769  26.335  25.689  1.00  0.00     0.198 A 
ATOM     78  C   UNL A   1      42.449  24.461  26.399  1.00  0.00     0.198 A 
ATOM     79  F   UNL A   1      41.097  24.636  28.318  1.00  0.00    -0.203 F 
ATOM     80  F   UNL A   1      44.615  26.895  24.814  1.00  0.00    -0.200 F 
ATOM     81  C   UNL A   1      43.345  25.027  25.504  1.00  0.00     0.200 A 
ATOM     82  F   UNL A   1      42.045  23.195  26.230  1.00  0.00    -0.200 F 
ATOM     83  F   UNL A   1      43.795  24.315  24.463  1.00  0.00    -0.200 F 
ENDBRANCH  49  73
BRANCH  61  84
ATOM     84  C   UNL A   1      44.928  27.709  34.072  1.00  0.00     0.064 A 
ATOM     85  C   UNL A   1      44.923  26.518  34.812  1.00  0.00     0.173 A 
ATOM     86  C   UNL A   1      46.132  28.423  33.983  1.00  0.00     0.173 A 
ATOM     87  F   UNL A   1      43.793  25.808  34.940  1.00  0.00    -0.203 F 
ATOM     88  C   UNL A   1      46.074  26.072  35.456  1.00  0.00     0.198 A 
ATOM     89  C   UNL A   1      47.287  27.961  34.606  1.00  0.00     0.198 A 
ATOM     90  F   UNL A   1      46.191  29.566  33.282  1.00  0.00    -0.203 F 
ATOM     91  F   UNL A   1      46.036  24.953  36.193  1.00  0.00    -0.200 F 
ATOM     92  C   UNL A   1      47.257  26.788  35.347  1.00  0.00     0.200 A 
ATOM     93  F   UNL A   1      48.432  28.649  34.491  1.00  0.00    -0.200 F 
ATOM     94  F   UNL A   1      48.365  26.354  35.963  1.00  0.00    -0.200 F 
ENDBRANCH  61  84
ENDBRANCH  35  36
ENDBRANCH  27  30
ENDBRANCH  25  26
ENDBRANCH  24  25
ENDBRANCH   1  24
TORSDOF 14
ENDMDL
MODEL 2
REMARK VINA RESULT:     -11.9      0.155      1.600
REMARK SMILES COc1ccc(S(=O)(=O)N[C@H]2C=C[C@@H](C(=O)NCCCNC(=O)c3ccc(-c4c5nc(c(-c6c(F)c(F)c(F)c(F)c6F)c6ccc([nH]6)c(-c6c(F)c(F)c(F)c(F)c6F)c6nc(c(-c7c(F)c(F)c(F)c(F)c7F)c7ccc4[nH]7)C=C6)C=C5)cc3)C2)cc1
REMARK SMILES IDX 18 1 17 2 15 3 16 4 14 6 11 7 12 8 87 9 13 10 10 11 7 13
REMARK SMILES IDX 8 14 9 15 6 16 3 17 4 18 89 19 5 20 88 21 2 22 1 23 19 24
REMARK SMILES IDX 20 25 21 26 22 27 23 29 24 30 25 31 86 32 26 33 85 34 27 35
REMARK SMILES IDX 28 36 29 37 79 38 30 39 84 40 78 41 80 42 31 43 83 44 77 45
REMARK SMILES IDX 76 46 32 48 64 49 44 50 63 51 45 52 48 53 62 54 81 55 46 56
REMARK SMILES IDX 47 57 61 59 82 60 49 61 33 62 34 63 42 64 35 65 36 66 40 67
REMARK SMILES IDX 43 68 37 69 38 70 41 71 39 72 65 73 66 74 74 75 67 76 68 77
REMARK SMILES IDX 72 78 75 79 69 80 70 81 73 82 71 83 50 84 51 85 59 86 52 87
REMARK SMILES IDX 53 88 57 89 60 90 54 91 55 92 58 93 56 94
REMARK H PARENT 17 5 10 12 21 28 80 47 48 58
REMARK Flexibility Score: inf
ROOT
ATOM      1  C   UNL A   1      32.441  27.228  26.665  1.00  0.00     0.117 C 
ENDROOT
BRANCH   1   2
ATOM      2  N   UNL A   1      31.423  26.186  26.669  1.00  0.00    -0.356 N 
ATOM      3  C   UNL A   1      31.397  24.869  26.339  1.00  0.00     0.226 C 
ATOM      4  O   UNL A   1      30.289  24.326  26.464  1.00  0.00    -0.274 OA
ATOM      5  H   UNL A   1      30.550  26.513  26.984  1.00  0.00     0.163 HD
BRANCH   3   6
ATOM      6  C   UNL A   1      32.562  24.039  25.771  1.00  0.00     0.103 C 
ATOM      7  C   UNL A   1      34.018  25.010  24.034  1.00  0.00     0.093 C 
ATOM      8  C   UNL A   1      34.741  24.771  25.329  1.00  0.00    -0.011 C 
ATOM      9  C   UNL A   1      32.750  24.177  24.244  1.00  0.00     0.042 C 
ATOM     10  C   UNL A   1      33.946  24.257  26.276  1.00  0.00    -0.016 C 
BRANCH   7  11
ATOM     11  N   UNL A   1      33.763  26.459  23.955  1.00  0.00    -0.204 NA
ATOM     12  H   UNL A   1      32.986  26.665  24.582  1.00  0.00     0.142 HD
BRANCH  11  13
ATOM     13  S   UNL A   1      33.377  27.114  22.435  1.00  0.00     0.241 S 
ATOM     14  O   UNL A   1      33.395  26.060  21.449  1.00  0.00    -0.207 OA
ATOM     15  O   UNL A   1      34.213  28.291  22.336  1.00  0.00    -0.207 OA
BRANCH  13  16
ATOM     16  C   UNL A   1      31.704  27.687  22.604  1.00  0.00     0.082 A 
ATOM     17  C   UNL A   1      29.082  28.589  23.018  1.00  0.00     0.118 A 
ATOM     18  C   UNL A   1      30.060  29.452  22.507  1.00  0.00     0.048 A 
ATOM     19  C   UNL A   1      29.412  27.267  23.281  1.00  0.00     0.048 A 
ATOM     20  C   UNL A   1      31.377  29.010  22.310  1.00  0.00     0.025 A 
ATOM     21  C   UNL A   1      30.718  26.832  23.082  1.00  0.00     0.025 A 
BRANCH  17  22
ATOM     22  O   UNL A   1      27.839  29.127  23.209  1.00  0.00    -0.497 OA
ATOM     23  C   UNL A   1      27.702  30.495  22.829  1.00  0.00     0.278 C 
ENDBRANCH  17  22
ENDBRANCH  13  16
ENDBRANCH  11  13
ENDBRANCH   7  11
ENDBRANCH   3   6
ENDBRANCH   1   2
BRANCH   1  24
ATOM     24  C   UNL A   1      31.916  28.599  26.219  1.00  0.00     0.042 C 
BRANCH  24  25
ATOM     25  C   UNL A   1      32.969  29.581  25.703  1.00  0.00     0.118 C 
BRANCH  25  26
ATOM     26  N   UNL A   1      32.675  30.953  26.084  1.00  0.00    -0.352 N 
ATOM     27  C   UNL A   1      33.238  31.731  27.068  1.00  0.00     0.251 C 
ATOM     28  H   UNL A   1      31.966  31.390  25.559  1.00  0.00     0.163 HD
ATOM     29  O   UNL A   1      32.697  32.789  27.381  1.00  0.00    -0.269 OA
BRANCH  27  30
ATOM     30  C   UNL A   1      34.485  31.324  27.762  1.00  0.00     0.039 A 
ATOM     31  C   UNL A   1      34.553  30.048  28.332  1.00  0.00     0.014 A 
ATOM     32  C   UNL A   1      35.550  32.212  27.936  1.00  0.00     0.014 A 
ATOM     33  C   UNL A   1      35.694  29.652  29.039  1.00  0.00     0.010 A 
ATOM     34  C   UNL A   1      36.712  31.798  28.596  1.00  0.00     0.010 A 
ATOM     35  C   UNL A   1      36.793  30.518  29.165  1.00  0.00    -0.014 A 
BRANCH  35  36
ATOM     36  C   UNL A   1      38.017  30.094  29.903  1.00  0.00     0.031 A 
ATOM     37  C   UNL A   1      38.283  30.587  31.300  1.00  0.00     0.074 A 
ATOM     38  C   UNL A   1      38.915  29.289  29.303  1.00  0.00     0.049 A 
ATOM     39  N   UNL A   1      39.306  30.345  32.084  1.00  0.00    -0.248 NA
ATOM     40  C   UNL A   1      37.276  31.482  31.887  1.00  0.00     0.031 C 
ATOM     41  C   UNL A   1      38.807  28.774  27.940  1.00  0.00     0.029 A 
ATOM     42  N   UNL A   1      40.103  28.772  29.764  1.00  0.00    -0.354 N 
ATOM     43  C   UNL A   1      39.071  31.065  33.249  1.00  0.00     0.074 A 
ATOM     44  C   UNL A   1      37.832  31.788  33.051  1.00  0.00     0.031 C 
ATOM     45  C   UNL A   1      39.876  28.006  27.676  1.00  0.00     0.029 A 
ATOM     46  C   UNL A   1      40.758  27.995  28.841  1.00  0.00     0.049 A 
ATOM     47  H   UNL A   1      40.450  28.942  30.668  1.00  0.00     0.167 HD
ATOM     48  C   UNL A   1      39.805  31.103  34.387  1.00  0.00     0.037 A 
ATOM     49  C   UNL A   1      41.938  27.351  28.918  1.00  0.00     0.037 A 
ATOM     50  C   UNL A   1      41.029  30.374  34.598  1.00  0.00     0.049 A 
ATOM     51  C   UNL A   1      42.735  27.404  30.193  1.00  0.00     0.074 A 
ATOM     52  C   UNL A   1      41.813  30.313  35.737  1.00  0.00     0.029 A 
ATOM     53  N   UNL A   1      41.650  29.581  33.645  1.00  0.00    -0.354 N 
ATOM     54  N   UNL A   1      42.469  28.036  31.309  1.00  0.00    -0.248 NA
ATOM     55  C   UNL A   1      43.994  26.645  30.221  1.00  0.00     0.031 C 
ATOM     56  C   UNL A   1      42.928  29.513  35.462  1.00  0.00     0.029 A 
ATOM     57  C   UNL A   1      42.817  29.041  34.165  1.00  0.00     0.049 A 
ATOM     58  H   UNL A   1      41.313  29.424  32.734  1.00  0.00     0.167 HD
ATOM     59  C   UNL A   1      43.512  27.739  32.176  1.00  0.00     0.074 A 
ATOM     60  C   UNL A   1      44.409  26.854  31.463  1.00  0.00     0.031 C 
ATOM     61  C   UNL A   1      43.706  28.163  33.448  1.00  0.00     0.037 A 
BRANCH  48  62
ATOM     62  C   UNL A   1      39.298  31.969  35.505  1.00  0.00     0.064 A 
ATOM     63  C   UNL A   1      39.634  33.328  35.591  1.00  0.00     0.173 A 
ATOM     64  C   UNL A   1      38.442  31.442  36.484  1.00  0.00     0.173 A 
ATOM     65  F   UNL A   1      40.455  33.878  34.684  1.00  0.00    -0.203 F 
ATOM     66  C   UNL A   1      39.161  34.120  36.635  1.00  0.00     0.198 A 
ATOM     67  C   UNL A   1      37.947  32.244  37.511  1.00  0.00     0.198 A 
ATOM     68  F   UNL A   1      38.080  30.151  36.444  1.00  0.00    -0.203 F 
ATOM     69  F   UNL A   1      39.539  35.402  36.725  1.00  0.00    -0.200 F 
ATOM     70  C   UNL A   1      38.315  33.578  37.591  1.00  0.00     0.200 A 
ATOM     71  F   UNL A   1      37.119  31.722  38.427  1.00  0.00    -0.200 F 
ATOM     72  F   UNL A   1      37.859  34.342  38.593  1.00  0.00    -0.200 F 
ENDBRANCH  48  62
BRANCH  49  73
ATOM     73  C   UNL A   1      42.427  26.578  27.749  1.00  0.00     0.064 A 
ATOM     74  C   UNL A   1      43.202  27.190  26.754  1.00  0.00     0.173 A 
ATOM     75  C   UNL A   1      42.142  25.212  27.611  1.00  0.00     0.173 A 
ATOM     76  F   UNL A   1      43.479  28.499  26.833  1.00  0.00    -0.203 F 
ATOM     77  C   UNL A   1      43.666  26.465  25.658  1.00  0.00     0.198 A 
ATOM     78  C   UNL A   1      42.627  24.483  26.527  1.00  0.00     0.198 A 
ATOM     79  F   UNL A   1      41.406  24.583  28.538  1.00  0.00    -0.203 F 
ATOM     80  F   UNL A   1      44.375  27.081  24.703  1.00  0.00    -0.200 F 
ATOM     81  C   UNL A   1      43.384  25.111  25.549  1.00  0.00     0.200 A 
ATOM     82  F   UNL A   1      42.361  23.174  26.431  1.00  0.00    -0.200 F 
ATOM     83  F   UNL A   1      43.837  24.413  24.499  1.00  0.00    -0.200 F 
ENDBRANCH  49  73
BRANCH  61  84
ATOM     84  C   UNL A   1      44.927  27.661  34.164  1.00  0.00     0.064 A 
ATOM     85  C   UNL A   1      46.133  28.377  34.147  1.00  0.00     0.173 A 
ATOM     86  C   UNL A   1      44.879  26.471  34.906  1.00  0.00     0.173 A 
ATOM     87  F   UNL A   1      46.235  29.511  33.440  1.00  0.00    -0.203 F 
ATOM     88  C   UNL A   1      47.253  27.908  34.829  1.00  0.00     0.198 A 
ATOM     89  C   UNL A   1      45.993  26.019  35.608  1.00  0.00     0.198 A 
ATOM     90  F   UNL A   1      43.748  25.752  34.958  1.00  0.00    -0.203 F 
ATOM     91  F   UNL A   1      48.407  28.587  34.765  1.00  0.00    -0.200 F 
ATOM     92  C   UNL A   1      47.181  26.734  35.564  1.00  0.00     0.200 A 
ATOM     93  F   UNL A   1      45.918  24.890  36.326  1.00  0.00    -0.200 F 
ATOM     94  F   UNL A   1      48.258  26.287  36.225  1.00  0.00    -0.200 F 
ENDBRANCH  61  84
ENDBRANCH  35  36
ENDBRANCH  27  30
ENDBRANCH  25  26
ENDBRANCH  24  25
ENDBRANCH   1  24
TORSDOF 14
ENDMDL
MODEL 3
REMARK VINA RESULT:     -11.9      1.990      7.890
REMARK SMILES COc1ccc(S(=O)(=O)N[C@H]2C=C[C@@H](C(=O)NCCCNC(=O)c3ccc(-c4c5nc(c(-c6c(F)c(F)c(F)c(F)c6F)c6ccc([nH]6)c(-c6c(F)c(F)c(F)c(F)c6F)c6nc(c(-c7c(F)c(F)c(F)c(F)c7F)c7ccc4[nH]7)C=C6)C=C5)cc3)C2)cc1
REMARK SMILES IDX 18 1 17 2 15 3 16 4 14 6 11 7 12 8 87 9 13 10 10 11 7 13
REMARK SMILES IDX 8 14 9 15 6 16 3 17 4 18 89 19 5 20 88 21 2 22 1 23 19 24
REMARK SMILES IDX 20 25 21 26 22 27 23 29 24 30 25 31 86 32 26 33 85 34 27 35
REMARK SMILES IDX 28 36 29 37 79 38 30 39 84 40 78 41 80 42 31 43 83 44 77 45
REMARK SMILES IDX 76 46 32 48 64 49 44 50 63 51 45 52 48 53 62 54 81 55 46 56
REMARK SMILES IDX 47 57 61 59 82 60 49 61 33 62 34 63 42 64 35 65 36 66 40 67
REMARK SMILES IDX 43 68 37 69 38 70 41 71 39 72 65 73 66 74 74 75 67 76 68 77
REMARK SMILES IDX 72 78 75 79 69 80 70 81 73 82 71 83 50 84 51 85 59 86 52 87
REMARK SMILES IDX 53 88 57 89 60 90 54 91 55 92 58 93 56 94
REMARK H PARENT 17 5 10 12 21 28 80 47 48 58
REMARK Flexibility Score: inf
ROOT
ATOM      1  C   UNL A   1      31.229  31.006  26.419  1.00  0.00     0.117 C 
ENDROOT
BRANCH   1   2
ATOM      2  N   UNL A   1      31.965  30.461  25.286  1.00  0.00    -0.356 N 
ATOM      3  C   UNL A   1      32.747  29.369  25.086  1.00  0.00     0.226 C 
ATOM      4  O   UNL A   1      33.226  29.278  23.946  1.00  0.00    -0.274 OA
ATOM      5  H   UNL A   1      31.876  31.014  24.477  1.00  0.00     0.163 HD
BRANCH   3   6
ATOM      6  C   UNL A   1      33.140  28.312  26.135  1.00  0.00     0.103 C 
ATOM      7  C   UNL A   1      32.376  25.984  25.864  1.00  0.00     0.093 C 
ATOM      8  C   UNL A   1      33.866  26.122  25.737  1.00  0.00    -0.011 C 
ATOM      9  C   UNL A   1      32.005  27.329  26.496  1.00  0.00     0.042 C 
ATOM     10  C   UNL A   1      34.279  27.390  25.870  1.00  0.00    -0.016 C 
BRANCH   7  11
ATOM     11  N   UNL A   1      31.851  25.811  24.499  1.00  0.00    -0.204 NA
ATOM     12  H   UNL A   1      31.971  26.698  24.013  1.00  0.00     0.142 HD
BRANCH  11  13
ATOM     13  S   UNL A   1      30.222  25.354  24.328  1.00  0.00     0.241 S 
ATOM     14  O   UNL A   1      29.666  25.093  25.634  1.00  0.00    -0.207 OA
ATOM     15  O   UNL A   1      30.244  24.362  23.276  1.00  0.00    -0.207 OA
BRANCH  13  16
ATOM     16  C   UNL A   1      29.420  26.791  23.661  1.00  0.00     0.082 A 
ATOM     17  C   UNL A   1      28.135  29.110  22.747  1.00  0.00     0.118 A 
ATOM     18  C   UNL A   1      29.513  28.939  22.562  1.00  0.00     0.048 A 
ATOM     19  C   UNL A   1      27.401  28.101  23.353  1.00  0.00     0.048 A 
ATOM     20  C   UNL A   1      30.164  27.787  23.028  1.00  0.00     0.025 A 
ATOM     21  C   UNL A   1      28.049  26.960  23.813  1.00  0.00     0.025 A 
BRANCH  17  22
ATOM     22  O   UNL A   1      27.604  30.285  22.290  1.00  0.00    -0.497 OA
ATOM     23  C   UNL A   1      28.286  30.873  21.185  1.00  0.00     0.278 C 
ENDBRANCH  17  22
ENDBRANCH  13  16
ENDBRANCH  11  13
ENDBRANCH   7  11
ENDBRANCH   3   6
ENDBRANCH   1   2
BRANCH   1  24
ATOM     24  C   UNL A   1      31.352  32.528  26.558  1.00  0.00     0.042 C 
BRANCH  24  25
ATOM     25  C   UNL A   1      32.629  33.035  27.230  1.00  0.00     0.118 C 
BRANCH  25  26
ATOM     26  N   UNL A   1      32.503  34.409  27.687  1.00  0.00    -0.352 N 
ATOM     27  C   UNL A   1      33.089  35.035  28.762  1.00  0.00     0.251 C 
ATOM     28  H   UNL A   1      31.908  34.977  27.145  1.00  0.00     0.163 HD
ATOM     29  O   UNL A   1      32.679  36.140  29.111  1.00  0.00    -0.269 OA
BRANCH  27  30
ATOM     30  C   UNL A   1      34.205  34.408  29.512  1.00  0.00     0.039 A 
ATOM     31  C   UNL A   1      35.495  34.468  28.974  1.00  0.00     0.014 A 
ATOM     32  C   UNL A   1      33.983  33.686  30.688  1.00  0.00     0.014 A 
ATOM     33  C   UNL A   1      36.561  33.840  29.629  1.00  0.00     0.010 A 
ATOM     34  C   UNL A   1      35.057  33.104  31.371  1.00  0.00     0.010 A 
ATOM     35  C   UNL A   1      36.356  33.165  30.843  1.00  0.00    -0.014 A 
BRANCH  35  36
ATOM     36  C   UNL A   1      37.492  32.511  31.553  1.00  0.00     0.031 A 
ATOM     37  C   UNL A   1      38.205  31.335  30.942  1.00  0.00     0.074 A 
ATOM     38  C   UNL A   1      37.865  32.950  32.769  1.00  0.00     0.049 A 
ATOM     39  N   UNL A   1      39.195  30.623  31.424  1.00  0.00    -0.248 NA
ATOM     40  C   UNL A   1      37.733  30.888  29.624  1.00  0.00     0.031 C 
ATOM     41  C   UNL A   1      37.234  34.049  33.498  1.00  0.00     0.029 A 
ATOM     42  N   UNL A   1      38.861  32.517  33.612  1.00  0.00    -0.354 N 
ATOM     43  C   UNL A   1      39.457  29.642  30.475  1.00  0.00     0.074 A 
ATOM     44  C   UNL A   1      38.491  29.821  29.412  1.00  0.00     0.031 C 
ATOM     45  C   UNL A   1      37.862  34.213  34.674  1.00  0.00     0.029 A 
ATOM     46  C   UNL A   1      38.923  33.216  34.793  1.00  0.00     0.049 A 
ATOM     47  H   UNL A   1      39.471  31.779  33.391  1.00  0.00     0.167 HD
ATOM     48  C   UNL A   1      40.425  28.693  30.478  1.00  0.00     0.037 A 
ATOM     49  C   UNL A   1      39.737  33.068  35.856  1.00  0.00     0.037 A 
ATOM     50  C   UNL A   1      41.399  28.519  31.523  1.00  0.00     0.049 A 
ATOM     51  C   UNL A   1      40.807  32.011  35.836  1.00  0.00     0.074 A 
ATOM     52  C   UNL A   1      42.449  27.618  31.586  1.00  0.00     0.029 A 
ATOM     53  N   UNL A   1      41.442  29.260  32.694  1.00  0.00    -0.354 N 
ATOM     54  N   UNL A   1      41.083  31.133  34.904  1.00  0.00    -0.248 NA
ATOM     55  C   UNL A   1      41.685  31.932  37.012  1.00  0.00     0.031 C 
ATOM     56  C   UNL A   1      43.104  27.789  32.811  1.00  0.00     0.029 A 
ATOM     57  C   UNL A   1      42.489  28.825  33.494  1.00  0.00     0.049 A 
ATOM     58  H   UNL A   1      40.822  29.989  32.925  1.00  0.00     0.167 HD
ATOM     59  C   UNL A   1      42.174  30.410  35.371  1.00  0.00     0.074 A 
ATOM     60  C   UNL A   1      42.522  30.964  36.662  1.00  0.00     0.031 C 
ATOM     61  C   UNL A   1      42.827  29.381  34.779  1.00  0.00     0.037 A 
BRANCH  48  62
ATOM     62  C   UNL A   1      40.480  27.763  29.299  1.00  0.00     0.064 A 
ATOM     63  C   UNL A   1      41.378  27.974  28.241  1.00  0.00     0.173 A 
ATOM     64  C   UNL A   1      39.651  26.634  29.241  1.00  0.00     0.173 A 
ATOM     65  F   UNL A   1      42.187  29.043  28.246  1.00  0.00    -0.203 F 
ATOM     66  C   UNL A   1      41.417  27.106  27.151  1.00  0.00     0.198 A 
ATOM     67  C   UNL A   1      39.713  25.753  28.163  1.00  0.00     0.198 A 
ATOM     68  F   UNL A   1      38.782  26.379  30.230  1.00  0.00    -0.203 F 
ATOM     69  F   UNL A   1      42.246  27.357  26.128  1.00  0.00    -0.200 F 
ATOM     70  C   UNL A   1      40.589  25.995  27.115  1.00  0.00     0.200 A 
ATOM     71  F   UNL A   1      38.921  24.672  28.135  1.00  0.00    -0.200 F 
ATOM     72  F   UNL A   1      40.630  25.162  26.067  1.00  0.00    -0.200 F 
ENDBRANCH  48  62
BRANCH  49  73
ATOM     73  C   UNL A   1      39.579  33.966  37.028  1.00  0.00     0.064 A 
ATOM     74  C   UNL A   1      38.817  33.576  38.138  1.00  0.00     0.173 A 
ATOM     75  C   UNL A   1      40.198  35.224  37.067  1.00  0.00     0.173 A 
ATOM     76  F   UNL A   1      38.188  32.392  38.134  1.00  0.00    -0.203 F 
ATOM     77  C   UNL A   1      38.672  34.416  39.240  1.00  0.00     0.198 A 
ATOM     78  C   UNL A   1      40.072  36.052  38.180  1.00  0.00     0.198 A 
ATOM     79  F   UNL A   1      40.938  35.640  36.030  1.00  0.00    -0.203 F 
ATOM     80  F   UNL A   1      37.909  34.034  40.273  1.00  0.00    -0.200 F 
ATOM     81  C   UNL A   1      39.305  35.650  39.263  1.00  0.00     0.200 A 
ATOM     82  F   UNL A   1      40.693  37.238  38.203  1.00  0.00    -0.200 F 
ATOM     83  F   UNL A   1      39.172  36.453  40.327  1.00  0.00    -0.200 F 
ENDBRANCH  49  73
BRANCH  61  84
ATOM     84  C   UNL A   1      43.999  28.794  35.513  1.00  0.00     0.064 A 
ATOM     85  C   UNL A   1      43.840  27.744  36.428  1.00  0.00     0.173 A 
ATOM     86  C   UNL A   1      45.298  29.262  35.268  1.00  0.00     0.173 A 
ATOM     87  F   UNL A   1      42.616  27.272  36.708  1.00  0.00    -0.203 F 
ATOM     88  C   UNL A   1      44.937  27.198  37.089  1.00  0.00     0.198 A 
ATOM     89  C   UNL A   1      46.396  28.697  35.911  1.00  0.00     0.198 A 
ATOM     90  F   UNL A   1      45.505  30.262  34.397  1.00  0.00    -0.203 F 
ATOM     91  F   UNL A   1      44.758  26.223  37.991  1.00  0.00    -0.200 F 
ATOM     92  C   UNL A   1      46.215  27.670  36.825  1.00  0.00     0.200 A 
ATOM     93  F   UNL A   1      47.631  29.147  35.647  1.00  0.00    -0.200 F 
ATOM     94  F   UNL A   1      47.271  27.139  37.457  1.00  0.00    -0.200 F 
ENDBRANCH  61  84
ENDBRANCH  35  36
ENDBRANCH  27  30
ENDBRANCH  25  26
ENDBRANCH  24  25
ENDBRANCH   1  24
TORSDOF 14
ENDMDL
