MODEL 1
REMARK VINA RESULT:     -12.1      0.000      0.000
REMARK SMILES Cc1ccc(N)c(SCCOc2ccccc2C(=O)NCCCNC(=O)c2ccc(-c3c4nc(c(-c5c(F)c(F)c(F)c(F)c5F)c5ccc([nH]5)c(-c5c(F)c(F)c(F)c(F)c5F)c5nc(c(-c6c(F)c(F)c(F)c(F)c6F)c6ccc3[nH]6)C=C5)C=C4)cc2)c1
REMARK SMILES IDX 18 1 19 2 20 3 17 5 12 6 13 7 14 8 16 9 15 10 11 11 10 12
REMARK SMILES IDX 9 13 8 14 7 15 1 16 2 17 3 18 90 19 4 20 5 21 6 22 21 25
REMARK SMILES IDX 22 26 23 27 24 28 25 29 26 31 27 32 28 33 89 34 29 35 88 36
REMARK SMILES IDX 30 37 31 38 32 39 82 40 33 41 87 42 81 43 83 44 34 45 86 46
REMARK SMILES IDX 80 47 79 48 35 50 67 51 47 52 66 53 48 54 51 55 65 56 84 57
REMARK SMILES IDX 49 58 50 59 64 61 85 62 52 63 36 64 37 65 45 66 38 67 39 68
REMARK SMILES IDX 43 69 46 70 40 71 41 72 44 73 42 74 68 75 69 76 77 77 70 78
REMARK SMILES IDX 71 79 75 80 78 81 72 82 73 83 76 84 74 85 53 86 54 87 62 88
REMARK SMILES IDX 55 89 56 90 60 91 63 92 57 93 58 94 61 95 59 96
REMARK H PARENT 20 4 6 23 6 24 24 30 83 49 51 60
REMARK Flexibility Score: inf
ROOT
ATOM      1  C   UNL A   1      33.163  28.958  24.996  1.00  0.00     0.255 C 
ATOM      2  O   UNL A   1      33.297  29.382  23.861  1.00  0.00    -0.269 OA
ATOM      3  N   UNL A   1      33.313  29.898  25.971  1.00  0.00    -0.352 N 
ATOM      4  H   UNL A   1      34.170  30.377  26.035  1.00  0.00     0.163 HD
ENDROOT
BRANCH   1   5
ATOM      5  C   UNL A   1      32.796  27.572  25.357  1.00  0.00     0.081 A 
ATOM      6  C   UNL A   1      31.471  27.207  25.285  1.00  0.00     0.132 A 
ATOM      7  C   UNL A   1      31.004  26.100  25.994  1.00  0.00     0.047 A 
ATOM      8  C   UNL A   1      31.927  25.159  26.449  1.00  0.00     0.004 A 
ATOM      9  C   UNL A   1      33.699  26.554  25.631  1.00  0.00     0.018 A 
ATOM     10  C   UNL A   1      33.268  25.325  26.131  1.00  0.00     0.001 A 
BRANCH   6  11
ATOM     11  O   UNL A   1      30.737  27.733  24.245  1.00  0.00    -0.492 OA
BRANCH  11  12
ATOM     12  C   UNL A   1      30.689  26.720  23.174  1.00  0.00     0.241 C 
BRANCH  12  13
ATOM     13  C   UNL A   1      31.890  26.721  22.178  1.00  0.00     0.116 C 
BRANCH  13  14
ATOM     14  S   UNL A   1      32.754  25.164  21.448  1.00  0.00    -0.120 SA
BRANCH  14  15
ATOM     15  C   UNL A   1      33.397  23.953  22.652  1.00  0.00     0.031 A 
ATOM     16  C   UNL A   1      36.455  23.177  24.787  1.00  0.00     0.044 C 
ATOM     17  C   UNL A   1      35.125  22.958  24.105  1.00  0.00    -0.050 A 
ATOM     18  C   UNL A   1      34.163  22.177  24.741  1.00  0.00     0.005 A 
ATOM     19  C   UNL A   1      34.744  23.726  22.976  1.00  0.00     0.020 A 
ATOM     20  C   UNL A   1      32.861  22.172  24.250  1.00  0.00     0.027 A 
ATOM     21  C   UNL A   1      32.481  23.017  23.190  1.00  0.00     0.045 A 
BRANCH  21  22
ATOM     22  N   UNL A   1      31.147  22.979  22.763  1.00  0.00    -0.398 N 
ATOM     23  H   UNL A   1      30.867  23.504  21.978  1.00  0.00     0.156 HD
ATOM     24  H   UNL A   1      30.491  22.428  23.247  1.00  0.00     0.156 HD
ENDBRANCH  21  22
ENDBRANCH  14  15
ENDBRANCH  13  14
ENDBRANCH  12  13
ENDBRANCH  11  12
ENDBRANCH   6  11
ENDBRANCH   1   5
BRANCH   3  25
ATOM     25  C   UNL A   1      32.266  30.220  26.915  1.00  0.00     0.118 C 
BRANCH  25  26
ATOM     26  C   UNL A   1      31.924  31.704  26.813  1.00  0.00     0.042 C 
BRANCH  26  27
ATOM     27  C   UNL A   1      32.981  32.595  27.474  1.00  0.00     0.118 C 
BRANCH  27  28
ATOM     28  N   UNL A   1      32.540  33.973  27.657  1.00  0.00    -0.352 N 
ATOM     29  C   UNL A   1      32.999  34.922  28.541  1.00  0.00     0.251 C 
ATOM     30  H   UNL A   1      31.810  34.266  27.065  1.00  0.00     0.163 HD
ATOM     31  O   UNL A   1      32.431  36.002  28.673  1.00  0.00    -0.269 OA
BRANCH  29  32
ATOM     32  C   UNL A   1      34.168  34.595  29.379  1.00  0.00     0.039 A 
ATOM     33  C   UNL A   1      33.969  34.141  30.683  1.00  0.00     0.014 A 
ATOM     34  C   UNL A   1      35.447  34.636  28.827  1.00  0.00     0.014 A 
ATOM     35  C   UNL A   1      35.050  33.621  31.397  1.00  0.00     0.010 A 
ATOM     36  C   UNL A   1      36.493  34.010  29.491  1.00  0.00     0.010 A 
ATOM     37  C   UNL A   1      36.308  33.494  30.784  1.00  0.00    -0.014 A 
BRANCH  37  38
ATOM     38  C   UNL A   1      37.444  32.823  31.469  1.00  0.00     0.031 A 
ATOM     39  C   UNL A   1      38.143  31.667  30.805  1.00  0.00     0.074 A 
ATOM     40  C   UNL A   1      37.776  33.177  32.726  1.00  0.00     0.049 A 
ATOM     41  N   UNL A   1      39.078  30.882  31.275  1.00  0.00    -0.248 NA
ATOM     42  C   UNL A   1      37.689  31.312  29.451  1.00  0.00     0.031 C 
ATOM     43  C   UNL A   1      37.111  34.212  33.521  1.00  0.00     0.029 A 
ATOM     44  N   UNL A   1      38.751  32.695  33.565  1.00  0.00    -0.354 N 
ATOM     45  C   UNL A   1      39.285  29.918  30.297  1.00  0.00     0.074 A 
ATOM     46  C   UNL A   1      38.334  30.176  29.239  1.00  0.00     0.031 C 
ATOM     47  C   UNL A   1      37.717  34.309  34.715  1.00  0.00     0.029 A 
ATOM     48  C   UNL A   1      38.791  33.324  34.785  1.00  0.00     0.049 A 
ATOM     49  H   UNL A   1      39.364  31.967  33.314  1.00  0.00     0.167 HD
ATOM     50  C   UNL A   1      40.208  28.927  30.266  1.00  0.00     0.037 A 
ATOM     51  C   UNL A   1      39.605  33.128  35.840  1.00  0.00     0.037 A 
ATOM     52  C   UNL A   1      41.199  28.723  31.287  1.00  0.00     0.049 A 
ATOM     53  C   UNL A   1      40.683  32.084  35.749  1.00  0.00     0.074 A 
ATOM     54  C   UNL A   1      42.256  27.831  31.299  1.00  0.00     0.029 A 
ATOM     55  N   UNL A   1      41.258  29.433  32.478  1.00  0.00    -0.354 N 
ATOM     56  N   UNL A   1      40.937  31.244  34.775  1.00  0.00    -0.248 NA
ATOM     57  C   UNL A   1      41.595  31.969  36.894  1.00  0.00     0.031 C 
ATOM     58  C   UNL A   1      42.933  27.975  32.515  1.00  0.00     0.029 A 
ATOM     59  C   UNL A   1      42.324  28.987  33.241  1.00  0.00     0.049 A 
ATOM     60  H   UNL A   1      40.635  30.149  32.740  1.00  0.00     0.167 HD
ATOM     61  C   UNL A   1      42.045  30.513  35.180  1.00  0.00     0.074 A 
ATOM     62  C   UNL A   1      42.428  31.023  36.480  1.00  0.00     0.031 C 
ATOM     63  C   UNL A   1      42.688  29.510  34.533  1.00  0.00     0.037 A 
BRANCH  50  64
ATOM     64  C   UNL A   1      40.189  28.003  29.082  1.00  0.00     0.064 A 
ATOM     65  C   UNL A   1      39.483  26.790  29.102  1.00  0.00     0.173 A 
ATOM     66  C   UNL A   1      40.890  28.332  27.913  1.00  0.00     0.173 A 
ATOM     67  F   UNL A   1      38.805  26.420  30.200  1.00  0.00    -0.203 F 
ATOM     68  C   UNL A   1      39.523  25.919  28.017  1.00  0.00     0.198 A 
ATOM     69  C   UNL A   1      40.897  27.475  26.815  1.00  0.00     0.198 A 
ATOM     70  F   UNL A   1      41.575  29.483  27.835  1.00  0.00    -0.203 F 
ATOM     71  F   UNL A   1      38.902  24.732  28.089  1.00  0.00    -0.200 F 
ATOM     72  C   UNL A   1      40.225  26.263  26.873  1.00  0.00     0.200 A 
ATOM     73  F   UNL A   1      41.566  27.816  25.705  1.00  0.00    -0.200 F 
ATOM     74  F   UNL A   1      40.265  25.422  25.830  1.00  0.00    -0.200 F 
ENDBRANCH  50  64
BRANCH  51  75
ATOM     75  C   UNL A   1      39.456  33.976  37.052  1.00  0.00     0.064 A 
ATOM     76  C   UNL A   1      38.751  33.513  38.171  1.00  0.00     0.173 A 
ATOM     77  C   UNL A   1      40.035  35.251  37.128  1.00  0.00     0.173 A 
ATOM     78  F   UNL A   1      38.166  32.306  38.140  1.00  0.00    -0.203 F 
ATOM     79  C   UNL A   1      38.617  34.296  39.315  1.00  0.00     0.198 A 
ATOM     80  C   UNL A   1      39.922  36.025  38.282  1.00  0.00     0.198 A 
ATOM     81  F   UNL A   1      40.728  35.737  36.088  1.00  0.00    -0.203 F 
ATOM     82  F   UNL A   1      37.910  33.842  40.358  1.00  0.00    -0.200 F 
ATOM     83  C   UNL A   1      39.210  35.549  39.372  1.00  0.00     0.200 A 
ATOM     84  F   UNL A   1      40.509  37.228  38.339  1.00  0.00    -0.200 F 
ATOM     85  F   UNL A   1      39.090  36.299  40.476  1.00  0.00    -0.200 F 
ENDBRANCH  51  75
BRANCH  63  86
ATOM     86  C   UNL A   1      43.883  28.909  35.212  1.00  0.00     0.064 A 
ATOM     87  C   UNL A   1      43.756  27.833  36.103  1.00  0.00     0.173 A 
ATOM     88  C   UNL A   1      45.174  29.379  34.926  1.00  0.00     0.173 A 
ATOM     89  F   UNL A   1      42.541  27.359  36.420  1.00  0.00    -0.203 F 
ATOM     90  C   UNL A   1      44.877  27.263  36.699  1.00  0.00     0.198 A 
ATOM     91  C   UNL A   1      46.294  28.788  35.502  1.00  0.00     0.198 A 
ATOM     92  F   UNL A   1      45.347  30.401  34.075  1.00  0.00    -0.203 F 
ATOM     93  F   UNL A   1      44.730  26.262  37.579  1.00  0.00    -0.200 F 
ATOM     94  C   UNL A   1      46.145  27.735  36.391  1.00  0.00     0.200 A 
ATOM     95  F   UNL A   1      47.519  29.236  35.194  1.00  0.00    -0.200 F 
ATOM     96  F   UNL A   1      47.224  27.178  36.958  1.00  0.00    -0.200 F 
ENDBRANCH  63  86
ENDBRANCH  37  38
ENDBRANCH  29  32
ENDBRANCH  27  28
ENDBRANCH  26  27
ENDBRANCH  25  26
ENDBRANCH   3  25
TORSDOF 16
ENDMDL
MODEL 2
REMARK VINA RESULT:     -12.1      5.786     11.027
REMARK SMILES Cc1ccc(N)c(SCCOc2ccccc2C(=O)NCCCNC(=O)c2ccc(-c3c4nc(c(-c5c(F)c(F)c(F)c(F)c5F)c5ccc([nH]5)c(-c5c(F)c(F)c(F)c(F)c5F)c5nc(c(-c6c(F)c(F)c(F)c(F)c6F)c6ccc3[nH]6)C=C5)C=C4)cc2)c1
REMARK SMILES IDX 18 1 19 2 20 3 17 5 12 6 13 7 14 8 16 9 15 10 11 11 10 12
REMARK SMILES IDX 9 13 8 14 7 15 1 16 2 17 3 18 90 19 4 20 5 21 6 22 21 25
REMARK SMILES IDX 22 26 23 27 24 28 25 29 26 31 27 32 28 33 89 34 29 35 88 36
REMARK SMILES IDX 30 37 31 38 32 39 82 40 33 41 87 42 81 43 83 44 34 45 86 46
REMARK SMILES IDX 80 47 79 48 35 50 67 51 47 52 66 53 48 54 51 55 65 56 84 57
REMARK SMILES IDX 49 58 50 59 64 61 85 62 52 63 36 64 37 65 45 66 38 67 39 68
REMARK SMILES IDX 43 69 46 70 40 71 41 72 44 73 42 74 68 75 69 76 77 77 70 78
REMARK SMILES IDX 71 79 75 80 78 81 72 82 73 83 76 84 74 85 53 86 54 87 62 88
REMARK SMILES IDX 55 89 56 90 60 91 63 92 57 93 58 94 61 95 59 96
REMARK H PARENT 20 4 6 23 6 24 24 30 83 49 51 60
REMARK Flexibility Score: inf
ROOT
ATOM      1  C   UNL A   1      35.709  23.077  25.289  1.00  0.00     0.255 C 
ATOM      2  O   UNL A   1      36.241  24.173  25.232  1.00  0.00    -0.269 OA
ATOM      3  N   UNL A   1      36.412  22.078  24.686  1.00  0.00    -0.352 N 
ATOM      4  H   UNL A   1      36.611  22.155  23.725  1.00  0.00     0.163 HD
ENDROOT
BRANCH   1   5
ATOM      5  C   UNL A   1      34.449  22.770  25.997  1.00  0.00     0.081 A 
ATOM      6  C   UNL A   1      33.355  22.395  25.252  1.00  0.00     0.132 A 
ATOM      7  C   UNL A   1      32.068  22.507  25.779  1.00  0.00     0.047 A 
ATOM      8  C   UNL A   1      31.920  22.625  27.161  1.00  0.00     0.004 A 
ATOM      9  C   UNL A   1      34.308  22.690  27.376  1.00  0.00     0.018 A 
ATOM     10  C   UNL A   1      33.050  22.567  27.965  1.00  0.00     0.001 A 
BRANCH   6  11
ATOM     11  O   UNL A   1      33.594  21.598  24.154  1.00  0.00    -0.492 OA
BRANCH  11  12
ATOM     12  C   UNL A   1      32.776  22.114  23.040  1.00  0.00     0.241 C 
BRANCH  12  13
ATOM     13  C   UNL A   1      33.380  23.314  22.247  1.00  0.00     0.116 C 
BRANCH  13  14
ATOM     14  S   UNL A   1      32.794  25.144  22.347  1.00  0.00    -0.120 SA
BRANCH  14  15
ATOM     15  C   UNL A   1      32.374  25.773  24.007  1.00  0.00     0.031 A 
ATOM     16  C   UNL A   1      33.678  28.039  26.777  1.00  0.00     0.044 C 
ATOM     17  C   UNL A   1      32.811  27.003  26.100  1.00  0.00    -0.050 A 
ATOM     18  C   UNL A   1      31.465  26.919  26.449  1.00  0.00     0.005 A 
ATOM     19  C   UNL A   1      33.264  26.303  24.954  1.00  0.00     0.020 A 
ATOM     20  C   UNL A   1      30.608  26.151  25.666  1.00  0.00     0.027 A 
ATOM     21  C   UNL A   1      31.057  25.546  24.478  1.00  0.00     0.045 A 
BRANCH  21  22
ATOM     22  N   UNL A   1      30.134  24.808  23.725  1.00  0.00    -0.398 N 
ATOM     23  H   UNL A   1      29.390  25.268  23.271  1.00  0.00     0.156 HD
ATOM     24  H   UNL A   1      30.229  23.832  23.649  1.00  0.00     0.156 HD
ENDBRANCH  21  22
ENDBRANCH  14  15
ENDBRANCH  13  14
ENDBRANCH  12  13
ENDBRANCH  11  12
ENDBRANCH   6  11
ENDBRANCH   1   5
BRANCH   3  25
ATOM     25  C   UNL A   1      36.876  20.907  25.398  1.00  0.00     0.118 C 
BRANCH  25  26
ATOM     26  C   UNL A   1      38.210  20.450  24.814  1.00  0.00     0.042 C 
BRANCH  26  27
ATOM     27  C   UNL A   1      39.362  20.575  25.817  1.00  0.00     0.118 C 
BRANCH  27  28
ATOM     28  N   UNL A   1      40.173  19.366  25.916  1.00  0.00    -0.352 N 
ATOM     29  C   UNL A   1      41.523  19.242  26.151  1.00  0.00     0.251 C 
ATOM     30  H   UNL A   1      39.685  18.519  25.800  1.00  0.00     0.163 HD
ATOM     31  O   UNL A   1      42.090  18.158  26.068  1.00  0.00    -0.269 OA
BRANCH  29  32
ATOM     32  C   UNL A   1      42.298  20.460  26.452  1.00  0.00     0.039 A 
ATOM     33  C   UNL A   1      42.900  21.164  25.408  1.00  0.00     0.014 A 
ATOM     34  C   UNL A   1      42.329  20.955  27.755  1.00  0.00     0.014 A 
ATOM     35  C   UNL A   1      43.440  22.427  25.659  1.00  0.00     0.010 A 
ATOM     36  C   UNL A   1      42.756  22.257  27.976  1.00  0.00     0.010 A 
ATOM     37  C   UNL A   1      43.316  23.010  26.932  1.00  0.00    -0.014 A 
BRANCH  37  38
ATOM     38  C   UNL A   1      43.759  24.404  27.195  1.00  0.00     0.031 A 
ATOM     39  C   UNL A   1      42.775  25.420  27.708  1.00  0.00     0.074 A 
ATOM     40  C   UNL A   1      45.012  24.785  26.874  1.00  0.00     0.049 A 
ATOM     41  N   UNL A   1      42.931  26.705  27.899  1.00  0.00    -0.248 NA
ATOM     42  C   UNL A   1      41.414  24.935  27.990  1.00  0.00     0.031 C 
ATOM     43  C   UNL A   1      46.034  23.923  26.275  1.00  0.00     0.029 A 
ATOM     44  N   UNL A   1      45.637  26.002  26.994  1.00  0.00    -0.354 N 
ATOM     45  C   UNL A   1      41.682  27.183  28.273  1.00  0.00     0.074 A 
ATOM     46  C   UNL A   1      40.766  26.066  28.218  1.00  0.00     0.031 C 
ATOM     47  C   UNL A   1      47.164  24.629  26.111  1.00  0.00     0.029 A 
ATOM     48  C   UNL A   1      46.941  25.999  26.562  1.00  0.00     0.049 A 
ATOM     49  H   UNL A   1      45.191  26.801  27.356  1.00  0.00     0.167 HD
ATOM     50  C   UNL A   1      41.336  28.433  28.663  1.00  0.00     0.037 A 
ATOM     51  C   UNL A   1      47.852  26.989  26.535  1.00  0.00     0.037 A 
ATOM     52  C   UNL A   1      42.267  29.521  28.788  1.00  0.00     0.049 A 
ATOM     53  C   UNL A   1      47.473  28.347  27.058  1.00  0.00     0.074 A 
ATOM     54  C   UNL A   1      42.049  30.791  29.288  1.00  0.00     0.029 A 
ATOM     55  N   UNL A   1      43.602  29.458  28.414  1.00  0.00    -0.354 N 
ATOM     56  N   UNL A   1      46.314  28.763  27.508  1.00  0.00    -0.248 NA
ATOM     57  C   UNL A   1      48.529  29.368  27.084  1.00  0.00     0.031 C 
ATOM     58  C   UNL A   1      43.244  31.511  29.182  1.00  0.00     0.029 A 
ATOM     59  C   UNL A   1      44.217  30.675  28.657  1.00  0.00     0.049 A 
ATOM     60  H   UNL A   1      44.046  28.666  28.033  1.00  0.00     0.167 HD
ATOM     61  C   UNL A   1      46.503  30.085  27.886  1.00  0.00     0.074 A 
ATOM     62  C   UNL A   1      47.894  30.396  27.631  1.00  0.00     0.031 C 
ATOM     63  C   UNL A   1      45.605  30.963  28.397  1.00  0.00     0.037 A 
BRANCH  50  64
ATOM     64  C   UNL A   1      39.890  28.677  28.992  1.00  0.00     0.064 A 
ATOM     65  C   UNL A   1      38.987  29.167  28.036  1.00  0.00     0.173 A 
ATOM     66  C   UNL A   1      39.403  28.424  30.283  1.00  0.00     0.173 A 
ATOM     67  F   UNL A   1      39.403  29.438  26.789  1.00  0.00    -0.203 F 
ATOM     68  C   UNL A   1      37.664  29.442  28.373  1.00  0.00     0.198 A 
ATOM     69  C   UNL A   1      38.070  28.666  30.607  1.00  0.00     0.198 A 
ATOM     70  F   UNL A   1      40.220  27.948  31.234  1.00  0.00    -0.203 F 
ATOM     71  F   UNL A   1      36.840  29.979  27.462  1.00  0.00    -0.200 F 
ATOM     72  C   UNL A   1      37.206  29.188  29.656  1.00  0.00     0.200 A 
ATOM     73  F   UNL A   1      37.625  28.407  31.844  1.00  0.00    -0.200 F 
ATOM     74  F   UNL A   1      35.933  29.456  29.980  1.00  0.00    -0.200 F 
ENDBRANCH  50  64
BRANCH  51  75
ATOM     75  C   UNL A   1      49.226  26.713  26.037  1.00  0.00     0.064 A 
ATOM     76  C   UNL A   1      50.181  26.106  26.864  1.00  0.00     0.173 A 
ATOM     77  C   UNL A   1      49.603  27.025  24.723  1.00  0.00     0.173 A 
ATOM     78  F   UNL A   1      49.872  25.805  28.134  1.00  0.00    -0.203 F 
ATOM     79  C   UNL A   1      51.467  25.834  26.401  1.00  0.00     0.198 A 
ATOM     80  C   UNL A   1      50.882  26.729  24.253  1.00  0.00     0.198 A 
ATOM     81  F   UNL A   1      48.723  27.598  23.890  1.00  0.00    -0.203 F 
ATOM     82  F   UNL A   1      52.370  25.283  27.223  1.00  0.00    -0.200 F 
ATOM     83  C   UNL A   1      51.814  26.138  25.093  1.00  0.00     0.200 A 
ATOM     84  F   UNL A   1      51.208  27.011  22.985  1.00  0.00    -0.200 F 
ATOM     85  F   UNL A   1      53.047  25.867  24.644  1.00  0.00    -0.200 F 
ENDBRANCH  51  75
BRANCH  63  86
ATOM     86  C   UNL A   1      46.102  32.338  28.733  1.00  0.00     0.064 A 
ATOM     87  C   UNL A   1      46.628  32.638  29.998  1.00  0.00     0.173 A 
ATOM     88  C   UNL A   1      46.100  33.351  27.762  1.00  0.00     0.173 A 
ATOM     89  F   UNL A   1      46.636  31.707  30.964  1.00  0.00    -0.203 F 
ATOM     90  C   UNL A   1      47.117  33.909  30.285  1.00  0.00     0.198 A 
ATOM     91  C   UNL A   1      46.616  34.612  28.044  1.00  0.00     0.198 A 
ATOM     92  F   UNL A   1      45.614  33.110  26.535  1.00  0.00    -0.203 F 
ATOM     93  F   UNL A   1      47.578  34.187  31.512  1.00  0.00    -0.200 F 
ATOM     94  C   UNL A   1      47.118  34.892  29.305  1.00  0.00     0.200 A 
ATOM     95  F   UNL A   1      46.629  35.556  27.093  1.00  0.00    -0.200 F 
ATOM     96  F   UNL A   1      47.599  36.112  29.580  1.00  0.00    -0.200 F 
ENDBRANCH  63  86
ENDBRANCH  37  38
ENDBRANCH  29  32
ENDBRANCH  27  28
ENDBRANCH  26  27
ENDBRANCH  25  26
ENDBRANCH   3  25
TORSDOF 16
ENDMDL
MODEL 3
REMARK VINA RESULT:     -11.9      2.301      8.040
REMARK SMILES Cc1ccc(N)c(SCCOc2ccccc2C(=O)NCCCNC(=O)c2ccc(-c3c4nc(c(-c5c(F)c(F)c(F)c(F)c5F)c5ccc([nH]5)c(-c5c(F)c(F)c(F)c(F)c5F)c5nc(c(-c6c(F)c(F)c(F)c(F)c6F)c6ccc3[nH]6)C=C5)C=C4)cc2)c1
REMARK SMILES IDX 18 1 19 2 20 3 17 5 12 6 13 7 14 8 16 9 15 10 11 11 10 12
REMARK SMILES IDX 9 13 8 14 7 15 1 16 2 17 3 18 90 19 4 20 5 21 6 22 21 25
REMARK SMILES IDX 22 26 23 27 24 28 25 29 26 31 27 32 28 33 89 34 29 35 88 36
REMARK SMILES IDX 30 37 31 38 32 39 82 40 33 41 87 42 81 43 83 44 34 45 86 46
REMARK SMILES IDX 80 47 79 48 35 50 67 51 47 52 66 53 48 54 51 55 65 56 84 57
REMARK SMILES IDX 49 58 50 59 64 61 85 62 52 63 36 64 37 65 45 66 38 67 39 68
REMARK SMILES IDX 43 69 46 70 40 71 41 72 44 73 42 74 68 75 69 76 77 77 70 78
REMARK SMILES IDX 71 79 75 80 78 81 72 82 73 83 76 84 74 85 53 86 54 87 62 88
REMARK SMILES IDX 55 89 56 90 60 91 63 92 57 93 58 94 61 95 59 96
REMARK H PARENT 20 4 6 23 6 24 24 30 83 49 51 60
REMARK Flexibility Score: inf
ROOT
ATOM      1  C   UNL A   1      31.192  25.720  26.144  1.00  0.00     0.255 C 
ATOM      2  O   UNL A   1      31.010  24.677  26.748  1.00  0.00    -0.269 OA
ATOM      3  N   UNL A   1      30.901  26.844  26.857  1.00  0.00    -0.352 N 
ATOM      4  H   UNL A   1      29.984  26.963  27.194  1.00  0.00     0.163 HD
ENDROOT
BRANCH   1   5
ATOM      5  C   UNL A   1      31.748  25.836  24.779  1.00  0.00     0.081 A 
ATOM      6  C   UNL A   1      33.112  25.945  24.636  1.00  0.00     0.132 A 
ATOM      7  C   UNL A   1      33.660  26.474  23.466  1.00  0.00     0.047 A 
ATOM      8  C   UNL A   1      32.867  26.526  22.321  1.00  0.00     0.004 A 
ATOM      9  C   UNL A   1      31.017  25.701  23.606  1.00  0.00     0.018 A 
ATOM     10  C   UNL A   1      31.584  25.997  22.367  1.00  0.00     0.001 A 
BRANCH   6  11
ATOM     11  O   UNL A   1      33.889  25.206  25.501  1.00  0.00    -0.492 OA
BRANCH  11  12
ATOM     12  C   UNL A   1      34.970  24.585  24.713  1.00  0.00     0.241 C 
BRANCH  12  13
ATOM     13  C   UNL A   1      35.866  23.559  25.473  1.00  0.00     0.116 C 
BRANCH  13  14
ATOM     14  S   UNL A   1      35.249  21.997  26.413  1.00  0.00    -0.120 SA
BRANCH  14  15
ATOM     15  C   UNL A   1      34.351  20.755  25.423  1.00  0.00     0.031 A 
ATOM     16  C   UNL A   1      34.538  17.129  24.273  1.00  0.00     0.044 C 
ATOM     17  C   UNL A   1      34.061  18.561  24.334  1.00  0.00    -0.050 A 
ATOM     18  C   UNL A   1      32.712  18.831  24.114  1.00  0.00     0.005 A 
ATOM     19  C   UNL A   1      34.886  19.588  24.857  1.00  0.00     0.020 A 
ATOM     20  C   UNL A   1      32.217  20.097  24.411  1.00  0.00     0.027 A 
ATOM     21  C   UNL A   1      33.031  21.070  25.021  1.00  0.00     0.045 A 
BRANCH  21  22
ATOM     22  N   UNL A   1      32.459  22.316  25.315  1.00  0.00    -0.398 N 
ATOM     23  H   UNL A   1      31.515  22.371  25.591  1.00  0.00     0.156 HD
ATOM     24  H   UNL A   1      33.001  23.134  25.247  1.00  0.00     0.156 HD
ENDBRANCH  21  22
ENDBRANCH  14  15
ENDBRANCH  13  14
ENDBRANCH  12  13
ENDBRANCH  11  12
ENDBRANCH   6  11
ENDBRANCH   1   5
BRANCH   3  25
ATOM     25  C   UNL A   1      31.882  27.868  27.139  1.00  0.00     0.118 C 
BRANCH  25  26
ATOM     26  C   UNL A   1      31.601  29.096  26.277  1.00  0.00     0.042 C 
BRANCH  26  27
ATOM     27  C   UNL A   1      32.842  29.976  26.089  1.00  0.00     0.118 C 
BRANCH  27  28
ATOM     28  N   UNL A   1      32.661  31.338  26.577  1.00  0.00    -0.352 N 
ATOM     29  C   UNL A   1      33.471  32.079  27.407  1.00  0.00     0.251 C 
ATOM     30  H   UNL A   1      31.844  31.793  26.269  1.00  0.00     0.163 HD
ATOM     31  O   UNL A   1      33.115  33.169  27.843  1.00  0.00    -0.269 OA
BRANCH  29  32
ATOM     32  C   UNL A   1      34.769  31.508  27.814  1.00  0.00     0.039 A 
ATOM     33  C   UNL A   1      35.862  32.357  27.997  1.00  0.00     0.014 A 
ATOM     34  C   UNL A   1      34.862  30.152  28.118  1.00  0.00     0.014 A 
ATOM     35  C   UNL A   1      37.021  31.857  28.594  1.00  0.00     0.010 A 
ATOM     36  C   UNL A   1      35.967  29.688  28.820  1.00  0.00     0.010 A 
ATOM     37  C   UNL A   1      37.060  30.534  29.067  1.00  0.00    -0.014 A 
BRANCH  37  38
ATOM     38  C   UNL A   1      38.227  30.014  29.826  1.00  0.00     0.031 A 
ATOM     39  C   UNL A   1      38.452  30.451  31.248  1.00  0.00     0.074 A 
ATOM     40  C   UNL A   1      39.140  29.238  29.209  1.00  0.00     0.049 A 
ATOM     41  N   UNL A   1      39.460  30.199  32.045  1.00  0.00    -0.248 NA
ATOM     42  C   UNL A   1      37.434  31.336  31.835  1.00  0.00     0.031 C 
ATOM     43  C   UNL A   1      39.093  28.825  27.804  1.00  0.00     0.029 A 
ATOM     44  N   UNL A   1      40.297  28.667  29.681  1.00  0.00    -0.354 N 
ATOM     45  C   UNL A   1      39.218  30.933  33.199  1.00  0.00     0.074 A 
ATOM     46  C   UNL A   1      38.006  31.689  32.974  1.00  0.00     0.031 C 
ATOM     47  C   UNL A   1      40.152  28.043  27.539  1.00  0.00     0.029 A 
ATOM     48  C   UNL A   1      40.970  27.924  28.742  1.00  0.00     0.049 A 
ATOM     49  H   UNL A   1      40.613  28.780  30.606  1.00  0.00     0.167 HD
ATOM     50  C   UNL A   1      39.922  30.948  34.355  1.00  0.00     0.037 A 
ATOM     51  C   UNL A   1      42.115  27.223  28.842  1.00  0.00     0.037 A 
ATOM     52  C   UNL A   1      41.083  30.137  34.598  1.00  0.00     0.049 A 
ATOM     53  C   UNL A   1      42.833  27.180  30.163  1.00  0.00     0.074 A 
ATOM     54  C   UNL A   1      41.800  29.982  35.770  1.00  0.00     0.029 A 
ATOM     55  N   UNL A   1      41.693  29.333  33.645  1.00  0.00    -0.354 N 
ATOM     56  N   UNL A   1      42.539  27.797  31.282  1.00  0.00    -0.248 NA
ATOM     57  C   UNL A   1      44.032  26.335  30.240  1.00  0.00     0.031 C 
ATOM     58  C   UNL A   1      42.867  29.114  35.517  1.00  0.00     0.029 A 
ATOM     59  C   UNL A   1      42.789  28.693  34.198  1.00  0.00     0.049 A 
ATOM     60  H   UNL A   1      41.390  29.233  32.713  1.00  0.00     0.167 HD
ATOM     61  C   UNL A   1      43.502  27.403  32.200  1.00  0.00     0.074 A 
ATOM     62  C   UNL A   1      44.379  26.478  31.512  1.00  0.00     0.031 C 
ATOM     63  C   UNL A   1      43.648  27.774  33.496  1.00  0.00     0.037 A 
BRANCH  50  64
ATOM     64  C   UNL A   1      39.440  31.865  35.444  1.00  0.00     0.064 A 
ATOM     65  C   UNL A   1      39.874  33.197  35.535  1.00  0.00     0.173 A 
ATOM     66  C   UNL A   1      38.537  31.403  36.413  1.00  0.00     0.173 A 
ATOM     67  F   UNL A   1      40.747  33.686  34.642  1.00  0.00    -0.203 F 
ATOM     68  C   UNL A   1      39.462  34.015  36.584  1.00  0.00     0.198 A 
ATOM     69  C   UNL A   1      38.098  32.236  37.440  1.00  0.00     0.198 A 
ATOM     70  F   UNL A   1      38.083  30.142  36.370  1.00  0.00    -0.203 F 
ATOM     71  F   UNL A   1      39.949  35.260  36.691  1.00  0.00    -0.200 F 
ATOM     72  C   UNL A   1      38.572  33.537  37.532  1.00  0.00     0.200 A 
ATOM     73  F   UNL A   1      37.227  31.776  38.348  1.00  0.00    -0.200 F 
ATOM     74  F   UNL A   1      38.178  34.325  38.542  1.00  0.00    -0.200 F 
ENDBRANCH  50  64
BRANCH  51  75
ATOM     75  C   UNL A   1      42.623  26.469  27.666  1.00  0.00     0.064 A 
ATOM     76  C   UNL A   1      43.577  27.034  26.808  1.00  0.00     0.173 A 
ATOM     77  C   UNL A   1      42.188  25.165  27.390  1.00  0.00     0.173 A 
ATOM     78  F   UNL A   1      44.011  28.285  27.022  1.00  0.00    -0.203 F 
ATOM     79  C   UNL A   1      44.067  26.330  25.710  1.00  0.00     0.198 A 
ATOM     80  C   UNL A   1      42.697  24.452  26.306  1.00  0.00     0.198 A 
ATOM     81  F   UNL A   1      41.284  24.577  28.186  1.00  0.00    -0.203 F 
ATOM     82  F   UNL A   1      44.953  26.906  24.888  1.00  0.00    -0.200 F 
ATOM     83  C   UNL A   1      43.632  25.036  25.465  1.00  0.00     0.200 A 
ATOM     84  F   UNL A   1      42.286  23.197  26.081  1.00  0.00    -0.200 F 
ATOM     85  F   UNL A   1      44.111  24.354  24.415  1.00  0.00    -0.200 F 
ENDBRANCH  51  75
BRANCH  63  86
ATOM     86  C   UNL A   1      44.785  27.166  34.262  1.00  0.00     0.064 A 
ATOM     87  C   UNL A   1      46.033  27.800  34.346  1.00  0.00     0.173 A 
ATOM     88  C   UNL A   1      44.608  25.963  34.962  1.00  0.00     0.173 A 
ATOM     89  F   UNL A   1      46.256  28.945  33.682  1.00  0.00    -0.203 F 
ATOM     90  C   UNL A   1      47.069  27.242  35.090  1.00  0.00     0.198 A 
ATOM     91  C   UNL A   1      45.637  25.423  35.726  1.00  0.00     0.198 A 
ATOM     92  F   UNL A   1      43.430  25.323  34.917  1.00  0.00    -0.203 F 
ATOM     93  F   UNL A   1      48.267  27.843  35.124  1.00  0.00    -0.200 F 
ATOM     94  C   UNL A   1      46.867  26.058  35.785  1.00  0.00     0.200 A 
ATOM     95  F   UNL A   1      45.437  24.287  36.409  1.00  0.00    -0.200 F 
ATOM     96  F   UNL A   1      47.863  25.527  36.508  1.00  0.00    -0.200 F 
ENDBRANCH  63  86
ENDBRANCH  37  38
ENDBRANCH  29  32
ENDBRANCH  27  28
ENDBRANCH  26  27
ENDBRANCH  25  26
ENDBRANCH   3  25
TORSDOF 16
ENDMDL
