MODEL 1
REMARK VINA RESULT:     -13.2      0.000      0.000
REMARK SMILES CC1(C)[C@H](C(=O)NCCCNC(=O)c2ccc(-c3c4nc(c(-c5c(F)c(F)c(F)c(F)c5F)c5ccc([nH]5)c(-c5c(F)c(F)c(F)c(F)c5F)c5nc(c(-c6c(F)c(F)c(F)c(F)c6F)c6ccc3[nH]6)C=C5)C=C4)cc2)[C@H]1C(=O)Nc1nc(-c2ccco2)n[nH]1
REMARK SMILES IDX 8 1 7 2 5 3 6 4 4 6 1 7 2 8 3 9 77 10 78 11 79 12 80 13
REMARK SMILES IDX 81 15 82 16 90 17 83 18 89 19 84 21 85 22 88 23 86 24 87 25
REMARK SMILES IDX 9 26 10 27 11 28 12 29 13 31 14 32 15 33 76 34 16 35 75 36
REMARK SMILES IDX 17 37 18 38 19 39 69 40 20 41 74 42 68 43 70 44 21 45 73 46
REMARK SMILES IDX 67 47 66 48 22 50 54 51 34 52 53 53 35 54 38 55 52 56 71 57
REMARK SMILES IDX 36 58 37 59 51 61 72 62 39 63 23 64 24 65 32 66 25 67 26 68
REMARK SMILES IDX 30 69 33 70 27 71 28 72 31 73 29 74 55 75 56 76 64 77 57 78
REMARK SMILES IDX 58 79 62 80 65 81 59 82 60 83 63 84 61 85 40 86 41 87 49 88
REMARK SMILES IDX 42 89 43 90 47 91 50 92 44 93 45 94 48 95 46 96
REMARK H PARENT 7 5 80 14 90 20 11 30 70 49 38 60
REMARK Flexibility Score: inf
ROOT
ATOM      1  C   UNL A   1      32.146  28.590  22.922  1.00  0.00     0.117 C 
ENDROOT
BRANCH   1   2
ATOM      2  N   UNL A   1      32.423  27.540  21.964  1.00  0.00    -0.356 N 
ATOM      3  C   UNL A   1      33.126  26.372  21.966  1.00  0.00     0.224 C 
ATOM      4  O   UNL A   1      33.239  25.831  20.865  1.00  0.00    -0.275 OA
ATOM      5  H   UNL A   1      31.996  27.713  21.093  1.00  0.00     0.163 HD
BRANCH   3   6
ATOM      6  C   UNL A   1      33.704  25.646  23.130  1.00  0.00     0.098 C 
ATOM      7  C   UNL A   1      34.021  25.459  25.692  1.00  0.00     0.013 C 
ATOM      8  C   UNL A   1      33.120  25.276  24.489  1.00  0.00    -0.011 C 
ATOM      9  C   UNL A   1      31.692  25.572  24.843  1.00  0.00     0.013 C 
ATOM     10  C   UNL A   1      33.443  24.198  23.434  1.00  0.00     0.098 C 
BRANCH  10  11
ATOM     11  C   UNL A   1      34.542  23.186  23.568  1.00  0.00     0.231 C 
ATOM     12  O   UNL A   1      35.474  23.204  22.785  1.00  0.00    -0.274 OA
ATOM     13  N   UNL A   1      34.519  22.396  24.690  1.00  0.00    -0.295 N 
ATOM     14  H   UNL A   1      34.991  22.699  25.498  1.00  0.00     0.173 HD
BRANCH  13  15
ATOM     15  C   UNL A   1      33.858  21.199  24.717  1.00  0.00     0.225 A 
ATOM     16  N   UNL A   1      34.407  20.012  24.649  1.00  0.00    -0.188 NA
ATOM     17  N   UNL A   1      32.504  21.051  24.807  1.00  0.00    -0.244 N 
ATOM     18  C   UNL A   1      33.348  19.156  24.862  1.00  0.00     0.218 A 
ATOM     19  N   UNL A   1      32.156  19.767  24.952  1.00  0.00    -0.149 NA
ATOM     20  H   UNL A   1      31.863  21.797  24.769  1.00  0.00     0.193 HD
BRANCH  18  21
ATOM     21  C   UNL A   1      33.506  17.678  25.002  1.00  0.00     0.173 A 
ATOM     22  C   UNL A   1      32.516  16.795  25.397  1.00  0.00     0.054 A 
ATOM     23  O   UNL A   1      34.661  16.981  24.767  1.00  0.00    -0.461 OA
ATOM     24  C   UNL A   1      33.090  15.501  25.389  1.00  0.00     0.043 A 
ATOM     25  C   UNL A   1      34.400  15.671  25.007  1.00  0.00     0.196 A 
ENDBRANCH  18  21
ENDBRANCH  13  15
ENDBRANCH  10  11
ENDBRANCH   3   6
ENDBRANCH   1   2
BRANCH   1  26
ATOM     26  C   UNL A   1      33.424  29.047  23.622  1.00  0.00     0.042 C 
BRANCH  26  27
ATOM     27  C   UNL A   1      33.312  29.095  25.139  1.00  0.00     0.118 C 
BRANCH  27  28
ATOM     28  N   UNL A   1      32.785  30.367  25.607  1.00  0.00    -0.352 N 
ATOM     29  C   UNL A   1      33.121  31.118  26.706  1.00  0.00     0.251 C 
ATOM     30  H   UNL A   1      32.075  30.753  25.045  1.00  0.00     0.163 HD
ATOM     31  O   UNL A   1      32.388  32.042  27.050  1.00  0.00    -0.269 OA
BRANCH  29  32
ATOM     32  C   UNL A   1      34.342  30.824  27.493  1.00  0.00     0.039 A 
ATOM     33  C   UNL A   1      35.291  31.837  27.671  1.00  0.00     0.014 A 
ATOM     34  C   UNL A   1      34.591  29.550  28.009  1.00  0.00     0.014 A 
ATOM     35  C   UNL A   1      36.453  31.587  28.407  1.00  0.00     0.010 A 
ATOM     36  C   UNL A   1      35.701  29.327  28.819  1.00  0.00     0.010 A 
ATOM     37  C   UNL A   1      36.653  30.338  29.015  1.00  0.00    -0.014 A 
BRANCH  37  38
ATOM     38  C   UNL A   1      37.865  30.052  29.829  1.00  0.00     0.031 A 
ATOM     39  C   UNL A   1      38.927  29.129  29.292  1.00  0.00     0.074 A 
ATOM     40  C   UNL A   1      37.983  30.569  31.067  1.00  0.00     0.049 A 
ATOM     41  N   UNL A   1      40.000  28.665  29.883  1.00  0.00    -0.248 NA
ATOM     42  C   UNL A   1      38.744  28.638  27.917  1.00  0.00     0.031 C 
ATOM     43  C   UNL A   1      37.012  31.453  31.713  1.00  0.00     0.029 A 
ATOM     44  N   UNL A   1      38.969  30.416  32.012  1.00  0.00    -0.354 N 
ATOM     45  C   UNL A   1      40.606  27.822  28.959  1.00  0.00     0.074 A 
ATOM     46  C   UNL A   1      39.753  27.790  27.792  1.00  0.00     0.031 C 
ATOM     47  C   UNL A   1      37.458  31.779  32.937  1.00  0.00     0.029 A 
ATOM     48  C   UNL A   1      38.722  31.093  33.182  1.00  0.00     0.049 A 
ATOM     49  H   UNL A   1      39.776  29.871  31.864  1.00  0.00     0.167 HD
ATOM     50  C   UNL A   1      41.781  27.157  29.063  1.00  0.00     0.037 A 
ATOM     51  C   UNL A   1      39.431  31.143  34.326  1.00  0.00     0.037 A 
ATOM     52  C   UNL A   1      42.642  27.212  30.216  1.00  0.00     0.049 A 
ATOM     53  C   UNL A   1      40.721  30.370  34.424  1.00  0.00     0.074 A 
ATOM     54  C   UNL A   1      43.870  26.603  30.406  1.00  0.00     0.029 A 
ATOM     55  N   UNL A   1      42.364  27.925  31.373  1.00  0.00    -0.354 N 
ATOM     56  N   UNL A   1      41.307  29.617  33.526  1.00  0.00    -0.248 NA
ATOM     57  C   UNL A   1      41.452  30.460  35.697  1.00  0.00     0.031 C 
ATOM     58  C   UNL A   1      44.316  26.913  31.694  1.00  0.00     0.029 A 
ATOM     59  C   UNL A   1      43.392  27.758  32.286  1.00  0.00     0.049 A 
ATOM     60  H   UNL A   1      41.557  28.467  31.524  1.00  0.00     0.167 HD
ATOM     61  C   UNL A   1      42.489  29.178  34.107  1.00  0.00     0.074 A 
ATOM     62  C   UNL A   1      42.543  29.757  35.432  1.00  0.00     0.031 C 
ATOM     63  C   UNL A   1      43.444  28.367  33.590  1.00  0.00     0.037 A 
BRANCH  50  64
ATOM     64  C   UNL A   1      42.216  26.321  27.895  1.00  0.00     0.064 A 
ATOM     65  C   UNL A   1      41.690  25.038  27.675  1.00  0.00     0.173 A 
ATOM     66  C   UNL A   1      43.126  26.825  26.954  1.00  0.00     0.173 A 
ATOM     67  F   UNL A   1      40.825  24.504  28.551  1.00  0.00    -0.203 F 
ATOM     68  C   UNL A   1      42.078  24.283  26.572  1.00  0.00     0.198 A 
ATOM     69  C   UNL A   1      43.487  26.080  25.834  1.00  0.00     0.198 A 
ATOM     70  F   UNL A   1      43.655  28.048  27.111  1.00  0.00    -0.203 F 
ATOM     71  F   UNL A   1      41.595  23.043  26.408  1.00  0.00    -0.200 F 
ATOM     72  C   UNL A   1      42.968  24.807  25.648  1.00  0.00     0.200 A 
ATOM     73  F   UNL A   1      44.337  26.593  24.934  1.00  0.00    -0.200 F 
ATOM     74  F   UNL A   1      43.329  24.084  24.578  1.00  0.00    -0.200 F 
ENDBRANCH  50  64
BRANCH  51  75
ATOM     75  C   UNL A   1      38.951  31.960  35.473  1.00  0.00     0.064 A 
ATOM     76  C   UNL A   1      39.229  33.332  35.543  1.00  0.00     0.173 A 
ATOM     77  C   UNL A   1      38.239  31.386  36.536  1.00  0.00     0.173 A 
ATOM     78  F   UNL A   1      39.926  33.926  34.561  1.00  0.00    -0.203 F 
ATOM     79  C   UNL A   1      38.844  34.092  36.646  1.00  0.00     0.198 A 
ATOM     80  C   UNL A   1      37.824  32.153  37.623  1.00  0.00     0.198 A 
ATOM     81  F   UNL A   1      37.941  30.078  36.518  1.00  0.00    -0.203 F 
ATOM     82  F   UNL A   1      39.176  35.388  36.714  1.00  0.00    -0.200 F 
ATOM     83  C   UNL A   1      38.138  33.502  37.684  1.00  0.00     0.200 A 
ATOM     84  F   UNL A   1      37.130  31.582  38.617  1.00  0.00    -0.200 F 
ATOM     85  F   UNL A   1      37.771  34.230  38.746  1.00  0.00    -0.200 F 
ENDBRANCH  51  75
BRANCH  63  86
ATOM     86  C   UNL A   1      44.659  28.106  34.431  1.00  0.00     0.064 A 
ATOM     87  C   UNL A   1      45.793  28.927  34.367  1.00  0.00     0.173 A 
ATOM     88  C   UNL A   1      44.667  27.044  35.349  1.00  0.00     0.173 A 
ATOM     89  F   UNL A   1      45.841  29.945  33.494  1.00  0.00    -0.203 F 
ATOM     90  C   UNL A   1      46.901  28.682  35.174  1.00  0.00     0.198 A 
ATOM     91  C   UNL A   1      45.763  26.821  36.178  1.00  0.00     0.198 A 
ATOM     92  F   UNL A   1      43.604  26.232  35.454  1.00  0.00    -0.203 F 
ATOM     93  F   UNL A   1      47.992  29.451  35.063  1.00  0.00    -0.200 F 
ATOM     94  C   UNL A   1      46.881  27.635  36.085  1.00  0.00     0.200 A 
ATOM     95  F   UNL A   1      45.735  25.819  37.067  1.00  0.00    -0.200 F 
ATOM     96  F   UNL A   1      47.943  27.407  36.869  1.00  0.00    -0.200 F 
ENDBRANCH  63  86
ENDBRANCH  37  38
ENDBRANCH  29  32
ENDBRANCH  27  28
ENDBRANCH  26  27
ENDBRANCH   1  26
TORSDOF 13
ENDMDL
MODEL 2
REMARK VINA RESULT:     -13.0      2.028      3.142
REMARK SMILES CC1(C)[C@H](C(=O)NCCCNC(=O)c2ccc(-c3c4nc(c(-c5c(F)c(F)c(F)c(F)c5F)c5ccc([nH]5)c(-c5c(F)c(F)c(F)c(F)c5F)c5nc(c(-c6c(F)c(F)c(F)c(F)c6F)c6ccc3[nH]6)C=C5)C=C4)cc2)[C@H]1C(=O)Nc1nc(-c2ccco2)n[nH]1
REMARK SMILES IDX 8 1 7 2 5 3 6 4 4 6 1 7 2 8 3 9 77 10 78 11 79 12 80 13
REMARK SMILES IDX 81 15 82 16 90 17 83 18 89 19 84 21 85 22 88 23 86 24 87 25
REMARK SMILES IDX 9 26 10 27 11 28 12 29 13 31 14 32 15 33 76 34 16 35 75 36
REMARK SMILES IDX 17 37 18 38 19 39 69 40 20 41 74 42 68 43 70 44 21 45 73 46
REMARK SMILES IDX 67 47 66 48 22 50 54 51 34 52 53 53 35 54 38 55 52 56 71 57
REMARK SMILES IDX 36 58 37 59 51 61 72 62 39 63 23 64 24 65 32 66 25 67 26 68
REMARK SMILES IDX 30 69 33 70 27 71 28 72 31 73 29 74 55 75 56 76 64 77 57 78
REMARK SMILES IDX 58 79 62 80 65 81 59 82 60 83 63 84 61 85 40 86 41 87 49 88
REMARK SMILES IDX 42 89 43 90 47 91 50 92 44 93 45 94 48 95 46 96
REMARK H PARENT 7 5 80 14 90 20 11 30 70 49 38 60
REMARK Flexibility Score: inf
ROOT
ATOM      1  C   UNL A   1      31.243  30.657  25.510  1.00  0.00     0.117 C 
ENDROOT
BRANCH   1   2
ATOM      2  N   UNL A   1      32.091  29.626  26.070  1.00  0.00    -0.356 N 
ATOM      3  C   UNL A   1      32.008  28.276  26.246  1.00  0.00     0.224 C 
ATOM      4  O   UNL A   1      32.911  27.784  26.924  1.00  0.00    -0.275 OA
ATOM      5  H   UNL A   1      32.941  29.991  26.409  1.00  0.00     0.163 HD
BRANCH   3   6
ATOM      6  C   UNL A   1      31.014  27.332  25.669  1.00  0.00     0.098 C 
ATOM      7  C   UNL A   1      29.281  26.789  23.823  1.00  0.00     0.013 C 
ATOM      8  C   UNL A   1      30.735  26.901  24.232  1.00  0.00    -0.011 C 
ATOM      9  C   UNL A   1      31.575  27.383  23.086  1.00  0.00     0.013 C 
ATOM     10  C   UNL A   1      31.331  25.920  25.263  1.00  0.00     0.098 C 
BRANCH  10  11
ATOM     11  C   UNL A   1      30.602  24.732  25.819  1.00  0.00     0.231 C 
ATOM     12  O   UNL A   1      29.927  24.858  26.824  1.00  0.00    -0.274 OA
ATOM     13  N   UNL A   1      30.599  23.595  25.051  1.00  0.00    -0.295 N 
ATOM     14  H   UNL A   1      29.877  23.462  24.396  1.00  0.00     0.173 HD
BRANCH  13  15
ATOM     15  C   UNL A   1      31.573  22.642  25.168  1.00  0.00     0.225 A 
ATOM     16  N   UNL A   1      31.385  21.345  25.186  1.00  0.00    -0.188 NA
ATOM     17  N   UNL A   1      32.907  22.893  25.301  1.00  0.00    -0.244 N 
ATOM     18  C   UNL A   1      32.666  20.836  25.173  1.00  0.00     0.218 A 
ATOM     19  N   UNL A   1      33.630  21.767  25.254  1.00  0.00    -0.149 NA
ATOM     20  H   UNL A   1      33.291  23.793  25.417  1.00  0.00     0.193 HD
BRANCH  18  21
ATOM     21  C   UNL A   1      32.965  19.378  25.057  1.00  0.00     0.173 A 
ATOM     22  C   UNL A   1      34.130  18.832  24.547  1.00  0.00     0.054 A 
ATOM     23  O   UNL A   1      32.123  18.366  25.434  1.00  0.00    -0.461 OA
ATOM     24  C   UNL A   1      33.996  17.425  24.629  1.00  0.00     0.043 A 
ATOM     25  C   UNL A   1      32.753  17.194  25.167  1.00  0.00     0.196 A 
ENDBRANCH  18  21
ENDBRANCH  13  15
ENDBRANCH  10  11
ENDBRANCH   3   6
ENDBRANCH   1   2
BRANCH   1  26
ATOM     26  C   UNL A   1      31.130  31.851  26.455  1.00  0.00     0.042 C 
BRANCH  26  27
ATOM     27  C   UNL A   1      32.472  32.437  26.870  1.00  0.00     0.118 C 
BRANCH  27  28
ATOM     28  N   UNL A   1      32.348  33.811  27.330  1.00  0.00    -0.352 N 
ATOM     29  C   UNL A   1      32.994  34.469  28.347  1.00  0.00     0.251 C 
ATOM     30  H   UNL A   1      31.698  34.357  26.832  1.00  0.00     0.163 HD
ATOM     31  O   UNL A   1      32.569  35.558  28.724  1.00  0.00    -0.269 OA
BRANCH  29  32
ATOM     32  C   UNL A   1      34.184  33.883  29.007  1.00  0.00     0.039 A 
ATOM     33  C   UNL A   1      35.452  34.362  28.662  1.00  0.00     0.014 A 
ATOM     34  C   UNL A   1      34.071  32.830  29.918  1.00  0.00     0.014 A 
ATOM     35  C   UNL A   1      36.593  33.827  29.268  1.00  0.00     0.010 A 
ATOM     36  C   UNL A   1      35.198  32.361  30.590  1.00  0.00     0.010 A 
ATOM     37  C   UNL A   1      36.473  32.842  30.262  1.00  0.00    -0.014 A 
BRANCH  37  38
ATOM     38  C   UNL A   1      37.666  32.274  30.945  1.00  0.00     0.031 A 
ATOM     39  C   UNL A   1      38.455  31.175  30.284  1.00  0.00     0.074 A 
ATOM     40  C   UNL A   1      38.003  32.700  32.178  1.00  0.00     0.049 A 
ATOM     41  N   UNL A   1      39.455  30.472  30.755  1.00  0.00    -0.248 NA
ATOM     42  C   UNL A   1      38.048  30.795  28.921  1.00  0.00     0.031 C 
ATOM     43  C   UNL A   1      37.304  33.737  32.937  1.00  0.00     0.029 A 
ATOM     44  N   UNL A   1      39.016  32.303  33.016  1.00  0.00    -0.354 N 
ATOM     45  C   UNL A   1      39.783  29.564  29.755  1.00  0.00     0.074 A 
ATOM     46  C   UNL A   1      38.840  29.762  28.677  1.00  0.00     0.031 C 
ATOM     47  C   UNL A   1      37.918  33.908  34.119  1.00  0.00     0.029 A 
ATOM     48  C   UNL A   1      39.026  32.963  34.222  1.00  0.00     0.049 A 
ATOM     49  H   UNL A   1      39.672  31.610  32.777  1.00  0.00     0.167 HD
ATOM     50  C   UNL A   1      40.795  28.665  29.727  1.00  0.00     0.037 A 
ATOM     51  C   UNL A   1      39.830  32.814  35.291  1.00  0.00     0.037 A 
ATOM     52  C   UNL A   1      41.749  28.488  30.790  1.00  0.00     0.049 A 
ATOM     53  C   UNL A   1      40.931  31.786  35.244  1.00  0.00     0.074 A 
ATOM     54  C   UNL A   1      42.833  27.630  30.844  1.00  0.00     0.029 A 
ATOM     55  N   UNL A   1      41.735  29.191  31.987  1.00  0.00    -0.354 N 
ATOM     56  N   UNL A   1      41.260  30.968  34.274  1.00  0.00    -0.248 NA
ATOM     57  C   UNL A   1      41.777  31.666  36.439  1.00  0.00     0.031 C 
ATOM     58  C   UNL A   1      43.450  27.782  32.089  1.00  0.00     0.029 A 
ATOM     59  C   UNL A   1      42.784  28.774  32.790  1.00  0.00     0.049 A 
ATOM     60  H   UNL A   1      41.078  29.882  32.229  1.00  0.00     0.167 HD
ATOM     61  C   UNL A   1      42.370  30.267  34.725  1.00  0.00     0.074 A 
ATOM     62  C   UNL A   1      42.666  30.763  36.052  1.00  0.00     0.031 C 
ATOM     63  C   UNL A   1      43.081  29.299  34.097  1.00  0.00     0.037 A 
BRANCH  50  64
ATOM     64  C   UNL A   1      40.936  27.810  28.501  1.00  0.00     0.064 A 
ATOM     65  C   UNL A   1      40.222  26.609  28.360  1.00  0.00     0.173 A 
ATOM     66  C   UNL A   1      41.747  28.218  27.433  1.00  0.00     0.173 A 
ATOM     67  F   UNL A   1      39.441  26.167  29.357  1.00  0.00    -0.203 F 
ATOM     68  C   UNL A   1      40.337  25.838  27.207  1.00  0.00     0.198 A 
ATOM     69  C   UNL A   1      41.834  27.461  26.267  1.00  0.00     0.198 A 
ATOM     70  F   UNL A   1      42.446  29.361  27.511  1.00  0.00    -0.203 F 
ATOM     71  F   UNL A   1      39.680  24.673  27.114  1.00  0.00    -0.200 F 
ATOM     72  C   UNL A   1      41.134  26.269  26.158  1.00  0.00     0.200 A 
ATOM     73  F   UNL A   1      42.594  27.885  25.249  1.00  0.00    -0.200 F 
ATOM     74  F   UNL A   1      41.232  25.532  25.042  1.00  0.00    -0.200 F 
ENDBRANCH  50  64
BRANCH  51  75
ATOM     75  C   UNL A   1      39.640  33.661  36.500  1.00  0.00     0.064 A 
ATOM     76  C   UNL A   1      38.837  33.225  37.563  1.00  0.00     0.173 A 
ATOM     77  C   UNL A   1      40.224  34.931  36.605  1.00  0.00     0.173 A 
ATOM     78  F   UNL A   1      38.238  32.025  37.503  1.00  0.00    -0.203 F 
ATOM     79  C   UNL A   1      38.598  34.039  38.669  1.00  0.00     0.198 A 
ATOM     80  C   UNL A   1      40.012  35.732  37.726  1.00  0.00     0.198 A 
ATOM     81  F   UNL A   1      41.007  35.396  35.619  1.00  0.00    -0.203 F 
ATOM     82  F   UNL A   1      37.777  33.621  39.642  1.00  0.00    -0.200 F 
ATOM     83  C   UNL A   1      39.190  35.291  38.751  1.00  0.00     0.200 A 
ATOM     84  F   UNL A   1      40.597  36.934  37.808  1.00  0.00    -0.200 F 
ATOM     85  F   UNL A   1      38.957  36.075  39.811  1.00  0.00    -0.200 F 
ENDBRANCH  51  75
BRANCH  63  86
ATOM     86  C   UNL A   1      44.285  28.754  34.807  1.00  0.00     0.064 A 
ATOM     87  C   UNL A   1      44.214  27.604  35.606  1.00  0.00     0.173 A 
ATOM     88  C   UNL A   1      45.538  29.366  34.644  1.00  0.00     0.173 A 
ATOM     89  F   UNL A   1      43.037  26.992  35.806  1.00  0.00    -0.203 F 
ATOM     90  C   UNL A   1      45.349  27.100  36.236  1.00  0.00     0.198 A 
ATOM     91  C   UNL A   1      46.676  28.840  35.249  1.00  0.00     0.198 A 
ATOM     92  F   UNL A   1      45.661  30.464  33.884  1.00  0.00    -0.203 F 
ATOM     93  F   UNL A   1      45.250  26.028  37.034  1.00  0.00    -0.200 F 
ATOM     94  C   UNL A   1      46.581  27.713  36.050  1.00  0.00     0.200 A 
ATOM     95  F   UNL A   1      47.866  29.425  35.055  1.00  0.00    -0.200 F 
ATOM     96  F   UNL A   1      47.673  27.220  36.648  1.00  0.00    -0.200 F 
ENDBRANCH  63  86
ENDBRANCH  37  38
ENDBRANCH  29  32
ENDBRANCH  27  28
ENDBRANCH  26  27
ENDBRANCH   1  26
TORSDOF 13
ENDMDL
MODEL 3
REMARK VINA RESULT:     -13.0      3.325      8.917
REMARK SMILES CC1(C)[C@H](C(=O)NCCCNC(=O)c2ccc(-c3c4nc(c(-c5c(F)c(F)c(F)c(F)c5F)c5ccc([nH]5)c(-c5c(F)c(F)c(F)c(F)c5F)c5nc(c(-c6c(F)c(F)c(F)c(F)c6F)c6ccc3[nH]6)C=C5)C=C4)cc2)[C@H]1C(=O)Nc1nc(-c2ccco2)n[nH]1
REMARK SMILES IDX 8 1 7 2 5 3 6 4 4 6 1 7 2 8 3 9 77 10 78 11 79 12 80 13
REMARK SMILES IDX 81 15 82 16 90 17 83 18 89 19 84 21 85 22 88 23 86 24 87 25
REMARK SMILES IDX 9 26 10 27 11 28 12 29 13 31 14 32 15 33 76 34 16 35 75 36
REMARK SMILES IDX 17 37 18 38 19 39 69 40 20 41 74 42 68 43 70 44 21 45 73 46
REMARK SMILES IDX 67 47 66 48 22 50 54 51 34 52 53 53 35 54 38 55 52 56 71 57
REMARK SMILES IDX 36 58 37 59 51 61 72 62 39 63 23 64 24 65 32 66 25 67 26 68
REMARK SMILES IDX 30 69 33 70 27 71 28 72 31 73 29 74 55 75 56 76 64 77 57 78
REMARK SMILES IDX 58 79 62 80 65 81 59 82 60 83 63 84 61 85 40 86 41 87 49 88
REMARK SMILES IDX 42 89 43 90 47 91 50 92 44 93 45 94 48 95 46 96
REMARK H PARENT 7 5 80 14 90 20 11 30 70 49 38 60
REMARK Flexibility Score: inf
ROOT
ATOM      1  C   UNL A   1      31.439  30.848  25.981  1.00  0.00     0.117 C 
ENDROOT
BRANCH   1   2
ATOM      2  N   UNL A   1      31.470  29.635  26.772  1.00  0.00    -0.356 N 
ATOM      3  C   UNL A   1      31.483  28.296  26.512  1.00  0.00     0.224 C 
ATOM      4  O   UNL A   1      31.351  27.574  27.501  1.00  0.00    -0.275 OA
ATOM      5  H   UNL A   1      31.484  29.824  27.738  1.00  0.00     0.163 HD
BRANCH   3   6
ATOM      6  C   UNL A   1      31.705  27.612  25.210  1.00  0.00     0.098 C 
ATOM      7  C   UNL A   1      33.332  26.913  23.320  1.00  0.00     0.013 C 
ATOM      8  C   UNL A   1      32.814  26.684  24.725  1.00  0.00    -0.011 C 
ATOM      9  C   UNL A   1      33.921  26.233  25.633  1.00  0.00     0.013 C 
ATOM     10  C   UNL A   1      31.377  26.169  24.950  1.00  0.00     0.098 C 
BRANCH  10  11
ATOM     11  C   UNL A   1      30.455  25.732  23.850  1.00  0.00     0.231 C 
ATOM     12  O   UNL A   1      30.903  25.130  22.893  1.00  0.00    -0.274 OA
ATOM     13  N   UNL A   1      29.110  25.889  24.076  1.00  0.00    -0.295 N 
ATOM     14  H   UNL A   1      28.607  25.155  24.498  1.00  0.00     0.173 HD
BRANCH  13  15
ATOM     15  C   UNL A   1      28.448  27.036  23.733  1.00  0.00     0.225 A 
ATOM     16  N   UNL A   1      28.991  28.123  23.246  1.00  0.00    -0.188 NA
ATOM     17  N   UNL A   1      27.104  27.235  23.860  1.00  0.00    -0.244 N 
ATOM     18  C   UNL A   1      27.904  28.913  22.938  1.00  0.00     0.218 A 
ATOM     19  N   UNL A   1      26.724  28.398  23.316  1.00  0.00    -0.149 NA
ATOM     20  H   UNL A   1      26.490  26.602  24.298  1.00  0.00     0.193 HD
BRANCH  18  21
ATOM     21  C   UNL A   1      28.019  30.222  22.229  1.00  0.00     0.173 A 
ATOM     22  C   UNL A   1      28.155  31.459  22.836  1.00  0.00     0.054 A 
ATOM     23  O   UNL A   1      27.997  30.389  20.870  1.00  0.00    -0.461 OA
ATOM     24  C   UNL A   1      28.233  32.420  21.799  1.00  0.00     0.043 A 
ATOM     25  C   UNL A   1      28.123  31.718  20.623  1.00  0.00     0.196 A 
ENDBRANCH  18  21
ENDBRANCH  13  15
ENDBRANCH  10  11
ENDBRANCH   3   6
ENDBRANCH   1   2
BRANCH   1  26
ATOM     26  C   UNL A   1      31.408  32.087  26.875  1.00  0.00     0.042 C 
BRANCH  26  27
ATOM     27  C   UNL A   1      32.731  32.836  26.934  1.00  0.00     0.118 C 
BRANCH  27  28
ATOM     28  N   UNL A   1      32.604  34.113  27.619  1.00  0.00    -0.352 N 
ATOM     29  C   UNL A   1      33.213  34.574  28.759  1.00  0.00     0.251 C 
ATOM     30  H   UNL A   1      31.981  34.748  27.197  1.00  0.00     0.163 HD
ATOM     31  O   UNL A   1      32.786  35.590  29.301  1.00  0.00    -0.269 OA
BRANCH  29  32
ATOM     32  C   UNL A   1      34.368  33.861  29.355  1.00  0.00     0.039 A 
ATOM     33  C   UNL A   1      35.662  34.270  29.015  1.00  0.00     0.014 A 
ATOM     34  C   UNL A   1      34.194  32.761  30.197  1.00  0.00     0.014 A 
ATOM     35  C   UNL A   1      36.771  33.615  29.561  1.00  0.00     0.010 A 
ATOM     36  C   UNL A   1      35.294  32.168  30.812  1.00  0.00     0.010 A 
ATOM     37  C   UNL A   1      36.595  32.578  30.490  1.00  0.00    -0.014 A 
BRANCH  37  38
ATOM     38  C   UNL A   1      37.754  31.881  31.109  1.00  0.00     0.031 A 
ATOM     39  C   UNL A   1      38.208  32.266  32.493  1.00  0.00     0.074 A 
ATOM     40  C   UNL A   1      38.434  30.951  30.411  1.00  0.00     0.049 A 
ATOM     41  N   UNL A   1      39.256  31.862  33.166  1.00  0.00    -0.248 NA
ATOM     42  C   UNL A   1      37.389  33.259  33.206  1.00  0.00     0.031 C 
ATOM     43  C   UNL A   1      38.114  30.511  29.052  1.00  0.00     0.029 A 
ATOM     44  N   UNL A   1      39.546  30.216  30.743  1.00  0.00    -0.354 N 
ATOM     45  C   UNL A   1      39.227  32.560  34.367  1.00  0.00     0.074 A 
ATOM     46  C   UNL A   1      38.095  33.456  34.308  1.00  0.00     0.031 C 
ATOM     47  C   UNL A   1      38.995  29.570  28.675  1.00  0.00     0.029 A 
ATOM     48  C   UNL A   1      39.969  29.372  29.744  1.00  0.00     0.049 A 
ATOM     49  H   UNL A   1      39.997  30.288  31.615  1.00  0.00     0.167 HD
ATOM     50  C   UNL A   1      40.054  32.444  35.433  1.00  0.00     0.037 A 
ATOM     51  C   UNL A   1      41.029  28.543  29.694  1.00  0.00     0.037 A 
ATOM     52  C   UNL A   1      41.166  31.532  35.499  1.00  0.00     0.049 A 
ATOM     53  C   UNL A   1      41.949  28.455  30.884  1.00  0.00     0.074 A 
ATOM     54  C   UNL A   1      42.042  31.314  36.547  1.00  0.00     0.029 A 
ATOM     55  N   UNL A   1      41.549  30.680  34.473  1.00  0.00    -0.354 N 
ATOM     56  N   UNL A   1      41.882  29.085  32.032  1.00  0.00    -0.248 NA
ATOM     57  C   UNL A   1      43.090  27.536  30.773  1.00  0.00     0.031 C 
ATOM     58  C   UNL A   1      42.981  30.361  36.141  1.00  0.00     0.029 A 
ATOM     59  C   UNL A   1      42.657  29.946  34.860  1.00  0.00     0.049 A 
ATOM     60  H   UNL A   1      41.100  30.610  33.600  1.00  0.00     0.167 HD
ATOM     61  C   UNL A   1      42.943  28.610  32.791  1.00  0.00     0.074 A 
ATOM     62  C   UNL A   1      43.633  27.632  31.978  1.00  0.00     0.031 C 
ATOM     63  C   UNL A   1      43.314  28.954  34.048  1.00  0.00     0.037 A 
BRANCH  50  64
ATOM     64  C   UNL A   1      39.783  33.316  36.624  1.00  0.00     0.064 A 
ATOM     65  C   UNL A   1      40.423  34.555  36.787  1.00  0.00     0.173 A 
ATOM     66  C   UNL A   1      38.834  32.939  37.586  1.00  0.00     0.173 A 
ATOM     67  F   UNL A   1      41.347  34.959  35.902  1.00  0.00    -0.203 F 
ATOM     68  C   UNL A   1      40.142  35.370  37.880  1.00  0.00     0.198 A 
ATOM     69  C   UNL A   1      38.532  33.771  38.662  1.00  0.00     0.198 A 
ATOM     70  F   UNL A   1      38.188  31.768  37.477  1.00  0.00    -0.203 F 
ATOM     71  F   UNL A   1      40.799  36.528  38.037  1.00  0.00    -0.200 F 
ATOM     72  C   UNL A   1      39.191  34.982  38.811  1.00  0.00     0.200 A 
ATOM     73  F   UNL A   1      37.602  33.401  39.553  1.00  0.00    -0.200 F 
ATOM     74  F   UNL A   1      38.911  35.774  39.856  1.00  0.00    -0.200 F 
ENDBRANCH  50  64
BRANCH  51  75
ATOM     75  C   UNL A   1      41.281  27.716  28.483  1.00  0.00     0.064 A 
ATOM     76  C   UNL A   1      42.171  28.151  27.490  1.00  0.00     0.173 A 
ATOM     77  C   UNL A   1      40.618  26.499  28.274  1.00  0.00     0.173 A 
ATOM     78  F   UNL A   1      42.815  29.319  27.632  1.00  0.00    -0.203 F 
ATOM     79  C   UNL A   1      42.362  27.417  26.321  1.00  0.00     0.198 A 
ATOM     80  C   UNL A   1      40.835  25.749  27.119  1.00  0.00     0.198 A 
ATOM     81  F   UNL A   1      39.761  26.033  29.194  1.00  0.00    -0.203 F 
ATOM     82  F   UNL A   1      43.172  27.886  25.362  1.00  0.00    -0.200 F 
ATOM     83  C   UNL A   1      41.696  26.214  26.138  1.00  0.00     0.200 A 
ATOM     84  F   UNL A   1      40.201  24.580  26.954  1.00  0.00    -0.200 F 
ATOM     85  F   UNL A   1      41.876  25.511  25.013  1.00  0.00    -0.200 F 
ENDBRANCH  51  75
BRANCH  63  86
ATOM     86  C   UNL A   1      44.480  28.226  34.649  1.00  0.00     0.064 A 
ATOM     87  C   UNL A   1      44.321  27.017  35.339  1.00  0.00     0.173 A 
ATOM     88  C   UNL A   1      45.782  28.726  34.489  1.00  0.00     0.173 A 
ATOM     89  F   UNL A   1      43.096  26.506  35.533  1.00  0.00    -0.203 F 
ATOM     90  C   UNL A   1      45.421  26.344  35.867  1.00  0.00     0.198 A 
ATOM     91  C   UNL A   1      46.882  28.035  34.989  1.00  0.00     0.198 A 
ATOM     92  F   UNL A   1      45.989  29.876  33.830  1.00  0.00    -0.203 F 
ATOM     93  F   UNL A   1      45.241  25.214  36.564  1.00  0.00    -0.200 F 
ATOM     94  C   UNL A   1      46.701  26.850  35.685  1.00  0.00     0.200 A 
ATOM     95  F   UNL A   1      48.118  28.517  34.798  1.00  0.00    -0.200 F 
ATOM     96  F   UNL A   1      47.758  26.196  36.184  1.00  0.00    -0.200 F 
ENDBRANCH  63  86
ENDBRANCH  37  38
ENDBRANCH  29  32
ENDBRANCH  27  28
ENDBRANCH  26  27
ENDBRANCH   1  26
TORSDOF 13
ENDMDL
