MODEL 1
REMARK VINA RESULT:     -13.8      0.000      0.000
REMARK SMILES Nc1c(C(=O)OCC2c3ccccc3-c3ccccc32)ccc(F)c1C(=O)NCCCNC(=O)c1ccc(-c2c3nc(c(-c4c(F)c(F)c(F)c(F)c4F)c4ccc([nH]4)c(-c4c(F)c(F)c(F)c(F)c4F)c4nc(c(-c5c(F)c(F)c(F)c(F)c5F)c5ccc2[nH]5)C=C4)C=C3)cc1
REMARK SMILES IDX 29 1 28 2 26 3 27 4 25 6 2 7 3 8 21 9 23 10 22 11 24 12 1 13
REMARK SMILES IDX 4 16 5 17 6 18 7 19 8 20 9 21 20 22 10 23 14 24 15 25 19 26
REMARK SMILES IDX 11 27 13 28 16 29 18 30 12 31 17 32 30 33 31 34 32 35 33 36
REMARK SMILES IDX 34 38 35 39 36 40 97 41 37 42 96 43 38 44 39 45 40 46 90 47
REMARK SMILES IDX 41 48 95 49 89 50 91 51 42 52 94 53 88 54 87 55 43 57 75 58
REMARK SMILES IDX 55 59 74 60 56 61 59 62 73 63 92 64 57 65 58 66 72 68 93 69
REMARK SMILES IDX 60 70 44 71 45 72 53 73 46 74 47 75 51 76 54 77 48 78 49 79
REMARK SMILES IDX 52 80 50 81 76 82 77 83 85 84 78 85 79 86 83 87 86 88 80 89
REMARK SMILES IDX 81 90 84 91 82 92 61 93 62 94 70 95 63 96 64 97 68 98 71 99
REMARK SMILES IDX 65 100 66 101 69 102 67 103
REMARK H PARENT 28 5 1 14 1 15 32 37 91 56 59 67
REMARK Flexibility Score: inf
ROOT
ATOM      1  C   UNL A   1      31.105  30.905  25.336  1.00  0.00     0.118 C 
ENDROOT
BRANCH   1   2
ATOM      2  N   UNL A   1      30.040  30.939  24.348  1.00  0.00    -0.352 N 
ATOM      3  C   UNL A   1      29.662  30.059  23.360  1.00  0.00     0.256 C 
ATOM      4  O   UNL A   1      28.790  30.451  22.584  1.00  0.00    -0.269 OA
ATOM      5  H   UNL A   1      29.480  31.747  24.396  1.00  0.00     0.163 HD
BRANCH   3   6
ATOM      6  C   UNL A   1      30.198  28.675  23.214  1.00  0.00     0.099 A 
ATOM      7  C   UNL A   1      31.494  28.337  22.774  1.00  0.00     0.062 A 
ATOM      8  C   UNL A   1      31.865  26.971  22.728  1.00  0.00     0.084 A 
ATOM      9  C   UNL A   1      30.943  25.954  22.996  1.00  0.00     0.021 A 
ATOM     10  C   UNL A   1      29.298  27.635  23.511  1.00  0.00     0.138 A 
ATOM     11  C   UNL A   1      29.651  26.292  23.376  1.00  0.00     0.041 A 
ATOM     12  F   UNL A   1      28.053  27.893  23.938  1.00  0.00    -0.206 F 
BRANCH   7  13
ATOM     13  N   UNL A   1      32.330  29.264  22.135  1.00  0.00    -0.397 N 
ATOM     14  H   UNL A   1      33.295  29.085  22.058  1.00  0.00     0.156 HD
ATOM     15  H   UNL A   1      31.952  30.094  21.763  1.00  0.00     0.156 HD
ENDBRANCH   7  13
BRANCH   8  16
ATOM     16  C   UNL A   1      33.256  26.575  22.398  1.00  0.00     0.340 C 
ATOM     17  O   UNL A   1      33.639  26.290  21.275  1.00  0.00    -0.246 OA
BRANCH  16  18
ATOM     18  O   UNL A   1      33.971  26.508  23.559  1.00  0.00    -0.461 OA
BRANCH  18  19
ATOM     19  C   UNL A   1      34.296  25.190  24.034  1.00  0.00     0.246 C 
BRANCH  19  20
ATOM     20  C   UNL A   1      34.014  25.017  25.542  1.00  0.00     0.088 C 
ATOM     21  C   UNL A   1      33.380  26.255  26.162  1.00  0.00    -0.029 A 
ATOM     22  C   UNL A   1      32.902  23.989  25.720  1.00  0.00    -0.029 A 
ATOM     23  C   UNL A   1      33.976  27.477  26.442  1.00  0.00     0.005 A 
ATOM     24  C   UNL A   1      32.011  26.030  26.402  1.00  0.00    -0.014 A 
ATOM     25  C   UNL A   1      31.723  24.631  26.167  1.00  0.00    -0.014 A 
ATOM     26  C   UNL A   1      32.934  22.626  25.464  1.00  0.00     0.005 A 
ATOM     27  C   UNL A   1      33.158  28.526  26.854  1.00  0.00     0.000 A 
ATOM     28  C   UNL A   1      31.197  27.074  26.804  1.00  0.00     0.009 A 
ATOM     29  C   UNL A   1      30.558  23.906  26.350  1.00  0.00     0.009 A 
ATOM     30  C   UNL A   1      31.758  21.898  25.653  1.00  0.00     0.000 A 
ATOM     31  C   UNL A   1      31.776  28.333  27.006  1.00  0.00     0.001 A 
ATOM     32  C   UNL A   1      30.581  22.532  26.088  1.00  0.00     0.001 A 
ENDBRANCH  19  20
ENDBRANCH  18  19
ENDBRANCH  16  18
ENDBRANCH   8  16
ENDBRANCH   3   6
ENDBRANCH   1   2
BRANCH   1  33
ATOM     33  C   UNL A   1      30.982  32.085  26.303  1.00  0.00     0.042 C 
BRANCH  33  34
ATOM     34  C   UNL A   1      32.291  32.527  26.931  1.00  0.00     0.118 C 
BRANCH  34  35
ATOM     35  N   UNL A   1      32.251  33.912  27.363  1.00  0.00    -0.352 N 
ATOM     36  C   UNL A   1      32.967  34.551  28.346  1.00  0.00     0.251 C 
ATOM     37  H   UNL A   1      31.612  34.482  26.877  1.00  0.00     0.163 HD
ATOM     38  O   UNL A   1      32.615  35.666  28.720  1.00  0.00    -0.269 OA
BRANCH  36  39
ATOM     39  C   UNL A   1      34.146  33.906  28.975  1.00  0.00     0.039 A 
ATOM     40  C   UNL A   1      35.416  34.432  28.716  1.00  0.00     0.014 A 
ATOM     41  C   UNL A   1      34.021  32.769  29.776  1.00  0.00     0.014 A 
ATOM     42  C   UNL A   1      36.546  33.852  29.300  1.00  0.00     0.010 A 
ATOM     43  C   UNL A   1      35.133  32.252  30.436  1.00  0.00     0.010 A 
ATOM     44  C   UNL A   1      36.411  32.777  30.194  1.00  0.00    -0.014 A 
BRANCH  44  45
ATOM     45  C   UNL A   1      37.592  32.175  30.867  1.00  0.00     0.031 A 
ATOM     46  C   UNL A   1      38.390  31.104  30.174  1.00  0.00     0.074 A 
ATOM     47  C   UNL A   1      37.907  32.546  32.123  1.00  0.00     0.049 A 
ATOM     48  N   UNL A   1      39.397  30.399  30.624  1.00  0.00    -0.248 NA
ATOM     49  C   UNL A   1      37.984  30.760  28.802  1.00  0.00     0.031 C 
ATOM     50  C   UNL A   1      37.188  33.545  32.914  1.00  0.00     0.029 A 
ATOM     51  N   UNL A   1      38.907  32.118  32.960  1.00  0.00    -0.354 N 
ATOM     52  C   UNL A   1      39.732  29.522  29.599  1.00  0.00     0.074 A 
ATOM     53  C   UNL A   1      38.786  29.741  28.527  1.00  0.00     0.031 C 
ATOM     54  C   UNL A   1      37.780  33.668  34.113  1.00  0.00     0.029 A 
ATOM     55  C   UNL A   1      38.890  32.724  34.194  1.00  0.00     0.049 A 
ATOM     56  H   UNL A   1      39.574  31.441  32.703  1.00  0.00     0.167 HD
ATOM     57  C   UNL A   1      40.750  28.630  29.549  1.00  0.00     0.037 A 
ATOM     58  C   UNL A   1      39.671  32.528  35.274  1.00  0.00     0.037 A 
ATOM     59  C   UNL A   1      41.701  28.430  30.611  1.00  0.00     0.049 A 
ATOM     60  C   UNL A   1      40.781  31.513  35.201  1.00  0.00     0.074 A 
ATOM     61  C   UNL A   1      42.804  27.595  30.636  1.00  0.00     0.029 A 
ATOM     62  N   UNL A   1      41.656  29.071  31.842  1.00  0.00    -0.354 N 
ATOM     63  N   UNL A   1      41.130  30.739  34.202  1.00  0.00    -0.248 NA
ATOM     64  C   UNL A   1      41.609  31.348  36.404  1.00  0.00     0.031 C 
ATOM     65  C   UNL A   1      43.389  27.681  31.903  1.00  0.00     0.029 A 
ATOM     66  C   UNL A   1      42.694  28.624  32.645  1.00  0.00     0.049 A 
ATOM     67  H   UNL A   1      40.987  29.742  32.106  1.00  0.00     0.167 HD
ATOM     68  C   UNL A   1      42.234  30.021  34.642  1.00  0.00     0.074 A 
ATOM     69  C   UNL A   1      42.506  30.462  35.995  1.00  0.00     0.031 C 
ATOM     70  C   UNL A   1      42.958  29.081  33.986  1.00  0.00     0.037 A 
BRANCH  57  71
ATOM     71  C   UNL A   1      40.889  27.796  28.306  1.00  0.00     0.064 A 
ATOM     72  C   UNL A   1      41.659  28.223  27.212  1.00  0.00     0.173 A 
ATOM     73  C   UNL A   1      40.280  26.535  28.224  1.00  0.00     0.173 A 
ATOM     74  F   UNL A   1      42.256  29.424  27.232  1.00  0.00    -0.203 F 
ATOM     75  C   UNL A   1      41.786  27.433  26.071  1.00  0.00     0.198 A 
ATOM     76  C   UNL A   1      40.439  25.732  27.096  1.00  0.00     0.198 A 
ATOM     77  F   UNL A   1      39.540  26.073  29.243  1.00  0.00    -0.203 F 
ATOM     78  F   UNL A   1      42.482  27.884  25.019  1.00  0.00    -0.200 F 
ATOM     79  C   UNL A   1      41.183  26.185  26.018  1.00  0.00     0.200 A 
ATOM     80  F   UNL A   1      39.869  24.519  27.054  1.00  0.00    -0.200 F 
ATOM     81  F   UNL A   1      41.315  25.421  24.926  1.00  0.00    -0.200 F 
ENDBRANCH  57  71
BRANCH  58  82
ATOM     82  C   UNL A   1      39.437  33.315  36.515  1.00  0.00     0.064 A 
ATOM     83  C   UNL A   1      40.044  34.565  36.702  1.00  0.00     0.173 A 
ATOM     84  C   UNL A   1      38.608  32.834  37.539  1.00  0.00     0.173 A 
ATOM     85  F   UNL A   1      40.860  35.060  35.760  1.00  0.00    -0.203 F 
ATOM     86  C   UNL A   1      39.852  35.291  37.875  1.00  0.00     0.198 A 
ATOM     87  C   UNL A   1      38.389  33.577  38.698  1.00  0.00     0.198 A 
ATOM     88  F   UNL A   1      37.996  31.649  37.408  1.00  0.00    -0.203 F 
ATOM     89  F   UNL A   1      40.486  36.459  38.050  1.00  0.00    -0.200 F 
ATOM     90  C   UNL A   1      39.020  34.799  38.870  1.00  0.00     0.200 A 
ATOM     91  F   UNL A   1      37.569  33.107  39.647  1.00  0.00    -0.200 F 
ATOM     92  F   UNL A   1      38.830  35.501  39.996  1.00  0.00    -0.200 F 
ENDBRANCH  58  82
BRANCH  70  93
ATOM     93  C   UNL A   1      44.142  28.495  34.699  1.00  0.00     0.064 A 
ATOM     94  C   UNL A   1      44.046  27.311  35.446  1.00  0.00     0.173 A 
ATOM     95  C   UNL A   1      45.405  29.099  34.586  1.00  0.00     0.173 A 
ATOM     96  F   UNL A   1      42.861  26.703  35.596  1.00  0.00    -0.203 F 
ATOM     97  C   UNL A   1      45.165  26.768  36.073  1.00  0.00     0.198 A 
ATOM     98  C   UNL A   1      46.527  28.534  35.184  1.00  0.00     0.198 A 
ATOM     99  F   UNL A   1      45.554  30.228  33.877  1.00  0.00    -0.203 F 
ATOM    100  F   UNL A   1      45.040  25.664  36.822  1.00  0.00    -0.200 F 
ATOM    101  C   UNL A   1      46.405  27.374  35.934  1.00  0.00     0.200 A 
ATOM    102  F   UNL A   1      47.727  29.111  35.033  1.00  0.00    -0.200 F 
ATOM    103  F   UNL A   1      47.482  26.841  36.526  1.00  0.00    -0.200 F 
ENDBRANCH  70  93
ENDBRANCH  44  45
ENDBRANCH  36  39
ENDBRANCH  34  35
ENDBRANCH  33  34
ENDBRANCH   1  33
TORSDOF 15
ENDMDL
MODEL 2
REMARK VINA RESULT:     -13.7      1.438      2.911
REMARK SMILES Nc1c(C(=O)OCC2c3ccccc3-c3ccccc32)ccc(F)c1C(=O)NCCCNC(=O)c1ccc(-c2c3nc(c(-c4c(F)c(F)c(F)c(F)c4F)c4ccc([nH]4)c(-c4c(F)c(F)c(F)c(F)c4F)c4nc(c(-c5c(F)c(F)c(F)c(F)c5F)c5ccc2[nH]5)C=C4)C=C3)cc1
REMARK SMILES IDX 29 1 28 2 26 3 27 4 25 6 2 7 3 8 21 9 23 10 22 11 24 12 1 13
REMARK SMILES IDX 4 16 5 17 6 18 7 19 8 20 9 21 20 22 10 23 14 24 15 25 19 26
REMARK SMILES IDX 11 27 13 28 16 29 18 30 12 31 17 32 30 33 31 34 32 35 33 36
REMARK SMILES IDX 34 38 35 39 36 40 97 41 37 42 96 43 38 44 39 45 40 46 90 47
REMARK SMILES IDX 41 48 95 49 89 50 91 51 42 52 94 53 88 54 87 55 43 57 75 58
REMARK SMILES IDX 55 59 74 60 56 61 59 62 73 63 92 64 57 65 58 66 72 68 93 69
REMARK SMILES IDX 60 70 44 71 45 72 53 73 46 74 47 75 51 76 54 77 48 78 49 79
REMARK SMILES IDX 52 80 50 81 76 82 77 83 85 84 78 85 79 86 83 87 86 88 80 89
REMARK SMILES IDX 81 90 84 91 82 92 61 93 62 94 70 95 63 96 64 97 68 98 71 99
REMARK SMILES IDX 65 100 66 101 69 102 67 103
REMARK H PARENT 28 5 1 14 1 15 32 37 91 56 59 67
REMARK Flexibility Score: inf
ROOT
ATOM      1  C   UNL A   1      31.470  30.962  26.293  1.00  0.00     0.118 C 
ENDROOT
BRANCH   1   2
ATOM      2  N   UNL A   1      32.753  30.415  26.701  1.00  0.00    -0.352 N 
ATOM      3  C   UNL A   1      33.339  29.184  26.513  1.00  0.00     0.256 C 
ATOM      4  O   UNL A   1      34.394  28.983  27.116  1.00  0.00    -0.269 OA
ATOM      5  H   UNL A   1      33.311  31.047  27.209  1.00  0.00     0.163 HD
BRANCH   3   6
ATOM      6  C   UNL A   1      32.809  28.128  25.602  1.00  0.00     0.099 A 
ATOM      7  C   UNL A   1      33.358  27.766  24.355  1.00  0.00     0.062 A 
ATOM      8  C   UNL A   1      32.759  26.711  23.625  1.00  0.00     0.084 A 
ATOM      9  C   UNL A   1      31.574  26.106  24.056  1.00  0.00     0.021 A 
ATOM     10  C   UNL A   1      31.635  27.481  26.031  1.00  0.00     0.138 A 
ATOM     11  C   UNL A   1      31.006  26.504  25.259  1.00  0.00     0.041 A 
ATOM     12  F   UNL A   1      31.068  27.779  27.210  1.00  0.00    -0.206 F 
BRANCH   7  13
ATOM     13  N   UNL A   1      34.297  28.570  23.692  1.00  0.00    -0.397 N 
ATOM     14  H   UNL A   1      35.097  28.162  23.289  1.00  0.00     0.156 HD
ATOM     15  H   UNL A   1      34.156  29.543  23.631  1.00  0.00     0.156 HD
ENDBRANCH   7  13
BRANCH   8  16
ATOM     16  C   UNL A   1      33.378  26.209  22.374  1.00  0.00     0.340 C 
ATOM     17  O   UNL A   1      33.226  26.725  21.280  1.00  0.00    -0.246 OA
BRANCH  16  18
ATOM     18  O   UNL A   1      34.050  25.055  22.660  1.00  0.00    -0.461 OA
BRANCH  18  19
ATOM     19  C   UNL A   1      33.371  23.826  22.347  1.00  0.00     0.246 C 
BRANCH  19  20
ATOM     20  C   UNL A   1      33.694  22.698  23.350  1.00  0.00     0.088 C 
ATOM     21  C   UNL A   1      35.037  22.898  24.040  1.00  0.00    -0.029 A 
ATOM     22  C   UNL A   1      32.732  22.798  24.530  1.00  0.00    -0.029 A 
ATOM     23  C   UNL A   1      36.308  22.748  23.503  1.00  0.00     0.005 A 
ATOM     24  C   UNL A   1      34.841  23.325  25.367  1.00  0.00    -0.014 A 
ATOM     25  C   UNL A   1      33.431  23.229  25.681  1.00  0.00    -0.014 A 
ATOM     26  C   UNL A   1      31.365  22.569  24.553  1.00  0.00     0.005 A 
ATOM     27  C   UNL A   1      37.396  23.151  24.274  1.00  0.00     0.000 A 
ATOM     28  C   UNL A   1      35.921  23.732  26.130  1.00  0.00     0.009 A 
ATOM     29  C   UNL A   1      32.755  23.445  26.870  1.00  0.00     0.009 A 
ATOM     30  C   UNL A   1      30.687  22.784  25.754  1.00  0.00     0.000 A 
ATOM     31  C   UNL A   1      37.201  23.665  25.566  1.00  0.00     0.001 A 
ATOM     32  C   UNL A   1      31.374  23.221  26.900  1.00  0.00     0.001 A 
ENDBRANCH  19  20
ENDBRANCH  18  19
ENDBRANCH  16  18
ENDBRANCH   8  16
ENDBRANCH   3   6
ENDBRANCH   1   2
BRANCH   1  33
ATOM     33  C   UNL A   1      31.401  32.460  26.600  1.00  0.00     0.042 C 
BRANCH  33  34
ATOM     34  C   UNL A   1      32.662  33.038  27.216  1.00  0.00     0.118 C 
BRANCH  34  35
ATOM     35  N   UNL A   1      32.458  34.384  27.719  1.00  0.00    -0.352 N 
ATOM     36  C   UNL A   1      33.027  35.019  28.795  1.00  0.00     0.251 C 
ATOM     37  H   UNL A   1      31.812  34.926  27.210  1.00  0.00     0.163 HD
ATOM     38  O   UNL A   1      32.544  36.074  29.198  1.00  0.00    -0.269 OA
BRANCH  36  39
ATOM     39  C   UNL A   1      34.204  34.441  29.491  1.00  0.00     0.039 A 
ATOM     40  C   UNL A   1      34.005  33.776  30.705  1.00  0.00     0.014 A 
ATOM     41  C   UNL A   1      35.499  34.585  28.987  1.00  0.00     0.014 A 
ATOM     42  C   UNL A   1      35.092  33.214  31.381  1.00  0.00     0.010 A 
ATOM     43  C   UNL A   1      36.566  33.941  29.608  1.00  0.00     0.010 A 
ATOM     44  C   UNL A   1      36.379  33.262  30.820  1.00  0.00    -0.014 A 
BRANCH  44  45
ATOM     45  C   UNL A   1      37.542  32.628  31.495  1.00  0.00     0.031 A 
ATOM     46  C   UNL A   1      38.241  31.460  30.854  1.00  0.00     0.074 A 
ATOM     47  C   UNL A   1      37.928  33.062  32.711  1.00  0.00     0.049 A 
ATOM     48  N   UNL A   1      39.216  30.720  31.320  1.00  0.00    -0.248 NA
ATOM     49  C   UNL A   1      37.763  31.051  29.524  1.00  0.00     0.031 C 
ATOM     50  C   UNL A   1      37.306  34.160  33.452  1.00  0.00     0.029 A 
ATOM     51  N   UNL A   1      38.928  32.625  33.543  1.00  0.00    -0.354 N 
ATOM     52  C   UNL A   1      39.454  29.754  30.350  1.00  0.00     0.074 A 
ATOM     53  C   UNL A   1      38.485  29.964  29.296  1.00  0.00     0.031 C 
ATOM     54  C   UNL A   1      37.948  34.323  34.619  1.00  0.00     0.029 A 
ATOM     55  C   UNL A   1      38.997  33.313  34.731  1.00  0.00     0.049 A 
ATOM     56  H   UNL A   1      39.538  31.888  33.313  1.00  0.00     0.167 HD
ATOM     57  C   UNL A   1      40.408  28.793  30.330  1.00  0.00     0.037 A 
ATOM     58  C   UNL A   1      39.802  33.139  35.796  1.00  0.00     0.037 A 
ATOM     59  C   UNL A   1      41.382  28.602  31.372  1.00  0.00     0.049 A 
ATOM     60  C   UNL A   1      40.839  32.047  35.759  1.00  0.00     0.074 A 
ATOM     61  C   UNL A   1      42.428  27.696  31.420  1.00  0.00     0.029 A 
ATOM     62  N   UNL A   1      41.426  29.327  32.555  1.00  0.00    -0.354 N 
ATOM     63  N   UNL A   1      41.100  31.185  34.807  1.00  0.00    -0.248 NA
ATOM     64  C   UNL A   1      41.699  31.909  36.943  1.00  0.00     0.031 C 
ATOM     65  C   UNL A   1      43.064  27.830  32.658  1.00  0.00     0.029 A 
ATOM     66  C   UNL A   1      42.461  28.866  33.353  1.00  0.00     0.049 A 
ATOM     67  H   UNL A   1      40.812  30.059  32.792  1.00  0.00     0.167 HD
ATOM     68  C   UNL A   1      42.169  30.425  35.261  1.00  0.00     0.074 A 
ATOM     69  C   UNL A   1      42.519  30.938  36.569  1.00  0.00     0.031 C 
ATOM     70  C   UNL A   1      42.804  29.395  34.649  1.00  0.00     0.037 A 
BRANCH  57  71
ATOM     71  C   UNL A   1      40.445  27.869  29.145  1.00  0.00     0.064 A 
ATOM     72  C   UNL A   1      39.673  26.697  29.096  1.00  0.00     0.173 A 
ATOM     73  C   UNL A   1      41.232  28.180  28.025  1.00  0.00     0.173 A 
ATOM     74  F   UNL A   1      38.910  26.346  30.142  1.00  0.00    -0.203 F 
ATOM     75  C   UNL A   1      39.711  25.858  27.985  1.00  0.00     0.198 A 
ATOM     76  C   UNL A   1      41.240  27.357  26.902  1.00  0.00     0.198 A 
ATOM     77  F   UNL A   1      41.984  29.290  28.014  1.00  0.00    -0.203 F 
ATOM     78  F   UNL A   1      39.006  24.718  27.983  1.00  0.00    -0.200 F 
ATOM     79  C   UNL A   1      40.488  26.192  26.885  1.00  0.00     0.200 A 
ATOM     80  F   UNL A   1      41.978  27.691  25.833  1.00  0.00    -0.200 F 
ATOM     81  F   UNL A   1      40.515  25.390  25.813  1.00  0.00    -0.200 F 
ENDBRANCH  57  71
BRANCH  58  82
ATOM     82  C   UNL A   1      39.668  34.024  36.985  1.00  0.00     0.064 A 
ATOM     83  C   UNL A   1      38.878  33.648  38.080  1.00  0.00     0.173 A 
ATOM     84  C   UNL A   1      40.320  35.265  37.048  1.00  0.00     0.173 A 
ATOM     85  F   UNL A   1      38.220  32.479  38.060  1.00  0.00    -0.203 F 
ATOM     86  C   UNL A   1      38.726  34.487  39.182  1.00  0.00     0.198 A 
ATOM     87  C   UNL A   1      40.194  36.089  38.165  1.00  0.00     0.198 A 
ATOM     88  F   UNL A   1      41.094  35.671  36.031  1.00  0.00    -0.203 F 
ATOM     89  F   UNL A   1      37.924  34.124  40.192  1.00  0.00    -0.200 F 
ATOM     90  C   UNL A   1      39.389  35.705  39.226  1.00  0.00     0.200 A 
ATOM     91  F   UNL A   1      40.852  37.255  38.211  1.00  0.00    -0.200 F 
ATOM     92  F   UNL A   1      39.247  36.509  40.288  1.00  0.00    -0.200 F 
ENDBRANCH  58  82
BRANCH  70  93
ATOM     93  C   UNL A   1      43.973  28.780  35.363  1.00  0.00     0.064 A 
ATOM     94  C   UNL A   1      45.285  29.238  35.167  1.00  0.00     0.173 A 
ATOM     95  C   UNL A   1      43.770  27.753  36.299  1.00  0.00     0.173 A 
ATOM     96  F   UNL A   1      45.535  30.207  34.274  1.00  0.00    -0.203 F 
ATOM     97  C   UNL A   1      46.351  28.674  35.863  1.00  0.00     0.198 A 
ATOM     98  C   UNL A   1      44.834  27.217  37.018  1.00  0.00     0.198 A 
ATOM     99  F   UNL A   1      42.535  27.283  36.530  1.00  0.00    -0.203 F 
ATOM    100  F   UNL A   1      47.602  29.094  35.624  1.00  0.00    -0.200 F 
ATOM    101  C   UNL A   1      46.124  27.672  36.795  1.00  0.00     0.200 A 
ATOM    102  F   UNL A   1      44.609  26.262  37.931  1.00  0.00    -0.200 F 
ATOM    103  F   UNL A   1      47.150  27.141  37.474  1.00  0.00    -0.200 F 
ENDBRANCH  70  93
ENDBRANCH  44  45
ENDBRANCH  36  39
ENDBRANCH  34  35
ENDBRANCH  33  34
ENDBRANCH   1  33
TORSDOF 15
ENDMDL
MODEL 3
REMARK VINA RESULT:     -13.5      1.451      2.807
REMARK SMILES Nc1c(C(=O)OCC2c3ccccc3-c3ccccc32)ccc(F)c1C(=O)NCCCNC(=O)c1ccc(-c2c3nc(c(-c4c(F)c(F)c(F)c(F)c4F)c4ccc([nH]4)c(-c4c(F)c(F)c(F)c(F)c4F)c4nc(c(-c5c(F)c(F)c(F)c(F)c5F)c5ccc2[nH]5)C=C4)C=C3)cc1
REMARK SMILES IDX 29 1 28 2 26 3 27 4 25 6 2 7 3 8 21 9 23 10 22 11 24 12 1 13
REMARK SMILES IDX 4 16 5 17 6 18 7 19 8 20 9 21 20 22 10 23 14 24 15 25 19 26
REMARK SMILES IDX 11 27 13 28 16 29 18 30 12 31 17 32 30 33 31 34 32 35 33 36
REMARK SMILES IDX 34 38 35 39 36 40 97 41 37 42 96 43 38 44 39 45 40 46 90 47
REMARK SMILES IDX 41 48 95 49 89 50 91 51 42 52 94 53 88 54 87 55 43 57 75 58
REMARK SMILES IDX 55 59 74 60 56 61 59 62 73 63 92 64 57 65 58 66 72 68 93 69
REMARK SMILES IDX 60 70 44 71 45 72 53 73 46 74 47 75 51 76 54 77 48 78 49 79
REMARK SMILES IDX 52 80 50 81 76 82 77 83 85 84 78 85 79 86 83 87 86 88 80 89
REMARK SMILES IDX 81 90 84 91 82 92 61 93 62 94 70 95 63 96 64 97 68 98 71 99
REMARK SMILES IDX 65 100 66 101 69 102 67 103
REMARK H PARENT 28 5 1 14 1 15 32 37 91 56 59 67
REMARK Flexibility Score: inf
ROOT
ATOM      1  C   UNL A   1      31.282  30.893  26.419  1.00  0.00     0.118 C 
ENDROOT
BRANCH   1   2
ATOM      2  N   UNL A   1      32.329  30.457  25.510  1.00  0.00    -0.352 N 
ATOM      3  C   UNL A   1      32.537  29.278  24.832  1.00  0.00     0.256 C 
ATOM      4  O   UNL A   1      33.613  29.170  24.242  1.00  0.00    -0.269 OA
ATOM      5  H   UNL A   1      33.023  31.136  25.348  1.00  0.00     0.163 HD
BRANCH   3   6
ATOM      6  C   UNL A   1      31.536  28.177  24.729  1.00  0.00     0.099 A 
ATOM      7  C   UNL A   1      31.572  26.964  25.446  1.00  0.00     0.062 A 
ATOM      8  C   UNL A   1      30.521  26.032  25.265  1.00  0.00     0.084 A 
ATOM      9  C   UNL A   1      29.519  26.238  24.311  1.00  0.00     0.021 A 
ATOM     10  C   UNL A   1      30.499  28.376  23.799  1.00  0.00     0.138 A 
ATOM     11  C   UNL A   1      29.519  27.410  23.568  1.00  0.00     0.041 A 
ATOM     12  F   UNL A   1      30.409  29.511  23.090  1.00  0.00    -0.206 F 
BRANCH   7  13
ATOM     13  N   UNL A   1      32.724  26.529  26.119  1.00  0.00    -0.397 N 
ATOM     14  H   UNL A   1      33.491  27.136  26.224  1.00  0.00     0.156 HD
ATOM     15  H   UNL A   1      32.763  25.616  26.487  1.00  0.00     0.156 HD
ENDBRANCH   7  13
BRANCH   8  16
ATOM     16  C   UNL A   1      30.448  24.803  26.093  1.00  0.00     0.340 C 
ATOM     17  O   UNL A   1      29.593  24.597  26.938  1.00  0.00    -0.246 OA
BRANCH  16  18
ATOM     18  O   UNL A   1      31.527  24.021  25.798  1.00  0.00    -0.461 OA
BRANCH  18  19
ATOM     19  C   UNL A   1      31.294  22.924  24.898  1.00  0.00     0.246 C 
BRANCH  19  20
ATOM     20  C   UNL A   1      32.421  22.762  23.855  1.00  0.00     0.088 C 
ATOM     21  C   UNL A   1      32.627  24.019  23.020  1.00  0.00    -0.029 A 
ATOM     22  C   UNL A   1      33.757  22.663  24.584  1.00  0.00    -0.029 A 
ATOM     23  C   UNL A   1      31.811  24.529  22.020  1.00  0.00     0.005 A 
ATOM     24  C   UNL A   1      33.798  24.685  23.428  1.00  0.00    -0.014 A 
ATOM     25  C   UNL A   1      34.512  23.837  24.361  1.00  0.00    -0.014 A 
ATOM     26  C   UNL A   1      34.223  21.643  25.400  1.00  0.00     0.005 A 
ATOM     27  C   UNL A   1      32.112  25.789  21.507  1.00  0.00     0.000 A 
ATOM     28  C   UNL A   1      34.094  25.939  22.925  1.00  0.00     0.009 A 
ATOM     29  C   UNL A   1      35.745  24.001  24.967  1.00  0.00     0.009 A 
ATOM     30  C   UNL A   1      35.469  21.810  26.007  1.00  0.00     0.000 A 
ATOM     31  C   UNL A   1      33.229  26.499  21.977  1.00  0.00     0.001 A 
ATOM     32  C   UNL A   1      36.221  22.979  25.796  1.00  0.00     0.001 A 
ENDBRANCH  19  20
ENDBRANCH  18  19
ENDBRANCH  16  18
ENDBRANCH   8  16
ENDBRANCH   3   6
ENDBRANCH   1   2
BRANCH   1  33
ATOM     33  C   UNL A   1      31.304  32.415  26.576  1.00  0.00     0.042 C 
BRANCH  33  34
ATOM     34  C   UNL A   1      32.568  32.968  27.208  1.00  0.00     0.118 C 
BRANCH  34  35
ATOM     35  N   UNL A   1      32.402  34.339  27.656  1.00  0.00    -0.352 N 
ATOM     36  C   UNL A   1      33.006  35.007  28.693  1.00  0.00     0.251 C 
ATOM     37  H   UNL A   1      31.758  34.872  27.137  1.00  0.00     0.163 HD
ATOM     38  O   UNL A   1      32.552  36.088  29.059  1.00  0.00    -0.269 OA
BRANCH  36  39
ATOM     39  C   UNL A   1      34.184  34.434  29.390  1.00  0.00     0.039 A 
ATOM     40  C   UNL A   1      33.982  33.740  30.588  1.00  0.00     0.014 A 
ATOM     41  C   UNL A   1      35.482  34.611  28.906  1.00  0.00     0.014 A 
ATOM     42  C   UNL A   1      35.070  33.182  31.265  1.00  0.00     0.010 A 
ATOM     43  C   UNL A   1      36.553  33.972  29.526  1.00  0.00     0.010 A 
ATOM     44  C   UNL A   1      36.363  33.264  30.721  1.00  0.00    -0.014 A 
BRANCH  44  45
ATOM     45  C   UNL A   1      37.529  32.636  31.396  1.00  0.00     0.031 A 
ATOM     46  C   UNL A   1      38.246  31.484  30.747  1.00  0.00     0.074 A 
ATOM     47  C   UNL A   1      37.900  33.059  32.620  1.00  0.00     0.049 A 
ATOM     48  N   UNL A   1      39.227  30.750  31.210  1.00  0.00    -0.248 NA
ATOM     49  C   UNL A   1      37.783  31.086  29.408  1.00  0.00     0.031 C 
ATOM     50  C   UNL A   1      37.260  34.140  33.371  1.00  0.00     0.029 A 
ATOM     51  N   UNL A   1      38.900  32.623  33.455  1.00  0.00    -0.354 N 
ATOM     52  C   UNL A   1      39.483  29.799  30.230  1.00  0.00     0.074 A 
ATOM     53  C   UNL A   1      38.519  30.010  29.172  1.00  0.00     0.031 C 
ATOM     54  C   UNL A   1      37.893  34.297  34.544  1.00  0.00     0.029 A 
ATOM     55  C   UNL A   1      38.952  33.298  34.651  1.00  0.00     0.049 A 
ATOM     56  H   UNL A   1      39.521  31.897  33.219  1.00  0.00     0.167 HD
ATOM     57  C   UNL A   1      40.449  28.849  30.205  1.00  0.00     0.037 A 
ATOM     58  C   UNL A   1      39.752  33.120  35.720  1.00  0.00     0.037 A 
ATOM     59  C   UNL A   1      41.418  28.657  31.252  1.00  0.00     0.049 A 
ATOM     60  C   UNL A   1      40.802  32.041  35.677  1.00  0.00     0.074 A 
ATOM     61  C   UNL A   1      42.474  27.764  31.297  1.00  0.00     0.029 A 
ATOM     62  N   UNL A   1      41.444  29.368  32.444  1.00  0.00    -0.354 N 
ATOM     63  N   UNL A   1      41.080  31.194  34.716  1.00  0.00    -0.248 NA
ATOM     64  C   UNL A   1      41.655  31.899  36.865  1.00  0.00     0.031 C 
ATOM     65  C   UNL A   1      43.099  27.889  32.541  1.00  0.00     0.029 A 
ATOM     66  C   UNL A   1      42.479  28.910  33.244  1.00  0.00     0.049 A 
ATOM     67  H   UNL A   1      40.820  30.090  32.686  1.00  0.00     0.167 HD
ATOM     68  C   UNL A   1      42.155  30.441  35.169  1.00  0.00     0.074 A 
ATOM     69  C   UNL A   1      42.490  30.942  36.485  1.00  0.00     0.031 C 
ATOM     70  C   UNL A   1      42.807  29.426  34.549  1.00  0.00     0.037 A 
BRANCH  57  71
ATOM     71  C   UNL A   1      40.506  27.940  29.009  1.00  0.00     0.064 A 
ATOM     72  C   UNL A   1      39.745  26.763  28.938  1.00  0.00     0.173 A 
ATOM     73  C   UNL A   1      41.300  28.273  27.901  1.00  0.00     0.173 A 
ATOM     74  F   UNL A   1      38.975  26.392  29.973  1.00  0.00    -0.203 F 
ATOM     75  C   UNL A   1      39.801  25.937  27.817  1.00  0.00     0.198 A 
ATOM     76  C   UNL A   1      41.325  27.464  26.767  1.00  0.00     0.198 A 
ATOM     77  F   UNL A   1      42.041  29.390  27.910  1.00  0.00    -0.203 F 
ATOM     78  F   UNL A   1      39.107  24.792  27.795  1.00  0.00    -0.200 F 
ATOM     79  C   UNL A   1      40.585  26.293  26.730  1.00  0.00     0.200 A 
ATOM     80  F   UNL A   1      42.070  27.818  25.710  1.00  0.00    -0.200 F 
ATOM     81  F   UNL A   1      40.629  25.504  25.648  1.00  0.00    -0.200 F 
ENDBRANCH  57  71
BRANCH  58  82
ATOM     82  C   UNL A   1      39.598  33.989  36.918  1.00  0.00     0.064 A 
ATOM     83  C   UNL A   1      40.219  35.243  36.985  1.00  0.00     0.173 A 
ATOM     84  C   UNL A   1      38.834  33.581  38.022  1.00  0.00     0.173 A 
ATOM     85  F   UNL A   1      40.975  35.671  35.963  1.00  0.00    -0.203 F 
ATOM     86  C   UNL A   1      40.102  36.047  38.118  1.00  0.00     0.198 A 
ATOM     87  C   UNL A   1      38.689  34.399  39.140  1.00  0.00     0.198 A 
ATOM     88  F   UNL A   1      38.212  32.393  38.007  1.00  0.00    -0.203 F 
ATOM     89  F   UNL A   1      40.748  37.218  38.175  1.00  0.00    -0.200 F 
ATOM     90  C   UNL A   1      39.332  35.626  39.193  1.00  0.00     0.200 A 
ATOM     91  F   UNL A   1      37.929  33.997  40.167  1.00  0.00    -0.200 F 
ATOM     92  F   UNL A   1      39.215  36.401  40.279  1.00  0.00    -0.200 F 
ENDBRANCH  58  82
BRANCH  70  93
ATOM     93  C   UNL A   1      43.978  28.816  35.264  1.00  0.00     0.064 A 
ATOM     94  C   UNL A   1      45.286  29.288  35.078  1.00  0.00     0.173 A 
ATOM     95  C   UNL A   1      43.780  27.780  36.190  1.00  0.00     0.173 A 
ATOM     96  F   UNL A   1      45.532  30.267  34.194  1.00  0.00    -0.203 F 
ATOM     97  C   UNL A   1      46.354  28.729  35.775  1.00  0.00     0.198 A 
ATOM     98  C   UNL A   1      44.844  27.248  36.911  1.00  0.00     0.198 A 
ATOM     99  F   UNL A   1      42.548  27.297  36.412  1.00  0.00    -0.203 F 
ATOM    100  F   UNL A   1      47.602  29.162  35.545  1.00  0.00    -0.200 F 
ATOM    101  C   UNL A   1      46.132  27.717  36.697  1.00  0.00     0.200 A 
ATOM    102  F   UNL A   1      44.624  26.284  37.815  1.00  0.00    -0.200 F 
ATOM    103  F   UNL A   1      47.159  27.190  37.377  1.00  0.00    -0.200 F 
ENDBRANCH  70  93
ENDBRANCH  44  45
ENDBRANCH  36  39
ENDBRANCH  34  35
ENDBRANCH  33  34
ENDBRANCH   1  33
TORSDOF 15
ENDMDL
