MODEL 1
REMARK VINA RESULT:     -14.1      0.000      0.000
REMARK SMILES Cc1cccc(-c2c(C(=O)NCCCNC(=O)c3ccc(-c4c5nc(c(-c6c(F)c(F)c(F)c(F)c6F)c6ccc([nH]6)c(-c6c(F)c(F)c(F)c(F)c6F)c6nc(c(-c7c(F)c(F)c(F)c(F)c7F)c7ccc4[nH]7)C=C6)C=C5)cc3)nnn2Cc2cc(F)cc(F)c2)c1
REMARK SMILES IDX 13 1 12 2 11 3 9 4 10 5 8 7 7 8 83 9 81 10 82 11 6 12 1 13
REMARK SMILES IDX 2 14 3 15 93 16 4 17 5 18 84 19 85 20 86 21 92 22 87 23
REMARK SMILES IDX 90 24 88 25 89 26 91 27 14 28 15 29 16 30 17 32 18 33 19 34
REMARK SMILES IDX 80 35 20 36 79 37 21 38 22 39 23 40 73 41 24 42 78 43 72 44
REMARK SMILES IDX 74 45 25 46 77 47 71 48 70 49 26 51 58 52 38 53 57 54 39 55
REMARK SMILES IDX 42 56 56 57 75 58 40 59 41 60 55 62 76 63 43 64 27 65 28 66
REMARK SMILES IDX 36 67 29 68 30 69 34 70 37 71 31 72 32 73 35 74 33 75 59 76
REMARK SMILES IDX 60 77 68 78 61 79 62 80 66 81 69 82 63 83 64 84 67 85 65 86
REMARK SMILES IDX 44 87 45 88 53 89 46 90 47 91 51 92 54 93 48 94 49 95 52 96
REMARK SMILES IDX 50 97
REMARK H PARENT 11 6 15 31 74 50 42 61
REMARK Flexibility Score: inf
ROOT
ATOM      1  C   UNL A   1      33.730  30.050  26.482  1.00  0.00     0.042 C 
ENDROOT
BRANCH   1   2
ATOM      2  C   UNL A   1      33.836  28.562  26.200  1.00  0.00     0.118 C 
BRANCH   2   3
ATOM      3  N   UNL A   1      32.875  28.169  25.200  1.00  0.00    -0.351 N 
ATOM      4  C   UNL A   1      32.219  27.010  24.888  1.00  0.00     0.274 C 
ATOM      5  O   UNL A   1      31.513  27.124  23.876  1.00  0.00    -0.267 OA
ATOM      6  H   UNL A   1      32.634  28.911  24.598  1.00  0.00     0.163 HD
BRANCH   4   7
ATOM      7  C   UNL A   1      32.254  25.734  25.617  1.00  0.00     0.178 A 
ATOM      8  C   UNL A   1      33.052  24.585  25.686  1.00  0.00     0.102 A 
ATOM      9  N   UNL A   1      32.414  23.817  26.652  1.00  0.00    -0.239 N 
ATOM     10  N   UNL A   1      31.184  25.549  26.489  1.00  0.00    -0.124 NA
ATOM     11  N   UNL A   1      31.296  24.390  27.097  1.00  0.00    -0.066 NA
BRANCH   8  12
ATOM     12  C   UNL A   1      34.269  24.086  25.050  1.00  0.00     0.003 A 
ATOM     13  C   UNL A   1      37.964  23.562  25.890  1.00  0.00     0.044 C 
ATOM     14  C   UNL A   1      36.671  23.640  25.130  1.00  0.00    -0.050 A 
ATOM     15  C   UNL A   1      36.624  23.194  23.804  1.00  0.00     0.003 A 
ATOM     16  C   UNL A   1      35.490  24.089  25.747  1.00  0.00     0.013 A 
ATOM     17  C   UNL A   1      35.426  23.224  23.092  1.00  0.00     0.001 A 
ATOM     18  C   UNL A   1      34.260  23.681  23.708  1.00  0.00     0.010 A 
ENDBRANCH   8  12
BRANCH   9  19
ATOM     19  C   UNL A   1      32.783  22.516  27.204  1.00  0.00     0.182 C 
BRANCH  19  20
ATOM     20  C   UNL A   1      33.182  21.489  26.168  1.00  0.00    -0.021 A 
ATOM     21  C   UNL A   1      32.224  21.062  25.235  1.00  0.00     0.045 A 
ATOM     22  C   UNL A   1      34.470  20.934  26.098  1.00  0.00     0.045 A 
ATOM     23  C   UNL A   1      32.577  20.171  24.223  1.00  0.00     0.126 A 
ATOM     24  C   UNL A   1      34.808  20.075  25.055  1.00  0.00     0.126 A 
ATOM     25  F   UNL A   1      31.650  19.786  23.337  1.00  0.00    -0.207 F 
ATOM     26  C   UNL A   1      33.872  19.689  24.108  1.00  0.00     0.078 A 
ATOM     27  F   UNL A   1      36.070  19.641  24.949  1.00  0.00    -0.207 F 
ENDBRANCH  19  20
ENDBRANCH   9  19
ENDBRANCH   4   7
ENDBRANCH   2   3
ENDBRANCH   1   2
BRANCH   1  28
ATOM     28  C   UNL A   1      33.648  30.411  27.946  1.00  0.00     0.118 C 
BRANCH  28  29
ATOM     29  N   UNL A   1      34.550  31.478  28.370  1.00  0.00    -0.352 N 
ATOM     30  C   UNL A   1      35.856  31.371  28.843  1.00  0.00     0.251 C 
ATOM     31  H   UNL A   1      34.189  32.392  28.315  1.00  0.00     0.163 HD
ATOM     32  O   UNL A   1      36.484  32.351  29.184  1.00  0.00    -0.269 OA
BRANCH  30  33
ATOM     33  C   UNL A   1      36.508  30.036  28.779  1.00  0.00     0.039 A 
ATOM     34  C   UNL A   1      36.715  29.366  29.989  1.00  0.00     0.014 A 
ATOM     35  C   UNL A   1      37.213  29.674  27.640  1.00  0.00     0.014 A 
ATOM     36  C   UNL A   1      37.847  28.568  30.124  1.00  0.00     0.010 A 
ATOM     37  C   UNL A   1      38.416  29.028  27.818  1.00  0.00     0.010 A 
ATOM     38  C   UNL A   1      38.769  28.539  29.084  1.00  0.00    -0.014 A 
BRANCH  38  39
ATOM     39  C   UNL A   1      40.169  28.158  29.250  1.00  0.00     0.031 A 
ATOM     40  C   UNL A   1      40.630  26.830  28.788  1.00  0.00     0.074 A 
ATOM     41  C   UNL A   1      41.067  29.080  29.672  1.00  0.00     0.049 A 
ATOM     42  N   UNL A   1      41.778  26.319  29.071  1.00  0.00    -0.248 NA
ATOM     43  C   UNL A   1      39.785  25.924  28.016  1.00  0.00     0.031 C 
ATOM     44  C   UNL A   1      42.523  29.028  29.532  1.00  0.00     0.029 A 
ATOM     45  N   UNL A   1      40.843  30.195  30.502  1.00  0.00    -0.354 N 
ATOM     46  C   UNL A   1      41.947  25.196  28.294  1.00  0.00     0.074 A 
ATOM     47  C   UNL A   1      40.638  24.932  27.755  1.00  0.00     0.031 C 
ATOM     48  C   UNL A   1      43.079  29.833  30.450  1.00  0.00     0.029 A 
ATOM     49  C   UNL A   1      42.006  30.302  31.306  1.00  0.00     0.049 A 
ATOM     50  H   UNL A   1      40.048  30.775  30.521  1.00  0.00     0.167 HD
ATOM     51  C   UNL A   1      43.213  24.723  28.107  1.00  0.00     0.037 A 
ATOM     52  C   UNL A   1      41.964  30.128  32.658  1.00  0.00     0.037 A 
ATOM     53  C   UNL A   1      44.131  25.337  29.073  1.00  0.00     0.049 A 
ATOM     54  C   UNL A   1      42.847  29.010  33.165  1.00  0.00     0.074 A 
ATOM     55  C   UNL A   1      45.109  26.314  28.980  1.00  0.00     0.029 A 
ATOM     56  N   UNL A   1      43.902  25.143  30.435  1.00  0.00    -0.354 N 
ATOM     57  N   UNL A   1      43.310  28.052  32.411  1.00  0.00    -0.248 NA
ATOM     58  C   UNL A   1      43.247  28.863  34.562  1.00  0.00     0.031 C 
ATOM     59  C   UNL A   1      45.418  26.752  30.296  1.00  0.00     0.029 A 
ATOM     60  C   UNL A   1      44.649  26.025  31.188  1.00  0.00     0.049 A 
ATOM     61  H   UNL A   1      43.290  24.467  30.807  1.00  0.00     0.167 HD
ATOM     62  C   UNL A   1      44.016  27.163  33.180  1.00  0.00     0.074 A 
ATOM     63  C   UNL A   1      43.968  27.728  34.515  1.00  0.00     0.031 C 
ATOM     64  C   UNL A   1      44.559  26.029  32.644  1.00  0.00     0.037 A 
BRANCH  51  65
ATOM     65  C   UNL A   1      43.688  23.905  26.911  1.00  0.00     0.064 A 
ATOM     66  C   UNL A   1      43.308  22.547  26.784  1.00  0.00     0.173 A 
ATOM     67  C   UNL A   1      44.602  24.330  25.922  1.00  0.00     0.173 A 
ATOM     68  F   UNL A   1      42.403  21.995  27.603  1.00  0.00    -0.203 F 
ATOM     69  C   UNL A   1      43.851  21.689  25.818  1.00  0.00     0.198 A 
ATOM     70  C   UNL A   1      45.139  23.476  24.953  1.00  0.00     0.198 A 
ATOM     71  F   UNL A   1      45.030  25.588  25.830  1.00  0.00    -0.203 F 
ATOM     72  F   UNL A   1      43.478  20.402  25.787  1.00  0.00    -0.200 F 
ATOM     73  C   UNL A   1      44.778  22.151  24.910  1.00  0.00     0.200 A 
ATOM     74  F   UNL A   1      46.026  23.958  24.070  1.00  0.00    -0.200 F 
ATOM     75  F   UNL A   1      45.315  21.331  23.998  1.00  0.00    -0.200 F 
ENDBRANCH  51  65
BRANCH  52  76
ATOM     76  C   UNL A   1      40.663  30.526  33.257  1.00  0.00     0.064 A 
ATOM     77  C   UNL A   1      40.389  31.902  33.393  1.00  0.00     0.173 A 
ATOM     78  C   UNL A   1      39.581  29.642  33.304  1.00  0.00     0.173 A 
ATOM     79  F   UNL A   1      41.394  32.791  33.353  1.00  0.00    -0.203 F 
ATOM     80  C   UNL A   1      39.082  32.378  33.440  1.00  0.00     0.198 A 
ATOM     81  C   UNL A   1      38.270  30.123  33.369  1.00  0.00     0.198 A 
ATOM     82  F   UNL A   1      39.774  28.323  33.157  1.00  0.00    -0.203 F 
ATOM     83  F   UNL A   1      38.851  33.699  33.439  1.00  0.00    -0.200 F 
ATOM     84  C   UNL A   1      38.023  31.489  33.396  1.00  0.00     0.200 A 
ATOM     85  F   UNL A   1      37.242  29.268  33.288  1.00  0.00    -0.200 F 
ATOM     86  F   UNL A   1      36.764  31.946  33.326  1.00  0.00    -0.200 F 
ENDBRANCH  52  76
BRANCH  64  87
ATOM     87  C   UNL A   1      45.124  24.853  33.414  1.00  0.00     0.064 A 
ATOM     88  C   UNL A   1      44.419  23.668  33.680  1.00  0.00     0.173 A 
ATOM     89  C   UNL A   1      46.491  24.838  33.791  1.00  0.00     0.173 A 
ATOM     90  F   UNL A   1      43.157  23.496  33.265  1.00  0.00    -0.203 F 
ATOM     91  C   UNL A   1      45.012  22.579  34.329  1.00  0.00     0.198 A 
ATOM     92  C   UNL A   1      47.096  23.729  34.381  1.00  0.00     0.198 A 
ATOM     93  F   UNL A   1      47.293  25.890  33.568  1.00  0.00    -0.203 F 
ATOM     94  F   UNL A   1      44.281  21.488  34.596  1.00  0.00    -0.200 F 
ATOM     95  C   UNL A   1      46.351  22.604  34.667  1.00  0.00     0.200 A 
ATOM     96  F   UNL A   1      48.409  23.750  34.650  1.00  0.00    -0.200 F 
ATOM     97  F   UNL A   1      46.928  21.541  35.244  1.00  0.00    -0.200 F 
ENDBRANCH  64  87
ENDBRANCH  38  39
ENDBRANCH  30  33
ENDBRANCH  28  29
ENDBRANCH   1  28
TORSDOF 13
ENDMDL
MODEL 2
REMARK VINA RESULT:     -13.9      3.651      9.473
REMARK SMILES Cc1cccc(-c2c(C(=O)NCCCNC(=O)c3ccc(-c4c5nc(c(-c6c(F)c(F)c(F)c(F)c6F)c6ccc([nH]6)c(-c6c(F)c(F)c(F)c(F)c6F)c6nc(c(-c7c(F)c(F)c(F)c(F)c7F)c7ccc4[nH]7)C=C6)C=C5)cc3)nnn2Cc2cc(F)cc(F)c2)c1
REMARK SMILES IDX 13 1 12 2 11 3 9 4 10 5 8 7 7 8 83 9 81 10 82 11 6 12 1 13
REMARK SMILES IDX 2 14 3 15 93 16 4 17 5 18 84 19 85 20 86 21 92 22 87 23
REMARK SMILES IDX 90 24 88 25 89 26 91 27 14 28 15 29 16 30 17 32 18 33 19 34
REMARK SMILES IDX 80 35 20 36 79 37 21 38 22 39 23 40 73 41 24 42 78 43 72 44
REMARK SMILES IDX 74 45 25 46 77 47 71 48 70 49 26 51 58 52 38 53 57 54 39 55
REMARK SMILES IDX 42 56 56 57 75 58 40 59 41 60 55 62 76 63 43 64 27 65 28 66
REMARK SMILES IDX 36 67 29 68 30 69 34 70 37 71 31 72 32 73 35 74 33 75 59 76
REMARK SMILES IDX 60 77 68 78 61 79 62 80 66 81 69 82 63 83 64 84 67 85 65 86
REMARK SMILES IDX 44 87 45 88 53 89 46 90 47 91 51 92 54 93 48 94 49 95 52 96
REMARK SMILES IDX 50 97
REMARK H PARENT 11 6 15 31 74 50 42 61
REMARK Flexibility Score: inf
ROOT
ATOM      1  C   UNL A   1      37.669  20.638  25.014  1.00  0.00     0.042 C 
ENDROOT
BRANCH   1   2
ATOM      2  C   UNL A   1      36.152  20.676  25.052  1.00  0.00     0.118 C 
BRANCH   2   3
ATOM      3  N   UNL A   1      35.695  21.544  26.108  1.00  0.00    -0.351 N 
ATOM      4  C   UNL A   1      34.813  22.585  26.195  1.00  0.00     0.274 C 
ATOM      5  O   UNL A   1      34.786  23.089  27.326  1.00  0.00    -0.267 OA
ATOM      6  H   UNL A   1      36.120  21.338  26.973  1.00  0.00     0.163 HD
BRANCH   4   7
ATOM      7  C   UNL A   1      33.932  23.106  25.139  1.00  0.00     0.178 A 
ATOM      8  C   UNL A   1      33.126  24.226  24.902  1.00  0.00     0.102 A 
ATOM      9  N   UNL A   1      32.614  23.982  23.634  1.00  0.00    -0.239 N 
ATOM     10  N   UNL A   1      33.801  22.260  24.040  1.00  0.00    -0.124 NA
ATOM     11  N   UNL A   1      33.003  22.802  23.150  1.00  0.00    -0.066 NA
BRANCH   8  12
ATOM     12  C   UNL A   1      32.762  25.453  25.606  1.00  0.00     0.003 A 
ATOM     13  C   UNL A   1      34.350  28.778  26.633  1.00  0.00     0.044 C 
ATOM     14  C   UNL A   1      33.374  27.645  26.498  1.00  0.00    -0.050 A 
ATOM     15  C   UNL A   1      32.083  27.782  27.024  1.00  0.00     0.003 A 
ATOM     16  C   UNL A   1      33.708  26.476  25.793  1.00  0.00     0.013 A 
ATOM     17  C   UNL A   1      31.150  26.757  26.878  1.00  0.00     0.001 A 
ATOM     18  C   UNL A   1      31.493  25.594  26.186  1.00  0.00     0.010 A 
ENDBRANCH   8  12
BRANCH   9  19
ATOM     19  C   UNL A   1      31.733  24.804  22.808  1.00  0.00     0.182 C 
BRANCH  19  20
ATOM     20  C   UNL A   1      32.125  26.262  22.740  1.00  0.00    -0.021 A 
ATOM     21  C   UNL A   1      31.202  27.232  23.161  1.00  0.00     0.045 A 
ATOM     22  C   UNL A   1      33.374  26.697  22.266  1.00  0.00     0.045 A 
ATOM     23  C   UNL A   1      31.557  28.580  23.177  1.00  0.00     0.126 A 
ATOM     24  C   UNL A   1      33.718  28.046  22.328  1.00  0.00     0.126 A 
ATOM     25  F   UNL A   1      30.663  29.486  23.595  1.00  0.00    -0.207 F 
ATOM     26  C   UNL A   1      32.819  28.997  22.787  1.00  0.00     0.078 A 
ATOM     27  F   UNL A   1      34.951  28.423  21.969  1.00  0.00    -0.207 F 
ENDBRANCH  19  20
ENDBRANCH   9  19
ENDBRANCH   4   7
ENDBRANCH   2   3
ENDBRANCH   1   2
BRANCH   1  28
ATOM     28  C   UNL A   1      38.342  21.933  25.401  1.00  0.00     0.118 C 
BRANCH  28  29
ATOM     29  N   UNL A   1      39.586  21.782  26.152  1.00  0.00    -0.352 N 
ATOM     30  C   UNL A   1      40.366  22.772  26.743  1.00  0.00     0.251 C 
ATOM     31  H   UNL A   1      39.916  20.859  26.253  1.00  0.00     0.163 HD
ATOM     32  O   UNL A   1      41.397  22.500  27.320  1.00  0.00    -0.269 OA
BRANCH  30  33
ATOM     33  C   UNL A   1      39.824  24.156  26.770  1.00  0.00     0.039 A 
ATOM     34  C   UNL A   1      40.562  25.147  26.116  1.00  0.00     0.014 A 
ATOM     35  C   UNL A   1      38.867  24.495  27.716  1.00  0.00     0.014 A 
ATOM     36  C   UNL A   1      40.566  26.435  26.643  1.00  0.00     0.010 A 
ATOM     37  C   UNL A   1      38.997  25.716  28.340  1.00  0.00     0.010 A 
ATOM     38  C   UNL A   1      39.907  26.662  27.847  1.00  0.00    -0.014 A 
BRANCH  38  39
ATOM     39  C   UNL A   1      40.206  27.781  28.737  1.00  0.00     0.031 A 
ATOM     40  C   UNL A   1      39.319  28.965  28.753  1.00  0.00     0.074 A 
ATOM     41  C   UNL A   1      41.192  27.658  29.657  1.00  0.00     0.049 A 
ATOM     42  N   UNL A   1      39.602  30.078  29.337  1.00  0.00    -0.248 NA
ATOM     43  C   UNL A   1      38.051  29.013  28.033  1.00  0.00     0.031 C 
ATOM     44  C   UNL A   1      41.387  28.467  30.861  1.00  0.00     0.029 A 
ATOM     45  N   UNL A   1      42.356  26.869  29.583  1.00  0.00    -0.354 N 
ATOM     46  C   UNL A   1      38.467  30.857  29.340  1.00  0.00     0.074 A 
ATOM     47  C   UNL A   1      37.579  30.201  28.416  1.00  0.00     0.031 C 
ATOM     48  C   UNL A   1      42.669  28.378  31.245  1.00  0.00     0.029 A 
ATOM     49  C   UNL A   1      43.368  27.637  30.211  1.00  0.00     0.049 A 
ATOM     50  H   UNL A   1      42.447  25.976  29.180  1.00  0.00     0.167 HD
ATOM     51  C   UNL A   1      38.388  31.881  30.238  1.00  0.00     0.037 A 
ATOM     52  C   UNL A   1      44.448  28.106  29.522  1.00  0.00     0.037 A 
ATOM     53  C   UNL A   1      39.711  32.156  30.810  1.00  0.00     0.049 A 
ATOM     54  C   UNL A   1      44.590  29.611  29.545  1.00  0.00     0.074 A 
ATOM     55  C   UNL A   1      40.296  31.899  32.039  1.00  0.00     0.029 A 
ATOM     56  N   UNL A   1      40.746  32.539  29.958  1.00  0.00    -0.354 N 
ATOM     57  N   UNL A   1      43.618  30.427  29.842  1.00  0.00    -0.248 NA
ATOM     58  C   UNL A   1      45.823  30.314  29.201  1.00  0.00     0.031 C 
ATOM     59  C   UNL A   1      41.700  32.067  31.901  1.00  0.00     0.029 A 
ATOM     60  C   UNL A   1      41.966  32.452  30.598  1.00  0.00     0.049 A 
ATOM     61  H   UNL A   1      40.623  32.833  29.026  1.00  0.00     0.167 HD
ATOM     62  C   UNL A   1      44.047  31.722  29.705  1.00  0.00     0.074 A 
ATOM     63  C   UNL A   1      45.442  31.598  29.325  1.00  0.00     0.031 C 
ATOM     64  C   UNL A   1      43.203  32.780  29.899  1.00  0.00     0.037 A 
BRANCH  51  65
ATOM     65  C   UNL A   1      37.100  32.479  30.794  1.00  0.00     0.064 A 
ATOM     66  C   UNL A   1      36.325  33.358  29.999  1.00  0.00     0.173 A 
ATOM     67  C   UNL A   1      36.622  32.341  32.115  1.00  0.00     0.173 A 
ATOM     68  F   UNL A   1      36.603  33.560  28.705  1.00  0.00    -0.203 F 
ATOM     69  C   UNL A   1      35.237  34.083  30.504  1.00  0.00     0.198 A 
ATOM     70  C   UNL A   1      35.531  33.059  32.616  1.00  0.00     0.198 A 
ATOM     71  F   UNL A   1      37.173  31.509  32.998  1.00  0.00    -0.203 F 
ATOM     72  F   UNL A   1      34.577  34.934  29.705  1.00  0.00    -0.200 F 
ATOM     73  C   UNL A   1      34.848  33.944  31.818  1.00  0.00     0.200 A 
ATOM     74  F   UNL A   1      35.163  32.888  33.895  1.00  0.00    -0.200 F 
ATOM     75  F   UNL A   1      33.821  34.649  32.310  1.00  0.00    -0.200 F 
ENDBRANCH  51  65
BRANCH  52  76
ATOM     76  C   UNL A   1      44.840  27.229  28.388  1.00  0.00     0.064 A 
ATOM     77  C   UNL A   1      45.507  26.022  28.682  1.00  0.00     0.173 A 
ATOM     78  C   UNL A   1      44.236  27.345  27.132  1.00  0.00     0.173 A 
ATOM     79  F   UNL A   1      46.102  25.861  29.875  1.00  0.00    -0.203 F 
ATOM     80  C   UNL A   1      45.456  24.936  27.813  1.00  0.00     0.198 A 
ATOM     81  C   UNL A   1      44.201  26.258  26.255  1.00  0.00     0.198 A 
ATOM     82  F   UNL A   1      43.566  28.459  26.801  1.00  0.00    -0.203 F 
ATOM     83  F   UNL A   1      45.989  23.762  28.178  1.00  0.00    -0.200 F 
ATOM     84  C   UNL A   1      44.775  25.046  26.613  1.00  0.00     0.200 A 
ATOM     85  F   UNL A   1      43.512  26.348  25.110  1.00  0.00    -0.200 F 
ATOM     86  F   UNL A   1      44.626  23.971  25.825  1.00  0.00    -0.200 F 
ENDBRANCH  52  76
BRANCH  64  87
ATOM     87  C   UNL A   1      43.473  34.223  29.530  1.00  0.00     0.064 A 
ATOM     88  C   UNL A   1      43.538  34.705  28.212  1.00  0.00     0.173 A 
ATOM     89  C   UNL A   1      43.530  35.219  30.538  1.00  0.00     0.173 A 
ATOM     90  F   UNL A   1      43.370  33.892  27.160  1.00  0.00    -0.203 F 
ATOM     91  C   UNL A   1      43.712  36.063  27.924  1.00  0.00     0.198 A 
ATOM     92  C   UNL A   1      43.641  36.579  30.246  1.00  0.00     0.198 A 
ATOM     93  F   UNL A   1      43.447  34.906  31.839  1.00  0.00    -0.203 F 
ATOM     94  F   UNL A   1      43.811  36.463  26.648  1.00  0.00    -0.200 F 
ATOM     95  C   UNL A   1      43.751  37.000  28.939  1.00  0.00     0.200 A 
ATOM     96  F   UNL A   1      43.619  37.477  31.241  1.00  0.00    -0.200 F 
ATOM     97  F   UNL A   1      43.869  38.304  28.657  1.00  0.00    -0.200 F 
ENDBRANCH  64  87
ENDBRANCH  38  39
ENDBRANCH  30  33
ENDBRANCH  28  29
ENDBRANCH   1  28
TORSDOF 13
ENDMDL
MODEL 3
REMARK VINA RESULT:     -13.9      0.859      1.193
REMARK SMILES Cc1cccc(-c2c(C(=O)NCCCNC(=O)c3ccc(-c4c5nc(c(-c6c(F)c(F)c(F)c(F)c6F)c6ccc([nH]6)c(-c6c(F)c(F)c(F)c(F)c6F)c6nc(c(-c7c(F)c(F)c(F)c(F)c7F)c7ccc4[nH]7)C=C6)C=C5)cc3)nnn2Cc2cc(F)cc(F)c2)c1
REMARK SMILES IDX 13 1 12 2 11 3 9 4 10 5 8 7 7 8 83 9 81 10 82 11 6 12 1 13
REMARK SMILES IDX 2 14 3 15 93 16 4 17 5 18 84 19 85 20 86 21 92 22 87 23
REMARK SMILES IDX 90 24 88 25 89 26 91 27 14 28 15 29 16 30 17 32 18 33 19 34
REMARK SMILES IDX 80 35 20 36 79 37 21 38 22 39 23 40 73 41 24 42 78 43 72 44
REMARK SMILES IDX 74 45 25 46 77 47 71 48 70 49 26 51 58 52 38 53 57 54 39 55
REMARK SMILES IDX 42 56 56 57 75 58 40 59 41 60 55 62 76 63 43 64 27 65 28 66
REMARK SMILES IDX 36 67 29 68 30 69 34 70 37 71 31 72 32 73 35 74 33 75 59 76
REMARK SMILES IDX 60 77 68 78 61 79 62 80 66 81 69 82 63 83 64 84 67 85 65 86
REMARK SMILES IDX 44 87 45 88 53 89 46 90 47 91 51 92 54 93 48 94 49 95 52 96
REMARK SMILES IDX 50 97
REMARK H PARENT 11 6 15 31 74 50 42 61
REMARK Flexibility Score: inf
ROOT
ATOM      1  C   UNL A   1      32.897  30.649  27.062  1.00  0.00     0.042 C 
ENDROOT
BRANCH   1   2
ATOM      2  C   UNL A   1      32.116  29.589  26.305  1.00  0.00     0.118 C 
BRANCH   2   3
ATOM      3  N   UNL A   1      32.898  29.075  25.208  1.00  0.00    -0.351 N 
ATOM      4  C   UNL A   1      33.283  27.832  24.791  1.00  0.00     0.274 C 
ATOM      5  O   UNL A   1      34.027  27.874  23.801  1.00  0.00    -0.267 OA
ATOM      6  H   UNL A   1      33.234  29.790  24.619  1.00  0.00     0.163 HD
BRANCH   4   7
ATOM      7  C   UNL A   1      32.895  26.533  25.360  1.00  0.00     0.178 A 
ATOM      8  C   UNL A   1      33.385  25.222  25.417  1.00  0.00     0.102 A 
ATOM      9  N   UNL A   1      32.426  24.560  26.173  1.00  0.00    -0.239 N 
ATOM     10  N   UNL A   1      31.671  26.547  26.024  1.00  0.00    -0.124 NA
ATOM     11  N   UNL A   1      31.405  25.353  26.501  1.00  0.00    -0.066 NA
BRANCH   8  12
ATOM     12  C   UNL A   1      34.552  24.492  24.927  1.00  0.00     0.003 A 
ATOM     13  C   UNL A   1      38.020  23.431  26.140  1.00  0.00     0.044 C 
ATOM     14  C   UNL A   1      36.829  23.668  25.258  1.00  0.00    -0.050 A 
ATOM     15  C   UNL A   1      36.822  23.150  23.956  1.00  0.00     0.003 A 
ATOM     16  C   UNL A   1      35.691  24.342  25.736  1.00  0.00     0.013 A 
ATOM     17  C   UNL A   1      35.711  23.328  23.133  1.00  0.00     0.001 A 
ATOM     18  C   UNL A   1      34.590  24.008  23.611  1.00  0.00     0.010 A 
ENDBRANCH   8  12
BRANCH   9  19
ATOM     19  C   UNL A   1      32.383  23.170  26.618  1.00  0.00     0.182 C 
BRANCH  19  20
ATOM     20  C   UNL A   1      32.636  22.157  25.525  1.00  0.00    -0.021 A 
ATOM     21  C   UNL A   1      33.604  21.163  25.733  1.00  0.00     0.045 A 
ATOM     22  C   UNL A   1      31.948  22.167  24.300  1.00  0.00     0.045 A 
ATOM     23  C   UNL A   1      33.812  20.172  24.775  1.00  0.00     0.126 A 
ATOM     24  C   UNL A   1      32.146  21.144  23.375  1.00  0.00     0.126 A 
ATOM     25  F   UNL A   1      34.733  19.227  25.001  1.00  0.00    -0.207 F 
ATOM     26  C   UNL A   1      33.072  20.138  23.603  1.00  0.00     0.078 A 
ATOM     27  F   UNL A   1      31.403  21.117  22.262  1.00  0.00    -0.207 F 
ENDBRANCH  19  20
ENDBRANCH   9  19
ENDBRANCH   4   7
ENDBRANCH   2   3
ENDBRANCH   1   2
BRANCH   1  28
ATOM     28  C   UNL A   1      34.225  30.184  27.609  1.00  0.00     0.118 C 
BRANCH  28  29
ATOM     29  N   UNL A   1      35.053  31.234  28.196  1.00  0.00    -0.352 N 
ATOM     30  C   UNL A   1      36.340  31.132  28.717  1.00  0.00     0.251 C 
ATOM     31  H   UNL A   1      34.649  32.131  28.226  1.00  0.00     0.163 HD
ATOM     32  O   UNL A   1      36.903  32.093  29.198  1.00  0.00    -0.269 OA
BRANCH  30  33
ATOM     33  C   UNL A   1      37.060  29.843  28.536  1.00  0.00     0.039 A 
ATOM     34  C   UNL A   1      37.123  28.984  29.638  1.00  0.00     0.014 A 
ATOM     35  C   UNL A   1      37.940  29.697  27.473  1.00  0.00     0.014 A 
ATOM     36  C   UNL A   1      38.262  28.203  29.810  1.00  0.00     0.010 A 
ATOM     37  C   UNL A   1      39.135  29.060  27.722  1.00  0.00     0.010 A 
ATOM     38  C   UNL A   1      39.326  28.374  28.930  1.00  0.00    -0.014 A 
BRANCH  38  39
ATOM     39  C   UNL A   1      40.704  28.005  29.241  1.00  0.00     0.031 A 
ATOM     40  C   UNL A   1      41.262  26.738  28.721  1.00  0.00     0.074 A 
ATOM     41  C   UNL A   1      41.511  28.899  29.862  1.00  0.00     0.049 A 
ATOM     42  N   UNL A   1      42.380  26.223  29.102  1.00  0.00    -0.248 NA
ATOM     43  C   UNL A   1      40.552  25.895  27.764  1.00  0.00     0.031 C 
ATOM     44  C   UNL A   1      42.974  28.888  29.909  1.00  0.00     0.029 A 
ATOM     45  N   UNL A   1      41.147  29.923  30.756  1.00  0.00    -0.354 N 
ATOM     46  C   UNL A   1      42.682  25.184  28.252  1.00  0.00     0.074 A 
ATOM     47  C   UNL A   1      41.462  24.949  27.525  1.00  0.00     0.031 C 
ATOM     48  C   UNL A   1      43.382  29.611  30.963  1.00  0.00     0.029 A 
ATOM     49  C   UNL A   1      42.193  29.974  31.711  1.00  0.00     0.049 A 
ATOM     50  H   UNL A   1      40.338  30.483  30.725  1.00  0.00     0.167 HD
ATOM     51  C   UNL A   1      43.976  24.757  28.188  1.00  0.00     0.037 A 
ATOM     52  C   UNL A   1      41.984  29.669  33.025  1.00  0.00     0.037 A 
ATOM     53  C   UNL A   1      44.743  25.291  29.320  1.00  0.00     0.049 A 
ATOM     54  C   UNL A   1      42.830  28.524  33.535  1.00  0.00     0.074 A 
ATOM     55  C   UNL A   1      45.693  26.291  29.447  1.00  0.00     0.029 A 
ATOM     56  N   UNL A   1      44.347  24.961  30.615  1.00  0.00    -0.354 N 
ATOM     57  N   UNL A   1      43.415  27.653  32.762  1.00  0.00    -0.248 NA
ATOM     58  C   UNL A   1      43.052  28.250  34.952  1.00  0.00     0.031 C 
ATOM     59  C   UNL A   1      45.817  26.605  30.827  1.00  0.00     0.029 A 
ATOM     60  C   UNL A   1      44.963  25.780  31.539  1.00  0.00     0.049 A 
ATOM     61  H   UNL A   1      43.714  24.241  30.840  1.00  0.00     0.167 HD
ATOM     62  C   UNL A   1      44.045  26.707  33.529  1.00  0.00     0.074 A 
ATOM     63  C   UNL A   1      43.808  27.139  34.893  1.00  0.00     0.031 C 
ATOM     64  C   UNL A   1      44.688  25.641  32.965  1.00  0.00     0.037 A 
BRANCH  51  65
ATOM     65  C   UNL A   1      44.627  24.067  26.993  1.00  0.00     0.064 A 
ATOM     66  C   UNL A   1      44.337  22.710  26.713  1.00  0.00     0.173 A 
ATOM     67  C   UNL A   1      45.621  24.617  26.155  1.00  0.00     0.173 A 
ATOM     68  F   UNL A   1      43.378  22.049  27.374  1.00  0.00    -0.203 F 
ATOM     69  C   UNL A   1      45.031  21.965  25.750  1.00  0.00     0.198 A 
ATOM     70  C   UNL A   1      46.309  23.876  25.189  1.00  0.00     0.198 A 
ATOM     71  F   UNL A   1      45.987  25.897  26.216  1.00  0.00    -0.203 F 
ATOM     72  F   UNL A   1      44.735  20.669  25.572  1.00  0.00    -0.200 F 
ATOM     73  C   UNL A   1      46.028  22.545  24.997  1.00  0.00     0.200 A 
ATOM     74  F   UNL A   1      47.261  24.472  24.457  1.00  0.00    -0.200 F 
ATOM     75  F   UNL A   1      46.707  21.832  24.090  1.00  0.00    -0.200 F 
ENDBRANCH  51  65
BRANCH  52  76
ATOM     76  C   UNL A   1      40.606  29.982  33.482  1.00  0.00     0.064 A 
ATOM     77  C   UNL A   1      40.289  31.326  33.765  1.00  0.00     0.173 A 
ATOM     78  C   UNL A   1      39.543  29.100  33.257  1.00  0.00     0.173 A 
ATOM     79  F   UNL A   1      41.273  32.212  33.987  1.00  0.00    -0.203 F 
ATOM     80  C   UNL A   1      38.979  31.792  33.691  1.00  0.00     0.198 A 
ATOM     81  C   UNL A   1      38.228  29.569  33.202  1.00  0.00     0.198 A 
ATOM     82  F   UNL A   1      39.780  27.814  32.961  1.00  0.00    -0.203 F 
ATOM     83  F   UNL A   1      38.726  33.101  33.837  1.00  0.00    -0.200 F 
ATOM     84  C   UNL A   1      37.954  30.918  33.378  1.00  0.00     0.200 A 
ATOM     85  F   UNL A   1      37.238  28.733  32.862  1.00  0.00    -0.200 F 
ATOM     86  F   UNL A   1      36.708  31.381  33.195  1.00  0.00    -0.200 F 
ENDBRANCH  52  76
BRANCH  64  87
ATOM     87  C   UNL A   1      45.186  24.407  33.689  1.00  0.00     0.064 A 
ATOM     88  C   UNL A   1      44.415  23.255  33.914  1.00  0.00     0.173 A 
ATOM     89  C   UNL A   1      46.551  24.300  34.058  1.00  0.00     0.173 A 
ATOM     90  F   UNL A   1      43.143  23.172  33.500  1.00  0.00    -0.203 F 
ATOM     91  C   UNL A   1      44.946  22.111  34.519  1.00  0.00     0.198 A 
ATOM     92  C   UNL A   1      47.092  23.136  34.604  1.00  0.00     0.198 A 
ATOM     93  F   UNL A   1      47.411  25.311  33.870  1.00  0.00    -0.203 F 
ATOM     94  F   UNL A   1      44.154  21.055  34.750  1.00  0.00    -0.200 F 
ATOM     95  C   UNL A   1      46.285  22.047  34.852  1.00  0.00     0.200 A 
ATOM     96  F   UNL A   1      48.405  23.072  34.866  1.00  0.00    -0.200 F 
ATOM     97  F   UNL A   1      46.801  20.932  35.386  1.00  0.00    -0.200 F 
ENDBRANCH  64  87
ENDBRANCH  38  39
ENDBRANCH  30  33
ENDBRANCH  28  29
ENDBRANCH   1  28
TORSDOF 13
ENDMDL
