MODEL 1
REMARK VINA RESULT:     -12.4      0.000      0.000
REMARK SMILES CCc1ccc(-c2cc(Cl)cc3c2O[C@H](C(F)(F)F)C(C(=O)NCCCNC(=O)c2ccc(-c4c5nc(c(-c6c(F)c(F)c(F)c(F)c6F)c6ccc([nH]6)c(-c6c(F)c(F)c(F)c(F)c6F)c6nc(c(-c7c(F)c(F)c(F)c(F)c7F)c7ccc4[nH]7)C=C6)C=C5)cc2)=C3)cc1
REMARK SMILES IDX 25 1 24 2 23 3 21 4 22 5 20 7 7 8 8 9 13 10 9 11 12 12 14 13
REMARK SMILES IDX 10 14 11 15 93 16 15 17 6 18 3 19 4 20 95 21 5 22 94 23 2 24
REMARK SMILES IDX 1 25 16 26 17 27 18 28 19 29 26 30 27 31 28 32 29 34 30 35
REMARK SMILES IDX 31 36 92 37 32 38 91 39 33 40 34 41 35 42 85 43 36 44 90 45
REMARK SMILES IDX 84 46 86 47 37 48 89 49 83 50 82 51 38 53 70 54 50 55 69 56
REMARK SMILES IDX 51 57 54 58 68 59 87 60 52 61 53 62 67 64 88 65 55 66 39 67
REMARK SMILES IDX 40 68 48 69 41 70 42 71 46 72 49 73 43 74 44 75 47 76 45 77
REMARK SMILES IDX 71 78 72 79 80 80 73 81 74 82 78 83 81 84 75 85 76 86 79 87
REMARK SMILES IDX 77 88 56 89 57 90 65 91 58 92 59 93 63 94 66 95 60 96 61 97
REMARK SMILES IDX 64 98 62 99
REMARK H PARENT 23 6 27 33 86 52 54 63
REMARK Flexibility Score: inf
ROOT
ATOM      1  C   UNL A   1      38.184  18.926  25.693  1.00  0.00     0.042 C 
ENDROOT
BRANCH   1   2
ATOM      2  C   UNL A   1      37.288  19.313  24.515  1.00  0.00     0.118 C 
BRANCH   2   3
ATOM      3  N   UNL A   1      36.078  19.946  25.001  1.00  0.00    -0.352 N 
ATOM      4  C   UNL A   1      36.002  21.091  25.725  1.00  0.00     0.251 C 
ATOM      5  O   UNL A   1      35.209  21.173  26.656  1.00  0.00    -0.270 OA
ATOM      6  H   UNL A   1      35.227  19.501  24.784  1.00  0.00     0.163 HD
BRANCH   4   7
ATOM      7  C   UNL A   1      36.807  22.248  25.239  1.00  0.00     0.067 C 
ATOM      8  C   UNL A   1      33.835  24.994  24.840  1.00  0.00     0.026 A 
ATOM      9  C   UNL A   1      32.768  24.389  24.124  1.00  0.00     0.033 A 
ATOM     10  C   UNL A   1      35.063  24.313  24.825  1.00  0.00     0.135 A 
ATOM     11  C   UNL A   1      32.939  23.250  23.339  1.00  0.00     0.042 A 
ATOM     12  C   UNL A   1      35.243  23.224  23.934  1.00  0.00     0.019 A 
ATOM     13  O   UNL A   1      36.109  24.630  25.679  1.00  0.00    -0.475 OA
ATOM     14  Cl  UNL A   1      31.586  22.552  22.542  1.00  0.00    -0.084 Cl
ATOM     15  C   UNL A   1      34.193  22.695  23.190  1.00  0.00     0.032 A 
ATOM     16  C   UNL A   1      36.550  22.530  23.946  1.00  0.00     0.025 C 
ATOM     17  C   UNL A   1      36.847  23.441  26.184  1.00  0.00     0.314 C 
BRANCH   8  18
ATOM     18  C   UNL A   1      33.546  26.350  25.370  1.00  0.00    -0.015 A 
ATOM     19  C   UNL A   1      32.256  28.894  25.504  1.00  0.00    -0.048 A 
ATOM     20  C   UNL A   1      31.794  27.808  26.261  1.00  0.00     0.004 A 
ATOM     21  C   UNL A   1      33.452  28.730  24.796  1.00  0.00     0.004 A 
ATOM     22  C   UNL A   1      32.436  26.564  26.209  1.00  0.00     0.009 A 
ATOM     23  C   UNL A   1      34.092  27.478  24.735  1.00  0.00     0.009 A 
BRANCH  19  24
ATOM     24  C   UNL A   1      31.402  30.145  25.464  1.00  0.00     0.032 C 
ATOM     25  C   UNL A   1      31.680  31.228  26.501  1.00  0.00     0.009 C 
ENDBRANCH  19  24
ENDBRANCH   8  18
BRANCH  17  26
ATOM     26  C   UNL A   1      38.326  23.770  26.487  1.00  0.00     0.429 C 
ATOM     27  F   UNL A   1      38.524  24.179  27.761  1.00  0.00    -0.167 F 
ATOM     28  F   UNL A   1      39.120  22.693  26.272  1.00  0.00    -0.167 F 
ATOM     29  F   UNL A   1      38.812  24.758  25.689  1.00  0.00    -0.167 F 
ENDBRANCH  17  26
ENDBRANCH   4   7
ENDBRANCH   2   3
ENDBRANCH   1   2
BRANCH   1  30
ATOM     30  C   UNL A   1      39.495  19.705  25.777  1.00  0.00     0.118 C 
BRANCH  30  31
ATOM     31  N   UNL A   1      40.658  18.852  25.965  1.00  0.00    -0.352 N 
ATOM     32  C   UNL A   1      41.961  19.212  26.213  1.00  0.00     0.251 C 
ATOM     33  H   UNL A   1      40.488  17.885  25.908  1.00  0.00     0.163 HD
ATOM     34  O   UNL A   1      42.850  18.366  26.205  1.00  0.00    -0.269 OA
BRANCH  32  35
ATOM     35  C   UNL A   1      42.291  20.630  26.457  1.00  0.00     0.039 A 
ATOM     36  C   UNL A   1      42.324  21.100  27.772  1.00  0.00     0.014 A 
ATOM     37  C   UNL A   1      42.592  21.485  25.394  1.00  0.00     0.014 A 
ATOM     38  C   UNL A   1      42.731  22.412  28.026  1.00  0.00     0.010 A 
ATOM     39  C   UNL A   1      43.076  22.763  25.654  1.00  0.00     0.010 A 
ATOM     40  C   UNL A   1      43.148  23.241  26.972  1.00  0.00    -0.014 A 
BRANCH  40  41
ATOM     41  C   UNL A   1      43.650  24.618  27.220  1.00  0.00     0.031 A 
ATOM     42  C   UNL A   1      42.706  25.682  27.709  1.00  0.00     0.074 A 
ATOM     43  C   UNL A   1      44.931  24.927  26.939  1.00  0.00     0.049 A 
ATOM     44  N   UNL A   1      42.917  26.962  27.885  1.00  0.00    -0.248 NA
ATOM     45  C   UNL A   1      41.331  25.254  28.013  1.00  0.00     0.031 C 
ATOM     46  C   UNL A   1      45.934  23.996  26.423  1.00  0.00     0.029 A 
ATOM     47  N   UNL A   1      45.605  26.119  27.036  1.00  0.00    -0.354 N 
ATOM     48  C   UNL A   1      41.702  27.491  28.300  1.00  0.00     0.074 A 
ATOM     49  C   UNL A   1      40.743  26.407  28.293  1.00  0.00     0.031 C 
ATOM     50  C   UNL A   1      47.102  24.644  26.274  1.00  0.00     0.029 A 
ATOM     51  C   UNL A   1      46.919  26.045  26.639  1.00  0.00     0.049 A 
ATOM     52  H   UNL A   1      45.187  26.950  27.360  1.00  0.00     0.167 HD
ATOM     53  C   UNL A   1      41.417  28.757  28.684  1.00  0.00     0.037 A 
ATOM     54  C   UNL A   1      47.863  27.003  26.567  1.00  0.00     0.037 A 
ATOM     55  C   UNL A   1      42.380  29.827  28.716  1.00  0.00     0.049 A 
ATOM     56  C   UNL A   1      47.514  28.409  26.978  1.00  0.00     0.074 A 
ATOM     57  C   UNL A   1      42.202  31.137  29.125  1.00  0.00     0.029 A 
ATOM     58  N   UNL A   1      43.705  29.707  28.324  1.00  0.00    -0.354 N 
ATOM     59  N   UNL A   1      46.376  28.884  27.422  1.00  0.00    -0.248 NA
ATOM     60  C   UNL A   1      48.584  29.411  26.881  1.00  0.00     0.031 C 
ATOM     61  C   UNL A   1      43.408  31.819  28.941  1.00  0.00     0.029 A 
ATOM     62  C   UNL A   1      44.352  30.922  28.469  1.00  0.00     0.049 A 
ATOM     63  H   UNL A   1      44.122  28.879  27.991  1.00  0.00     0.167 HD
ATOM     64  C   UNL A   1      46.604  30.226  27.696  1.00  0.00     0.074 A 
ATOM     65  C   UNL A   1      47.991  30.488  27.376  1.00  0.00     0.031 C 
ATOM     66  C   UNL A   1      45.741  31.158  28.170  1.00  0.00     0.037 A 
BRANCH  53  67
ATOM     67  C   UNL A   1      40.008  29.054  29.110  1.00  0.00     0.064 A 
ATOM     68  C   UNL A   1      39.015  29.397  28.177  1.00  0.00     0.173 A 
ATOM     69  C   UNL A   1      39.634  28.961  30.459  1.00  0.00     0.173 A 
ATOM     70  F   UNL A   1      39.322  29.511  26.877  1.00  0.00    -0.203 F 
ATOM     71  C   UNL A   1      37.712  29.667  28.585  1.00  0.00     0.198 A 
ATOM     72  C   UNL A   1      38.321  29.199  30.857  1.00  0.00     0.198 A 
ATOM     73  F   UNL A   1      40.540  28.631  31.391  1.00  0.00    -0.203 F 
ATOM     74  F   UNL A   1      36.796  30.045  27.682  1.00  0.00    -0.200 F 
ATOM     75  C   UNL A   1      37.363  29.561  29.922  1.00  0.00     0.200 A 
ATOM     76  F   UNL A   1      37.983  29.082  32.150  1.00  0.00    -0.200 F 
ATOM     77  F   UNL A   1      36.106  29.812  30.311  1.00  0.00    -0.200 F 
ENDBRANCH  53  67
BRANCH  54  78
ATOM     78  C   UNL A   1      49.239  26.666  26.112  1.00  0.00     0.064 A 
ATOM     79  C   UNL A   1      50.194  26.177  27.015  1.00  0.00     0.173 A 
ATOM     80  C   UNL A   1      49.638  26.850  24.779  1.00  0.00     0.173 A 
ATOM     81  F   UNL A   1      49.868  26.003  28.304  1.00  0.00    -0.203 F 
ATOM     82  C   UNL A   1      51.501  25.912  26.610  1.00  0.00     0.198 A 
ATOM     83  C   UNL A   1      50.936  26.555  24.370  1.00  0.00     0.198 A 
ATOM     84  F   UNL A   1      48.763  27.312  23.874  1.00  0.00    -0.203 F 
ATOM     85  F   UNL A   1      52.406  25.499  27.507  1.00  0.00    -0.200 F 
ATOM     86  C   UNL A   1      51.870  26.098  25.287  1.00  0.00     0.200 A 
ATOM     87  F   UNL A   1      51.286  26.722  23.086  1.00  0.00    -0.200 F 
ATOM     88  F   UNL A   1      53.127  25.844  24.898  1.00  0.00    -0.200 F 
ENDBRANCH  54  78
BRANCH  66  89
ATOM     89  C   UNL A   1      46.284  32.534  28.431  1.00  0.00     0.064 A 
ATOM     90  C   UNL A   1      46.252  33.540  27.455  1.00  0.00     0.173 A 
ATOM     91  C   UNL A   1      46.798  32.861  29.695  1.00  0.00     0.173 A 
ATOM     92  F   UNL A   1      45.785  33.274  26.226  1.00  0.00    -0.203 F 
ATOM     93  C   UNL A   1      46.737  34.816  27.727  1.00  0.00     0.198 A 
ATOM     94  C   UNL A   1      47.252  34.146  29.974  1.00  0.00     0.198 A 
ATOM     95  F   UNL A   1      46.843  31.936  30.666  1.00  0.00    -0.203 F 
ATOM     96  F   UNL A   1      46.741  35.749  26.765  1.00  0.00    -0.200 F 
ATOM     97  C   UNL A   1      47.229  35.121  28.989  1.00  0.00     0.200 A 
ATOM     98  F   UNL A   1      47.711  34.442  31.198  1.00  0.00    -0.200 F 
ATOM     99  F   UNL A   1      47.684  36.353  29.252  1.00  0.00    -0.200 F 
ENDBRANCH  66  89
ENDBRANCH  40  41
ENDBRANCH  32  35
ENDBRANCH  30  31
ENDBRANCH   1  30
TORSDOF 13
ENDMDL
MODEL 2
REMARK VINA RESULT:     -12.4      3.761      8.364
REMARK SMILES CCc1ccc(-c2cc(Cl)cc3c2O[C@H](C(F)(F)F)C(C(=O)NCCCNC(=O)c2ccc(-c4c5nc(c(-c6c(F)c(F)c(F)c(F)c6F)c6ccc([nH]6)c(-c6c(F)c(F)c(F)c(F)c6F)c6nc(c(-c7c(F)c(F)c(F)c(F)c7F)c7ccc4[nH]7)C=C6)C=C5)cc2)=C3)cc1
REMARK SMILES IDX 25 1 24 2 23 3 21 4 22 5 20 7 7 8 8 9 13 10 9 11 12 12 14 13
REMARK SMILES IDX 10 14 11 15 93 16 15 17 6 18 3 19 4 20 95 21 5 22 94 23 2 24
REMARK SMILES IDX 1 25 16 26 17 27 18 28 19 29 26 30 27 31 28 32 29 34 30 35
REMARK SMILES IDX 31 36 92 37 32 38 91 39 33 40 34 41 35 42 85 43 36 44 90 45
REMARK SMILES IDX 84 46 86 47 37 48 89 49 83 50 82 51 38 53 70 54 50 55 69 56
REMARK SMILES IDX 51 57 54 58 68 59 87 60 52 61 53 62 67 64 88 65 55 66 39 67
REMARK SMILES IDX 40 68 48 69 41 70 42 71 46 72 49 73 43 74 44 75 47 76 45 77
REMARK SMILES IDX 71 78 72 79 80 80 73 81 74 82 78 83 81 84 75 85 76 86 79 87
REMARK SMILES IDX 77 88 56 89 57 90 65 91 58 92 59 93 63 94 66 95 60 96 61 97
REMARK SMILES IDX 64 98 62 99
REMARK H PARENT 23 6 27 33 86 52 54 63
REMARK Flexibility Score: inf
ROOT
ATOM      1  C   UNL A   1      34.066  28.724  25.580  1.00  0.00     0.042 C 
ENDROOT
BRANCH   1   2
ATOM      2  C   UNL A   1      33.632  27.427  24.893  1.00  0.00     0.118 C 
BRANCH   2   3
ATOM      3  N   UNL A   1      34.305  26.296  25.499  1.00  0.00    -0.352 N 
ATOM      4  C   UNL A   1      33.884  25.007  25.488  1.00  0.00     0.251 C 
ATOM      5  O   UNL A   1      33.995  24.319  26.496  1.00  0.00    -0.270 OA
ATOM      6  H   UNL A   1      35.152  26.482  25.965  1.00  0.00     0.163 HD
BRANCH   4   7
ATOM      7  C   UNL A   1      33.433  24.458  24.176  1.00  0.00     0.067 C 
ATOM      8  C   UNL A   1      34.654  20.606  24.623  1.00  0.00     0.026 A 
ATOM      9  C   UNL A   1      35.999  20.618  25.079  1.00  0.00     0.033 A 
ATOM     10  C   UNL A   1      34.150  21.819  24.129  1.00  0.00     0.135 A 
ATOM     11  C   UNL A   1      36.831  21.728  24.938  1.00  0.00     0.042 A 
ATOM     12  C   UNL A   1      35.041  22.897  23.892  1.00  0.00     0.019 A 
ATOM     13  O   UNL A   1      32.800  22.034  23.897  1.00  0.00    -0.475 OA
ATOM     14  Cl  UNL A   1      38.432  21.679  25.560  1.00  0.00    -0.084 Cl
ATOM     15  C   UNL A   1      36.375  22.856  24.288  1.00  0.00     0.032 A 
ATOM     16  C   UNL A   1      34.474  24.162  23.373  1.00  0.00     0.025 C 
ATOM     17  C   UNL A   1      32.342  23.401  24.266  1.00  0.00     0.314 C 
BRANCH   8  18
ATOM     18  C   UNL A   1      34.020  19.265  24.579  1.00  0.00    -0.015 A 
ATOM     19  C   UNL A   1      33.320  16.662  25.520  1.00  0.00    -0.048 A 
ATOM     20  C   UNL A   1      32.468  17.757  25.722  1.00  0.00     0.004 A 
ATOM     21  C   UNL A   1      34.450  16.856  24.719  1.00  0.00     0.004 A 
ATOM     22  C   UNL A   1      32.803  19.032  25.246  1.00  0.00     0.009 A 
ATOM     23  C   UNL A   1      34.792  18.138  24.248  1.00  0.00     0.009 A 
BRANCH  19  24
ATOM     24  C   UNL A   1      32.985  15.363  26.226  1.00  0.00     0.032 C 
ATOM     25  C   UNL A   1      32.527  14.187  25.371  1.00  0.00     0.009 C 
ENDBRANCH  19  24
ENDBRANCH   8  18
BRANCH  17  26
ATOM     26  C   UNL A   1      31.149  23.860  23.398  1.00  0.00     0.429 C 
ATOM     27  F   UNL A   1      30.559  22.842  22.733  1.00  0.00    -0.167 F 
ATOM     28  F   UNL A   1      30.200  24.465  24.152  1.00  0.00    -0.167 F 
ATOM     29  F   UNL A   1      31.514  24.772  22.456  1.00  0.00    -0.167 F 
ENDBRANCH  17  26
ENDBRANCH   4   7
ENDBRANCH   2   3
ENDBRANCH   1   2
BRANCH   1  30
ATOM     30  C   UNL A   1      33.902  28.724  27.098  1.00  0.00     0.118 C 
BRANCH  30  31
ATOM     31  N   UNL A   1      33.808  30.061  27.664  1.00  0.00    -0.352 N 
ATOM     32  C   UNL A   1      34.735  30.749  28.410  1.00  0.00     0.251 C 
ATOM     33  H   UNL A   1      32.966  30.538  27.488  1.00  0.00     0.163 HD
ATOM     34  O   UNL A   1      34.439  31.820  28.932  1.00  0.00    -0.269 OA
BRANCH  32  35
ATOM     35  C   UNL A   1      36.081  30.177  28.606  1.00  0.00     0.039 A 
ATOM     36  C   UNL A   1      37.038  30.337  27.601  1.00  0.00     0.014 A 
ATOM     37  C   UNL A   1      36.406  29.509  29.789  1.00  0.00     0.014 A 
ATOM     38  C   UNL A   1      38.343  29.889  27.814  1.00  0.00     0.010 A 
ATOM     39  C   UNL A   1      37.724  29.139  30.032  1.00  0.00     0.010 A 
ATOM     40  C   UNL A   1      38.707  29.322  29.046  1.00  0.00    -0.014 A 
BRANCH  40  41
ATOM     41  C   UNL A   1      40.104  28.899  29.324  1.00  0.00     0.031 A 
ATOM     42  C   UNL A   1      41.033  29.823  30.065  1.00  0.00     0.074 A 
ATOM     43  C   UNL A   1      40.557  27.721  28.851  1.00  0.00     0.049 A 
ATOM     44  N   UNL A   1      42.310  29.690  30.315  1.00  0.00    -0.248 NA
ATOM     45  C   UNL A   1      40.452  31.079  30.566  1.00  0.00     0.031 C 
ATOM     46  C   UNL A   1      39.768  26.756  28.086  1.00  0.00     0.029 A 
ATOM     47  N   UNL A   1      41.799  27.142  28.935  1.00  0.00    -0.354 N 
ATOM     48  C   UNL A   1      42.686  30.847  30.983  1.00  0.00     0.074 A 
ATOM     49  C   UNL A   1      41.518  31.698  31.046  1.00  0.00     0.031 C 
ATOM     50  C   UNL A   1      40.536  25.694  27.792  1.00  0.00     0.029 A 
ATOM     51  C   UNL A   1      41.882  25.921  28.308  1.00  0.00     0.049 A 
ATOM     52  H   UNL A   1      42.559  27.561  29.400  1.00  0.00     0.167 HD
ATOM     53  C   UNL A   1      43.888  31.161  31.522  1.00  0.00     0.037 A 
ATOM     54  C   UNL A   1      42.930  25.089  28.158  1.00  0.00     0.037 A 
ATOM     55  C   UNL A   1      45.040  30.301  31.481  1.00  0.00     0.049 A 
ATOM     56  C   UNL A   1      44.261  25.472  28.748  1.00  0.00     0.074 A 
ATOM     57  C   UNL A   1      46.293  30.508  32.031  1.00  0.00     0.029 A 
ATOM     58  N   UNL A   1      45.079  29.064  30.853  1.00  0.00    -0.354 N 
ATOM     59  N   UNL A   1      44.589  26.544  29.426  1.00  0.00    -0.248 NA
ATOM     60  C   UNL A   1      45.368  24.524  28.555  1.00  0.00     0.031 C 
ATOM     61  C   UNL A   1      47.102  29.416  31.700  1.00  0.00     0.029 A 
ATOM     62  C   UNL A   1      46.338  28.504  30.991  1.00  0.00     0.049 A 
ATOM     63  H   UNL A   1      44.323  28.648  30.379  1.00  0.00     0.167 HD
ATOM     64  C   UNL A   1      45.924  26.382  29.775  1.00  0.00     0.074 A 
ATOM     65  C   UNL A   1      46.342  25.104  29.241  1.00  0.00     0.031 C 
ATOM     66  C   UNL A   1      46.730  27.217  30.475  1.00  0.00     0.037 A 
BRANCH  53  67
ATOM     67  C   UNL A   1      44.013  32.488  32.214  1.00  0.00     0.064 A 
ATOM     68  C   UNL A   1      44.412  33.643  31.522  1.00  0.00     0.173 A 
ATOM     69  C   UNL A   1      43.699  32.617  33.575  1.00  0.00     0.173 A 
ATOM     70  F   UNL A   1      44.735  33.572  30.222  1.00  0.00    -0.203 F 
ATOM     71  C   UNL A   1      44.522  34.868  32.174  1.00  0.00     0.198 A 
ATOM     72  C   UNL A   1      43.778  33.851  34.216  1.00  0.00     0.198 A 
ATOM     73  F   UNL A   1      43.307  31.548  34.285  1.00  0.00    -0.203 F 
ATOM     74  F   UNL A   1      44.957  35.944  31.503  1.00  0.00    -0.200 F 
ATOM     75  C   UNL A   1      44.198  34.974  33.517  1.00  0.00     0.200 A 
ATOM     76  F   UNL A   1      43.452  33.955  35.512  1.00  0.00    -0.200 F 
ATOM     77  F   UNL A   1      44.297  36.155  34.141  1.00  0.00    -0.200 F 
ENDBRANCH  53  67
BRANCH  54  78
ATOM     78  C   UNL A   1      42.763  23.796  27.440  1.00  0.00     0.064 A 
ATOM     79  C   UNL A   1      43.099  23.681  26.083  1.00  0.00     0.173 A 
ATOM     80  C   UNL A   1      42.243  22.662  28.081  1.00  0.00     0.173 A 
ATOM     81  F   UNL A   1      43.580  24.742  25.420  1.00  0.00    -0.203 F 
ATOM     82  C   UNL A   1      42.895  22.490  25.388  1.00  0.00     0.198 A 
ATOM     83  C   UNL A   1      42.069  21.463  27.392  1.00  0.00     0.198 A 
ATOM     84  F   UNL A   1      41.910  22.717  29.379  1.00  0.00    -0.203 F 
ATOM     85  F   UNL A   1      43.172  22.426  24.079  1.00  0.00    -0.200 F 
ATOM     86  C   UNL A   1      42.383  21.381  26.044  1.00  0.00     0.200 A 
ATOM     87  F   UNL A   1      41.588  20.388  28.033  1.00  0.00    -0.200 F 
ATOM     88  F   UNL A   1      42.185  20.237  25.376  1.00  0.00    -0.200 F 
ENDBRANCH  54  78
BRANCH  66  89
ATOM     89  C   UNL A   1      48.129  26.752  30.759  1.00  0.00     0.064 A 
ATOM     90  C   UNL A   1      48.432  25.956  31.873  1.00  0.00     0.173 A 
ATOM     91  C   UNL A   1      49.171  27.069  29.874  1.00  0.00     0.173 A 
ATOM     92  F   UNL A   1      47.475  25.638  32.757  1.00  0.00    -0.203 F 
ATOM     93  C   UNL A   1      49.733  25.515  32.104  1.00  0.00     0.198 A 
ATOM     94  C   UNL A   1      50.463  26.600  30.091  1.00  0.00     0.198 A 
ATOM     95  F   UNL A   1      48.932  27.822  28.790  1.00  0.00    -0.203 F 
ATOM     96  F   UNL A   1      50.010  24.795  33.199  1.00  0.00    -0.200 F 
ATOM     97  C   UNL A   1      50.745  25.830  31.208  1.00  0.00     0.200 A 
ATOM     98  F   UNL A   1      51.435  26.892  29.215  1.00  0.00    -0.200 F 
ATOM     99  F   UNL A   1      51.993  25.395  31.426  1.00  0.00    -0.200 F 
ENDBRANCH  66  89
ENDBRANCH  40  41
ENDBRANCH  32  35
ENDBRANCH  30  31
ENDBRANCH   1  30
TORSDOF 13
ENDMDL
MODEL 3
REMARK VINA RESULT:     -12.4      0.403      7.116
REMARK SMILES CCc1ccc(-c2cc(Cl)cc3c2O[C@H](C(F)(F)F)C(C(=O)NCCCNC(=O)c2ccc(-c4c5nc(c(-c6c(F)c(F)c(F)c(F)c6F)c6ccc([nH]6)c(-c6c(F)c(F)c(F)c(F)c6F)c6nc(c(-c7c(F)c(F)c(F)c(F)c7F)c7ccc4[nH]7)C=C6)C=C5)cc2)=C3)cc1
REMARK SMILES IDX 25 1 24 2 23 3 21 4 22 5 20 7 7 8 8 9 13 10 9 11 12 12 14 13
REMARK SMILES IDX 10 14 11 15 93 16 15 17 6 18 3 19 4 20 95 21 5 22 94 23 2 24
REMARK SMILES IDX 1 25 16 26 17 27 18 28 19 29 26 30 27 31 28 32 29 34 30 35
REMARK SMILES IDX 31 36 92 37 32 38 91 39 33 40 34 41 35 42 85 43 36 44 90 45
REMARK SMILES IDX 84 46 86 47 37 48 89 49 83 50 82 51 38 53 70 54 50 55 69 56
REMARK SMILES IDX 51 57 54 58 68 59 87 60 52 61 53 62 67 64 88 65 55 66 39 67
REMARK SMILES IDX 40 68 48 69 41 70 42 71 46 72 49 73 43 74 44 75 47 76 45 77
REMARK SMILES IDX 71 78 72 79 80 80 73 81 74 82 78 83 81 84 75 85 76 86 79 87
REMARK SMILES IDX 77 88 56 89 57 90 65 91 58 92 59 93 63 94 66 95 60 96 61 97
REMARK SMILES IDX 64 98 62 99
REMARK H PARENT 23 6 27 33 86 52 54 63
REMARK Flexibility Score: inf
ROOT
ATOM      1  C   UNL A   1      38.484  19.169  25.824  1.00  0.00     0.042 C 
ENDROOT
BRANCH   1   2
ATOM      2  C   UNL A   1      37.633  19.359  24.567  1.00  0.00     0.118 C 
BRANCH   2   3
ATOM      3  N   UNL A   1      36.344  19.918  24.922  1.00  0.00    -0.352 N 
ATOM      4  C   UNL A   1      36.126  21.067  25.611  1.00  0.00     0.251 C 
ATOM      5  O   UNL A   1      35.243  21.111  26.460  1.00  0.00    -0.270 OA
ATOM      6  H   UNL A   1      35.548  19.415  24.636  1.00  0.00     0.163 HD
BRANCH   4   7
ATOM      7  C   UNL A   1      36.898  22.267  25.179  1.00  0.00     0.067 C 
ATOM      8  C   UNL A   1      33.846  24.934  24.863  1.00  0.00     0.026 A 
ATOM      9  C   UNL A   1      32.804  24.326  24.114  1.00  0.00     0.033 A 
ATOM     10  C   UNL A   1      35.094  24.293  24.832  1.00  0.00     0.135 A 
ATOM     11  C   UNL A   1      33.016  23.225  23.285  1.00  0.00     0.042 A 
ATOM     12  C   UNL A   1      35.315  23.246  23.899  1.00  0.00     0.019 A 
ATOM     13  O   UNL A   1      36.123  24.607  25.707  1.00  0.00    -0.475 OA
ATOM     14  Cl  UNL A   1      31.692  22.518  22.448  1.00  0.00    -0.084 Cl
ATOM     15  C   UNL A   1      34.288  22.715  23.126  1.00  0.00     0.032 A 
ATOM     16  C   UNL A   1      36.643  22.593  23.896  1.00  0.00     0.025 C 
ATOM     17  C   UNL A   1      36.894  23.422  26.171  1.00  0.00     0.314 C 
BRANCH   8  18
ATOM     18  C   UNL A   1      33.510  26.258  25.443  1.00  0.00    -0.015 A 
ATOM     19  C   UNL A   1      32.235  28.808  25.596  1.00  0.00    -0.048 A 
ATOM     20  C   UNL A   1      31.681  27.684  26.224  1.00  0.00     0.004 A 
ATOM     21  C   UNL A   1      33.503  28.671  25.018  1.00  0.00     0.004 A 
ATOM     22  C   UNL A   1      32.314  26.436  26.164  1.00  0.00     0.009 A 
ATOM     23  C   UNL A   1      34.134  27.415  24.949  1.00  0.00     0.009 A 
BRANCH  19  24
ATOM     24  C   UNL A   1      31.403  30.073  25.542  1.00  0.00     0.032 C 
ATOM     25  C   UNL A   1      31.763  31.202  26.501  1.00  0.00     0.009 C 
ENDBRANCH  19  24
ENDBRANCH   8  18
BRANCH  17  26
ATOM     26  C   UNL A   1      38.359  23.783  26.501  1.00  0.00     0.429 C 
ATOM     27  F   UNL A   1      39.214  22.756  26.297  1.00  0.00    -0.167 F 
ATOM     28  F   UNL A   1      38.786  24.828  25.751  1.00  0.00    -0.167 F 
ATOM     29  F   UNL A   1      38.521  24.163  27.797  1.00  0.00    -0.167 F 
ENDBRANCH  17  26
ENDBRANCH   4   7
ENDBRANCH   2   3
ENDBRANCH   1   2
BRANCH   1  30
ATOM     30  C   UNL A   1      39.875  19.794  25.751  1.00  0.00     0.118 C 
BRANCH  30  31
ATOM     31  N   UNL A   1      40.948  18.828  25.926  1.00  0.00    -0.352 N 
ATOM     32  C   UNL A   1      42.283  19.054  26.163  1.00  0.00     0.251 C 
ATOM     33  H   UNL A   1      40.682  17.883  25.867  1.00  0.00     0.163 HD
ATOM     34  O   UNL A   1      43.082  18.123  26.145  1.00  0.00    -0.269 OA
BRANCH  32  35
ATOM     35  C   UNL A   1      42.756  20.431  26.409  1.00  0.00     0.039 A 
ATOM     36  C   UNL A   1      43.285  21.164  25.344  1.00  0.00     0.014 A 
ATOM     37  C   UNL A   1      42.653  21.004  27.678  1.00  0.00     0.014 A 
ATOM     38  C   UNL A   1      43.645  22.500  25.538  1.00  0.00     0.010 A 
ATOM     39  C   UNL A   1      42.933  22.356  27.848  1.00  0.00     0.010 A 
ATOM     40  C   UNL A   1      43.434  23.118  26.781  1.00  0.00    -0.014 A 
BRANCH  40  41
ATOM     41  C   UNL A   1      43.743  24.555  26.996  1.00  0.00     0.031 A 
ATOM     42  C   UNL A   1      45.131  25.071  26.725  1.00  0.00     0.074 A 
ATOM     43  C   UNL A   1      42.802  25.378  27.499  1.00  0.00     0.049 A 
ATOM     44  N   UNL A   1      45.633  26.259  26.948  1.00  0.00    -0.248 NA
ATOM     45  C   UNL A   1      46.091  24.111  26.156  1.00  0.00     0.031 C 
ATOM     46  C   UNL A   1      41.433  24.992  27.839  1.00  0.00     0.029 A 
ATOM     47  N   UNL A   1      42.861  26.711  27.824  1.00  0.00    -0.354 N 
ATOM     48  C   UNL A   1      46.965  26.183  26.563  1.00  0.00     0.074 A 
ATOM     49  C   UNL A   1      47.210  24.818  26.151  1.00  0.00     0.031 C 
ATOM     50  C   UNL A   1      40.774  26.067  28.301  1.00  0.00     0.029 A 
ATOM     51  C   UNL A   1      41.684  27.207  28.332  1.00  0.00     0.049 A 
ATOM     52  H   UNL A   1      43.669  27.260  27.705  1.00  0.00     0.167 HD
ATOM     53  C   UNL A   1      47.892  27.168  26.528  1.00  0.00     0.037 A 
ATOM     54  C   UNL A   1      41.380  28.440  28.782  1.00  0.00     0.037 A 
ATOM     55  C   UNL A   1      47.638  28.531  26.913  1.00  0.00     0.049 A 
ATOM     56  C   UNL A   1      42.438  29.512  28.752  1.00  0.00     0.074 A 
ATOM     57  C   UNL A   1      48.499  29.614  26.876  1.00  0.00     0.029 A 
ATOM     58  N   UNL A   1      46.428  28.999  27.404  1.00  0.00    -0.354 N 
ATOM     59  N   UNL A   1      43.678  29.442  28.335  1.00  0.00    -0.248 NA
ATOM     60  C   UNL A   1      42.049  30.838  29.254  1.00  0.00     0.031 C 
ATOM     61  C   UNL A   1      47.822  30.727  27.385  1.00  0.00     0.029 A 
ATOM     62  C   UNL A   1      46.524  30.351  27.687  1.00  0.00     0.049 A 
ATOM     63  H   UNL A   1      45.621  28.449  27.532  1.00  0.00     0.167 HD
ATOM     64  C   UNL A   1      44.204  30.718  28.483  1.00  0.00     0.074 A 
ATOM     65  C   UNL A   1      43.145  31.545  29.022  1.00  0.00     0.031 C 
ATOM     66  C   UNL A   1      45.451  31.165  28.199  1.00  0.00     0.037 A 
BRANCH  53  67
ATOM     67  C   UNL A   1      49.269  26.809  26.044  1.00  0.00     0.064 A 
ATOM     68  C   UNL A   1      49.647  26.990  24.704  1.00  0.00     0.173 A 
ATOM     69  C   UNL A   1      50.232  26.312  26.935  1.00  0.00     0.173 A 
ATOM     70  F   UNL A   1      48.761  27.451  23.809  1.00  0.00    -0.203 F 
ATOM     71  C   UNL A   1      50.926  26.656  24.269  1.00  0.00     0.198 A 
ATOM     72  C   UNL A   1      51.521  26.011  26.502  1.00  0.00     0.198 A 
ATOM     73  F   UNL A   1      49.927  26.125  28.228  1.00  0.00    -0.203 F 
ATOM     74  F   UNL A   1      51.246  26.787  22.974  1.00  0.00    -0.200 F 
ATOM     75  C   UNL A   1      51.864  26.174  25.168  1.00  0.00     0.200 A 
ATOM     76  F   UNL A   1      52.431  25.558  27.376  1.00  0.00    -0.200 F 
ATOM     77  F   UNL A   1      53.099  25.861  24.749  1.00  0.00    -0.200 F 
ENDBRANCH  53  67
BRANCH  54  78
ATOM     78  C   UNL A   1      40.010  28.741  29.277  1.00  0.00     0.064 A 
ATOM     79  C   UNL A   1      39.676  28.550  30.626  1.00  0.00     0.173 A 
ATOM     80  C   UNL A   1      39.001  29.197  28.415  1.00  0.00     0.173 A 
ATOM     81  F   UNL A   1      40.600  28.095  31.486  1.00  0.00    -0.203 F 
ATOM     82  C   UNL A   1      38.381  28.776  31.088  1.00  0.00     0.198 A 
ATOM     83  C   UNL A   1      37.715  29.452  28.885  1.00  0.00     0.198 A 
ATOM     84  F   UNL A   1      39.268  29.400  27.117  1.00  0.00    -0.203 F 
ATOM     85  F   UNL A   1      38.078  28.531  32.369  1.00  0.00    -0.200 F 
ATOM     86  C   UNL A   1      37.402  29.230  30.218  1.00  0.00     0.200 A 
ATOM     87  F   UNL A   1      36.774  29.906  28.045  1.00  0.00    -0.200 F 
ATOM     88  F   UNL A   1      36.157  29.446  30.662  1.00  0.00    -0.200 F 
ENDBRANCH  54  78
BRANCH  66  89
ATOM     89  C   UNL A   1      45.727  32.627  28.405  1.00  0.00     0.064 A 
ATOM     90  C   UNL A   1      46.257  33.118  29.607  1.00  0.00     0.173 A 
ATOM     91  C   UNL A   1      45.502  33.541  27.364  1.00  0.00     0.173 A 
ATOM     92  F   UNL A   1      46.475  32.287  30.638  1.00  0.00    -0.203 F 
ATOM     93  C   UNL A   1      46.528  34.474  29.768  1.00  0.00     0.198 A 
ATOM     94  C   UNL A   1      45.804  34.890  27.517  1.00  0.00     0.198 A 
ATOM     95  F   UNL A   1      45.003  33.120  26.192  1.00  0.00    -0.203 F 
ATOM     96  F   UNL A   1      46.990  34.929  30.941  1.00  0.00    -0.200 F 
ATOM     97  C   UNL A   1      46.310  35.357  28.720  1.00  0.00     0.200 A 
ATOM     98  F   UNL A   1      45.608  35.738  26.498  1.00  0.00    -0.200 F 
ATOM     99  F   UNL A   1      46.583  36.660  28.873  1.00  0.00    -0.200 F 
ENDBRANCH  66  89
ENDBRANCH  40  41
ENDBRANCH  32  35
ENDBRANCH  30  31
ENDBRANCH   1  30
TORSDOF 13
ENDMDL
