MODEL 1
REMARK VINA RESULT:     -13.0      0.000      0.000
REMARK SMILES NC(=O)CC[C@@H](C(=O)NCCCNC(=O)c1ccc(-c2c3nc(c(-c4c(F)c(F)c(F)c(F)c4F)c4ccc([nH]4)c(-c4c(F)c(F)c(F)c(F)c4F)c4nc(c(-c5c(F)c(F)c(F)c(F)c5F)c5ccc2[nH]5)C=C4)C=C3)cc1)N1C(=O)/C(=C/c2ccc(C=O)cc2)SC1=S
REMARK SMILES IDX 10 1 9 2 7 3 8 4 6 6 5 7 4 8 2 9 1 10 3 13 79 14 80 15 93 16
REMARK SMILES IDX 81 17 82 18 92 19 94 20 83 21 84 22 85 23 91 24 86 25 90 26
REMARK SMILES IDX 87 27 88 28 89 29 11 30 12 31 13 32 14 33 15 35 16 36 17 37
REMARK SMILES IDX 78 38 18 39 77 40 19 41 20 42 21 43 71 44 22 45 76 46 70 47
REMARK SMILES IDX 72 48 23 49 75 50 69 51 68 52 24 54 56 55 36 56 55 57 37 58
REMARK SMILES IDX 40 59 54 60 73 61 38 62 39 63 53 65 74 66 41 67 25 68 26 69
REMARK SMILES IDX 34 70 27 71 28 72 32 73 35 74 29 75 30 76 33 77 31 78 57 79
REMARK SMILES IDX 58 80 66 81 59 82 60 83 64 84 67 85 61 86 62 87 65 88 63 89
REMARK SMILES IDX 42 90 43 91 51 92 44 93 45 94 49 95 52 96 46 97 47 98 50 99
REMARK SMILES IDX 48 100
REMARK H PARENT 9 5 1 11 1 12 13 34 72 53 40 64
REMARK Flexibility Score: inf
ROOT
ATOM      1  C   UNL A   1      31.372  30.823  26.272  1.00  0.00     0.117 C 
ENDROOT
BRANCH   1   2
ATOM      2  N   UNL A   1      32.729  30.300  26.282  1.00  0.00    -0.354 N 
ATOM      3  C   UNL A   1      33.297  29.272  25.583  1.00  0.00     0.243 C 
ATOM      4  O   UNL A   1      34.432  28.927  25.922  1.00  0.00    -0.273 OA
ATOM      5  H   UNL A   1      33.341  30.764  26.896  1.00  0.00     0.163 HD
BRANCH   3   6
ATOM      6  C   UNL A   1      32.574  28.634  24.367  1.00  0.00     0.181 C 
BRANCH   6   7
ATOM      7  C   UNL A   1      31.145  29.159  24.100  1.00  0.00     0.045 C 
BRANCH   7   8
ATOM      8  C   UNL A   1      30.224  28.553  23.057  1.00  0.00     0.102 C 
BRANCH   8   9
ATOM      9  C   UNL A   1      29.529  29.423  22.034  1.00  0.00     0.217 C 
ATOM     10  N   UNL A   1      30.235  30.363  21.361  1.00  0.00    -0.370 N 
ATOM     11  H   UNL A   1      29.787  30.931  20.694  1.00  0.00     0.159 HD
ATOM     12  H   UNL A   1      31.196  30.478  21.539  1.00  0.00     0.159 HD
ATOM     13  O   UNL A   1      28.313  29.365  21.868  1.00  0.00    -0.275 OA
ENDBRANCH   8   9
ENDBRANCH   7   8
ENDBRANCH   6   7
BRANCH   6  14
ATOM     14  N   UNL A   1      32.580  27.150  24.625  1.00  0.00    -0.280 N 
ATOM     15  C   UNL A   1      33.047  26.255  23.671  1.00  0.00     0.266 C 
ATOM     16  C   UNL A   1      32.012  26.564  25.744  1.00  0.00     0.149 C 
ATOM     17  O   UNL A   1      33.474  26.506  22.555  1.00  0.00    -0.268 OA
ATOM     18  C   UNL A   1      32.991  24.863  24.177  1.00  0.00     0.081 C 
ATOM     19  S   UNL A   1      32.120  24.805  25.644  1.00  0.00    -0.054 SA
ATOM     20  S   UNL A   1      31.320  27.325  27.062  1.00  0.00    -0.052 S 
ATOM     21  C   UNL A   1      33.598  23.881  23.498  1.00  0.00     0.029 C 
BRANCH  21  22
ATOM     22  C   UNL A   1      33.538  22.447  23.777  1.00  0.00    -0.024 A 
ATOM     23  C   UNL A   1      32.470  21.671  23.311  1.00  0.00     0.009 A 
ATOM     24  C   UNL A   1      34.498  21.874  24.618  1.00  0.00     0.009 A 
ATOM     25  C   UNL A   1      32.375  20.324  23.675  1.00  0.00     0.012 A 
ATOM     26  C   UNL A   1      34.405  20.532  24.987  1.00  0.00     0.012 A 
ATOM     27  C   UNL A   1      33.342  19.761  24.512  1.00  0.00     0.014 A 
BRANCH  27  28
ATOM     28  C   UNL A   1      33.246  18.347  24.923  1.00  0.00     0.260 C 
ATOM     29  O   UNL A   1      32.170  17.783  25.075  1.00  0.00    -0.298 OA
ENDBRANCH  27  28
ENDBRANCH  21  22
ENDBRANCH   6  14
ENDBRANCH   3   6
ENDBRANCH   1   2
BRANCH   1  30
ATOM     30  C   UNL A   1      31.395  32.341  26.441  1.00  0.00     0.042 C 
BRANCH  30  31
ATOM     31  C   UNL A   1      32.520  32.841  27.327  1.00  0.00     0.118 C 
BRANCH  31  32
ATOM     32  N   UNL A   1      32.366  34.246  27.665  1.00  0.00    -0.352 N 
ATOM     33  C   UNL A   1      33.001  34.994  28.628  1.00  0.00     0.251 C 
ATOM     34  H   UNL A   1      31.706  34.736  27.122  1.00  0.00     0.163 HD
ATOM     35  O   UNL A   1      32.578  36.115  28.898  1.00  0.00    -0.269 OA
BRANCH  33  36
ATOM     36  C   UNL A   1      34.172  34.453  29.357  1.00  0.00     0.039 A 
ATOM     37  C   UNL A   1      33.972  33.818  30.586  1.00  0.00     0.014 A 
ATOM     38  C   UNL A   1      35.467  34.584  28.849  1.00  0.00     0.014 A 
ATOM     39  C   UNL A   1      35.059  33.259  31.267  1.00  0.00     0.010 A 
ATOM     40  C   UNL A   1      36.528  33.934  29.471  1.00  0.00     0.010 A 
ATOM     41  C   UNL A   1      36.341  33.278  30.695  1.00  0.00    -0.014 A 
BRANCH  41  42
ATOM     42  C   UNL A   1      37.505  32.642  31.366  1.00  0.00     0.031 A 
ATOM     43  C   UNL A   1      38.223  31.499  30.698  1.00  0.00     0.074 A 
ATOM     44  C   UNL A   1      37.872  33.043  32.598  1.00  0.00     0.049 A 
ATOM     45  N   UNL A   1      39.192  30.746  31.156  1.00  0.00    -0.248 NA
ATOM     46  C   UNL A   1      37.769  31.131  29.347  1.00  0.00     0.031 C 
ATOM     47  C   UNL A   1      37.232  34.113  33.367  1.00  0.00     0.029 A 
ATOM     48  N   UNL A   1      38.871  32.593  33.427  1.00  0.00    -0.354 N 
ATOM     49  C   UNL A   1      39.451  29.815  30.157  1.00  0.00     0.074 A 
ATOM     50  C   UNL A   1      38.493  30.050  29.101  1.00  0.00     0.031 C 
ATOM     51  C   UNL A   1      37.870  34.255  34.540  1.00  0.00     0.029 A 
ATOM     52  C   UNL A   1      38.931  33.257  34.629  1.00  0.00     0.049 A 
ATOM     53  H   UNL A   1      39.485  31.864  33.183  1.00  0.00     0.167 HD
ATOM     54  C   UNL A   1      40.419  28.870  30.113  1.00  0.00     0.037 A 
ATOM     55  C   UNL A   1      39.742  33.071  35.688  1.00  0.00     0.037 A 
ATOM     56  C   UNL A   1      41.385  28.656  31.158  1.00  0.00     0.049 A 
ATOM     57  C   UNL A   1      40.787  31.988  35.627  1.00  0.00     0.074 A 
ATOM     58  C   UNL A   1      42.436  27.757  31.191  1.00  0.00     0.029 A 
ATOM     59  N   UNL A   1      41.416  29.352  32.358  1.00  0.00    -0.354 N 
ATOM     60  N   UNL A   1      41.063  31.155  34.652  1.00  0.00    -0.248 NA
ATOM     61  C   UNL A   1      41.637  31.820  36.813  1.00  0.00     0.031 C 
ATOM     62  C   UNL A   1      43.069  27.871  32.432  1.00  0.00     0.029 A 
ATOM     63  C   UNL A   1      42.452  28.883  33.149  1.00  0.00     0.049 A 
ATOM     64  H   UNL A   1      40.793  30.071  32.610  1.00  0.00     0.167 HD
ATOM     65  C   UNL A   1      42.134  30.391  35.093  1.00  0.00     0.074 A 
ATOM     66  C   UNL A   1      42.471  30.869  36.417  1.00  0.00     0.031 C 
ATOM     67  C   UNL A   1      42.782  29.382  34.459  1.00  0.00     0.037 A 
BRANCH  54  68
ATOM     68  C   UNL A   1      40.488  28.000  28.889  1.00  0.00     0.064 A 
ATOM     69  C   UNL A   1      39.782  26.791  28.805  1.00  0.00     0.173 A 
ATOM     70  C   UNL A   1      41.240  28.397  27.772  1.00  0.00     0.173 A 
ATOM     71  F   UNL A   1      39.057  26.357  29.848  1.00  0.00    -0.203 F 
ATOM     72  C   UNL A   1      39.849  25.996  27.664  1.00  0.00     0.198 A 
ATOM     73  C   UNL A   1      41.276  27.618  26.618  1.00  0.00     0.198 A 
ATOM     74  F   UNL A   1      41.930  29.547  27.794  1.00  0.00    -0.203 F 
ATOM     75  F   UNL A   1      39.209  24.819  27.629  1.00  0.00    -0.200 F 
ATOM     76  C   UNL A   1      40.589  26.414  26.568  1.00  0.00     0.200 A 
ATOM     77  F   UNL A   1      41.980  28.030  25.555  1.00  0.00    -0.200 F 
ATOM     78  F   UNL A   1      40.645  25.654  25.466  1.00  0.00    -0.200 F 
ENDBRANCH  54  68
BRANCH  55  79
ATOM     79  C   UNL A   1      39.614  33.935  36.892  1.00  0.00     0.064 A 
ATOM     80  C   UNL A   1      38.836  33.532  37.987  1.00  0.00     0.173 A 
ATOM     81  C   UNL A   1      40.245  35.186  36.968  1.00  0.00     0.173 A 
ATOM     82  F   UNL A   1      38.195  32.355  37.956  1.00  0.00    -0.203 F 
ATOM     83  C   UNL A   1      38.669  34.360  39.096  1.00  0.00     0.198 A 
ATOM     84  C   UNL A   1      40.105  35.997  38.093  1.00  0.00     0.198 A 
ATOM     85  F   UNL A   1      41.004  35.619  35.950  1.00  0.00    -0.203 F 
ATOM     86  F   UNL A   1      37.873  33.974  40.102  1.00  0.00    -0.200 F 
ATOM     87  C   UNL A   1      39.308  35.588  39.151  1.00  0.00     0.200 A 
ATOM     88  F   UNL A   1      40.736  37.178  38.147  1.00  0.00    -0.200 F 
ATOM     89  F   UNL A   1      39.146  36.383  40.217  1.00  0.00    -0.200 F 
ENDBRANCH  55  79
BRANCH  67  90
ATOM     90  C   UNL A   1      43.946  28.755  35.168  1.00  0.00     0.064 A 
ATOM     91  C   UNL A   1      45.231  29.315  35.116  1.00  0.00     0.173 A 
ATOM     92  C   UNL A   1      43.762  27.608  35.956  1.00  0.00     0.173 A 
ATOM     93  F   UNL A   1      45.464  30.403  34.366  1.00  0.00    -0.203 F 
ATOM     94  C   UNL A   1      46.293  28.736  35.806  1.00  0.00     0.198 A 
ATOM     95  C   UNL A   1      44.818  27.051  36.672  1.00  0.00     0.198 A 
ATOM     96  F   UNL A   1      42.551  27.037  36.047  1.00  0.00    -0.203 F 
ATOM     97  F   UNL A   1      47.522  29.260  35.703  1.00  0.00    -0.200 F 
ATOM     98  C   UNL A   1      46.084  27.611  36.590  1.00  0.00     0.200 A 
ATOM     99  F   UNL A   1      44.610  25.975  37.443  1.00  0.00    -0.200 F 
ATOM    100  F   UNL A   1      47.104  27.064  37.264  1.00  0.00    -0.200 F 
ENDBRANCH  67  90
ENDBRANCH  41  42
ENDBRANCH  33  36
ENDBRANCH  31  32
ENDBRANCH  30  31
ENDBRANCH   1  30
TORSDOF 16
ENDMDL
MODEL 2
REMARK VINA RESULT:     -12.7      5.609     11.331
REMARK SMILES NC(=O)CC[C@@H](C(=O)NCCCNC(=O)c1ccc(-c2c3nc(c(-c4c(F)c(F)c(F)c(F)c4F)c4ccc([nH]4)c(-c4c(F)c(F)c(F)c(F)c4F)c4nc(c(-c5c(F)c(F)c(F)c(F)c5F)c5ccc2[nH]5)C=C4)C=C3)cc1)N1C(=O)/C(=C/c2ccc(C=O)cc2)SC1=S
REMARK SMILES IDX 10 1 9 2 7 3 8 4 6 6 5 7 4 8 2 9 1 10 3 13 79 14 80 15 93 16
REMARK SMILES IDX 81 17 82 18 92 19 94 20 83 21 84 22 85 23 91 24 86 25 90 26
REMARK SMILES IDX 87 27 88 28 89 29 11 30 12 31 13 32 14 33 15 35 16 36 17 37
REMARK SMILES IDX 78 38 18 39 77 40 19 41 20 42 21 43 71 44 22 45 76 46 70 47
REMARK SMILES IDX 72 48 23 49 75 50 69 51 68 52 24 54 56 55 36 56 55 57 37 58
REMARK SMILES IDX 40 59 54 60 73 61 38 62 39 63 53 65 74 66 41 67 25 68 26 69
REMARK SMILES IDX 34 70 27 71 28 72 32 73 35 74 29 75 30 76 33 77 31 78 57 79
REMARK SMILES IDX 58 80 66 81 59 82 60 83 64 84 67 85 61 86 62 87 65 88 63 89
REMARK SMILES IDX 42 90 43 91 51 92 44 93 45 94 49 95 52 96 46 97 47 98 50 99
REMARK SMILES IDX 48 100
REMARK H PARENT 9 5 1 11 1 12 13 34 72 53 40 64
REMARK Flexibility Score: inf
ROOT
ATOM      1  C   UNL A   1      36.998  20.335  24.756  1.00  0.00     0.117 C 
ENDROOT
BRANCH   1   2
ATOM      2  N   UNL A   1      37.159  21.558  25.526  1.00  0.00    -0.354 N 
ATOM      3  C   UNL A   1      36.236  22.455  25.986  1.00  0.00     0.243 C 
ATOM      4  O   UNL A   1      36.670  23.507  26.462  1.00  0.00    -0.273 OA
ATOM      5  H   UNL A   1      38.091  21.777  25.753  1.00  0.00     0.163 HD
BRANCH   3   6
ATOM      6  C   UNL A   1      34.721  22.118  25.985  1.00  0.00     0.181 C 
BRANCH   6   7
ATOM      7  C   UNL A   1      34.347  20.772  25.322  1.00  0.00     0.045 C 
BRANCH   7   8
ATOM      8  C   UNL A   1      32.913  20.300  25.165  1.00  0.00     0.102 C 
BRANCH   8   9
ATOM      9  C   UNL A   1      32.548  18.845  25.359  1.00  0.00     0.217 C 
ATOM     10  N   UNL A   1      32.904  18.210  26.501  1.00  0.00    -0.370 N 
ATOM     11  H   UNL A   1      32.667  17.264  26.631  1.00  0.00     0.159 HD
ATOM     12  H   UNL A   1      33.398  18.695  27.200  1.00  0.00     0.159 HD
ATOM     13  O   UNL A   1      32.020  18.196  24.459  1.00  0.00    -0.275 OA
ENDBRANCH   8   9
ENDBRANCH   7   8
ENDBRANCH   6   7
BRANCH   6  14
ATOM     14  N   UNL A   1      34.049  23.278  25.300  1.00  0.00    -0.280 N 
ATOM     15  C   UNL A   1      32.960  23.921  25.875  1.00  0.00     0.266 C 
ATOM     16  C   UNL A   1      34.364  23.700  24.019  1.00  0.00     0.149 C 
ATOM     17  O   UNL A   1      32.407  23.656  26.930  1.00  0.00    -0.268 OA
ATOM     18  C   UNL A   1      32.507  25.053  25.033  1.00  0.00     0.081 C 
ATOM     19  S   UNL A   1      33.295  25.013  23.519  1.00  0.00    -0.054 SA
ATOM     20  S   UNL A   1      35.575  23.129  23.018  1.00  0.00    -0.052 S 
ATOM     21  C   UNL A   1      31.616  25.930  25.516  1.00  0.00     0.029 C 
BRANCH  21  22
ATOM     22  C   UNL A   1      30.968  27.020  24.789  1.00  0.00    -0.024 A 
ATOM     23  C   UNL A   1      29.924  26.761  23.893  1.00  0.00     0.009 A 
ATOM     24  C   UNL A   1      31.478  28.318  24.906  1.00  0.00     0.009 A 
ATOM     25  C   UNL A   1      29.386  27.803  23.129  1.00  0.00     0.012 A 
ATOM     26  C   UNL A   1      30.947  29.358  24.143  1.00  0.00     0.012 A 
ATOM     27  C   UNL A   1      29.901  29.095  23.257  1.00  0.00     0.014 A 
BRANCH  27  28
ATOM     28  C   UNL A   1      29.359  30.201  22.444  1.00  0.00     0.260 C 
ATOM     29  O   UNL A   1      28.892  30.023  21.327  1.00  0.00    -0.298 OA
ENDBRANCH  27  28
ENDBRANCH  21  22
ENDBRANCH   6  14
ENDBRANCH   3   6
ENDBRANCH   1   2
BRANCH   1  30
ATOM     30  C   UNL A   1      38.314  19.561  24.722  1.00  0.00     0.042 C 
BRANCH  30  31
ATOM     31  C   UNL A   1      39.315  20.010  25.768  1.00  0.00     0.118 C 
BRANCH  31  32
ATOM     32  N   UNL A   1      40.361  19.023  25.983  1.00  0.00    -0.352 N 
ATOM     33  C   UNL A   1      41.708  19.200  26.193  1.00  0.00     0.251 C 
ATOM     34  H   UNL A   1      40.058  18.086  25.979  1.00  0.00     0.163 HD
ATOM     35  O   UNL A   1      42.459  18.230  26.142  1.00  0.00    -0.269 OA
BRANCH  33  36
ATOM     36  C   UNL A   1      42.263  20.549  26.455  1.00  0.00     0.039 A 
ATOM     37  C   UNL A   1      42.629  21.354  25.372  1.00  0.00     0.014 A 
ATOM     38  C   UNL A   1      42.445  21.018  27.757  1.00  0.00     0.014 A 
ATOM     39  C   UNL A   1      43.111  22.648  25.597  1.00  0.00     0.010 A 
ATOM     40  C   UNL A   1      42.819  22.340  27.976  1.00  0.00     0.010 A 
ATOM     41  C   UNL A   1      43.172  23.166  26.900  1.00  0.00    -0.014 A 
BRANCH  41  42
ATOM     42  C   UNL A   1      43.624  24.557  27.167  1.00  0.00     0.031 A 
ATOM     43  C   UNL A   1      42.639  25.583  27.662  1.00  0.00     0.074 A 
ATOM     44  C   UNL A   1      44.895  24.913  26.902  1.00  0.00     0.049 A 
ATOM     45  N   UNL A   1      42.806  26.867  27.860  1.00  0.00    -0.248 NA
ATOM     46  C   UNL A   1      41.273  25.110  27.941  1.00  0.00     0.031 C 
ATOM     47  C   UNL A   1      45.934  24.022  26.382  1.00  0.00     0.029 A 
ATOM     48  N   UNL A   1      45.531  26.125  27.024  1.00  0.00    -0.354 N 
ATOM     49  C   UNL A   1      41.570  27.351  28.272  1.00  0.00     0.074 A 
ATOM     50  C   UNL A   1      40.646  26.240  28.229  1.00  0.00     0.031 C 
ATOM     51  C   UNL A   1      47.081  24.707  26.258  1.00  0.00     0.029 A 
ATOM     52  C   UNL A   1      46.850  26.097  26.640  1.00  0.00     0.049 A 
ATOM     53  H   UNL A   1      45.084  26.936  27.356  1.00  0.00     0.167 HD
ATOM     54  C   UNL A   1      41.243  28.600  28.679  1.00  0.00     0.037 A 
ATOM     55  C   UNL A   1      47.765  27.083  26.591  1.00  0.00     0.037 A 
ATOM     56  C   UNL A   1      42.174  29.696  28.742  1.00  0.00     0.049 A 
ATOM     57  C   UNL A   1      47.365  28.472  27.014  1.00  0.00     0.074 A 
ATOM     58  C   UNL A   1      41.956  30.988  29.185  1.00  0.00     0.029 A 
ATOM     59  N   UNL A   1      43.503  29.626  28.350  1.00  0.00    -0.354 N 
ATOM     60  N   UNL A   1      46.210  28.903  27.461  1.00  0.00    -0.248 NA
ATOM     61  C   UNL A   1      48.398  29.514  26.929  1.00  0.00     0.031 C 
ATOM     62  C   UNL A   1      43.137  31.715  29.009  1.00  0.00     0.029 A 
ATOM     63  C   UNL A   1      44.109  30.861  28.515  1.00  0.00     0.049 A 
ATOM     64  H   UNL A   1      43.949  28.819  28.004  1.00  0.00     0.167 HD
ATOM     65  C   UNL A   1      46.386  30.252  27.741  1.00  0.00     0.074 A 
ATOM     66  C   UNL A   1      47.765  30.565  27.429  1.00  0.00     0.031 C 
ATOM     67  C   UNL A   1      45.488  31.150  28.213  1.00  0.00     0.037 A 
BRANCH  54  68
ATOM     68  C   UNL A   1      39.821  28.847  29.097  1.00  0.00     0.064 A 
ATOM     69  C   UNL A   1      39.403  28.669  30.424  1.00  0.00     0.173 A 
ATOM     70  C   UNL A   1      38.873  29.305  28.168  1.00  0.00     0.173 A 
ATOM     71  F   UNL A   1      40.265  28.221  31.350  1.00  0.00    -0.203 F 
ATOM     72  C   UNL A   1      38.084  28.907  30.800  1.00  0.00     0.198 A 
ATOM     73  C   UNL A   1      37.563  29.577  28.556  1.00  0.00     0.198 A 
ATOM     74  F   UNL A   1      39.219  29.499  26.887  1.00  0.00    -0.203 F 
ATOM     75  F   UNL A   1      37.696  28.676  32.062  1.00  0.00    -0.200 F 
ATOM     76  C   UNL A   1      37.167  29.369  29.868  1.00  0.00     0.200 A 
ATOM     77  F   UNL A   1      36.682  30.038  27.657  1.00  0.00    -0.200 F 
ATOM     78  F   UNL A   1      35.901  29.608  30.234  1.00  0.00    -0.200 F 
ENDBRANCH  54  68
BRANCH  55  79
ATOM     79  C   UNL A   1      49.153  26.798  26.138  1.00  0.00     0.064 A 
ATOM     80  C   UNL A   1      50.139  26.396  27.051  1.00  0.00     0.173 A 
ATOM     81  C   UNL A   1      49.531  26.942  24.794  1.00  0.00     0.173 A 
ATOM     82  F   UNL A   1      49.835  26.265  28.350  1.00  0.00    -0.203 F 
ATOM     83  C   UNL A   1      51.454  26.179  26.643  1.00  0.00     0.198 A 
ATOM     84  C   UNL A   1      50.839  26.690  24.382  1.00  0.00     0.198 A 
ATOM     85  F   UNL A   1      48.627  27.320  23.878  1.00  0.00    -0.203 F 
ATOM     86  F   UNL A   1      52.387  25.852  27.547  1.00  0.00    -0.200 F 
ATOM     87  C   UNL A   1      51.801  26.321  25.309  1.00  0.00     0.200 A 
ATOM     88  F   UNL A   1      51.167  26.815  23.089  1.00  0.00    -0.200 F 
ATOM     89  F   UNL A   1      53.066  26.112  24.917  1.00  0.00    -0.200 F 
ENDBRANCH  55  79
BRANCH  67  90
ATOM     90  C   UNL A   1      45.974  32.548  28.462  1.00  0.00     0.064 A 
ATOM     91  C   UNL A   1      45.938  33.532  27.463  1.00  0.00     0.173 A 
ATOM     92  C   UNL A   1      46.432  32.923  29.735  1.00  0.00     0.173 A 
ATOM     93  F   UNL A   1      45.522  33.222  26.225  1.00  0.00    -0.203 F 
ATOM     94  C   UNL A   1      46.365  34.831  27.722  1.00  0.00     0.198 A 
ATOM     95  C   UNL A   1      46.826  34.231  30.000  1.00  0.00     0.198 A 
ATOM     96  F   UNL A   1      46.479  32.022  30.729  1.00  0.00    -0.203 F 
ATOM     97  F   UNL A   1      46.367  35.743  26.739  1.00  0.00    -0.200 F 
ATOM     98  C   UNL A   1      46.799  35.182  28.992  1.00  0.00     0.200 A 
ATOM     99  F   UNL A   1      47.227  34.572  31.233  1.00  0.00    -0.200 F 
ATOM    100  F   UNL A   1      47.196  36.437  29.243  1.00  0.00    -0.200 F 
ENDBRANCH  67  90
ENDBRANCH  41  42
ENDBRANCH  33  36
ENDBRANCH  31  32
ENDBRANCH  30  31
ENDBRANCH   1  30
TORSDOF 16
ENDMDL
MODEL 3
REMARK VINA RESULT:     -12.6      2.285      7.759
REMARK SMILES NC(=O)CC[C@@H](C(=O)NCCCNC(=O)c1ccc(-c2c3nc(c(-c4c(F)c(F)c(F)c(F)c4F)c4ccc([nH]4)c(-c4c(F)c(F)c(F)c(F)c4F)c4nc(c(-c5c(F)c(F)c(F)c(F)c5F)c5ccc2[nH]5)C=C4)C=C3)cc1)N1C(=O)/C(=C/c2ccc(C=O)cc2)SC1=S
REMARK SMILES IDX 10 1 9 2 7 3 8 4 6 6 5 7 4 8 2 9 1 10 3 13 79 14 80 15 93 16
REMARK SMILES IDX 81 17 82 18 92 19 94 20 83 21 84 22 85 23 91 24 86 25 90 26
REMARK SMILES IDX 87 27 88 28 89 29 11 30 12 31 13 32 14 33 15 35 16 36 17 37
REMARK SMILES IDX 78 38 18 39 77 40 19 41 20 42 21 43 71 44 22 45 76 46 70 47
REMARK SMILES IDX 72 48 23 49 75 50 69 51 68 52 24 54 56 55 36 56 55 57 37 58
REMARK SMILES IDX 40 59 54 60 73 61 38 62 39 63 53 65 74 66 41 67 25 68 26 69
REMARK SMILES IDX 34 70 27 71 28 72 32 73 35 74 29 75 30 76 33 77 31 78 57 79
REMARK SMILES IDX 58 80 66 81 59 82 60 83 64 84 67 85 61 86 62 87 65 88 63 89
REMARK SMILES IDX 42 90 43 91 51 92 44 93 45 94 49 95 52 96 46 97 47 98 50 99
REMARK SMILES IDX 48 100
REMARK H PARENT 9 5 1 11 1 12 13 34 72 53 40 64
REMARK Flexibility Score: inf
ROOT
ATOM      1  C   UNL A   1      31.908  27.807  27.371  1.00  0.00     0.117 C 
ENDROOT
BRANCH   1   2
ATOM      2  N   UNL A   1      30.952  26.819  26.897  1.00  0.00    -0.354 N 
ATOM      3  C   UNL A   1      30.688  26.361  25.637  1.00  0.00     0.243 C 
ATOM      4  O   UNL A   1      29.692  25.646  25.501  1.00  0.00    -0.273 OA
ATOM      5  H   UNL A   1      30.402  26.412  27.604  1.00  0.00     0.163 HD
BRANCH   3   6
ATOM      6  C   UNL A   1      31.650  26.662  24.457  1.00  0.00     0.181 C 
BRANCH   6   7
ATOM      7  C   UNL A   1      30.975  26.777  23.071  1.00  0.00     0.045 C 
BRANCH   7   8
ATOM      8  C   UNL A   1      29.904  27.805  22.756  1.00  0.00     0.102 C 
BRANCH   8   9
ATOM      9  C   UNL A   1      30.225  29.283  22.738  1.00  0.00     0.217 C 
ATOM     10  N   UNL A   1      30.917  29.807  21.699  1.00  0.00    -0.370 N 
ATOM     11  H   UNL A   1      31.127  30.768  21.683  1.00  0.00     0.159 HD
ATOM     12  H   UNL A   1      31.208  29.227  20.959  1.00  0.00     0.159 HD
ATOM     13  O   UNL A   1      29.958  30.004  23.697  1.00  0.00    -0.275 OA
ENDBRANCH   8   9
ENDBRANCH   7   8
ENDBRANCH   6   7
BRANCH   6  14
ATOM     14  N   UNL A   1      32.678  25.562  24.482  1.00  0.00    -0.280 N 
ATOM     15  C   UNL A   1      33.954  25.781  24.985  1.00  0.00     0.266 C 
ATOM     16  C   UNL A   1      32.486  24.320  23.902  1.00  0.00     0.149 C 
ATOM     17  O   UNL A   1      34.415  26.820  25.430  1.00  0.00    -0.268 OA
ATOM     18  C   UNL A   1      34.762  24.539  24.942  1.00  0.00     0.081 C 
ATOM     19  S   UNL A   1      33.948  23.338  24.042  1.00  0.00    -0.054 SA
ATOM     20  S   UNL A   1      31.104  23.730  23.169  1.00  0.00    -0.052 S 
ATOM     21  C   UNL A   1      35.939  24.485  25.580  1.00  0.00     0.029 C 
BRANCH  21  22
ATOM     22  C   UNL A   1      36.916  23.399  25.538  1.00  0.00    -0.024 A 
ATOM     23  C   UNL A   1      36.600  22.174  24.938  1.00  0.00     0.009 A 
ATOM     24  C   UNL A   1      38.135  23.550  26.209  1.00  0.00     0.009 A 
ATOM     25  C   UNL A   1      37.508  21.112  24.999  1.00  0.00     0.012 A 
ATOM     26  C   UNL A   1      39.042  22.492  26.275  1.00  0.00     0.012 A 
ATOM     27  C   UNL A   1      38.724  21.276  25.668  1.00  0.00     0.014 A 
BRANCH  27  28
ATOM     28  C   UNL A   1      39.685  20.160  25.759  1.00  0.00     0.260 C 
ATOM     29  O   UNL A   1      39.376  19.007  25.487  1.00  0.00    -0.298 OA
ENDBRANCH  27  28
ENDBRANCH  21  22
ENDBRANCH   6  14
ENDBRANCH   3   6
ENDBRANCH   1   2
BRANCH   1  30
ATOM     30  C   UNL A   1      31.615  29.166  26.738  1.00  0.00     0.042 C 
BRANCH  30  31
ATOM     31  C   UNL A   1      32.855  29.907  26.279  1.00  0.00     0.118 C 
BRANCH  31  32
ATOM     32  N   UNL A   1      32.774  31.331  26.557  1.00  0.00    -0.352 N 
ATOM     33  C   UNL A   1      33.528  32.108  27.405  1.00  0.00     0.251 C 
ATOM     34  H   UNL A   1      32.073  31.815  26.061  1.00  0.00     0.163 HD
ATOM     35  O   UNL A   1      33.166  33.253  27.658  1.00  0.00    -0.269 OA
BRANCH  33  36
ATOM     36  C   UNL A   1      34.757  31.568  28.034  1.00  0.00     0.039 A 
ATOM     37  C   UNL A   1      35.871  32.402  28.172  1.00  0.00     0.014 A 
ATOM     38  C   UNL A   1      34.828  30.243  28.470  1.00  0.00     0.014 A 
ATOM     39  C   UNL A   1      37.024  31.926  28.804  1.00  0.00     0.010 A 
ATOM     40  C   UNL A   1      35.931  29.806  29.194  1.00  0.00     0.010 A 
ATOM     41  C   UNL A   1      37.049  30.636  29.357  1.00  0.00    -0.014 A 
BRANCH  41  42
ATOM     42  C   UNL A   1      38.238  30.121  30.086  1.00  0.00     0.031 A 
ATOM     43  C   UNL A   1      38.515  30.586  31.491  1.00  0.00     0.074 A 
ATOM     44  C   UNL A   1      39.102  29.295  29.465  1.00  0.00     0.049 A 
ATOM     45  N   UNL A   1      39.545  30.337  32.261  1.00  0.00    -0.248 NA
ATOM     46  C   UNL A   1      37.515  31.477  32.103  1.00  0.00     0.031 C 
ATOM     47  C   UNL A   1      38.966  28.803  28.093  1.00  0.00     0.029 A 
ATOM     48  N   UNL A   1      40.272  28.726  29.905  1.00  0.00    -0.354 N 
ATOM     49  C   UNL A   1      39.321  31.048  33.434  1.00  0.00     0.074 A 
ATOM     50  C   UNL A   1      38.096  31.793  33.250  1.00  0.00     0.031 C 
ATOM     51  C   UNL A   1      39.994  27.987  27.813  1.00  0.00     0.029 A 
ATOM     52  C   UNL A   1      40.888  27.935  28.966  1.00  0.00     0.049 A 
ATOM     53  H   UNL A   1      40.635  28.872  30.808  1.00  0.00     0.167 HD
ATOM     54  C   UNL A   1      40.054  31.054  34.572  1.00  0.00     0.037 A 
ATOM     55  C   UNL A   1      42.049  27.255  29.025  1.00  0.00     0.037 A 
ATOM     56  C   UNL A   1      41.261  30.292  34.757  1.00  0.00     0.049 A 
ATOM     57  C   UNL A   1      42.864  27.309  30.290  1.00  0.00     0.074 A 
ATOM     58  C   UNL A   1      42.053  30.192  35.888  1.00  0.00     0.029 A 
ATOM     59  N   UNL A   1      41.850  29.498  33.784  1.00  0.00    -0.354 N 
ATOM     60  N   UNL A   1      42.610  27.934  31.414  1.00  0.00    -0.248 NA
ATOM     61  C   UNL A   1      44.128  26.559  30.297  1.00  0.00     0.031 C 
ATOM     62  C   UNL A   1      43.149  29.381  35.581  1.00  0.00     0.029 A 
ATOM     63  C   UNL A   1      43.010  28.926  34.280  1.00  0.00     0.049 A 
ATOM     64  H   UNL A   1      41.496  29.362  32.875  1.00  0.00     0.167 HD
ATOM     65  C   UNL A   1      43.660  27.627  32.269  1.00  0.00     0.074 A 
ATOM     66  C   UNL A   1      44.548  26.746  31.539  1.00  0.00     0.031 C 
ATOM     67  C   UNL A   1      43.873  28.039  33.543  1.00  0.00     0.037 A 
BRANCH  54  68
ATOM     68  C   UNL A   1      39.567  31.906  35.710  1.00  0.00     0.064 A 
ATOM     69  C   UNL A   1      40.049  33.208  35.914  1.00  0.00     0.173 A 
ATOM     70  C   UNL A   1      38.579  31.430  36.587  1.00  0.00     0.173 A 
ATOM     71  F   UNL A   1      41.002  33.709  35.113  1.00  0.00    -0.203 F 
ATOM     72  C   UNL A   1      39.585  33.990  36.968  1.00  0.00     0.198 A 
ATOM     73  C   UNL A   1      38.092  32.228  37.620  1.00  0.00     0.198 A 
ATOM     74  F   UNL A   1      38.078  30.195  36.436  1.00  0.00    -0.203 F 
ATOM     75  F   UNL A   1      40.101  35.209  37.174  1.00  0.00    -0.200 F 
ATOM     76  C   UNL A   1      38.601  33.503  37.815  1.00  0.00     0.200 A 
ATOM     77  F   UNL A   1      37.130  31.761  38.428  1.00  0.00    -0.200 F 
ATOM     78  F   UNL A   1      38.148  34.259  38.824  1.00  0.00    -0.200 F 
ENDBRANCH  54  68
BRANCH  55  79
ATOM     79  C   UNL A   1      42.508  26.451  27.860  1.00  0.00     0.064 A 
ATOM     80  C   UNL A   1      43.371  27.002  26.901  1.00  0.00     0.173 A 
ATOM     81  C   UNL A   1      42.080  25.129  27.665  1.00  0.00     0.173 A 
ATOM     82  F   UNL A   1      43.792  28.269  27.030  1.00  0.00    -0.203 F 
ATOM     83  C   UNL A   1      43.764  26.273  25.780  1.00  0.00     0.198 A 
ATOM     84  C   UNL A   1      42.501  24.390  26.561  1.00  0.00     0.198 A 
ATOM     85  F   UNL A   1      41.258  24.552  28.554  1.00  0.00    -0.203 F 
ATOM     86  F   UNL A   1      44.542  26.846  24.852  1.00  0.00    -0.200 F 
ATOM     87  C   UNL A   1      43.333  24.967  25.614  1.00  0.00     0.200 A 
ATOM     88  F   UNL A   1      42.094  23.122  26.412  1.00  0.00    -0.200 F 
ATOM     89  F   UNL A   1      43.710  24.267  24.535  1.00  0.00    -0.200 F 
ENDBRANCH  55  79
BRANCH  67  90
ATOM     90  C   UNL A   1      45.088  27.509  34.247  1.00  0.00     0.064 A 
ATOM     91  C   UNL A   1      46.306  28.204  34.243  1.00  0.00     0.173 A 
ATOM     92  C   UNL A   1      45.017  26.315  34.982  1.00  0.00     0.173 A 
ATOM     93  F   UNL A   1      46.431  29.343  33.544  1.00  0.00    -0.203 F 
ATOM     94  C   UNL A   1      47.413  27.712  34.928  1.00  0.00     0.198 A 
ATOM     95  C   UNL A   1      46.116  25.843  35.693  1.00  0.00     0.198 A 
ATOM     96  F   UNL A   1      43.872  25.615  35.026  1.00  0.00    -0.203 F 
ATOM     97  F   UNL A   1      48.581  28.368  34.871  1.00  0.00    -0.200 F 
ATOM     98  C   UNL A   1      47.315  26.538  35.660  1.00  0.00     0.200 A 
ATOM     99  F   UNL A   1      46.012  24.718  36.415  1.00  0.00    -0.200 F 
ATOM    100  F   UNL A   1      48.378  26.073  36.330  1.00  0.00    -0.200 F 
ENDBRANCH  67  90
ENDBRANCH  41  42
ENDBRANCH  33  36
ENDBRANCH  31  32
ENDBRANCH  30  31
ENDBRANCH   1  30
TORSDOF 16
ENDMDL
