MODEL 1
REMARK VINA RESULT:     -13.9      0.000      0.000
REMARK SMILES CCOc1ccc(C(=O)NC(=S)Nc2cccc(C(=O)NCCCNC(=O)c3ccc(-c4c5nc(c(-c6c(F)c(F)c(F)c(F)c6F)c6ccc([nH]6)c(-c6c(F)c(F)c(F)c(F)c6F)c6nc(c(-c7c(F)c(F)c(F)c(F)c7F)c7ccc4[nH]7)C=C6)C=C5)cc3)c2C)cc1Br
REMARK SMILES IDX 19 1 20 2 21 3 18 5 14 6 15 7 91 8 16 9 92 10 17 11 13 12
REMARK SMILES IDX 11 14 12 15 10 16 8 17 9 18 7 20 4 21 5 22 94 23 6 24 93 25
REMARK SMILES IDX 95 26 3 27 2 28 1 29 22 30 23 31 24 32 25 33 26 34 27 36
REMARK SMILES IDX 28 37 29 38 90 39 30 40 89 41 31 42 32 43 33 44 83 45 34 46
REMARK SMILES IDX 88 47 82 48 84 49 35 50 87 51 81 52 80 53 36 55 68 56 48 57
REMARK SMILES IDX 67 58 49 59 52 60 66 61 85 62 50 63 51 64 65 66 86 67 53 68
REMARK SMILES IDX 37 69 38 70 46 71 39 72 40 73 44 74 47 75 41 76 42 77 45 78
REMARK SMILES IDX 43 79 69 80 70 81 78 82 71 83 72 84 76 85 79 86 73 87 74 88
REMARK SMILES IDX 77 89 75 90 54 91 55 92 63 93 56 94 57 95 61 96 64 97 58 98
REMARK SMILES IDX 59 99 62 100 60 101
REMARK H PARENT 21 4 13 13 10 19 25 35 84 54 52 65
REMARK Flexibility Score: inf
ROOT
ATOM      1  C   UNL A   1      41.674  20.893  27.144  1.00  0.00     0.251 C 
ATOM      2  O   UNL A   1      41.875  21.467  28.214  1.00  0.00    -0.269 OA
ATOM      3  N   UNL A   1      42.799  20.370  26.504  1.00  0.00    -0.352 N 
ATOM      4  H   UNL A   1      43.620  20.740  26.903  1.00  0.00     0.163 HD
ENDROOT
BRANCH   1   5
ATOM      5  C   UNL A   1      40.281  20.919  26.594  1.00  0.00     0.044 A 
ATOM      6  C   UNL A   1      37.600  22.261  25.497  1.00  0.00     0.044 A 
ATOM      7  C   UNL A   1      37.060  20.838  24.595  1.00  0.00     0.026 A 
ATOM      8  C   UNL A   1      39.225  22.353  26.334  1.00  0.00    -0.015 A 
ATOM      9  C   UNL A   1      38.051  19.394  24.720  1.00  0.00     0.003 A 
ATOM     10  C   UNL A   1      39.638  23.696  26.861  1.00  0.00     0.047 C 
ATOM     11  C   UNL A   1      39.705  19.409  25.884  1.00  0.00     0.014 A 
BRANCH   6  12
ATOM     12  N   UNL A   1      36.495  22.618  26.338  1.00  0.00    -0.332 N 
ATOM     13  H   UNL A   1      36.700  22.715  27.296  1.00  0.00     0.169 HD
BRANCH  12  14
ATOM     14  C   UNL A   1      35.175  22.844  25.978  1.00  0.00     0.177 C 
ATOM     15  S   UNL A   1      34.731  24.447  25.739  1.00  0.00    -0.040 S 
BRANCH  14  16
ATOM     16  N   UNL A   1      34.115  21.851  25.861  1.00  0.00    -0.299 N 
ATOM     17  C   UNL A   1      32.687  21.366  25.639  1.00  0.00     0.257 C 
ATOM     18  O   UNL A   1      32.453  20.160  25.673  1.00  0.00    -0.269 OA
ATOM     19  H   UNL A   1      34.601  21.008  26.012  1.00  0.00     0.172 HD
BRANCH  17  20
ATOM     20  C   UNL A   1      31.551  22.331  25.431  1.00  0.00     0.041 A 
ATOM     21  C   UNL A   1      30.687  25.788  24.189  1.00  0.00     0.133 A 
ATOM     22  C   UNL A   1      30.469  25.277  25.899  1.00  0.00     0.048 A 
ATOM     23  C   UNL A   1      31.391  24.592  23.063  1.00  0.00     0.060 A 
ATOM     24  C   UNL A   1      30.914  23.609  26.499  1.00  0.00     0.018 A 
ATOM     25  C   UNL A   1      31.701  22.727  23.772  1.00  0.00     0.033 A 
ATOM     26  Br  UNL A   1      32.584  25.845  21.754  1.00  0.00    -0.047 Br
BRANCH  21  27
ATOM     27  O   UNL A   1      30.072  26.888  23.618  1.00  0.00    -0.493 OA
BRANCH  27  28
ATOM     28  C   UNL A   1      30.636  28.194  23.974  1.00  0.00     0.226 C 
ATOM     29  C   UNL A   1      30.134  29.501  23.353  1.00  0.00     0.049 C 
ENDBRANCH  27  28
ENDBRANCH  21  27
ENDBRANCH  17  20
ENDBRANCH  14  16
ENDBRANCH  12  14
ENDBRANCH   6  12
ENDBRANCH   1   5
BRANCH   3  30
ATOM     30  C   UNL A   1      43.142  19.426  25.408  1.00  0.00     0.118 C 
BRANCH  30  31
ATOM     31  C   UNL A   1      44.606  18.973  25.323  1.00  0.00     0.042 C 
BRANCH  31  32
ATOM     32  C   UNL A   1      45.462  19.820  24.401  1.00  0.00     0.118 C 
BRANCH  32  33
ATOM     33  N   UNL A   1      44.715  20.937  23.825  1.00  0.00    -0.352 N 
ATOM     34  C   UNL A   1      44.574  22.251  24.244  1.00  0.00     0.251 C 
ATOM     35  H   UNL A   1      44.227  20.719  22.998  1.00  0.00     0.163 HD
ATOM     36  O   UNL A   1      43.681  22.948  23.774  1.00  0.00    -0.269 OA
BRANCH  34  37
ATOM     37  C   UNL A   1      45.635  22.885  25.073  1.00  0.00     0.039 A 
ATOM     38  C   UNL A   1      45.466  22.656  26.448  1.00  0.00     0.014 A 
ATOM     39  C   UNL A   1      46.164  24.083  24.633  1.00  0.00     0.014 A 
ATOM     40  C   UNL A   1      45.384  23.745  27.295  1.00  0.00     0.010 A 
ATOM     41  C   UNL A   1      45.853  25.176  25.388  1.00  0.00     0.010 A 
ATOM     42  C   UNL A   1      45.392  24.990  26.696  1.00  0.00    -0.014 A 
BRANCH  42  43
ATOM     43  C   UNL A   1      45.202  26.240  27.384  1.00  0.00     0.031 A 
ATOM     44  C   UNL A   1      43.832  26.757  27.196  1.00  0.00     0.074 A 
ATOM     45  C   UNL A   1      46.157  26.561  28.291  1.00  0.00     0.049 A 
ATOM     46  N   UNL A   1      43.458  27.952  27.434  1.00  0.00    -0.248 NA
ATOM     47  C   UNL A   1      42.733  25.952  26.631  1.00  0.00     0.031 C 
ATOM     48  C   UNL A   1      46.141  27.460  29.442  1.00  0.00     0.029 A 
ATOM     49  N   UNL A   1      47.517  26.192  28.208  1.00  0.00    -0.354 N 
ATOM     50  C   UNL A   1      42.079  27.918  27.532  1.00  0.00     0.074 A 
ATOM     51  C   UNL A   1      41.675  26.741  26.825  1.00  0.00     0.031 C 
ATOM     52  C   UNL A   1      47.400  27.876  29.693  1.00  0.00     0.029 A 
ATOM     53  C   UNL A   1      48.238  27.334  28.638  1.00  0.00     0.049 A 
ATOM     54  H   UNL A   1      47.886  25.328  27.914  1.00  0.00     0.167 HD
ATOM     55  C   UNL A   1      41.507  28.792  28.406  1.00  0.00     0.037 A 
ATOM     56  C   UNL A   1      48.926  28.074  27.714  1.00  0.00     0.037 A 
ATOM     57  C   UNL A   1      42.571  29.634  28.956  1.00  0.00     0.049 A 
ATOM     58  C   UNL A   1      48.260  29.422  27.535  1.00  0.00     0.074 A 
ATOM     59  C   UNL A   1      43.298  29.567  30.131  1.00  0.00     0.029 A 
ATOM     60  N   UNL A   1      43.322  30.396  28.070  1.00  0.00    -0.354 N 
ATOM     61  N   UNL A   1      46.970  29.624  27.643  1.00  0.00    -0.248 NA
ATOM     62  C   UNL A   1      49.020  30.655  27.371  1.00  0.00     0.031 C 
ATOM     63  C   UNL A   1      44.527  30.257  29.913  1.00  0.00     0.029 A 
ATOM     64  C   UNL A   1      44.545  30.733  28.610  1.00  0.00     0.049 A 
ATOM     65  H   UNL A   1      43.019  30.661  27.170  1.00  0.00     0.167 HD
ATOM     66  C   UNL A   1      46.727  30.976  27.645  1.00  0.00     0.074 A 
ATOM     67  C   UNL A   1      48.042  31.570  27.475  1.00  0.00     0.031 C 
ATOM     68  C   UNL A   1      45.487  31.529  27.834  1.00  0.00     0.037 A 
BRANCH  55  69
ATOM     69  C   UNL A   1      40.111  28.763  28.991  1.00  0.00     0.064 A 
ATOM     70  C   UNL A   1      39.033  29.223  28.199  1.00  0.00     0.173 A 
ATOM     71  C   UNL A   1      39.747  28.367  30.294  1.00  0.00     0.173 A 
ATOM     72  F   UNL A   1      39.213  29.593  26.923  1.00  0.00    -0.203 F 
ATOM     73  C   UNL A   1      37.726  29.323  28.678  1.00  0.00     0.198 A 
ATOM     74  C   UNL A   1      38.431  28.455  30.770  1.00  0.00     0.198 A 
ATOM     75  F   UNL A   1      40.631  27.878  31.166  1.00  0.00    -0.203 F 
ATOM     76  F   UNL A   1      36.762  29.801  27.878  1.00  0.00    -0.200 F 
ATOM     77  C   UNL A   1      37.423  28.942  29.966  1.00  0.00     0.200 A 
ATOM     78  F   UNL A   1      38.152  28.067  32.023  1.00  0.00    -0.200 F 
ATOM     79  F   UNL A   1      36.169  29.035  30.426  1.00  0.00    -0.200 F 
ENDBRANCH  55  69
BRANCH  56  80
ATOM     80  C   UNL A   1      49.492  27.185  26.648  1.00  0.00     0.064 A 
ATOM     81  C   UNL A   1      48.948  27.346  25.350  1.00  0.00     0.173 A 
ATOM     82  C   UNL A   1      50.784  26.658  26.739  1.00  0.00     0.173 A 
ATOM     83  F   UNL A   1      47.696  27.813  25.202  1.00  0.00    -0.203 F 
ATOM     84  C   UNL A   1      49.749  27.246  24.215  1.00  0.00     0.198 A 
ATOM     85  C   UNL A   1      51.554  26.471  25.586  1.00  0.00     0.198 A 
ATOM     86  F   UNL A   1      51.359  26.464  27.934  1.00  0.00    -0.203 F 
ATOM     87  F   UNL A   1      49.282  27.664  23.028  1.00  0.00    -0.200 F 
ATOM     88  C   UNL A   1      51.062  26.837  24.339  1.00  0.00     0.200 A 
ATOM     89  F   UNL A   1      52.826  26.057  25.693  1.00  0.00    -0.200 F 
ATOM     90  F   UNL A   1      51.868  26.844  23.269  1.00  0.00    -0.200 F 
ENDBRANCH  56  80
BRANCH  68  91
ATOM     91  C   UNL A   1      45.063  32.922  27.393  1.00  0.00     0.064 A 
ATOM     92  C   UNL A   1      44.258  33.185  26.272  1.00  0.00     0.173 A 
ATOM     93  C   UNL A   1      45.349  34.069  28.185  1.00  0.00     0.173 A 
ATOM     94  F   UNL A   1      43.720  32.205  25.539  1.00  0.00    -0.203 F 
ATOM     95  C   UNL A   1      43.904  34.481  25.895  1.00  0.00     0.198 A 
ATOM     96  C   UNL A   1      44.895  35.346  27.867  1.00  0.00     0.198 A 
ATOM     97  F   UNL A   1      46.052  34.007  29.323  1.00  0.00    -0.203 F 
ATOM     98  F   UNL A   1      43.228  34.670  24.753  1.00  0.00    -0.200 F 
ATOM     99  C   UNL A   1      44.211  35.560  26.695  1.00  0.00     0.200 A 
ATOM    100  F   UNL A   1      45.117  36.358  28.717  1.00  0.00    -0.200 F 
ATOM    101  F   UNL A   1      43.825  36.795  26.355  1.00  0.00    -0.200 F 
ENDBRANCH  68  91
ENDBRANCH  42  43
ENDBRANCH  34  37
ENDBRANCH  32  33
ENDBRANCH  31  32
ENDBRANCH  30  31
ENDBRANCH   3  30
TORSDOF 16
ENDMDL
MODEL 2
REMARK VINA RESULT:     -13.7      3.023      5.169
REMARK SMILES CCOc1ccc(C(=O)NC(=S)Nc2cccc(C(=O)NCCCNC(=O)c3ccc(-c4c5nc(c(-c6c(F)c(F)c(F)c(F)c6F)c6ccc([nH]6)c(-c6c(F)c(F)c(F)c(F)c6F)c6nc(c(-c7c(F)c(F)c(F)c(F)c7F)c7ccc4[nH]7)C=C6)C=C5)cc3)c2C)cc1Br
REMARK SMILES IDX 19 1 20 2 21 3 18 5 14 6 15 7 91 8 16 9 92 10 17 11 13 12
REMARK SMILES IDX 11 14 12 15 10 16 8 17 9 18 7 20 4 21 5 22 94 23 6 24 93 25
REMARK SMILES IDX 95 26 3 27 2 28 1 29 22 30 23 31 24 32 25 33 26 34 27 36
REMARK SMILES IDX 28 37 29 38 90 39 30 40 89 41 31 42 32 43 33 44 83 45 34 46
REMARK SMILES IDX 88 47 82 48 84 49 35 50 87 51 81 52 80 53 36 55 68 56 48 57
REMARK SMILES IDX 67 58 49 59 52 60 66 61 85 62 50 63 51 64 65 66 86 67 53 68
REMARK SMILES IDX 37 69 38 70 46 71 39 72 40 73 44 74 47 75 41 76 42 77 45 78
REMARK SMILES IDX 43 79 69 80 70 81 78 82 71 83 72 84 76 85 79 86 73 87 74 88
REMARK SMILES IDX 77 89 75 90 54 91 55 92 63 93 56 94 57 95 61 96 64 97 58 98
REMARK SMILES IDX 59 99 62 100 60 101
REMARK H PARENT 21 4 13 13 10 19 25 35 84 54 52 65
REMARK Flexibility Score: inf
ROOT
ATOM      1  C   UNL A   1      34.289  21.421  26.164  1.00  0.00     0.251 C 
ATOM      2  O   UNL A   1      33.616  21.119  27.149  1.00  0.00    -0.269 OA
ATOM      3  N   UNL A   1      35.484  20.718  25.996  1.00  0.00    -0.352 N 
ATOM      4  H   UNL A   1      35.715  20.239  26.824  1.00  0.00     0.163 HD
ENDROOT
BRANCH   1   5
ATOM      5  C   UNL A   1      33.820  22.572  25.328  1.00  0.00     0.044 A 
ATOM      6  C   UNL A   1      34.108  25.289  23.676  1.00  0.00     0.044 A 
ATOM      7  C   UNL A   1      32.664  25.034  22.687  1.00  0.00     0.026 A 
ATOM      8  C   UNL A   1      34.752  24.032  24.842  1.00  0.00    -0.015 A 
ATOM      9  C   UNL A   1      31.708  23.601  23.028  1.00  0.00     0.003 A 
ATOM     10  C   UNL A   1      36.104  24.295  25.438  1.00  0.00     0.047 C 
ATOM     11  C   UNL A   1      32.267  22.354  24.519  1.00  0.00     0.014 A 
BRANCH   6  12
ATOM     12  N   UNL A   1      33.944  26.588  24.260  1.00  0.00    -0.332 N 
ATOM     13  H   UNL A   1      34.424  27.323  23.813  1.00  0.00     0.169 HD
BRANCH  12  14
ATOM     14  C   UNL A   1      33.198  26.945  25.373  1.00  0.00     0.177 C 
ATOM     15  S   UNL A   1      33.936  27.990  26.462  1.00  0.00    -0.040 S 
BRANCH  14  16
ATOM     16  N   UNL A   1      31.877  26.451  25.740  1.00  0.00    -0.299 N 
ATOM     17  C   UNL A   1      30.383  26.214  25.551  1.00  0.00     0.257 C 
ATOM     18  O   UNL A   1      29.761  25.598  26.413  1.00  0.00    -0.269 OA
ATOM     19  H   UNL A   1      32.047  26.026  26.611  1.00  0.00     0.172 HD
BRANCH  17  20
ATOM     20  C   UNL A   1      29.644  26.759  24.358  1.00  0.00     0.041 A 
ATOM     21  C   UNL A   1      27.789  29.772  23.047  1.00  0.00     0.133 A 
ATOM     22  C   UNL A   1      27.006  28.175  23.307  1.00  0.00     0.048 A 
ATOM     23  C   UNL A   1      29.516  29.916  23.485  1.00  0.00     0.060 A 
ATOM     24  C   UNL A   1      27.904  26.727  23.966  1.00  0.00     0.018 A 
ATOM     25  C   UNL A   1      30.468  28.228  24.051  1.00  0.00     0.033 A 
ATOM     26  Br  UNL A   1      29.629  31.948  24.238  1.00  0.00    -0.047 Br
BRANCH  21  27
ATOM     27  O   UNL A   1      27.266  30.780  22.256  1.00  0.00    -0.493 OA
BRANCH  27  28
ATOM     28  C   UNL A   1      27.912  30.972  20.953  1.00  0.00     0.226 C 
ATOM     29  C   UNL A   1      27.963  32.334  20.256  1.00  0.00     0.049 C 
ENDBRANCH  27  28
ENDBRANCH  21  27
ENDBRANCH  17  20
ENDBRANCH  14  16
ENDBRANCH  12  14
ENDBRANCH   6  12
ENDBRANCH   1   5
BRANCH   3  30
ATOM     30  C   UNL A   1      36.513  20.469  24.953  1.00  0.00     0.118 C 
BRANCH  30  31
ATOM     31  C   UNL A   1      37.975  20.450  25.420  1.00  0.00     0.042 C 
BRANCH  31  32
ATOM     32  C   UNL A   1      38.620  21.822  25.485  1.00  0.00     0.118 C 
BRANCH  32  33
ATOM     33  N   UNL A   1      39.520  21.956  26.630  1.00  0.00    -0.352 N 
ATOM     34  C   UNL A   1      40.116  23.074  27.194  1.00  0.00     0.251 C 
ATOM     35  H   UNL A   1      39.740  21.107  27.077  1.00  0.00     0.163 HD
ATOM     36  O   UNL A   1      41.053  22.936  27.973  1.00  0.00    -0.269 OA
BRANCH  34  37
ATOM     37  C   UNL A   1      39.480  24.411  27.046  1.00  0.00     0.039 A 
ATOM     38  C   UNL A   1      40.244  25.299  26.272  1.00  0.00     0.014 A 
ATOM     39  C   UNL A   1      38.732  24.886  28.106  1.00  0.00     0.014 A 
ATOM     40  C   UNL A   1      40.610  26.511  26.825  1.00  0.00     0.010 A 
ATOM     41  C   UNL A   1      39.264  25.953  28.770  1.00  0.00     0.010 A 
ATOM     42  C   UNL A   1      40.258  26.714  28.146  1.00  0.00    -0.014 A 
BRANCH  42  43
ATOM     43  C   UNL A   1      40.642  27.853  28.939  1.00  0.00     0.031 A 
ATOM     44  C   UNL A   1      39.686  28.967  28.783  1.00  0.00     0.074 A 
ATOM     45  C   UNL A   1      41.589  27.619  29.880  1.00  0.00     0.049 A 
ATOM     46  N   UNL A   1      39.905  30.176  29.120  1.00  0.00    -0.248 NA
ATOM     47  C   UNL A   1      38.367  28.818  28.139  1.00  0.00     0.031 C 
ATOM     48  C   UNL A   1      41.939  28.334  31.105  1.00  0.00     0.029 A 
ATOM     49  N   UNL A   1      42.620  26.660  29.779  1.00  0.00    -0.354 N 
ATOM     50  C   UNL A   1      38.668  30.790  29.201  1.00  0.00     0.074 A 
ATOM     51  C   UNL A   1      37.795  29.997  28.391  1.00  0.00     0.031 C 
ATOM     52  C   UNL A   1      43.233  28.088  31.403  1.00  0.00     0.029 A 
ATOM     53  C   UNL A   1      43.770  27.292  30.314  1.00  0.00     0.049 A 
ATOM     54  H   UNL A   1      42.554  25.747  29.414  1.00  0.00     0.167 HD
ATOM     55  C   UNL A   1      38.531  31.764  30.142  1.00  0.00     0.037 A 
ATOM     56  C   UNL A   1      44.769  27.684  29.464  1.00  0.00     0.037 A 
ATOM     57  C   UNL A   1      39.836  31.963  30.773  1.00  0.00     0.049 A 
ATOM     58  C   UNL A   1      44.823  29.196  29.397  1.00  0.00     0.074 A 
ATOM     59  C   UNL A   1      40.387  31.477  31.946  1.00  0.00     0.029 A 
ATOM     60  N   UNL A   1      40.900  32.342  29.964  1.00  0.00    -0.354 N 
ATOM     61  N   UNL A   1      43.776  29.974  29.509  1.00  0.00    -0.248 NA
ATOM     62  C   UNL A   1      46.080  29.933  29.348  1.00  0.00     0.031 C 
ATOM     63  C   UNL A   1      41.806  31.519  31.801  1.00  0.00     0.029 A 
ATOM     64  C   UNL A   1      42.109  32.023  30.544  1.00  0.00     0.049 A 
ATOM     65  H   UNL A   1      40.802  32.783  29.089  1.00  0.00     0.167 HD
ATOM     66  C   UNL A   1      44.195  31.277  29.626  1.00  0.00     0.074 A 
ATOM     67  C   UNL A   1      45.642  31.191  29.521  1.00  0.00     0.031 C 
ATOM     68  C   UNL A   1      43.352  32.334  29.849  1.00  0.00     0.037 A 
BRANCH  55  69
ATOM     69  C   UNL A   1      37.257  32.355  30.708  1.00  0.00     0.064 A 
ATOM     70  C   UNL A   1      36.509  33.250  29.908  1.00  0.00     0.173 A 
ATOM     71  C   UNL A   1      36.732  32.155  32.001  1.00  0.00     0.173 A 
ATOM     72  F   UNL A   1      36.856  33.508  28.639  1.00  0.00    -0.203 F 
ATOM     73  C   UNL A   1      35.374  33.918  30.371  1.00  0.00     0.198 A 
ATOM     74  C   UNL A   1      35.584  32.816  32.461  1.00  0.00     0.198 A 
ATOM     75  F   UNL A   1      37.293  31.321  32.879  1.00  0.00    -0.203 F 
ATOM     76  F   UNL A   1      34.736  34.777  29.564  1.00  0.00    -0.200 F 
ATOM     77  C   UNL A   1      34.911  33.704  31.650  1.00  0.00     0.200 A 
ATOM     78  F   UNL A   1      35.140  32.586  33.706  1.00  0.00    -0.200 F 
ATOM     79  F   UNL A   1      33.821  34.342  32.095  1.00  0.00    -0.200 F 
ENDBRANCH  55  69
BRANCH  56  80
ATOM     80  C   UNL A   1      44.904  26.713  28.331  1.00  0.00     0.064 A 
ATOM     81  C   UNL A   1      44.475  27.173  27.062  1.00  0.00     0.173 A 
ATOM     82  C   UNL A   1      45.855  25.687  28.350  1.00  0.00     0.173 A 
ATOM     83  F   UNL A   1      43.536  28.131  26.981  1.00  0.00    -0.203 F 
ATOM     84  C   UNL A   1      45.155  26.822  25.899  1.00  0.00     0.198 A 
ATOM     85  C   UNL A   1      46.470  25.271  27.165  1.00  0.00     0.198 A 
ATOM     86  F   UNL A   1      46.299  25.191  29.513  1.00  0.00    -0.203 F 
ATOM     87  F   UNL A   1      44.903  27.474  24.753  1.00  0.00    -0.200 F 
ATOM     88  C   UNL A   1      46.174  25.891  25.957  1.00  0.00     0.200 A 
ATOM     89  F   UNL A   1      47.450  24.355  27.208  1.00  0.00    -0.200 F 
ATOM     90  F   UNL A   1      46.904  25.631  24.865  1.00  0.00    -0.200 F 
ENDBRANCH  56  80
BRANCH  68  91
ATOM     91  C   UNL A   1      43.654  33.790  29.527  1.00  0.00     0.064 A 
ATOM     92  C   UNL A   1      43.880  34.281  28.231  1.00  0.00     0.173 A 
ATOM     93  C   UNL A   1      43.591  34.799  30.529  1.00  0.00     0.173 A 
ATOM     94  F   UNL A   1      43.761  33.507  27.148  1.00  0.00    -0.203 F 
ATOM     95  C   UNL A   1      44.168  35.624  27.981  1.00  0.00     0.198 A 
ATOM     96  C   UNL A   1      43.764  36.153  30.256  1.00  0.00     0.198 A 
ATOM     97  F   UNL A   1      43.325  34.530  31.813  1.00  0.00    -0.203 F 
ATOM     98  F   UNL A   1      44.484  36.006  26.736  1.00  0.00    -0.200 F 
ATOM     99  C   UNL A   1      44.099  36.562  28.988  1.00  0.00     0.200 A 
ATOM    100  F   UNL A   1      43.586  37.053  31.234  1.00  0.00    -0.200 F 
ATOM    101  F   UNL A   1      44.326  37.855  28.734  1.00  0.00    -0.200 F 
ENDBRANCH  68  91
ENDBRANCH  42  43
ENDBRANCH  34  37
ENDBRANCH  32  33
ENDBRANCH  31  32
ENDBRANCH  30  31
ENDBRANCH   3  30
TORSDOF 16
ENDMDL
MODEL 3
REMARK VINA RESULT:     -13.3      3.543      6.207
REMARK SMILES CCOc1ccc(C(=O)NC(=S)Nc2cccc(C(=O)NCCCNC(=O)c3ccc(-c4c5nc(c(-c6c(F)c(F)c(F)c(F)c6F)c6ccc([nH]6)c(-c6c(F)c(F)c(F)c(F)c6F)c6nc(c(-c7c(F)c(F)c(F)c(F)c7F)c7ccc4[nH]7)C=C6)C=C5)cc3)c2C)cc1Br
REMARK SMILES IDX 19 1 20 2 21 3 18 5 14 6 15 7 91 8 16 9 92 10 17 11 13 12
REMARK SMILES IDX 11 14 12 15 10 16 8 17 9 18 7 20 4 21 5 22 94 23 6 24 93 25
REMARK SMILES IDX 95 26 3 27 2 28 1 29 22 30 23 31 24 32 25 33 26 34 27 36
REMARK SMILES IDX 28 37 29 38 90 39 30 40 89 41 31 42 32 43 33 44 83 45 34 46
REMARK SMILES IDX 88 47 82 48 84 49 35 50 87 51 81 52 80 53 36 55 68 56 48 57
REMARK SMILES IDX 67 58 49 59 52 60 66 61 85 62 50 63 51 64 65 66 86 67 53 68
REMARK SMILES IDX 37 69 38 70 46 71 39 72 40 73 44 74 47 75 41 76 42 77 45 78
REMARK SMILES IDX 43 79 69 80 70 81 78 82 71 83 72 84 76 85 79 86 73 87 74 88
REMARK SMILES IDX 77 89 75 90 54 91 55 92 63 93 56 94 57 95 61 96 64 97 58 98
REMARK SMILES IDX 59 99 62 100 60 101
REMARK H PARENT 21 4 13 13 10 19 25 35 84 54 52 65
REMARK Flexibility Score: inf
ROOT
ATOM      1  C   UNL A   1      33.100  20.741  24.914  1.00  0.00     0.251 C 
ATOM      2  O   UNL A   1      32.131  20.082  25.288  1.00  0.00    -0.269 OA
ATOM      3  N   UNL A   1      34.351  20.300  25.352  1.00  0.00    -0.352 N 
ATOM      4  H   UNL A   1      34.244  19.651  26.085  1.00  0.00     0.163 HD
ENDROOT
BRANCH   1   5
ATOM      5  C   UNL A   1      32.830  21.994  24.139  1.00  0.00     0.044 A 
ATOM      6  C   UNL A   1      32.602  25.144  23.667  1.00  0.00     0.044 A 
ATOM      7  C   UNL A   1      32.779  25.060  21.909  1.00  0.00     0.026 A 
ATOM      8  C   UNL A   1      32.780  23.683  24.758  1.00  0.00    -0.015 A 
ATOM      9  C   UNL A   1      32.905  23.461  21.197  1.00  0.00     0.003 A 
ATOM     10  C   UNL A   1      32.830  23.945  26.234  1.00  0.00     0.047 C 
ATOM     11  C   UNL A   1      32.812  21.824  22.382  1.00  0.00     0.014 A 
BRANCH   6  12
ATOM     12  N   UNL A   1      31.399  25.890  23.893  1.00  0.00    -0.332 N 
ATOM     13  H   UNL A   1      30.558  25.417  23.696  1.00  0.00     0.169 HD
BRANCH  12  14
ATOM     14  C   UNL A   1      31.265  27.192  24.351  1.00  0.00     0.177 C 
ATOM     15  S   UNL A   1      31.011  28.372  23.183  1.00  0.00    -0.040 S 
BRANCH  14  16
ATOM     16  N   UNL A   1      31.400  27.656  25.726  1.00  0.00    -0.299 N 
ATOM     17  C   UNL A   1      31.710  28.665  26.825  1.00  0.00     0.257 C 
ATOM     18  O   UNL A   1      31.577  28.331  28.000  1.00  0.00    -0.269 OA
ATOM     19  H   UNL A   1      31.140  26.858  26.242  1.00  0.00     0.172 HD
BRANCH  17  20
ATOM     20  C   UNL A   1      32.224  30.044  26.506  1.00  0.00     0.041 A 
ATOM     21  C   UNL A   1      33.781  33.133  28.011  1.00  0.00     0.133 A 
ATOM     22  C   UNL A   1      32.152  33.128  27.250  1.00  0.00     0.048 A 
ATOM     23  C   UNL A   1      34.656  31.577  28.082  1.00  0.00     0.060 A 
ATOM     24  C   UNL A   1      31.394  31.621  26.546  1.00  0.00     0.018 A 
ATOM     25  C   UNL A   1      33.815  30.002  27.137  1.00  0.00     0.033 A 
ATOM     26  Br  UNL A   1      35.695  31.722  29.980  1.00  0.00    -0.047 Br
BRANCH  21  27
ATOM     27  O   UNL A   1      34.529  34.274  28.248  1.00  0.00    -0.493 OA
BRANCH  27  28
ATOM     28  C   UNL A   1      34.053  35.138  29.333  1.00  0.00     0.226 C 
ATOM     29  C   UNL A   1      33.099  36.311  29.089  1.00  0.00     0.049 C 
ENDBRANCH  27  28
ENDBRANCH  21  27
ENDBRANCH  17  20
ENDBRANCH  14  16
ENDBRANCH  12  14
ENDBRANCH   6  12
ENDBRANCH   1   5
BRANCH   3  30
ATOM     30  C   UNL A   1      35.792  20.506  25.053  1.00  0.00     0.118 C 
BRANCH  30  31
ATOM     31  C   UNL A   1      36.476  21.692  25.746  1.00  0.00     0.042 C 
BRANCH  31  32
ATOM     32  C   UNL A   1      37.871  21.990  25.229  1.00  0.00     0.118 C 
BRANCH  32  33
ATOM     33  N   UNL A   1      38.888  21.846  26.270  1.00  0.00    -0.352 N 
ATOM     34  C   UNL A   1      39.691  22.789  26.894  1.00  0.00     0.251 C 
ATOM     35  H   UNL A   1      39.025  20.923  26.581  1.00  0.00     0.163 HD
ATOM     36  O   UNL A   1      40.670  22.424  27.537  1.00  0.00    -0.269 OA
BRANCH  34  37
ATOM     37  C   UNL A   1      39.244  24.205  26.986  1.00  0.00     0.039 A 
ATOM     38  C   UNL A   1      39.878  25.042  26.053  1.00  0.00     0.014 A 
ATOM     39  C   UNL A   1      38.908  24.692  28.234  1.00  0.00     0.014 A 
ATOM     40  C   UNL A   1      40.561  26.149  26.517  1.00  0.00     0.010 A 
ATOM     41  C   UNL A   1      39.758  25.626  28.749  1.00  0.00     0.010 A 
ATOM     42  C   UNL A   1      40.634  26.296  27.889  1.00  0.00    -0.014 A 
BRANCH  42  43
ATOM     43  C   UNL A   1      41.392  27.311  28.574  1.00  0.00     0.031 A 
ATOM     44  C   UNL A   1      40.611  28.554  28.731  1.00  0.00     0.074 A 
ATOM     45  C   UNL A   1      42.516  26.882  29.198  1.00  0.00     0.049 A 
ATOM     46  N   UNL A   1      41.096  29.694  29.028  1.00  0.00    -0.248 NA
ATOM     47  C   UNL A   1      39.158  28.634  28.486  1.00  0.00     0.031 C 
ATOM     48  C   UNL A   1      43.297  27.451  30.293  1.00  0.00     0.029 A 
ATOM     49  N   UNL A   1      43.319  25.800  28.778  1.00  0.00    -0.354 N 
ATOM     50  C   UNL A   1      40.038  30.464  29.478  1.00  0.00     0.074 A 
ATOM     51  C   UNL A   1      38.864  29.859  28.926  1.00  0.00     0.031 C 
ATOM     52  C   UNL A   1      44.569  27.010  30.202  1.00  0.00     0.029 A 
ATOM     53  C   UNL A   1      44.655  26.228  28.981  1.00  0.00     0.049 A 
ATOM     54  H   UNL A   1      43.017  24.934  28.419  1.00  0.00     0.167 HD
ATOM     55  C   UNL A   1      40.317  31.378  30.448  1.00  0.00     0.037 A 
ATOM     56  C   UNL A   1      45.427  26.540  27.894  1.00  0.00     0.037 A 
ATOM     57  C   UNL A   1      41.761  31.349  30.687  1.00  0.00     0.049 A 
ATOM     58  C   UNL A   1      45.689  28.031  27.860  1.00  0.00     0.074 A 
ATOM     59  C   UNL A   1      42.535  30.709  31.637  1.00  0.00     0.029 A 
ATOM     60  N   UNL A   1      42.603  31.636  29.620  1.00  0.00    -0.354 N 
ATOM     61  N   UNL A   1      44.845  28.936  28.290  1.00  0.00    -0.248 NA
ATOM     62  C   UNL A   1      46.979  28.591  27.477  1.00  0.00     0.031 C 
ATOM     63  C   UNL A   1      43.847  30.566  31.095  1.00  0.00     0.029 A 
ATOM     64  C   UNL A   1      43.863  31.113  29.821  1.00  0.00     0.049 A 
ATOM     65  H   UNL A   1      42.334  32.148  28.822  1.00  0.00     0.167 HD
ATOM     66  C   UNL A   1      45.473  30.157  28.323  1.00  0.00     0.074 A 
ATOM     67  C   UNL A   1      46.804  29.881  27.807  1.00  0.00     0.031 C 
ATOM     68  C   UNL A   1      44.896  31.300  28.810  1.00  0.00     0.037 A 
BRANCH  55  69
ATOM     69  C   UNL A   1      39.356  32.095  31.372  1.00  0.00     0.064 A 
ATOM     70  C   UNL A   1      38.836  31.396  32.487  1.00  0.00     0.173 A 
ATOM     71  C   UNL A   1      38.860  33.406  31.226  1.00  0.00     0.173 A 
ATOM     72  F   UNL A   1      39.245  30.155  32.785  1.00  0.00    -0.203 F 
ATOM     73  C   UNL A   1      37.875  31.937  33.343  1.00  0.00     0.198 A 
ATOM     74  C   UNL A   1      37.905  33.954  32.094  1.00  0.00     0.198 A 
ATOM     75  F   UNL A   1      39.266  34.219  30.248  1.00  0.00    -0.203 F 
ATOM     76  F   UNL A   1      37.404  31.200  34.359  1.00  0.00    -0.200 F 
ATOM     77  C   UNL A   1      37.406  33.216  33.146  1.00  0.00     0.200 A 
ATOM     78  F   UNL A   1      37.468  35.207  31.895  1.00  0.00    -0.200 F 
ATOM     79  F   UNL A   1      36.486  33.738  33.968  1.00  0.00    -0.200 F 
ENDBRANCH  55  69
BRANCH  56  80
ATOM     80  C   UNL A   1      45.092  25.644  26.740  1.00  0.00     0.064 A 
ATOM     81  C   UNL A   1      45.248  24.255  26.966  1.00  0.00     0.173 A 
ATOM     82  C   UNL A   1      44.190  26.032  25.744  1.00  0.00     0.173 A 
ATOM     83  F   UNL A   1      46.129  23.821  27.885  1.00  0.00    -0.203 F 
ATOM     84  C   UNL A   1      44.359  23.331  26.424  1.00  0.00     0.198 A 
ATOM     85  C   UNL A   1      43.361  25.085  25.133  1.00  0.00     0.198 A 
ATOM     86  F   UNL A   1      44.000  27.329  25.465  1.00  0.00    -0.203 F 
ATOM     87  F   UNL A   1      44.361  22.062  26.862  1.00  0.00    -0.200 F 
ATOM     88  C   UNL A   1      43.395  23.754  25.529  1.00  0.00     0.200 A 
ATOM     89  F   UNL A   1      42.433  25.483  24.250  1.00  0.00    -0.200 F 
ATOM     90  F   UNL A   1      42.469  22.893  25.088  1.00  0.00    -0.200 F 
ENDBRANCH  56  80
BRANCH  68  91
ATOM     91  C   UNL A   1      45.314  32.721  28.459  1.00  0.00     0.064 A 
ATOM     92  C   UNL A   1      46.114  33.533  29.279  1.00  0.00     0.173 A 
ATOM     93  C   UNL A   1      45.027  33.285  27.185  1.00  0.00     0.173 A 
ATOM     94  F   UNL A   1      46.654  33.081  30.416  1.00  0.00    -0.203 F 
ATOM     95  C   UNL A   1      46.465  34.837  28.926  1.00  0.00     0.198 A 
ATOM     96  C   UNL A   1      45.476  34.542  26.792  1.00  0.00     0.198 A 
ATOM     97  F   UNL A   1      44.328  32.636  26.246  1.00  0.00    -0.203 F 
ATOM     98  F   UNL A   1      47.136  35.596  29.802  1.00  0.00    -0.200 F 
ATOM     99  C   UNL A   1      46.157  35.338  27.680  1.00  0.00     0.200 A 
ATOM    100  F   UNL A   1      45.254  34.962  25.537  1.00  0.00    -0.200 F 
ATOM    101  F   UNL A   1      46.538  36.571  27.327  1.00  0.00    -0.200 F 
ENDBRANCH  68  91
ENDBRANCH  42  43
ENDBRANCH  34  37
ENDBRANCH  32  33
ENDBRANCH  31  32
ENDBRANCH  30  31
ENDBRANCH   3  30
TORSDOF 16
ENDMDL
