MODEL 1
REMARK VINA RESULT:     -13.3      0.000      0.000
REMARK SMILES COc1ccc([C@@H]2Nc3c(C(=O)NCCCNC(=O)c4ccc(-c5c6nc(c(-c7c(F)c(F)c(F)c(F)c7F)c7ccc([nH]7)c(-c7c(F)c(F)c(F)c(F)c7F)c7nc(c(-c8c(F)c(F)c(F)c(F)c8F)c8ccc5[nH]8)C=C7)C=C6)cc4)cccc3[C@@H]3[C@H]4CC[C@H](C4)[C@H]32)cc1[N+](=O)[O-]
REMARK SMILES IDX 15 1 14 2 13 3 11 4 12 5 10 7 7 8 8 9 93 10 9 11 87 13 91 14
REMARK SMILES IDX 86 15 88 16 90 17 92 18 83 19 85 20 89 21 84 22 6 23 3 24
REMARK SMILES IDX 4 25 95 26 5 27 94 28 2 29 1 30 96 31 97 32 98 33 16 34
REMARK SMILES IDX 17 35 18 36 19 38 20 39 21 40 82 41 22 42 81 43 23 44 24 45
REMARK SMILES IDX 25 46 75 47 26 48 80 49 74 50 76 51 27 52 79 53 73 54 72 55
REMARK SMILES IDX 28 57 60 58 40 59 59 60 41 61 44 62 58 63 77 64 42 65 43 66
REMARK SMILES IDX 57 68 78 69 45 70 29 71 30 72 38 73 31 74 32 75 36 76 39 77
REMARK SMILES IDX 33 78 34 79 37 80 35 81 61 82 62 83 70 84 63 85 64 86 68 87
REMARK SMILES IDX 71 88 65 89 66 90 69 91 67 92 46 93 47 94 55 95 48 96 49 97
REMARK SMILES IDX 53 98 56 99 50 100 51 101 54 102 52 103
REMARK H PARENT 13 6 8 12 17 37 76 56 44 67
REMARK Flexibility Score: inf
ROOT
ATOM      1  C   UNL A   1      32.980  28.273  26.076  1.00  0.00     0.042 C 
ENDROOT
BRANCH   1   2
ATOM      2  C   UNL A   1      33.620  26.977  25.625  1.00  0.00     0.118 C 
BRANCH   2   3
ATOM      3  N   UNL A   1      34.028  26.937  24.234  1.00  0.00    -0.352 N 
ATOM      4  C   UNL A   1      33.626  26.105  23.219  1.00  0.00     0.253 C 
ATOM      5  O   UNL A   1      34.039  26.345  22.084  1.00  0.00    -0.269 OA
ATOM      6  H   UNL A   1      34.698  27.612  23.979  1.00  0.00     0.163 HD
BRANCH   4   7
ATOM      7  C   UNL A   1      32.832  24.871  23.463  1.00  0.00     0.063 A 
ATOM      8  C   UNL A   1      35.191  21.945  24.188  1.00  0.00     0.114 C 
ATOM      9  N   UNL A   1      34.698  23.328  24.043  1.00  0.00    -0.377 N 
ATOM     10  C   UNL A   1      34.053  21.178  24.843  1.00  0.00     0.027 C 
ATOM     11  C   UNL A   1      33.337  23.589  23.747  1.00  0.00     0.051 A 
ATOM     12  H   UNL A   1      35.324  24.080  24.154  1.00  0.00     0.161 HD
ATOM     13  C   UNL A   1      32.978  21.114  23.745  1.00  0.00     0.030 C 
ATOM     14  C   UNL A   1      34.056  19.758  25.407  1.00  0.00    -0.005 C 
ATOM     15  C   UNL A   1      32.401  22.499  23.701  1.00  0.00    -0.020 A 
ATOM     16  C   UNL A   1      32.250  19.795  24.072  1.00  0.00    -0.003 C 
ATOM     17  C   UNL A   1      34.389  18.695  24.360  1.00  0.00     0.004 C 
ATOM     18  C   UNL A   1      32.528  19.584  25.561  1.00  0.00     0.008 C 
ATOM     19  C   UNL A   1      31.436  25.066  23.357  1.00  0.00     0.016 A 
ATOM     20  C   UNL A   1      31.028  22.708  23.557  1.00  0.00     0.006 A 
ATOM     21  C   UNL A   1      33.125  18.658  23.481  1.00  0.00     0.004 C 
ATOM     22  C   UNL A   1      30.542  24.000  23.429  1.00  0.00     0.001 A 
BRANCH   8  23
ATOM     23  C   UNL A   1      36.499  21.817  24.939  1.00  0.00    -0.018 A 
ATOM     24  C   UNL A   1      39.122  21.813  26.016  1.00  0.00     0.196 A 
ATOM     25  C   UNL A   1      38.601  20.679  25.382  1.00  0.00     0.054 A 
ATOM     26  C   UNL A   1      38.318  22.948  26.126  1.00  0.00     0.311 A 
ATOM     27  C   UNL A   1      37.302  20.675  24.857  1.00  0.00     0.010 A 
ATOM     28  C   UNL A   1      37.009  22.947  25.612  1.00  0.00     0.095 A 
BRANCH  24  29
ATOM     29  O   UNL A   1      40.440  21.753  26.368  1.00  0.00    -0.490 OA
ATOM     30  C   UNL A   1      40.829  20.458  26.822  1.00  0.00     0.278 C 
ENDBRANCH  24  29
BRANCH  26  31
ATOM     31  N   UNL A   1      38.814  24.192  26.704  1.00  0.00     0.066 N 
ATOM     32  O   UNL A   1      39.530  24.898  25.977  1.00  0.00    -0.258 OA
ATOM     33  O   UNL A   1      38.528  24.453  27.878  1.00  0.00    -0.258 OA
ENDBRANCH  26  31
ENDBRANCH   8  23
ENDBRANCH   4   7
ENDBRANCH   2   3
ENDBRANCH   1   2
BRANCH   1  34
ATOM     34  C   UNL A   1      33.574  29.534  25.480  1.00  0.00     0.118 C 
BRANCH  34  35
ATOM     35  N   UNL A   1      33.173  30.759  26.162  1.00  0.00    -0.352 N 
ATOM     36  C   UNL A   1      33.698  31.423  27.243  1.00  0.00     0.251 C 
ATOM     37  H   UNL A   1      32.378  31.190  25.776  1.00  0.00     0.163 HD
ATOM     38  O   UNL A   1      33.079  32.379  27.715  1.00  0.00    -0.269 OA
BRANCH  36  39
ATOM     39  C   UNL A   1      34.964  30.994  27.878  1.00  0.00     0.039 A 
ATOM     40  C   UNL A   1      36.010  31.914  28.001  1.00  0.00     0.014 A 
ATOM     41  C   UNL A   1      35.147  29.691  28.337  1.00  0.00     0.014 A 
ATOM     42  C   UNL A   1      37.191  31.544  28.647  1.00  0.00     0.010 A 
ATOM     43  C   UNL A   1      36.252  29.373  29.116  1.00  0.00     0.010 A 
ATOM     44  C   UNL A   1      37.306  30.282  29.253  1.00  0.00    -0.014 A 
BRANCH  44  45
ATOM     45  C   UNL A   1      38.533  29.881  29.989  1.00  0.00     0.031 A 
ATOM     46  C   UNL A   1      38.768  30.365  31.396  1.00  0.00     0.074 A 
ATOM     47  C   UNL A   1      39.463  29.126  29.371  1.00  0.00     0.049 A 
ATOM     48  N   UNL A   1      39.784  30.141  32.192  1.00  0.00    -0.248 NA
ATOM     49  C   UNL A   1      37.749  31.259  31.973  1.00  0.00     0.031 C 
ATOM     50  C   UNL A   1      39.397  28.671  27.982  1.00  0.00     0.029 A 
ATOM     51  N   UNL A   1      40.649  28.612  29.833  1.00  0.00    -0.354 N 
ATOM     52  C   UNL A   1      39.529  30.875  33.344  1.00  0.00     0.074 A 
ATOM     53  C   UNL A   1      38.316  31.623  33.111  1.00  0.00     0.031 C 
ATOM     54  C   UNL A   1      40.470  27.909  27.718  1.00  0.00     0.029 A 
ATOM     55  C   UNL A   1      41.316  27.851  28.905  1.00  0.00     0.049 A 
ATOM     56  H   UNL A   1      40.988  28.774  30.743  1.00  0.00     0.167 HD
ATOM     57  C   UNL A   1      40.217  30.890  34.511  1.00  0.00     0.037 A 
ATOM     58  C   UNL A   1      42.476  27.175  29.004  1.00  0.00     0.037 A 
ATOM     59  C   UNL A   1      41.408  30.119  34.747  1.00  0.00     0.049 A 
ATOM     60  C   UNL A   1      43.209  27.173  30.317  1.00  0.00     0.074 A 
ATOM     61  C   UNL A   1      42.152  30.011  35.908  1.00  0.00     0.029 A 
ATOM     62  N   UNL A   1      42.029  29.323  33.796  1.00  0.00    -0.354 N 
ATOM     63  N   UNL A   1      42.911  27.799  31.431  1.00  0.00    -0.248 NA
ATOM     64  C   UNL A   1      44.427  26.358  30.395  1.00  0.00     0.031 C 
ATOM     65  C   UNL A   1      43.252  29.187  35.644  1.00  0.00     0.029 A 
ATOM     66  C   UNL A   1      43.160  28.734  34.338  1.00  0.00     0.049 A 
ATOM     67  H   UNL A   1      41.713  29.196  32.872  1.00  0.00     0.167 HD
ATOM     68  C   UNL A   1      43.887  27.436  32.347  1.00  0.00     0.074 A 
ATOM     69  C   UNL A   1      44.778  26.520  31.663  1.00  0.00     0.031 C 
ATOM     70  C   UNL A   1      44.033  27.824  33.639  1.00  0.00     0.037 A 
BRANCH  57  71
ATOM     71  C   UNL A   1      39.680  31.758  35.616  1.00  0.00     0.064 A 
ATOM     72  C   UNL A   1      38.671  31.307  36.483  1.00  0.00     0.173 A 
ATOM     73  C   UNL A   1      40.174  33.057  35.811  1.00  0.00     0.173 A 
ATOM     74  F   UNL A   1      38.152  30.078  36.335  1.00  0.00    -0.203 F 
ATOM     75  C   UNL A   1      38.142  32.139  37.468  1.00  0.00     0.198 A 
ATOM     76  C   UNL A   1      39.670  33.872  36.821  1.00  0.00     0.198 A 
ATOM     77  F   UNL A   1      41.142  33.539  35.019  1.00  0.00    -0.203 F 
ATOM     78  F   UNL A   1      37.127  31.709  38.231  1.00  0.00    -0.200 F 
ATOM     79  C   UNL A   1      38.646  33.418  37.639  1.00  0.00     0.200 A 
ATOM     80  F   UNL A   1      40.167  35.105  36.997  1.00  0.00    -0.200 F 
ATOM     81  F   UNL A   1      38.136  34.219  38.585  1.00  0.00    -0.200 F 
ENDBRANCH  57  71
BRANCH  58  82
ATOM     82  C   UNL A   1      42.977  26.406  27.834  1.00  0.00     0.064 A 
ATOM     83  C   UNL A   1      43.781  27.013  26.860  1.00  0.00     0.173 A 
ATOM     84  C   UNL A   1      42.693  25.040  27.687  1.00  0.00     0.173 A 
ATOM     85  F   UNL A   1      44.068  28.320  26.948  1.00  0.00    -0.203 F 
ATOM     86  C   UNL A   1      44.272  26.288  25.777  1.00  0.00     0.198 A 
ATOM     87  C   UNL A   1      43.208  24.309  26.619  1.00  0.00     0.198 A 
ATOM     88  F   UNL A   1      41.936  24.410  28.598  1.00  0.00    -0.203 F 
ATOM     89  F   UNL A   1      45.009  26.901  24.841  1.00  0.00    -0.200 F 
ATOM     90  C   UNL A   1      43.992  24.934  25.661  1.00  0.00     0.200 A 
ATOM     91  F   UNL A   1      42.949  22.998  26.521  1.00  0.00    -0.200 F 
ATOM     92  F   UNL A   1      44.474  24.234  24.626  1.00  0.00    -0.200 F 
ENDBRANCH  58  82
BRANCH  70  93
ATOM     93  C   UNL A   1      45.182  27.238  34.408  1.00  0.00     0.064 A 
ATOM     94  C   UNL A   1      46.426  27.879  34.478  1.00  0.00     0.173 A 
ATOM     95  C   UNL A   1      45.018  26.038  35.119  1.00  0.00     0.173 A 
ATOM     96  F   UNL A   1      46.637  29.021  33.806  1.00  0.00    -0.203 F 
ATOM     97  C   UNL A   1      47.474  27.327  35.211  1.00  0.00     0.198 A 
ATOM     98  C   UNL A   1      46.056  25.507  35.876  1.00  0.00     0.198 A 
ATOM     99  F   UNL A   1      43.843  25.390  35.091  1.00  0.00    -0.203 F 
ATOM    100  F   UNL A   1      48.670  27.932  35.224  1.00  0.00    -0.200 F 
ATOM    101  C   UNL A   1      47.286  26.147  35.915  1.00  0.00     0.200 A 
ATOM    102  F   UNL A   1      45.867  24.376  36.570  1.00  0.00    -0.200 F 
ATOM    103  F   UNL A   1      48.293  25.623  36.627  1.00  0.00    -0.200 F 
ENDBRANCH  70  93
ENDBRANCH  44  45
ENDBRANCH  36  39
ENDBRANCH  34  35
ENDBRANCH   1  34
TORSDOF 13
ENDMDL
MODEL 2
REMARK VINA RESULT:     -13.1      3.980      9.801
REMARK SMILES COc1ccc([C@@H]2Nc3c(C(=O)NCCCNC(=O)c4ccc(-c5c6nc(c(-c7c(F)c(F)c(F)c(F)c7F)c7ccc([nH]7)c(-c7c(F)c(F)c(F)c(F)c7F)c7nc(c(-c8c(F)c(F)c(F)c(F)c8F)c8ccc5[nH]8)C=C7)C=C6)cc4)cccc3[C@@H]3[C@H]4CC[C@H](C4)[C@H]32)cc1[N+](=O)[O-]
REMARK SMILES IDX 15 1 14 2 13 3 11 4 12 5 10 7 7 8 8 9 93 10 9 11 87 13 91 14
REMARK SMILES IDX 86 15 88 16 90 17 92 18 83 19 85 20 89 21 84 22 6 23 3 24
REMARK SMILES IDX 4 25 95 26 5 27 94 28 2 29 1 30 96 31 97 32 98 33 16 34
REMARK SMILES IDX 17 35 18 36 19 38 20 39 21 40 82 41 22 42 81 43 23 44 24 45
REMARK SMILES IDX 25 46 75 47 26 48 80 49 74 50 76 51 27 52 79 53 73 54 72 55
REMARK SMILES IDX 28 57 60 58 40 59 59 60 41 61 44 62 58 63 77 64 42 65 43 66
REMARK SMILES IDX 57 68 78 69 45 70 29 71 30 72 38 73 31 74 32 75 36 76 39 77
REMARK SMILES IDX 33 78 34 79 37 80 35 81 61 82 62 83 70 84 63 85 64 86 68 87
REMARK SMILES IDX 71 88 65 89 66 90 69 91 67 92 46 93 47 94 55 95 48 96 49 97
REMARK SMILES IDX 53 98 56 99 50 100 51 101 54 102 52 103
REMARK H PARENT 13 6 8 12 17 37 76 56 44 67
REMARK Flexibility Score: inf
ROOT
ATOM      1  C   UNL A   1      35.512  22.481  25.285  1.00  0.00     0.042 C 
ENDROOT
BRANCH   1   2
ATOM      2  C   UNL A   1      34.894  23.812  25.655  1.00  0.00     0.118 C 
BRANCH   2   3
ATOM      3  N   UNL A   1      33.901  23.764  26.710  1.00  0.00    -0.352 N 
ATOM      4  C   UNL A   1      32.538  23.916  26.649  1.00  0.00     0.253 C 
ATOM      5  O   UNL A   1      31.891  23.717  27.677  1.00  0.00    -0.269 OA
ATOM      6  H   UNL A   1      34.261  23.595  27.611  1.00  0.00     0.163 HD
BRANCH   4   7
ATOM      7  C   UNL A   1      31.845  24.432  25.438  1.00  0.00     0.063 A 
ATOM      8  C   UNL A   1      31.424  28.227  25.716  1.00  0.00     0.114 C 
ATOM      9  N   UNL A   1      31.941  26.867  25.955  1.00  0.00    -0.377 N 
ATOM     10  C   UNL A   1      31.223  28.324  24.212  1.00  0.00     0.027 C 
ATOM     11  C   UNL A   1      31.495  25.770  25.175  1.00  0.00     0.051 A 
ATOM     12  H   UNL A   1      32.606  26.719  26.665  1.00  0.00     0.161 HD
ATOM     13  C   UNL A   1      30.038  27.384  23.941  1.00  0.00     0.030 C 
ATOM     14  C   UNL A   1      30.889  29.553  23.368  1.00  0.00    -0.005 C 
ATOM     15  C   UNL A   1      30.615  26.004  24.064  1.00  0.00    -0.020 A 
ATOM     16  C   UNL A   1      29.381  28.028  22.704  1.00  0.00    -0.003 C 
ATOM     17  C   UNL A   1      29.561  30.205  23.753  1.00  0.00     0.004 C 
ATOM     18  C   UNL A   1      30.518  28.822  22.059  1.00  0.00     0.008 C 
ATOM     19  C   UNL A   1      31.503  23.425  24.507  1.00  0.00     0.016 A 
ATOM     20  C   UNL A   1      30.258  24.987  23.176  1.00  0.00     0.006 A 
ATOM     21  C   UNL A   1      28.514  29.201  23.235  1.00  0.00     0.004 C 
ATOM     22  C   UNL A   1      30.741  23.703  23.376  1.00  0.00     0.001 A 
BRANCH   8  23
ATOM     23  C   UNL A   1      32.289  29.338  26.270  1.00  0.00    -0.018 A 
ATOM     24  C   UNL A   1      33.853  31.223  27.699  1.00  0.00     0.196 A 
ATOM     25  C   UNL A   1      32.554  31.534  27.279  1.00  0.00     0.054 A 
ATOM     26  C   UNL A   1      34.377  29.968  27.385  1.00  0.00     0.311 A 
ATOM     27  C   UNL A   1      31.783  30.608  26.564  1.00  0.00     0.010 A 
ATOM     28  C   UNL A   1      33.612  29.038  26.659  1.00  0.00     0.095 A 
BRANCH  24  29
ATOM     29  O   UNL A   1      34.462  32.145  28.501  1.00  0.00    -0.490 OA
ATOM     30  C   UNL A   1      34.286  33.481  28.036  1.00  0.00     0.278 C 
ENDBRANCH  24  29
BRANCH  26  31
ATOM     31  N   UNL A   1      35.690  29.542  27.852  1.00  0.00     0.066 N 
ATOM     32  O   UNL A   1      36.565  29.378  26.987  1.00  0.00    -0.258 OA
ATOM     33  O   UNL A   1      35.849  29.336  29.062  1.00  0.00    -0.258 OA
ENDBRANCH  26  31
ENDBRANCH   8  23
ENDBRANCH   4   7
ENDBRANCH   2   3
ENDBRANCH   1   2
BRANCH   1  34
ATOM     34  C   UNL A   1      36.960  22.537  24.840  1.00  0.00     0.118 C 
BRANCH  34  35
ATOM     35  N   UNL A   1      37.789  21.466  25.381  1.00  0.00    -0.352 N 
ATOM     36  C   UNL A   1      38.958  21.483  26.100  1.00  0.00     0.251 C 
ATOM     37  H   UNL A   1      37.445  20.563  25.198  1.00  0.00     0.163 HD
ATOM     38  O   UNL A   1      39.538  20.417  26.322  1.00  0.00    -0.269 OA
BRANCH  36  39
ATOM     39  C   UNL A   1      39.558  22.748  26.577  1.00  0.00     0.039 A 
ATOM     40  C   UNL A   1      40.606  22.699  27.502  1.00  0.00     0.014 A 
ATOM     41  C   UNL A   1      39.091  23.988  26.145  1.00  0.00     0.014 A 
ATOM     42  C   UNL A   1      41.222  23.880  27.922  1.00  0.00     0.010 A 
ATOM     43  C   UNL A   1      39.802  25.144  26.437  1.00  0.00     0.010 A 
ATOM     44  C   UNL A   1      40.856  25.113  27.356  1.00  0.00    -0.014 A 
BRANCH  44  45
ATOM     45  C   UNL A   1      41.528  26.379  27.748  1.00  0.00     0.031 A 
ATOM     46  C   UNL A   1      42.936  26.665  27.293  1.00  0.00     0.074 A 
ATOM     47  C   UNL A   1      40.893  27.246  28.562  1.00  0.00     0.049 A 
ATOM     48  N   UNL A   1      43.696  27.701  27.549  1.00  0.00    -0.248 NA
ATOM     49  C   UNL A   1      43.597  25.631  26.481  1.00  0.00     0.031 C 
ATOM     50  C   UNL A   1      39.566  27.042  29.145  1.00  0.00     0.029 A 
ATOM     51  N   UNL A   1      41.281  28.472  29.040  1.00  0.00    -0.354 N 
ATOM     52  C   UNL A   1      44.917  27.430  26.943  1.00  0.00     0.074 A 
ATOM     53  C   UNL A   1      44.830  26.099  26.391  1.00  0.00     0.031 C 
ATOM     54  C   UNL A   1      39.232  28.124  29.865  1.00  0.00     0.029 A 
ATOM     55  C   UNL A   1      40.333  29.081  29.824  1.00  0.00     0.049 A 
ATOM     56  H   UNL A   1      42.156  28.877  28.839  1.00  0.00     0.167 HD
ATOM     57  C   UNL A   1      45.999  28.236  26.816  1.00  0.00     0.037 A 
ATOM     58  C   UNL A   1      40.346  30.280  30.435  1.00  0.00     0.037 A 
ATOM     59  C   UNL A   1      46.067  29.572  27.343  1.00  0.00     0.049 A 
ATOM     60  C   UNL A   1      41.541  31.177  30.255  1.00  0.00     0.074 A 
ATOM     61  C   UNL A   1      47.088  30.498  27.223  1.00  0.00     0.029 A 
ATOM     62  N   UNL A   1      45.067  30.172  28.094  1.00  0.00    -0.354 N 
ATOM     63  N   UNL A   1      42.656  30.947  29.604  1.00  0.00    -0.248 NA
ATOM     64  C   UNL A   1      41.472  32.504  30.877  1.00  0.00     0.031 C 
ATOM     65  C   UNL A   1      46.725  31.641  27.944  1.00  0.00     0.029 A 
ATOM     66  C   UNL A   1      45.453  31.450  28.461  1.00  0.00     0.049 A 
ATOM     67  H   UNL A   1      44.209  29.750  28.332  1.00  0.00     0.167 HD
ATOM     68  C   UNL A   1      43.411  32.105  29.716  1.00  0.00     0.074 A 
ATOM     69  C   UNL A   1      42.618  33.044  30.484  1.00  0.00     0.031 C 
ATOM     70  C   UNL A   1      44.648  32.370  29.227  1.00  0.00     0.037 A 
BRANCH  57  71
ATOM     71  C   UNL A   1      47.182  27.687  26.066  1.00  0.00     0.064 A 
ATOM     72  C   UNL A   1      48.267  27.096  26.734  1.00  0.00     0.173 A 
ATOM     73  C   UNL A   1      47.236  27.754  24.666  1.00  0.00     0.173 A 
ATOM     74  F   UNL A   1      48.275  27.016  28.073  1.00  0.00    -0.203 F 
ATOM     75  C   UNL A   1      49.383  26.641  26.034  1.00  0.00     0.198 A 
ATOM     76  C   UNL A   1      48.335  27.262  23.966  1.00  0.00     0.198 A 
ATOM     77  F   UNL A   1      46.225  28.300  23.974  1.00  0.00    -0.203 F 
ATOM     78  F   UNL A   1      50.437  26.152  26.701  1.00  0.00    -0.200 F 
ATOM     79  C   UNL A   1      49.413  26.720  24.650  1.00  0.00     0.200 A 
ATOM     80  F   UNL A   1      48.359  27.325  22.627  1.00  0.00    -0.200 F 
ATOM     81  F   UNL A   1      50.487  26.284  23.977  1.00  0.00    -0.200 F 
ENDBRANCH  57  71
BRANCH  58  82
ATOM     82  C   UNL A   1      39.164  30.713  31.227  1.00  0.00     0.064 A 
ATOM     83  C   UNL A   1      39.050  30.398  32.588  1.00  0.00     0.173 A 
ATOM     84  C   UNL A   1      38.143  31.480  30.647  1.00  0.00     0.173 A 
ATOM     85  F   UNL A   1      39.993  29.654  33.184  1.00  0.00    -0.203 F 
ATOM     86  C   UNL A   1      37.955  30.824  33.336  1.00  0.00     0.198 A 
ATOM     87  C   UNL A   1      37.062  31.929  31.403  1.00  0.00     0.198 A 
ATOM     88  F   UNL A   1      38.209  31.816  29.350  1.00  0.00    -0.203 F 
ATOM     89  F   UNL A   1      37.853  30.479  34.627  1.00  0.00    -0.200 F 
ATOM     90  C   UNL A   1      36.966  31.596  32.746  1.00  0.00     0.200 A 
ATOM     91  F   UNL A   1      36.118  32.690  30.832  1.00  0.00    -0.200 F 
ATOM     92  F   UNL A   1      35.919  32.016  33.469  1.00  0.00    -0.200 F 
ENDBRANCH  58  82
BRANCH  70  93
ATOM     93  C   UNL A   1      45.211  33.738  29.481  1.00  0.00     0.064 A 
ATOM     94  C   UNL A   1      46.011  34.010  30.599  1.00  0.00     0.173 A 
ATOM     95  C   UNL A   1      44.979  34.779  28.568  1.00  0.00     0.173 A 
ATOM     96  F   UNL A   1      46.252  33.053  31.508  1.00  0.00    -0.203 F 
ATOM     97  C   UNL A   1      46.538  35.283  30.808  1.00  0.00     0.198 A 
ATOM     98  C   UNL A   1      45.534  36.039  28.763  1.00  0.00     0.198 A 
ATOM     99  F   UNL A   1      44.228  34.567  27.477  1.00  0.00    -0.203 F 
ATOM    100  F   UNL A   1      47.259  35.533  31.910  1.00  0.00    -0.200 F 
ATOM    101  C   UNL A   1      46.306  36.292  29.887  1.00  0.00     0.200 A 
ATOM    102  F   UNL A   1      45.323  37.009  27.862  1.00  0.00    -0.200 F 
ATOM    103  F   UNL A   1      46.821  37.513  30.085  1.00  0.00    -0.200 F 
ENDBRANCH  70  93
ENDBRANCH  44  45
ENDBRANCH  36  39
ENDBRANCH  34  35
ENDBRANCH   1  34
TORSDOF 13
ENDMDL
MODEL 3
REMARK VINA RESULT:     -12.9      4.084      9.924
REMARK SMILES COc1ccc([C@@H]2Nc3c(C(=O)NCCCNC(=O)c4ccc(-c5c6nc(c(-c7c(F)c(F)c(F)c(F)c7F)c7ccc([nH]7)c(-c7c(F)c(F)c(F)c(F)c7F)c7nc(c(-c8c(F)c(F)c(F)c(F)c8F)c8ccc5[nH]8)C=C7)C=C6)cc4)cccc3[C@@H]3[C@H]4CC[C@H](C4)[C@H]32)cc1[N+](=O)[O-]
REMARK SMILES IDX 15 1 14 2 13 3 11 4 12 5 10 7 7 8 8 9 93 10 9 11 87 13 91 14
REMARK SMILES IDX 86 15 88 16 90 17 92 18 83 19 85 20 89 21 84 22 6 23 3 24
REMARK SMILES IDX 4 25 95 26 5 27 94 28 2 29 1 30 96 31 97 32 98 33 16 34
REMARK SMILES IDX 17 35 18 36 19 38 20 39 21 40 82 41 22 42 81 43 23 44 24 45
REMARK SMILES IDX 25 46 75 47 26 48 80 49 74 50 76 51 27 52 79 53 73 54 72 55
REMARK SMILES IDX 28 57 60 58 40 59 59 60 41 61 44 62 58 63 77 64 42 65 43 66
REMARK SMILES IDX 57 68 78 69 45 70 29 71 30 72 38 73 31 74 32 75 36 76 39 77
REMARK SMILES IDX 33 78 34 79 37 80 35 81 61 82 62 83 70 84 63 85 64 86 68 87
REMARK SMILES IDX 71 88 65 89 66 90 69 91 67 92 46 93 47 94 55 95 48 96 49 97
REMARK SMILES IDX 53 98 56 99 50 100 51 101 54 102 52 103
REMARK H PARENT 13 6 8 12 17 37 76 56 44 67
REMARK Flexibility Score: inf
ROOT
ATOM      1  C   UNL A   1      35.908  22.151  25.811  1.00  0.00     0.042 C 
ENDROOT
BRANCH   1   2
ATOM      2  C   UNL A   1      35.067  23.388  26.051  1.00  0.00     0.118 C 
BRANCH   2   3
ATOM      3  N   UNL A   1      33.983  23.227  26.999  1.00  0.00    -0.352 N 
ATOM      4  C   UNL A   1      32.625  23.306  26.810  1.00  0.00     0.253 C 
ATOM      5  O   UNL A   1      31.896  23.016  27.758  1.00  0.00    -0.269 OA
ATOM      6  H   UNL A   1      34.263  23.030  27.922  1.00  0.00     0.163 HD
BRANCH   4   7
ATOM      7  C   UNL A   1      32.022  23.848  25.562  1.00  0.00     0.063 A 
ATOM      8  C   UNL A   1      31.490  27.621  25.923  1.00  0.00     0.114 C 
ATOM      9  N   UNL A   1      32.018  26.265  26.161  1.00  0.00    -0.377 N 
ATOM     10  C   UNL A   1      31.411  27.764  24.411  1.00  0.00     0.027 C 
ATOM     11  C   UNL A   1      31.664  25.185  25.314  1.00  0.00     0.051 A 
ATOM     12  H   UNL A   1      32.626  26.107  26.919  1.00  0.00     0.161 HD
ATOM     13  C   UNL A   1      30.275  26.809  24.014  1.00  0.00     0.030 C 
ATOM     14  C   UNL A   1      31.119  29.013  23.582  1.00  0.00    -0.005 C 
ATOM     15  C   UNL A   1      30.872  25.438  24.141  1.00  0.00    -0.020 A 
ATOM     16  C   UNL A   1      29.706  27.480  22.747  1.00  0.00    -0.003 C 
ATOM     17  C   UNL A   1      29.749  29.624  23.875  1.00  0.00     0.004 C 
ATOM     18  C   UNL A   1      30.873  28.318  22.224  1.00  0.00     0.008 C 
ATOM     19  C   UNL A   1      31.782  22.864  24.576  1.00  0.00     0.016 A 
ATOM     20  C   UNL A   1      30.613  24.443  23.196  1.00  0.00     0.006 A 
ATOM     21  C   UNL A   1      28.772  28.616  23.241  1.00  0.00     0.004 C 
ATOM     22  C   UNL A   1      31.108  23.164  23.394  1.00  0.00     0.001 A 
BRANCH   8  23
ATOM     23  C   UNL A   1      32.281  28.731  26.581  1.00  0.00    -0.018 A 
ATOM     24  C   UNL A   1      33.839  30.952  27.404  1.00  0.00     0.196 A 
ATOM     25  C   UNL A   1      34.370  29.657  27.413  1.00  0.00     0.054 A 
ATOM     26  C   UNL A   1      32.516  31.133  26.998  1.00  0.00     0.311 A 
ATOM     27  C   UNL A   1      33.599  28.556  27.016  1.00  0.00     0.010 A 
ATOM     28  C   UNL A   1      31.734  30.031  26.609  1.00  0.00     0.095 A 
BRANCH  24  29
ATOM     29  O   UNL A   1      34.716  31.963  27.680  1.00  0.00    -0.490 OA
ATOM     30  C   UNL A   1      36.040  31.492  27.918  1.00  0.00     0.278 C 
ENDBRANCH  24  29
BRANCH  26  31
ATOM     31  N   UNL A   1      31.917  32.457  26.888  1.00  0.00     0.066 N 
ATOM     32  O   UNL A   1      32.321  33.321  27.683  1.00  0.00    -0.258 OA
ATOM     33  O   UNL A   1      31.027  32.635  26.048  1.00  0.00    -0.258 OA
ENDBRANCH  26  31
ENDBRANCH   8  23
ENDBRANCH   4   7
ENDBRANCH   2   3
ENDBRANCH   1   2
BRANCH   1  34
ATOM     34  C   UNL A   1      37.359  22.409  25.457  1.00  0.00     0.118 C 
BRANCH  34  35
ATOM     35  N   UNL A   1      38.283  21.408  25.976  1.00  0.00    -0.352 N 
ATOM     36  C   UNL A   1      39.495  21.517  26.612  1.00  0.00     0.251 C 
ATOM     37  H   UNL A   1      37.981  20.480  25.848  1.00  0.00     0.163 HD
ATOM     38  O   UNL A   1      40.149  20.495  26.830  1.00  0.00    -0.269 OA
BRANCH  36  39
ATOM     39  C   UNL A   1      40.050  22.831  27.002  1.00  0.00     0.039 A 
ATOM     40  C   UNL A   1      41.014  22.890  28.014  1.00  0.00     0.014 A 
ATOM     41  C   UNL A   1      39.623  24.014  26.402  1.00  0.00     0.014 A 
ATOM     42  C   UNL A   1      41.591  24.114  28.358  1.00  0.00     0.010 A 
ATOM     43  C   UNL A   1      40.306  25.201  26.630  1.00  0.00     0.010 A 
ATOM     44  C   UNL A   1      41.275  25.277  27.636  1.00  0.00    -0.014 A 
BRANCH  44  45
ATOM     45  C   UNL A   1      41.910  26.583  27.948  1.00  0.00     0.031 A 
ATOM     46  C   UNL A   1      43.292  26.899  27.437  1.00  0.00     0.074 A 
ATOM     47  C   UNL A   1      41.267  27.464  28.740  1.00  0.00     0.049 A 
ATOM     48  N   UNL A   1      44.020  27.972  27.621  1.00  0.00    -0.248 NA
ATOM     49  C   UNL A   1      43.968  25.852  26.653  1.00  0.00     0.031 C 
ATOM     50  C   UNL A   1      39.967  27.240  29.373  1.00  0.00     0.029 A 
ATOM     51  N   UNL A   1      41.623  28.725  29.150  1.00  0.00    -0.354 N 
ATOM     52  C   UNL A   1      45.232  27.717  26.991  1.00  0.00     0.074 A 
ATOM     53  C   UNL A   1      45.180  26.360  26.503  1.00  0.00     0.031 C 
ATOM     54  C   UNL A   1      39.614  28.342  30.053  1.00  0.00     0.029 A 
ATOM     55  C   UNL A   1      40.676  29.335  29.934  1.00  0.00     0.049 A 
ATOM     56  H   UNL A   1      42.476  29.151  28.904  1.00  0.00     0.167 HD
ATOM     57  C   UNL A   1      46.279  28.555  26.793  1.00  0.00     0.037 A 
ATOM     58  C   UNL A   1      40.662  30.562  30.489  1.00  0.00     0.037 A 
ATOM     59  C   UNL A   1      46.313  29.916  27.256  1.00  0.00     0.049 A 
ATOM     60  C   UNL A   1      41.816  31.491  30.231  1.00  0.00     0.074 A 
ATOM     61  C   UNL A   1      47.294  30.871  27.063  1.00  0.00     0.029 A 
ATOM     62  N   UNL A   1      45.313  30.514  28.010  1.00  0.00    -0.354 N 
ATOM     63  N   UNL A   1      42.920  31.271  29.557  1.00  0.00    -0.248 NA
ATOM     64  C   UNL A   1      41.717  32.843  30.793  1.00  0.00     0.031 C 
ATOM     65  C   UNL A   1      46.909  32.034  27.741  1.00  0.00     0.029 A 
ATOM     66  C   UNL A   1      45.662  31.821  28.306  1.00  0.00     0.049 A 
ATOM     67  H   UNL A   1      44.479  30.073  28.293  1.00  0.00     0.167 HD
ATOM     68  C   UNL A   1      43.634  32.460  29.592  1.00  0.00     0.074 A 
ATOM     69  C   UNL A   1      42.829  33.405  30.340  1.00  0.00     0.031 C 
ATOM     70  C   UNL A   1      44.846  32.746  29.053  1.00  0.00     0.037 A 
BRANCH  57  71
ATOM     71  C   UNL A   1      47.459  28.014  26.033  1.00  0.00     0.064 A 
ATOM     72  C   UNL A   1      47.448  27.911  24.632  1.00  0.00     0.173 A 
ATOM     73  C   UNL A   1      48.613  27.590  26.708  1.00  0.00     0.173 A 
ATOM     74  F   UNL A   1      46.366  28.290  23.935  1.00  0.00    -0.203 F 
ATOM     75  C   UNL A   1      48.524  27.358  23.942  1.00  0.00     0.198 A 
ATOM     76  C   UNL A   1      49.703  27.074  26.012  1.00  0.00     0.198 A 
ATOM     77  F   UNL A   1      48.684  27.671  28.045  1.00  0.00    -0.203 F 
ATOM     78  F   UNL A   1      48.456  27.201  22.612  1.00  0.00    -0.200 F 
ATOM     79  C   UNL A   1      49.653  26.945  24.632  1.00  0.00     0.200 A 
ATOM     80  F   UNL A   1      50.801  26.687  26.678  1.00  0.00    -0.200 F 
ATOM     81  F   UNL A   1      50.687  26.411  23.968  1.00  0.00    -0.200 F 
ENDBRANCH  57  71
BRANCH  58  82
ATOM     82  C   UNL A   1      39.489  30.988  31.296  1.00  0.00     0.064 A 
ATOM     83  C   UNL A   1      38.491  31.805  30.747  1.00  0.00     0.173 A 
ATOM     84  C   UNL A   1      39.323  30.557  32.621  1.00  0.00     0.173 A 
ATOM     85  F   UNL A   1      38.611  32.255  29.489  1.00  0.00    -0.203 F 
ATOM     86  C   UNL A   1      37.378  32.184  31.495  1.00  0.00     0.198 A 
ATOM     87  C   UNL A   1      38.196  30.914  33.358  1.00  0.00     0.198 A 
ATOM     88  F   UNL A   1      40.245  29.765  33.189  1.00  0.00    -0.203 F 
ATOM     89  F   UNL A   1      36.456  32.995  30.957  1.00  0.00    -0.200 F 
ATOM     90  C   UNL A   1      37.227  31.732  32.797  1.00  0.00     0.200 A 
ATOM     91  F   UNL A   1      38.046  30.459  34.610  1.00  0.00    -0.200 F 
ATOM     92  F   UNL A   1      36.151  32.087  33.512  1.00  0.00    -0.200 F 
ENDBRANCH  58  82
BRANCH  70  93
ATOM     93  C   UNL A   1      45.364  34.144  29.227  1.00  0.00     0.064 A 
ATOM     94  C   UNL A   1      46.174  34.501  30.314  1.00  0.00     0.173 A 
ATOM     95  C   UNL A   1      45.079  35.128  28.266  1.00  0.00     0.173 A 
ATOM     96  F   UNL A   1      46.464  33.600  31.265  1.00  0.00    -0.203 F 
ATOM     97  C   UNL A   1      46.658  35.800  30.448  1.00  0.00     0.198 A 
ATOM     98  C   UNL A   1      45.592  36.415  28.386  1.00  0.00     0.198 A 
ATOM     99  F   UNL A   1      44.316  34.835  27.203  1.00  0.00    -0.203 F 
ATOM    100  F   UNL A   1      47.390  36.131  31.521  1.00  0.00    -0.200 F 
ATOM    101  C   UNL A   1      46.374  36.752  29.481  1.00  0.00     0.200 A 
ATOM    102  F   UNL A   1      45.331  37.330  27.442  1.00  0.00    -0.200 F 
ATOM    103  F   UNL A   1      46.849  37.999  29.607  1.00  0.00    -0.200 F 
ENDBRANCH  70  93
ENDBRANCH  44  45
ENDBRANCH  36  39
ENDBRANCH  34  35
ENDBRANCH   1  34
TORSDOF 13
ENDMDL
