MODEL 1
REMARK VINA RESULT:     -13.8      0.000      0.000
REMARK SMILES O=C(NCCCNC(=O)c1cc(F)c(F)cc1NS(=O)(=O)c1ccc2c(c1)CCC2)c1ccc(-c2c3nc(c(-c4c(F)c(F)c(F)c(F)c4F)c4ccc([nH]4)c(-c4c(F)c(F)c(F)c(F)c4F)c4nc(c(-c5c(F)c(F)c(F)c(F)c5F)c5ccc2[nH]5)C=C4)C=C3)cc1
REMARK SMILES IDX 5 1 4 2 3 3 1 4 2 5 31 7 32 8 93 9 33 10 92 11 34 12 35 13
REMARK SMILES IDX 36 14 86 15 37 16 91 17 85 18 87 19 38 20 90 21 84 22 83 23
REMARK SMILES IDX 39 25 71 26 51 27 70 28 52 29 55 30 69 31 88 32 53 33 54 34
REMARK SMILES IDX 68 36 89 37 56 38 40 39 41 40 49 41 42 42 43 43 47 44 50 45
REMARK SMILES IDX 44 46 45 47 48 48 46 49 72 50 73 51 81 52 74 53 75 54 79 55
REMARK SMILES IDX 82 56 76 57 77 58 80 59 78 60 57 61 58 62 66 63 59 64 60 65
REMARK SMILES IDX 64 66 67 67 61 68 62 69 65 70 63 71 6 72 7 73 8 74 9 76
REMARK SMILES IDX 10 77 11 78 17 79 12 80 16 81 13 82 14 83 15 84 18 85 19 87
REMARK SMILES IDX 20 88 21 89 22 90 23 91 27 92 24 93 26 94 25 95 28 96 30 97
REMARK SMILES IDX 29 98
REMARK H PARENT 3 6 87 24 55 35 7 75 18 86
REMARK Flexibility Score: inf
ROOT
ATOM      1  C   UNL A   1      31.439  31.761  26.552  1.00  0.00     0.042 C 
ENDROOT
BRANCH   1   2
ATOM      2  C   UNL A   1      32.719  32.452  27.008  1.00  0.00     0.118 C 
BRANCH   2   3
ATOM      3  N   UNL A   1      32.490  33.830  27.408  1.00  0.00    -0.352 N 
ATOM      4  O   UNL A   1      32.570  35.639  28.744  1.00  0.00    -0.269 OA
ATOM      5  C   UNL A   1      33.043  34.548  28.438  1.00  0.00     0.251 C 
ATOM      6  H   UNL A   1      31.842  34.324  26.857  1.00  0.00     0.163 HD
BRANCH   5   7
ATOM      7  C   UNL A   1      34.202  34.016  29.185  1.00  0.00     0.039 A 
ATOM      8  C   UNL A   1      34.028  33.068  30.197  1.00  0.00     0.014 A 
ATOM      9  C   UNL A   1      35.488  34.423  28.820  1.00  0.00     0.014 A 
ATOM     10  C   UNL A   1      35.128  32.606  30.911  1.00  0.00     0.010 A 
ATOM     11  C   UNL A   1      36.600  33.899  29.484  1.00  0.00     0.010 A 
ATOM     12  C   UNL A   1      36.425  32.992  30.538  1.00  0.00    -0.014 A 
BRANCH  12  13
ATOM     13  C   UNL A   1      37.585  32.334  31.182  1.00  0.00     0.031 A 
ATOM     14  C   UNL A   1      38.046  32.725  32.551  1.00  0.00     0.074 A 
ATOM     15  C   UNL A   1      38.202  31.344  30.509  1.00  0.00     0.049 A 
ATOM     16  N   UNL A   1      39.034  32.235  33.256  1.00  0.00    -0.248 NA
ATOM     17  C   UNL A   1      37.307  33.805  33.219  1.00  0.00     0.031 C 
ATOM     18  C   UNL A   1      37.827  30.882  29.171  1.00  0.00     0.029 A 
ATOM     19  N   UNL A   1      39.246  30.531  30.864  1.00  0.00    -0.354 N 
ATOM     20  C   UNL A   1      39.040  32.946  34.447  1.00  0.00     0.074 A 
ATOM     21  C   UNL A   1      37.973  33.921  34.360  1.00  0.00     0.031 C 
ATOM     22  C   UNL A   1      38.585  29.827  28.844  1.00  0.00     0.029 A 
ATOM     23  C   UNL A   1      39.537  29.577  29.920  1.00  0.00     0.049 A 
ATOM     24  H   UNL A   1      39.739  30.621  31.711  1.00  0.00     0.167 HD
ATOM     25  C   UNL A   1      39.861  32.792  35.513  1.00  0.00     0.037 A 
ATOM     26  C   UNL A   1      40.469  28.609  29.919  1.00  0.00     0.037 A 
ATOM     27  C   UNL A   1      40.929  31.826  35.582  1.00  0.00     0.049 A 
ATOM     28  C   UNL A   1      41.389  28.484  31.096  1.00  0.00     0.074 A 
ATOM     29  C   UNL A   1      41.839  31.613  36.604  1.00  0.00     0.029 A 
ATOM     30  N   UNL A   1      41.229  30.907  34.585  1.00  0.00    -0.354 N 
ATOM     31  N   UNL A   1      41.406  29.182  32.204  1.00  0.00    -0.248 NA
ATOM     32  C   UNL A   1      42.424  27.446  31.018  1.00  0.00     0.031 C 
ATOM     33  C   UNL A   1      42.706  30.587  36.213  1.00  0.00     0.029 A 
ATOM     34  C   UNL A   1      42.312  30.130  34.966  1.00  0.00     0.049 A 
ATOM     35  H   UNL A   1      40.743  30.820  33.733  1.00  0.00     0.167 HD
ATOM     36  C   UNL A   1      42.446  28.668  32.961  1.00  0.00     0.074 A 
ATOM     37  C   UNL A   1      43.026  27.585  32.192  1.00  0.00     0.031 C 
ATOM     38  C   UNL A   1      42.881  29.061  34.184  1.00  0.00     0.037 A 
BRANCH  25  39
ATOM     39  C   UNL A   1      39.648  33.700  36.688  1.00  0.00     0.064 A 
ATOM     40  C   UNL A   1      38.808  33.319  37.744  1.00  0.00     0.173 A 
ATOM     41  C   UNL A   1      40.246  34.968  36.750  1.00  0.00     0.173 A 
ATOM     42  F   UNL A   1      38.210  32.118  37.732  1.00  0.00    -0.203 F 
ATOM     43  C   UNL A   1      38.570  34.175  38.816  1.00  0.00     0.198 A 
ATOM     44  C   UNL A   1      40.024  35.813  37.835  1.00  0.00     0.198 A 
ATOM     45  F   UNL A   1      41.070  35.374  35.772  1.00  0.00    -0.203 F 
ATOM     46  F   UNL A   1      37.748  33.796  39.806  1.00  0.00    -0.200 F 
ATOM     47  C   UNL A   1      39.182  35.418  38.863  1.00  0.00     0.200 A 
ATOM     48  F   UNL A   1      40.636  37.003  37.891  1.00  0.00    -0.200 F 
ATOM     49  F   UNL A   1      38.965  36.234  39.905  1.00  0.00    -0.200 F 
ENDBRANCH  25  39
BRANCH  26  50
ATOM     50  C   UNL A   1      40.535  27.675  28.770  1.00  0.00     0.064 A 
ATOM     51  C   UNL A   1      41.302  27.968  27.634  1.00  0.00     0.173 A 
ATOM     52  C   UNL A   1      39.754  26.512  28.753  1.00  0.00     0.173 A 
ATOM     53  F   UNL A   1      42.057  29.076  27.602  1.00  0.00    -0.203 F 
ATOM     54  C   UNL A   1      41.258  27.150  26.508  1.00  0.00     0.198 A 
ATOM     55  C   UNL A   1      39.728  25.682  27.636  1.00  0.00     0.198 A 
ATOM     56  F   UNL A   1      39.015  26.186  29.824  1.00  0.00    -0.203 F 
ATOM     57  F   UNL A   1      41.961  27.477  25.416  1.00  0.00    -0.200 F 
ATOM     58  C   UNL A   1      40.471  26.007  26.509  1.00  0.00     0.200 A 
ATOM     59  F   UNL A   1      38.977  24.572  27.645  1.00  0.00    -0.200 F 
ATOM     60  F   UNL A   1      40.423  25.224  25.424  1.00  0.00    -0.200 F 
ENDBRANCH  26  50
BRANCH  38  61
ATOM     61  C   UNL A   1      44.033  28.304  34.770  1.00  0.00     0.064 A 
ATOM     62  C   UNL A   1      45.350  28.729  34.543  1.00  0.00     0.173 A 
ATOM     63  C   UNL A   1      43.834  27.138  35.521  1.00  0.00     0.173 A 
ATOM     64  F   UNL A   1      45.589  29.837  33.826  1.00  0.00    -0.203 F 
ATOM     65  C   UNL A   1      46.429  28.009  35.046  1.00  0.00     0.198 A 
ATOM     66  C   UNL A   1      44.916  26.432  36.043  1.00  0.00     0.198 A 
ATOM     67  F   UNL A   1      42.592  26.703  35.776  1.00  0.00    -0.203 F 
ATOM     68  F   UNL A   1      47.680  28.424  34.805  1.00  0.00    -0.200 F 
ATOM     69  C   UNL A   1      46.211  26.865  35.800  1.00  0.00     0.200 A 
ATOM     70  F   UNL A   1      44.704  25.341  36.790  1.00  0.00    -0.200 F 
ATOM     71  F   UNL A   1      47.251  26.183  36.299  1.00  0.00    -0.200 F 
ENDBRANCH  38  61
ENDBRANCH  12  13
ENDBRANCH   5   7
ENDBRANCH   2   3
ENDBRANCH   1   2
BRANCH   1  72
ATOM     72  C   UNL A   1      31.610  30.273  26.265  1.00  0.00     0.118 C 
BRANCH  72  73
ATOM     73  N   UNL A   1      32.320  30.056  25.013  1.00  0.00    -0.352 N 
ATOM     74  C   UNL A   1      31.932  29.329  23.920  1.00  0.00     0.253 C 
ATOM     75  H   UNL A   1      33.199  30.494  24.942  1.00  0.00     0.163 HD
ATOM     76  O   UNL A   1      32.781  28.875  23.160  1.00  0.00    -0.269 OA
BRANCH  74  77
ATOM     77  C   UNL A   1      30.503  29.068  23.661  1.00  0.00     0.067 A 
ATOM     78  C   UNL A   1      29.682  30.151  23.294  1.00  0.00     0.058 A 
ATOM     79  C   UNL A   1      29.989  27.754  23.726  1.00  0.00     0.065 A 
ATOM     80  C   UNL A   1      28.330  29.946  23.081  1.00  0.00     0.159 A 
ATOM     81  C   UNL A   1      28.618  27.590  23.500  1.00  0.00     0.070 A 
ATOM     82  F   UNL A   1      27.536  30.990  22.810  1.00  0.00    -0.204 F 
ATOM     83  C   UNL A   1      27.800  28.673  23.185  1.00  0.00     0.160 A 
ATOM     84  F   UNL A   1      26.487  28.472  23.016  1.00  0.00    -0.204 F 
BRANCH  79  85
ATOM     85  N   UNL A   1      30.804  26.670  24.241  1.00  0.00    -0.279 N 
ATOM     86  H   UNL A   1      30.976  26.614  25.208  1.00  0.00     0.180 HD
BRANCH  85  87
ATOM     87  S   UNL A   1      31.469  25.490  23.206  1.00  0.00     0.261 S 
ATOM     88  O   UNL A   1      30.711  24.272  23.395  1.00  0.00    -0.201 OA
ATOM     89  O   UNL A   1      31.594  26.109  21.903  1.00  0.00    -0.201 OA
BRANCH  87  90
ATOM     90  C   UNL A   1      33.116  25.226  23.812  1.00  0.00     0.088 A 
ATOM     91  C   UNL A   1      33.447  25.634  25.120  1.00  0.00     0.022 A 
ATOM     92  C   UNL A   1      33.970  24.419  23.053  1.00  0.00     0.026 A 
ATOM     93  C   UNL A   1      34.598  25.125  25.730  1.00  0.00     0.005 A 
ATOM     94  C   UNL A   1      35.090  23.912  23.681  1.00  0.00    -0.043 A 
ATOM     95  C   UNL A   1      35.379  24.228  25.015  1.00  0.00    -0.045 A 
ATOM     96  C   UNL A   1      36.096  22.954  23.126  1.00  0.00     0.036 C 
ATOM     97  C   UNL A   1      36.567  23.447  25.489  1.00  0.00     0.036 C 
ATOM     98  C   UNL A   1      36.641  22.341  24.421  1.00  0.00     0.010 C 
ENDBRANCH  87  90
ENDBRANCH  85  87
ENDBRANCH  79  85
ENDBRANCH  74  77
ENDBRANCH  72  73
ENDBRANCH   1  72
TORSDOF 13
ENDMDL
MODEL 2
REMARK VINA RESULT:     -13.7      5.726     11.040
REMARK SMILES O=C(NCCCNC(=O)c1cc(F)c(F)cc1NS(=O)(=O)c1ccc2c(c1)CCC2)c1ccc(-c2c3nc(c(-c4c(F)c(F)c(F)c(F)c4F)c4ccc([nH]4)c(-c4c(F)c(F)c(F)c(F)c4F)c4nc(c(-c5c(F)c(F)c(F)c(F)c5F)c5ccc2[nH]5)C=C4)C=C3)cc1
REMARK SMILES IDX 5 1 4 2 3 3 1 4 2 5 31 7 32 8 93 9 33 10 92 11 34 12 35 13
REMARK SMILES IDX 36 14 86 15 37 16 91 17 85 18 87 19 38 20 90 21 84 22 83 23
REMARK SMILES IDX 39 25 71 26 51 27 70 28 52 29 55 30 69 31 88 32 53 33 54 34
REMARK SMILES IDX 68 36 89 37 56 38 40 39 41 40 49 41 42 42 43 43 47 44 50 45
REMARK SMILES IDX 44 46 45 47 48 48 46 49 72 50 73 51 81 52 74 53 75 54 79 55
REMARK SMILES IDX 82 56 76 57 77 58 80 59 78 60 57 61 58 62 66 63 59 64 60 65
REMARK SMILES IDX 64 66 67 67 61 68 62 69 65 70 63 71 6 72 7 73 8 74 9 76
REMARK SMILES IDX 10 77 11 78 17 79 12 80 16 81 13 82 14 83 15 84 18 85 19 87
REMARK SMILES IDX 20 88 21 89 22 90 23 91 27 92 24 93 26 94 25 95 28 96 30 97
REMARK SMILES IDX 29 98
REMARK H PARENT 3 6 87 24 55 35 7 75 18 86
REMARK Flexibility Score: inf
ROOT
ATOM      1  C   UNL A   1      37.809  19.856  24.927  1.00  0.00     0.042 C 
ENDROOT
BRANCH   1   2
ATOM      2  C   UNL A   1      38.983  20.322  25.779  1.00  0.00     0.118 C 
BRANCH   2   3
ATOM      3  N   UNL A   1      40.013  19.304  25.906  1.00  0.00    -0.352 N 
ATOM      4  O   UNL A   1      42.099  18.462  25.949  1.00  0.00    -0.269 OA
ATOM      5  C   UNL A   1      41.368  19.441  26.069  1.00  0.00     0.251 C 
ATOM      6  H   UNL A   1      39.689  18.375  25.872  1.00  0.00     0.163 HD
BRANCH   5   7
ATOM      7  C   UNL A   1      41.955  20.761  26.384  1.00  0.00     0.039 A 
ATOM      8  C   UNL A   1      42.154  21.714  25.381  1.00  0.00     0.014 A 
ATOM      9  C   UNL A   1      42.247  21.073  27.715  1.00  0.00     0.014 A 
ATOM     10  C   UNL A   1      42.739  22.936  25.692  1.00  0.00     0.010 A 
ATOM     11  C   UNL A   1      42.761  22.330  28.039  1.00  0.00     0.010 A 
ATOM     12  C   UNL A   1      43.016  23.267  27.027  1.00  0.00    -0.014 A 
BRANCH  12  13
ATOM     13  C   UNL A   1      43.452  24.644  27.353  1.00  0.00     0.031 A 
ATOM     14  C   UNL A   1      44.848  25.109  27.081  1.00  0.00     0.074 A 
ATOM     15  C   UNL A   1      42.541  25.486  27.877  1.00  0.00     0.049 A 
ATOM     16  N   UNL A   1      45.379  26.286  27.295  1.00  0.00    -0.248 NA
ATOM     17  C   UNL A   1      45.773  24.128  26.495  1.00  0.00     0.031 C 
ATOM     18  C   UNL A   1      41.150  25.136  28.175  1.00  0.00     0.029 A 
ATOM     19  N   UNL A   1      42.633  26.809  28.221  1.00  0.00    -0.354 N 
ATOM     20  C   UNL A   1      46.697  26.191  26.875  1.00  0.00     0.074 A 
ATOM     21  C   UNL A   1      46.896  24.831  26.418  1.00  0.00     0.031 C 
ATOM     22  C   UNL A   1      40.503  26.230  28.595  1.00  0.00     0.029 A 
ATOM     23  C   UNL A   1      41.444  27.342  28.655  1.00  0.00     0.049 A 
ATOM     24  H   UNL A   1      43.468  27.327  28.164  1.00  0.00     0.167 HD
ATOM     25  C   UNL A   1      47.648  27.154  26.871  1.00  0.00     0.037 A 
ATOM     26  C   UNL A   1      41.144  28.588  29.059  1.00  0.00     0.037 A 
ATOM     27  C   UNL A   1      47.442  28.501  27.341  1.00  0.00     0.049 A 
ATOM     28  C   UNL A   1      42.225  29.626  29.078  1.00  0.00     0.074 A 
ATOM     29  C   UNL A   1      48.352  29.543  27.410  1.00  0.00     0.029 A 
ATOM     30  N   UNL A   1      46.237  28.994  27.822  1.00  0.00    -0.354 N 
ATOM     31  N   UNL A   1      43.477  29.517  28.709  1.00  0.00    -0.248 NA
ATOM     32  C   UNL A   1      41.856  30.955  29.582  1.00  0.00     0.031 C 
ATOM     33  C   UNL A   1      47.705  30.655  27.960  1.00  0.00     0.029 A 
ATOM     34  C   UNL A   1      46.381  30.322  28.195  1.00  0.00     0.049 A 
ATOM     35  H   UNL A   1      45.402  28.476  27.888  1.00  0.00     0.167 HD
ATOM     36  C   UNL A   1      44.048  30.761  28.926  1.00  0.00     0.074 A 
ATOM     37  C   UNL A   1      42.998  31.616  29.444  1.00  0.00     0.031 C 
ATOM     38  C   UNL A   1      45.327  31.155  28.715  1.00  0.00     0.037 A 
BRANCH  25  39
ATOM     39  C   UNL A   1      49.007  26.783  26.355  1.00  0.00     0.064 A 
ATOM     40  C   UNL A   1      49.343  26.989  25.009  1.00  0.00     0.173 A 
ATOM     41  C   UNL A   1      49.967  26.185  27.186  1.00  0.00     0.173 A 
ATOM     42  F   UNL A   1      48.460  27.554  24.171  1.00  0.00    -0.203 F 
ATOM     43  C   UNL A   1      50.586  26.604  24.513  1.00  0.00     0.198 A 
ATOM     44  C   UNL A   1      51.218  25.823  26.692  1.00  0.00     0.198 A 
ATOM     45  F   UNL A   1      49.700  25.980  28.485  1.00  0.00    -0.203 F 
ATOM     46  F   UNL A   1      50.878  26.795  23.218  1.00  0.00    -0.200 F 
ATOM     47  C   UNL A   1      51.524  26.027  25.355  1.00  0.00     0.200 A 
ATOM     48  F   UNL A   1      52.132  25.289  27.513  1.00  0.00    -0.200 F 
ATOM     49  F   UNL A   1      52.726  25.675  24.880  1.00  0.00    -0.200 F 
ENDBRANCH  25  39
BRANCH  26  50
ATOM     50  C   UNL A   1      39.747  28.905  29.439  1.00  0.00     0.064 A 
ATOM     51  C   UNL A   1      39.278  28.691  30.743  1.00  0.00     0.173 A 
ATOM     52  C   UNL A   1      38.828  29.341  28.474  1.00  0.00     0.173 A 
ATOM     53  F   UNL A   1      40.119  28.264  31.696  1.00  0.00    -0.203 F 
ATOM     54  C   UNL A   1      37.934  28.869  31.060  1.00  0.00     0.198 A 
ATOM     55  C   UNL A   1      37.489  29.540  28.798  1.00  0.00     0.198 A 
ATOM     56  F   UNL A   1      39.237  29.570  27.218  1.00  0.00    -0.203 F 
ATOM     57  F   UNL A   1      37.501  28.611  32.302  1.00  0.00    -0.200 F 
ATOM     58  C   UNL A   1      37.040  29.293  30.088  1.00  0.00     0.200 A 
ATOM     59  F   UNL A   1      36.631  29.962  27.860  1.00  0.00    -0.200 F 
ATOM     60  F   UNL A   1      35.746  29.457  30.392  1.00  0.00    -0.200 F 
ENDBRANCH  26  50
BRANCH  38  61
ATOM     61  C   UNL A   1      45.658  32.581  29.034  1.00  0.00     0.064 A 
ATOM     62  C   UNL A   1      45.515  33.577  28.056  1.00  0.00     0.173 A 
ATOM     63  C   UNL A   1      46.152  32.954  30.291  1.00  0.00     0.173 A 
ATOM     64  F   UNL A   1      45.050  33.267  26.837  1.00  0.00    -0.203 F 
ATOM     65  C   UNL A   1      45.860  34.898  28.327  1.00  0.00     0.198 A 
ATOM     66  C   UNL A   1      46.475  34.281  30.565  1.00  0.00     0.198 A 
ATOM     67  F   UNL A   1      46.290  32.038  31.260  1.00  0.00    -0.203 F 
ATOM     68  F   UNL A   1      45.731  35.832  27.374  1.00  0.00    -0.200 F 
ATOM     69  C   UNL A   1      46.335  35.250  29.582  1.00  0.00     0.200 A 
ATOM     70  F   UNL A   1      46.911  34.623  31.785  1.00  0.00    -0.200 F 
ATOM     71  F   UNL A   1      46.650  36.525  29.847  1.00  0.00    -0.200 F 
ENDBRANCH  38  61
ENDBRANCH  12  13
ENDBRANCH   5   7
ENDBRANCH   2   3
ENDBRANCH   1   2
BRANCH   1  72
ATOM     72  C   UNL A   1      36.750  20.928  24.697  1.00  0.00     0.118 C 
BRANCH  72  73
ATOM     73  N   UNL A   1      35.858  21.042  25.842  1.00  0.00    -0.352 N 
ATOM     74  C   UNL A   1      34.494  20.928  25.884  1.00  0.00     0.253 C 
ATOM     75  H   UNL A   1      36.296  21.225  26.705  1.00  0.00     0.163 HD
ATOM     76  O   UNL A   1      33.867  21.475  26.785  1.00  0.00    -0.269 OA
BRANCH  74  77
ATOM     77  C   UNL A   1      33.772  20.170  24.843  1.00  0.00     0.067 A 
ATOM     78  C   UNL A   1      33.928  18.772  24.806  1.00  0.00     0.058 A 
ATOM     79  C   UNL A   1      32.905  20.830  23.946  1.00  0.00     0.065 A 
ATOM     80  C   UNL A   1      33.294  18.037  23.819  1.00  0.00     0.159 A 
ATOM     81  C   UNL A   1      32.281  20.050  22.966  1.00  0.00     0.070 A 
ATOM     82  F   UNL A   1      33.507  16.717  23.737  1.00  0.00    -0.204 F 
ATOM     83  C   UNL A   1      32.476  18.672  22.903  1.00  0.00     0.160 A 
ATOM     84  F   UNL A   1      31.888  17.973  21.924  1.00  0.00    -0.204 F 
BRANCH  79  85
ATOM     85  N   UNL A   1      32.858  22.280  23.898  1.00  0.00    -0.279 N 
ATOM     86  H   UNL A   1      33.585  22.770  23.451  1.00  0.00     0.180 HD
BRANCH  85  87
ATOM     87  S   UNL A   1      31.572  23.151  24.599  1.00  0.00     0.261 S 
ATOM     88  O   UNL A   1      30.778  23.695  23.518  1.00  0.00    -0.201 OA
ATOM     89  O   UNL A   1      30.989  22.288  25.604  1.00  0.00    -0.201 OA
BRANCH  87  90
ATOM     90  C   UNL A   1      32.346  24.496  25.459  1.00  0.00     0.088 A 
ATOM     91  C   UNL A   1      33.702  24.791  25.210  1.00  0.00     0.022 A 
ATOM     92  C   UNL A   1      31.526  25.363  26.189  1.00  0.00     0.026 A 
ATOM     93  C   UNL A   1      34.219  26.033  25.591  1.00  0.00     0.005 A 
ATOM     94  C   UNL A   1      32.050  26.592  26.538  1.00  0.00    -0.043 A 
ATOM     95  C   UNL A   1      33.366  26.938  26.208  1.00  0.00    -0.045 A 
ATOM     96  C   UNL A   1      31.353  27.723  27.224  1.00  0.00     0.036 C 
ATOM     97  C   UNL A   1      33.639  28.364  26.581  1.00  0.00     0.036 C 
ATOM     98  C   UNL A   1      32.208  28.904  26.751  1.00  0.00     0.010 C 
ENDBRANCH  87  90
ENDBRANCH  85  87
ENDBRANCH  79  85
ENDBRANCH  74  77
ENDBRANCH  72  73
ENDBRANCH   1  72
TORSDOF 13
ENDMDL
MODEL 3
REMARK VINA RESULT:     -13.7      5.759     11.083
REMARK SMILES O=C(NCCCNC(=O)c1cc(F)c(F)cc1NS(=O)(=O)c1ccc2c(c1)CCC2)c1ccc(-c2c3nc(c(-c4c(F)c(F)c(F)c(F)c4F)c4ccc([nH]4)c(-c4c(F)c(F)c(F)c(F)c4F)c4nc(c(-c5c(F)c(F)c(F)c(F)c5F)c5ccc2[nH]5)C=C4)C=C3)cc1
REMARK SMILES IDX 5 1 4 2 3 3 1 4 2 5 31 7 32 8 93 9 33 10 92 11 34 12 35 13
REMARK SMILES IDX 36 14 86 15 37 16 91 17 85 18 87 19 38 20 90 21 84 22 83 23
REMARK SMILES IDX 39 25 71 26 51 27 70 28 52 29 55 30 69 31 88 32 53 33 54 34
REMARK SMILES IDX 68 36 89 37 56 38 40 39 41 40 49 41 42 42 43 43 47 44 50 45
REMARK SMILES IDX 44 46 45 47 48 48 46 49 72 50 73 51 81 52 74 53 75 54 79 55
REMARK SMILES IDX 82 56 76 57 77 58 80 59 78 60 57 61 58 62 66 63 59 64 60 65
REMARK SMILES IDX 64 66 67 67 61 68 62 69 65 70 63 71 6 72 7 73 8 74 9 76
REMARK SMILES IDX 10 77 11 78 17 79 12 80 16 81 13 82 14 83 15 84 18 85 19 87
REMARK SMILES IDX 20 88 21 89 22 90 23 91 27 92 24 93 26 94 25 95 28 96 30 97
REMARK SMILES IDX 29 98
REMARK H PARENT 3 6 87 24 55 35 7 75 18 86
REMARK Flexibility Score: inf
ROOT
ATOM      1  C   UNL A   1      37.861  19.770  24.928  1.00  0.00     0.042 C 
ENDROOT
BRANCH   1   2
ATOM      2  C   UNL A   1      39.053  20.258  25.742  1.00  0.00     0.118 C 
BRANCH   2   3
ATOM      3  N   UNL A   1      40.084  19.242  25.878  1.00  0.00    -0.352 N 
ATOM      4  O   UNL A   1      42.171  18.404  25.932  1.00  0.00    -0.269 OA
ATOM      5  C   UNL A   1      41.438  19.382  26.046  1.00  0.00     0.251 C 
ATOM      6  H   UNL A   1      39.762  18.312  25.844  1.00  0.00     0.163 HD
BRANCH   5   7
ATOM      7  C   UNL A   1      42.022  20.704  26.358  1.00  0.00     0.039 A 
ATOM      8  C   UNL A   1      42.289  21.627  25.344  1.00  0.00     0.014 A 
ATOM      9  C   UNL A   1      42.240  21.048  27.695  1.00  0.00     0.014 A 
ATOM     10  C   UNL A   1      42.870  22.851  25.655  1.00  0.00     0.010 A 
ATOM     11  C   UNL A   1      42.750  22.309  28.015  1.00  0.00     0.010 A 
ATOM     12  C   UNL A   1      43.074  23.215  26.996  1.00  0.00    -0.014 A 
BRANCH  12  13
ATOM     13  C   UNL A   1      43.506  24.596  27.309  1.00  0.00     0.031 A 
ATOM     14  C   UNL A   1      44.900  25.064  27.027  1.00  0.00     0.074 A 
ATOM     15  C   UNL A   1      42.595  25.439  27.831  1.00  0.00     0.049 A 
ATOM     16  N   UNL A   1      45.427  26.244  27.229  1.00  0.00    -0.248 NA
ATOM     17  C   UNL A   1      45.825  24.082  26.443  1.00  0.00     0.031 C 
ATOM     18  C   UNL A   1      41.207  25.085  28.139  1.00  0.00     0.029 A 
ATOM     19  N   UNL A   1      42.684  26.764  28.166  1.00  0.00    -0.354 N 
ATOM     20  C   UNL A   1      46.743  26.150  26.803  1.00  0.00     0.074 A 
ATOM     21  C   UNL A   1      46.944  24.788  26.354  1.00  0.00     0.031 C 
ATOM     22  C   UNL A   1      40.558  26.180  28.555  1.00  0.00     0.029 A 
ATOM     23  C   UNL A   1      41.495  27.296  28.602  1.00  0.00     0.049 A 
ATOM     24  H   UNL A   1      43.517  27.284  28.101  1.00  0.00     0.167 HD
ATOM     25  C   UNL A   1      47.691  27.117  26.787  1.00  0.00     0.037 A 
ATOM     26  C   UNL A   1      41.194  28.544  28.999  1.00  0.00     0.037 A 
ATOM     27  C   UNL A   1      47.483  28.467  27.249  1.00  0.00     0.049 A 
ATOM     28  C   UNL A   1      42.271  29.586  29.006  1.00  0.00     0.074 A 
ATOM     29  C   UNL A   1      48.390  29.512  27.306  1.00  0.00     0.029 A 
ATOM     30  N   UNL A   1      46.278  28.959  27.733  1.00  0.00    -0.354 N 
ATOM     31  N   UNL A   1      43.521  29.478  28.630  1.00  0.00    -0.248 NA
ATOM     32  C   UNL A   1      41.900  30.916  29.502  1.00  0.00     0.031 C 
ATOM     33  C   UNL A   1      47.742  30.626  27.851  1.00  0.00     0.029 A 
ATOM     34  C   UNL A   1      46.420  30.289  28.095  1.00  0.00     0.049 A 
ATOM     35  H   UNL A   1      45.445  28.439  27.807  1.00  0.00     0.167 HD
ATOM     36  C   UNL A   1      44.089  30.726  28.836  1.00  0.00     0.074 A 
ATOM     37  C   UNL A   1      43.039  31.581  29.353  1.00  0.00     0.031 C 
ATOM     38  C   UNL A   1      45.366  31.123  28.616  1.00  0.00     0.037 A 
BRANCH  25  39
ATOM     39  C   UNL A   1      49.049  26.746  26.267  1.00  0.00     0.064 A 
ATOM     40  C   UNL A   1      50.004  26.163  27.112  1.00  0.00     0.173 A 
ATOM     41  C   UNL A   1      49.419  27.005  24.939  1.00  0.00     0.173 A 
ATOM     42  F   UNL A   1      49.702  25.897  28.392  1.00  0.00    -0.203 F 
ATOM     43  C   UNL A   1      51.281  25.858  26.648  1.00  0.00     0.198 A 
ATOM     44  C   UNL A   1      50.690  26.677  24.472  1.00  0.00     0.198 A 
ATOM     45  F   UNL A   1      48.537  27.549  24.086  1.00  0.00    -0.203 F 
ATOM     46  F   UNL A   1      52.184  25.317  27.480  1.00  0.00    -0.200 F 
ATOM     47  C   UNL A   1      51.621  26.110  25.328  1.00  0.00     0.200 A 
ATOM     48  F   UNL A   1      51.009  26.898  23.189  1.00  0.00    -0.200 F 
ATOM     49  F   UNL A   1      52.845  25.799  24.879  1.00  0.00    -0.200 F 
ENDBRANCH  25  39
BRANCH  26  50
ATOM     50  C   UNL A   1      39.797  28.858  29.384  1.00  0.00     0.064 A 
ATOM     51  C   UNL A   1      39.335  28.650  30.691  1.00  0.00     0.173 A 
ATOM     52  C   UNL A   1      38.873  29.287  28.422  1.00  0.00     0.173 A 
ATOM     53  F   UNL A   1      40.182  28.229  31.642  1.00  0.00    -0.203 F 
ATOM     54  C   UNL A   1      37.992  28.825  31.014  1.00  0.00     0.198 A 
ATOM     55  C   UNL A   1      37.535  29.485  28.751  1.00  0.00     0.198 A 
ATOM     56  F   UNL A   1      39.275  29.512  27.162  1.00  0.00    -0.203 F 
ATOM     57  F   UNL A   1      37.565  28.571  32.258  1.00  0.00    -0.200 F 
ATOM     58  C   UNL A   1      37.092  29.242  30.044  1.00  0.00     0.200 A 
ATOM     59  F   UNL A   1      36.671  29.900  27.814  1.00  0.00    -0.200 F 
ATOM     60  F   UNL A   1      35.800  29.404  30.353  1.00  0.00    -0.200 F 
ENDBRANCH  26  50
BRANCH  38  61
ATOM     61  C   UNL A   1      45.693  32.552  28.922  1.00  0.00     0.064 A 
ATOM     62  C   UNL A   1      46.144  32.918  30.199  1.00  0.00     0.173 A 
ATOM     63  C   UNL A   1      45.523  33.563  27.966  1.00  0.00     0.173 A 
ATOM     64  F   UNL A   1      46.317  31.987  31.148  1.00  0.00    -0.203 F 
ATOM     65  C   UNL A   1      46.410  34.249  30.508  1.00  0.00     0.198 A 
ATOM     66  C   UNL A   1      45.812  34.890  28.271  1.00  0.00     0.198 A 
ATOM     67  F   UNL A   1      45.109  33.257  26.727  1.00  0.00    -0.203 F 
ATOM     68  F   UNL A   1      46.825  34.580  31.738  1.00  0.00    -0.200 F 
ATOM     69  C   UNL A   1      46.249  35.233  29.543  1.00  0.00     0.200 A 
ATOM     70  F   UNL A   1      45.679  35.836  27.332  1.00  0.00    -0.200 F 
ATOM     71  F   UNL A   1      46.523  36.512  29.836  1.00  0.00    -0.200 F 
ENDBRANCH  38  61
ENDBRANCH  12  13
ENDBRANCH   5   7
ENDBRANCH   2   3
ENDBRANCH   1   2
BRANCH   1  72
ATOM     72  C   UNL A   1      36.814  20.846  24.664  1.00  0.00     0.118 C 
BRANCH  72  73
ATOM     73  N   UNL A   1      35.924  21.007  25.804  1.00  0.00    -0.352 N 
ATOM     74  C   UNL A   1      34.558  20.927  25.847  1.00  0.00     0.253 C 
ATOM     75  H   UNL A   1      36.365  21.200  26.663  1.00  0.00     0.163 HD
ATOM     76  O   UNL A   1      33.943  21.510  26.734  1.00  0.00    -0.269 OA
BRANCH  74  77
ATOM     77  C   UNL A   1      33.819  20.163  24.823  1.00  0.00     0.067 A 
ATOM     78  C   UNL A   1      33.987  18.766  24.782  1.00  0.00     0.058 A 
ATOM     79  C   UNL A   1      32.925  20.815  23.946  1.00  0.00     0.065 A 
ATOM     80  C   UNL A   1      33.337  18.026  23.809  1.00  0.00     0.159 A 
ATOM     81  C   UNL A   1      32.285  20.030  22.981  1.00  0.00     0.070 A 
ATOM     82  F   UNL A   1      33.559  16.708  23.722  1.00  0.00    -0.204 F 
ATOM     83  C   UNL A   1      32.492  18.654  22.913  1.00  0.00     0.160 A 
ATOM     84  F   UNL A   1      31.887  17.950  21.947  1.00  0.00    -0.204 F 
BRANCH  79  85
ATOM     85  N   UNL A   1      32.864  22.264  23.900  1.00  0.00    -0.279 N 
ATOM     86  H   UNL A   1      33.585  22.762  23.452  1.00  0.00     0.180 HD
BRANCH  85  87
ATOM     87  S   UNL A   1      31.571  23.122  24.605  1.00  0.00     0.261 S 
ATOM     88  O   UNL A   1      30.765  23.653  23.527  1.00  0.00    -0.201 OA
ATOM     89  O   UNL A   1      31.004  22.255  25.617  1.00  0.00    -0.201 OA
BRANCH  87  90
ATOM     90  C   UNL A   1      32.333  24.479  25.457  1.00  0.00     0.088 A 
ATOM     91  C   UNL A   1      33.686  24.785  25.205  1.00  0.00     0.022 A 
ATOM     92  C   UNL A   1      31.506  25.343  26.184  1.00  0.00     0.026 A 
ATOM     93  C   UNL A   1      34.192  26.034  25.579  1.00  0.00     0.005 A 
ATOM     94  C   UNL A   1      32.019  26.578  26.526  1.00  0.00    -0.043 A 
ATOM     95  C   UNL A   1      33.332  26.935  26.191  1.00  0.00    -0.045 A 
ATOM     96  C   UNL A   1      31.312  27.706  27.206  1.00  0.00     0.036 C 
ATOM     97  C   UNL A   1      33.591  28.365  26.557  1.00  0.00     0.036 C 
ATOM     98  C   UNL A   1      32.155  28.893  26.726  1.00  0.00     0.010 C 
ENDBRANCH  87  90
ENDBRANCH  85  87
ENDBRANCH  79  85
ENDBRANCH  74  77
ENDBRANCH  72  73
ENDBRANCH   1  72
TORSDOF 13
ENDMDL
