MODEL 1
REMARK VINA RESULT:     -11.2      0.000      0.000
REMARK SMILES CCOC(=O)NC(=O)COc1csc(C(=O)NCCCNC(=O)c2ccc(-c3c4nc(c(-c5c(F)c(F)c(F)c(F)c5F)c5ccc([nH]5)c(-c5c(F)c(F)c(F)c(F)c5F)c5nc(c(-c6c(F)c(F)c(F)c(F)c6F)c6ccc3[nH]6)C=C5)C=C4)cc2)c1
REMARK SMILES IDX 15 1 16 2 17 3 14 5 11 6 12 7 87 8 13 9 10 10 9 11 7 12 4 13
REMARK SMILES IDX 5 14 6 15 8 17 3 18 2 19 1 20 18 21 19 22 20 23 21 24 22 25
REMARK SMILES IDX 23 27 24 28 25 29 86 30 26 31 85 32 27 33 28 34 29 35 79 36
REMARK SMILES IDX 30 37 84 38 78 39 80 40 31 41 83 42 77 43 76 44 32 46 64 47
REMARK SMILES IDX 44 48 63 49 45 50 48 51 62 52 81 53 46 54 47 55 61 57 82 58
REMARK SMILES IDX 49 59 33 60 34 61 42 62 35 63 36 64 40 65 43 66 37 67 38 68
REMARK SMILES IDX 41 69 39 70 65 71 66 72 74 73 67 74 68 75 72 76 75 77 69 78
REMARK SMILES IDX 70 79 73 80 71 81 50 82 51 83 59 84 52 85 53 86 57 87 60 88
REMARK SMILES IDX 54 89 55 90 58 91 56 92
REMARK H PARENT 17 4 6 16 21 26 80 45 48 56
REMARK Flexibility Score: inf
ROOT
ATOM      1  C   UNL A   1      37.248  23.359  25.811  1.00  0.00     0.261 C 
ATOM      2  O   UNL A   1      37.946  24.140  26.461  1.00  0.00    -0.268 OA
ATOM      3  N   UNL A   1      37.901  22.237  25.357  1.00  0.00    -0.351 N 
ATOM      4  H   UNL A   1      38.862  22.219  25.570  1.00  0.00     0.163 HD
ENDROOT
BRANCH   1   5
ATOM      5  C   UNL A   1      35.829  23.566  25.556  1.00  0.00     0.096 A 
ATOM      6  C   UNL A   1      33.743  24.049  24.609  1.00  0.00     0.131 A 
ATOM      7  C   UNL A   1      33.356  23.354  25.726  1.00  0.00     0.112 A 
ATOM      8  C   UNL A   1      35.150  24.230  24.552  1.00  0.00     0.072 A 
ATOM      9  S   UNL A   1      34.703  22.895  26.678  1.00  0.00    -0.135 S 
BRANCH   6  10
ATOM     10  O   UNL A   1      32.956  24.431  23.578  1.00  0.00    -0.483 OA
BRANCH  10  11
ATOM     11  C   UNL A   1      33.358  25.591  22.880  1.00  0.00     0.329 C 
BRANCH  11  12
ATOM     12  C   UNL A   1      32.697  25.910  21.541  1.00  0.00     0.267 C 
ATOM     13  C   UNL A   1      30.872  27.474  22.380  1.00  0.00     0.413 C 
ATOM     14  O   UNL A   1      29.974  28.217  22.008  1.00  0.00    -0.224 OA
ATOM     15  N   UNL A   1      31.635  26.782  21.464  1.00  0.00    -0.258 N 
ATOM     16  H   UNL A   1      31.355  26.953  20.536  1.00  0.00     0.176 HD
ATOM     17  O   UNL A   1      33.088  25.371  20.501  1.00  0.00    -0.271 OA
BRANCH  13  18
ATOM     18  O   UNL A   1      31.195  27.239  23.671  1.00  0.00    -0.450 OA
BRANCH  18  19
ATOM     19  C   UNL A   1      31.353  28.395  24.510  1.00  0.00     0.231 C 
ATOM     20  C   UNL A   1      32.817  28.753  24.698  1.00  0.00     0.049 C 
ENDBRANCH  18  19
ENDBRANCH  13  18
ENDBRANCH  11  12
ENDBRANCH  10  11
ENDBRANCH   6  10
ENDBRANCH   1   5
BRANCH   3  21
ATOM     21  C   UNL A   1      37.437  21.078  24.621  1.00  0.00     0.118 C 
BRANCH  21  22
ATOM     22  C   UNL A   1      38.254  19.835  24.974  1.00  0.00     0.042 C 
BRANCH  22  23
ATOM     23  C   UNL A   1      39.200  20.062  26.150  1.00  0.00     0.118 C 
BRANCH  23  24
ATOM     24  N   UNL A   1      40.326  19.136  26.125  1.00  0.00    -0.352 N 
ATOM     25  C   UNL A   1      41.675  19.378  26.107  1.00  0.00     0.251 C 
ATOM     26  H   UNL A   1      40.077  18.183  26.120  1.00  0.00     0.163 HD
ATOM     27  O   UNL A   1      42.449  18.466  25.830  1.00  0.00    -0.269 OA
BRANCH  25  28
ATOM     28  C   UNL A   1      42.203  20.723  26.415  1.00  0.00     0.039 A 
ATOM     29  C   UNL A   1      42.399  21.623  25.365  1.00  0.00     0.014 A 
ATOM     30  C   UNL A   1      42.552  21.080  27.720  1.00  0.00     0.014 A 
ATOM     31  C   UNL A   1      42.895  22.900  25.632  1.00  0.00     0.010 A 
ATOM     32  C   UNL A   1      42.969  22.379  27.995  1.00  0.00     0.010 A 
ATOM     33  C   UNL A   1      43.152  23.300  26.954  1.00  0.00    -0.014 A 
BRANCH  33  34
ATOM     34  C   UNL A   1      43.608  24.679  27.264  1.00  0.00     0.031 A 
ATOM     35  C   UNL A   1      42.635  25.698  27.791  1.00  0.00     0.074 A 
ATOM     36  C   UNL A   1      44.885  25.025  27.010  1.00  0.00     0.049 A 
ATOM     37  N   UNL A   1      42.826  26.967  28.050  1.00  0.00    -0.248 NA
ATOM     38  C   UNL A   1      41.258  25.239  28.038  1.00  0.00     0.031 C 
ATOM     39  C   UNL A   1      45.908  24.136  26.455  1.00  0.00     0.029 A 
ATOM     40  N   UNL A   1      45.540  26.221  27.171  1.00  0.00    -0.354 N 
ATOM     41  C   UNL A   1      41.596  27.457  28.470  1.00  0.00     0.074 A 
ATOM     42  C   UNL A   1      40.652  26.365  28.389  1.00  0.00     0.031 C 
ATOM     43  C   UNL A   1      47.063  24.810  26.341  1.00  0.00     0.029 A 
ATOM     44  C   UNL A   1      46.852  26.189  26.767  1.00  0.00     0.049 A 
ATOM     45  H   UNL A   1      45.109  27.026  27.541  1.00  0.00     0.167 HD
ATOM     46  C   UNL A   1      41.290  28.703  28.904  1.00  0.00     0.037 A 
ATOM     47  C   UNL A   1      47.777  27.168  26.730  1.00  0.00     0.037 A 
ATOM     48  C   UNL A   1      42.242  29.778  29.011  1.00  0.00     0.049 A 
ATOM     49  C   UNL A   1      47.400  28.545  27.211  1.00  0.00     0.074 A 
ATOM     50  C   UNL A   1      42.045  31.055  29.505  1.00  0.00     0.029 A 
ATOM     51  N   UNL A   1      43.568  29.701  28.613  1.00  0.00    -0.354 N 
ATOM     52  N   UNL A   1      46.255  28.974  27.683  1.00  0.00    -0.248 NA
ATOM     53  C   UNL A   1      48.449  29.573  27.160  1.00  0.00     0.031 C 
ATOM     54  C   UNL A   1      43.235  31.772  29.349  1.00  0.00     0.029 A 
ATOM     55  C   UNL A   1      44.193  30.921  28.823  1.00  0.00     0.049 A 
ATOM     56  H   UNL A   1      44.001  28.902  28.237  1.00  0.00     0.167 HD
ATOM     57  C   UNL A   1      46.456  30.306  28.019  1.00  0.00     0.074 A 
ATOM     58  C   UNL A   1      47.838  30.610  27.714  1.00  0.00     0.031 C 
ATOM     59  C   UNL A   1      45.576  31.200  28.531  1.00  0.00     0.037 A 
BRANCH  46  60
ATOM     60  C   UNL A   1      39.870  28.984  29.304  1.00  0.00     0.064 A 
ATOM     61  C   UNL A   1      38.898  29.358  28.366  1.00  0.00     0.173 A 
ATOM     62  C   UNL A   1      39.459  28.796  30.633  1.00  0.00     0.173 A 
ATOM     63  F   UNL A   1      39.240  29.561  27.084  1.00  0.00    -0.203 F 
ATOM     64  C   UNL A   1      37.571  29.547  28.743  1.00  0.00     0.198 A 
ATOM     65  C   UNL A   1      38.126  28.955  31.002  1.00  0.00     0.198 A 
ATOM     66  F   UNL A   1      40.347  28.433  31.571  1.00  0.00    -0.203 F 
ATOM     67  F   UNL A   1      36.667  29.937  27.834  1.00  0.00    -0.200 F 
ATOM     68  C   UNL A   1      37.184  29.334  30.058  1.00  0.00     0.200 A 
ATOM     69  F   UNL A   1      37.751  28.732  32.269  1.00  0.00    -0.200 F 
ATOM     70  F   UNL A   1      35.903  29.495  30.415  1.00  0.00    -0.200 F 
ENDBRANCH  46  60
BRANCH  47  71
ATOM     71  C   UNL A   1      49.148  26.891  26.222  1.00  0.00     0.064 A 
ATOM     72  C   UNL A   1      49.460  27.035  24.862  1.00  0.00     0.173 A 
ATOM     73  C   UNL A   1      50.164  26.434  27.076  1.00  0.00     0.173 A 
ATOM     74  F   UNL A   1      48.519  27.452  24.001  1.00  0.00    -0.203 F 
ATOM     75  C   UNL A   1      50.717  26.693  24.370  1.00  0.00     0.198 A 
ATOM     76  C   UNL A   1      51.432  26.128  26.587  1.00  0.00     0.198 A 
ATOM     77  F   UNL A   1      49.925  26.286  28.387  1.00  0.00    -0.203 F 
ATOM     78  F   UNL A   1      50.963  26.773  23.054  1.00  0.00    -0.200 F 
ATOM     79  C   UNL A   1      51.704  26.243  25.232  1.00  0.00     0.200 A 
ATOM     80  F   UNL A   1      52.389  25.712  27.429  1.00  0.00    -0.200 F 
ATOM     81  F   UNL A   1      52.911  25.908  24.758  1.00  0.00    -0.200 F 
ENDBRANCH  47  71
BRANCH  59  82
ATOM     82  C   UNL A   1      46.091  32.575  28.846  1.00  0.00     0.064 A 
ATOM     83  C   UNL A   1      46.674  32.882  30.085  1.00  0.00     0.173 A 
ATOM     84  C   UNL A   1      46.037  33.589  27.877  1.00  0.00     0.173 A 
ATOM     85  F   UNL A   1      46.738  31.954  31.050  1.00  0.00    -0.203 F 
ATOM     86  C   UNL A   1      47.153  34.162  30.351  1.00  0.00     0.198 A 
ATOM     87  C   UNL A   1      46.551  34.856  28.134  1.00  0.00     0.198 A 
ATOM     88  F   UNL A   1      45.498  33.345  26.673  1.00  0.00    -0.203 F 
ATOM     89  F   UNL A   1      47.654  34.449  31.561  1.00  0.00    -0.200 F 
ATOM     90  C   UNL A   1      47.099  35.145  29.374  1.00  0.00     0.200 A 
ATOM     91  F   UNL A   1      46.514  35.798  27.181  1.00  0.00    -0.200 F 
ATOM     92  F   UNL A   1      47.569  36.373  29.630  1.00  0.00    -0.200 F 
ENDBRANCH  59  82
ENDBRANCH  33  34
ENDBRANCH  25  28
ENDBRANCH  23  24
ENDBRANCH  22  23
ENDBRANCH  21  22
ENDBRANCH   3  21
TORSDOF 15
ENDMDL
MODEL 2
REMARK VINA RESULT:     -11.0      0.448      7.582
REMARK SMILES CCOC(=O)NC(=O)COc1csc(C(=O)NCCCNC(=O)c2ccc(-c3c4nc(c(-c5c(F)c(F)c(F)c(F)c5F)c5ccc([nH]5)c(-c5c(F)c(F)c(F)c(F)c5F)c5nc(c(-c6c(F)c(F)c(F)c(F)c6F)c6ccc3[nH]6)C=C5)C=C4)cc2)c1
REMARK SMILES IDX 15 1 16 2 17 3 14 5 11 6 12 7 87 8 13 9 10 10 9 11 7 12 4 13
REMARK SMILES IDX 5 14 6 15 8 17 3 18 2 19 1 20 18 21 19 22 20 23 21 24 22 25
REMARK SMILES IDX 23 27 24 28 25 29 86 30 26 31 85 32 27 33 28 34 29 35 79 36
REMARK SMILES IDX 30 37 84 38 78 39 80 40 31 41 83 42 77 43 76 44 32 46 64 47
REMARK SMILES IDX 44 48 63 49 45 50 48 51 62 52 81 53 46 54 47 55 61 57 82 58
REMARK SMILES IDX 49 59 33 60 34 61 42 62 35 63 36 64 40 65 43 66 37 67 38 68
REMARK SMILES IDX 41 69 39 70 65 71 66 72 74 73 67 74 68 75 72 76 75 77 69 78
REMARK SMILES IDX 70 79 73 80 71 81 50 82 51 83 59 84 52 85 53 86 57 87 60 88
REMARK SMILES IDX 54 89 55 90 58 91 56 92
REMARK H PARENT 17 4 6 16 21 26 80 45 48 56
REMARK Flexibility Score: inf
ROOT
ATOM      1  C   UNL A   1      37.320  23.319  25.690  1.00  0.00     0.261 C 
ATOM      2  O   UNL A   1      38.030  24.118  26.307  1.00  0.00    -0.268 OA
ATOM      3  N   UNL A   1      37.963  22.179  25.267  1.00  0.00    -0.351 N 
ATOM      4  H   UNL A   1      38.926  22.163  25.471  1.00  0.00     0.163 HD
ENDROOT
BRANCH   1   5
ATOM      5  C   UNL A   1      35.900  23.526  25.444  1.00  0.00     0.096 A 
ATOM      6  C   UNL A   1      33.810  24.022  24.513  1.00  0.00     0.131 A 
ATOM      7  C   UNL A   1      33.429  23.298  25.614  1.00  0.00     0.112 A 
ATOM      8  C   UNL A   1      35.215  24.212  24.458  1.00  0.00     0.072 A 
ATOM      9  S   UNL A   1      34.780  22.821  26.552  1.00  0.00    -0.135 S 
BRANCH   6  10
ATOM     10  O   UNL A   1      33.018  24.425  23.494  1.00  0.00    -0.483 OA
BRANCH  10  11
ATOM     11  C   UNL A   1      33.398  25.618  22.841  1.00  0.00     0.329 C 
BRANCH  11  12
ATOM     12  C   UNL A   1      32.740  25.969  21.509  1.00  0.00     0.267 C 
ATOM     13  C   UNL A   1      30.939  27.544  22.376  1.00  0.00     0.413 C 
ATOM     14  O   UNL A   1      30.051  28.307  22.018  1.00  0.00    -0.224 OA
ATOM     15  N   UNL A   1      31.691  26.858  21.447  1.00  0.00    -0.258 N 
ATOM     16  H   UNL A   1      31.412  27.048  20.523  1.00  0.00     0.176 HD
ATOM     17  O   UNL A   1      33.122  25.443  20.459  1.00  0.00    -0.271 OA
BRANCH  13  18
ATOM     18  O   UNL A   1      31.260  27.283  23.662  1.00  0.00    -0.450 OA
BRANCH  18  19
ATOM     19  C   UNL A   1      31.421  28.421  24.525  1.00  0.00     0.231 C 
ATOM     20  C   UNL A   1      32.760  29.103  24.306  1.00  0.00     0.049 C 
ENDBRANCH  18  19
ENDBRANCH  13  18
ENDBRANCH  11  12
ENDBRANCH  10  11
ENDBRANCH   6  10
ENDBRANCH   1   5
BRANCH   3  21
ATOM     21  C   UNL A   1      37.485  20.999  24.576  1.00  0.00     0.118 C 
BRANCH  21  22
ATOM     22  C   UNL A   1      38.340  19.777  24.910  1.00  0.00     0.042 C 
BRANCH  22  23
ATOM     23  C   UNL A   1      39.250  20.002  26.115  1.00  0.00     0.118 C 
BRANCH  23  24
ATOM     24  N   UNL A   1      40.430  19.149  26.069  1.00  0.00    -0.352 N 
ATOM     25  C   UNL A   1      41.761  19.474  26.031  1.00  0.00     0.251 C 
ATOM     26  H   UNL A   1      40.241  18.182  26.065  1.00  0.00     0.163 HD
ATOM     27  O   UNL A   1      42.586  18.614  25.738  1.00  0.00    -0.269 OA
BRANCH  25  28
ATOM     28  C   UNL A   1      42.209  20.849  26.336  1.00  0.00     0.039 A 
ATOM     29  C   UNL A   1      42.324  21.765  25.287  1.00  0.00     0.014 A 
ATOM     30  C   UNL A   1      42.564  21.221  27.635  1.00  0.00     0.014 A 
ATOM     31  C   UNL A   1      42.743  23.070  25.551  1.00  0.00     0.010 A 
ATOM     32  C   UNL A   1      42.903  22.543  27.909  1.00  0.00     0.010 A 
ATOM     33  C   UNL A   1      43.003  23.479  26.869  1.00  0.00    -0.014 A 
BRANCH  33  34
ATOM     34  C   UNL A   1      43.377  24.882  27.177  1.00  0.00     0.031 A 
ATOM     35  C   UNL A   1      44.789  25.355  26.963  1.00  0.00     0.074 A 
ATOM     36  C   UNL A   1      42.456  25.710  27.710  1.00  0.00     0.049 A 
ATOM     37  N   UNL A   1      45.324  26.517  27.243  1.00  0.00    -0.248 NA
ATOM     38  C   UNL A   1      45.734  24.388  26.381  1.00  0.00     0.031 C 
ATOM     39  C   UNL A   1      41.068  25.351  28.006  1.00  0.00     0.029 A 
ATOM     40  N   UNL A   1      42.551  27.019  28.110  1.00  0.00    -0.354 N 
ATOM     41  C   UNL A   1      46.663  26.413  26.889  1.00  0.00     0.074 A 
ATOM     42  C   UNL A   1      46.875  25.062  26.417  1.00  0.00     0.031 C 
ATOM     43  C   UNL A   1      40.437  26.418  28.521  1.00  0.00     0.029 A 
ATOM     44  C   UNL A   1      41.386  27.520  28.637  1.00  0.00     0.049 A 
ATOM     45  H   UNL A   1      43.377  27.550  28.028  1.00  0.00     0.167 HD
ATOM     46  C   UNL A   1      47.622  27.367  26.934  1.00  0.00     0.037 A 
ATOM     47  C   UNL A   1      41.118  28.728  29.170  1.00  0.00     0.037 A 
ATOM     48  C   UNL A   1      47.398  28.719  27.376  1.00  0.00     0.049 A 
ATOM     49  C   UNL A   1      42.211  29.763  29.215  1.00  0.00     0.074 A 
ATOM     50  C   UNL A   1      48.288  29.778  27.393  1.00  0.00     0.029 A 
ATOM     51  N   UNL A   1      46.197  29.195  27.882  1.00  0.00    -0.354 N 
ATOM     52  N   UNL A   1      43.452  29.678  28.801  1.00  0.00    -0.248 NA
ATOM     53  C   UNL A   1      41.863  31.068  29.795  1.00  0.00     0.031 C 
ATOM     54  C   UNL A   1      47.646  30.879  27.968  1.00  0.00     0.029 A 
ATOM     55  C   UNL A   1      46.334  30.526  28.243  1.00  0.00     0.049 A 
ATOM     56  H   UNL A   1      45.372  28.667  27.973  1.00  0.00     0.167 HD
ATOM     57  C   UNL A   1      44.019  30.923  29.035  1.00  0.00     0.074 A 
ATOM     58  C   UNL A   1      42.982  31.752  29.611  1.00  0.00     0.031 C 
ATOM     59  C   UNL A   1      45.285  31.343  28.798  1.00  0.00     0.037 A 
BRANCH  46  60
ATOM     60  C   UNL A   1      49.009  26.998  26.493  1.00  0.00     0.064 A 
ATOM     61  C   UNL A   1      49.943  26.439  27.377  1.00  0.00     0.173 A 
ATOM     62  C   UNL A   1      49.382  27.130  25.145  1.00  0.00     0.173 A 
ATOM     63  F   UNL A   1      49.641  26.301  28.678  1.00  0.00    -0.203 F 
ATOM     64  C   UNL A   1      51.201  26.038  26.935  1.00  0.00     0.198 A 
ATOM     65  C   UNL A   1      50.629  26.699  24.700  1.00  0.00     0.198 A 
ATOM     66  F   UNL A   1      48.525  27.652  24.254  1.00  0.00    -0.203 F 
ATOM     67  F   UNL A   1      52.087  25.538  27.806  1.00  0.00    -0.200 F 
ATOM     68  C   UNL A   1      51.538  26.157  25.595  1.00  0.00     0.200 A 
ATOM     69  F   UNL A   1      50.946  26.799  23.401  1.00  0.00    -0.200 F 
ATOM     70  F   UNL A   1      52.741  25.751  25.167  1.00  0.00    -0.200 F 
ENDBRANCH  46  60
BRANCH  47  71
ATOM     71  C   UNL A   1      39.763  29.032  29.706  1.00  0.00     0.064 A 
ATOM     72  C   UNL A   1      39.446  28.797  31.052  1.00  0.00     0.173 A 
ATOM     73  C   UNL A   1      38.744  29.522  28.875  1.00  0.00     0.173 A 
ATOM     74  F   UNL A   1      40.381  28.312  31.884  1.00  0.00    -0.203 F 
ATOM     75  C   UNL A   1      38.155  28.999  31.535  1.00  0.00     0.198 A 
ATOM     76  C   UNL A   1      37.463  29.759  29.369  1.00  0.00     0.198 A 
ATOM     77  F   UNL A   1      38.992  29.775  27.582  1.00  0.00    -0.203 F 
ATOM     78  F   UNL A   1      37.865  28.696  32.809  1.00  0.00    -0.200 F 
ATOM     79  C   UNL A   1      37.165  29.482  30.695  1.00  0.00     0.200 A 
ATOM     80  F   UNL A   1      36.513  30.246  28.558  1.00  0.00    -0.200 F 
ATOM     81  F   UNL A   1      35.922  29.670  31.158  1.00  0.00    -0.200 F 
ENDBRANCH  47  71
BRANCH  59  82
ATOM     82  C   UNL A   1      45.608  32.776  29.109  1.00  0.00     0.064 A 
ATOM     83  C   UNL A   1      45.358  33.808  28.193  1.00  0.00     0.173 A 
ATOM     84  C   UNL A   1      46.139  33.125  30.361  1.00  0.00     0.173 A 
ATOM     85  F   UNL A   1      44.865  33.527  26.977  1.00  0.00    -0.203 F 
ATOM     86  C   UNL A   1      45.657  35.131  28.507  1.00  0.00     0.198 A 
ATOM     87  C   UNL A   1      46.401  34.452  30.685  1.00  0.00     0.198 A 
ATOM     88  F   UNL A   1      46.388  32.178  31.278  1.00  0.00    -0.203 F 
ATOM     89  F   UNL A   1      45.463  36.094  27.594  1.00  0.00    -0.200 F 
ATOM     90  C   UNL A   1      46.171  35.453  29.754  1.00  0.00     0.200 A 
ATOM     91  F   UNL A   1      46.879  34.763  31.898  1.00  0.00    -0.200 F 
ATOM     92  F   UNL A   1      46.449  36.729  30.057  1.00  0.00    -0.200 F 
ENDBRANCH  59  82
ENDBRANCH  33  34
ENDBRANCH  25  28
ENDBRANCH  23  24
ENDBRANCH  22  23
ENDBRANCH  21  22
ENDBRANCH   3  21
TORSDOF 15
ENDMDL
MODEL 3
REMARK VINA RESULT:     -11.0      5.754     11.291
REMARK SMILES CCOC(=O)NC(=O)COc1csc(C(=O)NCCCNC(=O)c2ccc(-c3c4nc(c(-c5c(F)c(F)c(F)c(F)c5F)c5ccc([nH]5)c(-c5c(F)c(F)c(F)c(F)c5F)c5nc(c(-c6c(F)c(F)c(F)c(F)c6F)c6ccc3[nH]6)C=C5)C=C4)cc2)c1
REMARK SMILES IDX 15 1 16 2 17 3 14 5 11 6 12 7 87 8 13 9 10 10 9 11 7 12 4 13
REMARK SMILES IDX 5 14 6 15 8 17 3 18 2 19 1 20 18 21 19 22 20 23 21 24 22 25
REMARK SMILES IDX 23 27 24 28 25 29 86 30 26 31 85 32 27 33 28 34 29 35 79 36
REMARK SMILES IDX 30 37 84 38 78 39 80 40 31 41 83 42 77 43 76 44 32 46 64 47
REMARK SMILES IDX 44 48 63 49 45 50 48 51 62 52 81 53 46 54 47 55 61 57 82 58
REMARK SMILES IDX 49 59 33 60 34 61 42 62 35 63 36 64 40 65 43 66 37 67 38 68
REMARK SMILES IDX 41 69 39 70 65 71 66 72 74 73 67 74 68 75 72 76 75 77 69 78
REMARK SMILES IDX 70 79 73 80 71 81 50 82 51 83 59 84 52 85 53 86 57 87 60 88
REMARK SMILES IDX 54 89 55 90 58 91 56 92
REMARK H PARENT 17 4 6 16 21 26 80 45 48 56
REMARK Flexibility Score: inf
ROOT
ATOM      1  C   UNL A   1      33.570  29.221  26.614  1.00  0.00     0.261 C 
ATOM      2  O   UNL A   1      34.761  29.195  26.934  1.00  0.00    -0.268 OA
ATOM      3  N   UNL A   1      32.960  30.446  26.751  1.00  0.00    -0.351 N 
ATOM      4  H   UNL A   1      33.541  31.143  27.131  1.00  0.00     0.163 HD
ENDROOT
BRANCH   1   5
ATOM      5  C   UNL A   1      32.848  28.066  26.097  1.00  0.00     0.096 A 
ATOM      6  C   UNL A   1      31.389  26.265  25.773  1.00  0.00     0.131 A 
ATOM      7  C   UNL A   1      31.869  26.431  24.499  1.00  0.00     0.112 A 
ATOM      8  C   UNL A   1      32.003  27.151  26.696  1.00  0.00     0.072 A 
ATOM      9  S   UNL A   1      33.032  27.686  24.424  1.00  0.00    -0.135 S 
BRANCH   6  10
ATOM     10  O   UNL A   1      30.365  25.470  26.158  1.00  0.00    -0.483 OA
BRANCH  10  11
ATOM     11  C   UNL A   1      30.487  24.098  25.847  1.00  0.00     0.329 C 
BRANCH  11  12
ATOM     12  C   UNL A   1      30.570  23.089  26.989  1.00  0.00     0.267 C 
ATOM     13  C   UNL A   1      32.906  22.186  26.532  1.00  0.00     0.413 C 
ATOM     14  O   UNL A   1      33.770  21.440  26.973  1.00  0.00    -0.224 OA
ATOM     15  N   UNL A   1      31.707  22.341  27.195  1.00  0.00    -0.258 N 
ATOM     16  H   UNL A   1      31.651  21.787  28.006  1.00  0.00     0.176 HD
ATOM     17  O   UNL A   1      29.606  22.906  27.739  1.00  0.00    -0.271 OA
BRANCH  13  18
ATOM     18  O   UNL A   1      33.011  22.899  25.389  1.00  0.00    -0.450 OA
BRANCH  18  19
ATOM     19  C   UNL A   1      34.201  23.690  25.237  1.00  0.00     0.231 C 
ATOM     20  C   UNL A   1      35.058  23.195  24.085  1.00  0.00     0.049 C 
ENDBRANCH  18  19
ENDBRANCH  13  18
ENDBRANCH  11  12
ENDBRANCH  10  11
ENDBRANCH   6  10
ENDBRANCH   1   5
BRANCH   3  21
ATOM     21  C   UNL A   1      31.619  30.899  26.439  1.00  0.00     0.118 C 
BRANCH  21  22
ATOM     22  C   UNL A   1      31.444  32.381  26.770  1.00  0.00     0.042 C 
BRANCH  22  23
ATOM     23  C   UNL A   1      32.755  33.059  27.160  1.00  0.00     0.118 C 
BRANCH  23  24
ATOM     24  N   UNL A   1      32.534  34.399  27.689  1.00  0.00    -0.352 N 
ATOM     25  C   UNL A   1      33.061  35.017  28.793  1.00  0.00     0.251 C 
ATOM     26  H   UNL A   1      31.905  34.950  27.168  1.00  0.00     0.163 HD
ATOM     27  O   UNL A   1      32.552  36.055  29.205  1.00  0.00    -0.269 OA
BRANCH  25  28
ATOM     28  C   UNL A   1      34.230  34.443  29.490  1.00  0.00     0.039 A 
ATOM     29  C   UNL A   1      34.021  33.722  30.668  1.00  0.00     0.014 A 
ATOM     30  C   UNL A   1      35.528  34.656  29.020  1.00  0.00     0.014 A 
ATOM     31  C   UNL A   1      35.110  33.169  31.344  1.00  0.00     0.010 A 
ATOM     32  C   UNL A   1      36.604  34.037  29.649  1.00  0.00     0.010 A 
ATOM     33  C   UNL A   1      36.407  33.292  30.821  1.00  0.00    -0.014 A 
BRANCH  33  34
ATOM     34  C   UNL A   1      37.568  32.647  31.485  1.00  0.00     0.031 A 
ATOM     35  C   UNL A   1      38.270  31.491  30.827  1.00  0.00     0.074 A 
ATOM     36  C   UNL A   1      37.945  33.066  32.709  1.00  0.00     0.049 A 
ATOM     37  N   UNL A   1      39.251  30.752  31.282  1.00  0.00    -0.248 NA
ATOM     38  C   UNL A   1      37.793  31.093  29.492  1.00  0.00     0.031 C 
ATOM     39  C   UNL A   1      37.311  34.146  33.466  1.00  0.00     0.029 A 
ATOM     40  N   UNL A   1      38.945  32.624  33.539  1.00  0.00    -0.354 N 
ATOM     41  C   UNL A   1      39.493  29.799  30.301  1.00  0.00     0.074 A 
ATOM     42  C   UNL A   1      38.529  30.019  29.246  1.00  0.00     0.031 C 
ATOM     43  C   UNL A   1      37.948  34.297  34.637  1.00  0.00     0.029 A 
ATOM     44  C   UNL A   1      39.002  33.294  34.737  1.00  0.00     0.049 A 
ATOM     45  H   UNL A   1      39.564  31.896  33.299  1.00  0.00     0.167 HD
ATOM     46  C   UNL A   1      40.450  28.840  30.277  1.00  0.00     0.037 A 
ATOM     47  C   UNL A   1      39.805  33.108  35.803  1.00  0.00     0.037 A 
ATOM     48  C   UNL A   1      41.426  28.646  31.317  1.00  0.00     0.049 A 
ATOM     49  C   UNL A   1      40.852  32.026  35.746  1.00  0.00     0.074 A 
ATOM     50  C   UNL A   1      42.478  27.749  31.353  1.00  0.00     0.029 A 
ATOM     51  N   UNL A   1      41.466  29.360  32.506  1.00  0.00    -0.354 N 
ATOM     52  N   UNL A   1      41.124  31.185  34.779  1.00  0.00    -0.248 NA
ATOM     53  C   UNL A   1      41.710  31.873  36.930  1.00  0.00     0.031 C 
ATOM     54  C   UNL A   1      43.118  27.874  32.590  1.00  0.00     0.029 A 
ATOM     55  C   UNL A   1      42.508  28.899  33.296  1.00  0.00     0.049 A 
ATOM     56  H   UNL A   1      40.847  30.083  32.753  1.00  0.00     0.167 HD
ATOM     57  C   UNL A   1      42.203  30.431  35.220  1.00  0.00     0.074 A 
ATOM     58  C   UNL A   1      42.548  30.927  36.536  1.00  0.00     0.031 C 
ATOM     59  C   UNL A   1      42.849  29.417  34.595  1.00  0.00     0.037 A 
BRANCH  46  60
ATOM     60  C   UNL A   1      40.501  27.922  29.090  1.00  0.00     0.064 A 
ATOM     61  C   UNL A   1      39.721  26.759  29.020  1.00  0.00     0.173 A 
ATOM     62  C   UNL A   1      41.282  28.255  27.971  1.00  0.00     0.173 A 
ATOM     63  F   UNL A   1      38.965  26.390  30.066  1.00  0.00    -0.203 F 
ATOM     64  C   UNL A   1      39.729  25.956  27.882  1.00  0.00     0.198 A 
ATOM     65  C   UNL A   1      41.263  27.467  26.823  1.00  0.00     0.198 A 
ATOM     66  F   UNL A   1      42.043  29.360  27.981  1.00  0.00    -0.203 F 
ATOM     67  F   UNL A   1      39.001  24.832  27.853  1.00  0.00    -0.200 F 
ATOM     68  C   UNL A   1      40.491  26.317  26.781  1.00  0.00     0.200 A 
ATOM     69  F   UNL A   1      41.987  27.827  25.753  1.00  0.00    -0.200 F 
ATOM     70  F   UNL A   1      40.480  25.555  25.679  1.00  0.00    -0.200 F 
ENDBRANCH  46  60
BRANCH  47  71
ATOM     71  C   UNL A   1      39.659  33.959  37.015  1.00  0.00     0.064 A 
ATOM     72  C   UNL A   1      38.870  33.548  38.098  1.00  0.00     0.173 A 
ATOM     73  C   UNL A   1      40.269  35.221  37.098  1.00  0.00     0.173 A 
ATOM     74  F   UNL A   1      38.251  32.358  38.061  1.00  0.00    -0.203 F 
ATOM     75  C   UNL A   1      38.661  34.379  39.196  1.00  0.00     0.198 A 
ATOM     76  C   UNL A   1      40.089  36.036  38.213  1.00  0.00     0.198 A 
ATOM     77  F   UNL A   1      41.042  35.662  36.096  1.00  0.00    -0.203 F 
ATOM     78  F   UNL A   1      37.842  33.988  40.183  1.00  0.00    -0.200 F 
ATOM     79  C   UNL A   1      39.272  35.621  39.255  1.00  0.00     0.200 A 
ATOM     80  F   UNL A   1      40.699  37.228  38.274  1.00  0.00    -0.200 F 
ATOM     81  F   UNL A   1      39.066  36.424  40.307  1.00  0.00    -0.200 F 
ENDBRANCH  47  71
BRANCH  59  82
ATOM     82  C   UNL A   1      44.029  28.811  35.300  1.00  0.00     0.064 A 
ATOM     83  C   UNL A   1      45.339  29.259  35.073  1.00  0.00     0.173 A 
ATOM     84  C   UNL A   1      43.839  27.793  36.247  1.00  0.00     0.173 A 
ATOM     85  F   UNL A   1      45.576  30.220  34.168  1.00  0.00    -0.203 F 
ATOM     86  C   UNL A   1      46.416  28.688  35.745  1.00  0.00     0.198 A 
ATOM     87  C   UNL A   1      44.914  27.251  36.944  1.00  0.00     0.198 A 
ATOM     88  F   UNL A   1      42.606  27.334  36.509  1.00  0.00    -0.203 F 
ATOM     89  F   UNL A   1      47.665  29.093  35.470  1.00  0.00    -0.200 F 
ATOM     90  C   UNL A   1      46.203  27.691  36.685  1.00  0.00     0.200 A 
ATOM     91  F   UNL A   1      44.704  26.301  37.866  1.00  0.00    -0.200 F 
ATOM     92  F   UNL A   1      47.241  27.150  37.337  1.00  0.00    -0.200 F 
ENDBRANCH  59  82
ENDBRANCH  33  34
ENDBRANCH  25  28
ENDBRANCH  23  24
ENDBRANCH  22  23
ENDBRANCH  21  22
ENDBRANCH   3  21
TORSDOF 15
ENDMDL
