MODEL 1
REMARK VINA RESULT:     -12.6      0.000      0.000
REMARK SMILES C[C@H](NC(=O)N1CC[C@@H](C(=O)NCCCNC(=O)c2ccc(-c3c4nc(c(-c5c(F)c(F)c(F)c(F)c5F)c5ccc([nH]5)c(-c5c(F)c(F)c(F)c(F)c5F)c5nc(c(-c6c(F)c(F)c(F)c(F)c6F)c6ccc3[nH]6)C=C5)C=C4)cc2)[C@H]1C)c1ccc(Cl)cc1
REMARK SMILES IDX 13 1 12 2 10 3 11 4 9 6 6 7 7 8 82 9 8 10 83 11 4 12 3 13
REMARK SMILES IDX 5 15 2 16 1 17 84 18 85 19 90 20 86 21 89 22 87 23 88 24
REMARK SMILES IDX 14 25 15 26 16 27 17 28 18 30 19 31 20 32 81 33 21 34 80 35
REMARK SMILES IDX 22 36 23 37 24 38 74 39 25 40 79 41 73 42 75 43 26 44 78 45
REMARK SMILES IDX 72 46 71 47 27 49 59 50 39 51 58 52 40 53 43 54 57 55 76 56
REMARK SMILES IDX 41 57 42 58 56 60 77 61 44 62 28 63 29 64 37 65 30 66 31 67
REMARK SMILES IDX 35 68 38 69 32 70 33 71 36 72 34 73 60 74 61 75 69 76 62 77
REMARK SMILES IDX 63 78 67 79 70 80 64 81 65 82 68 83 66 84 45 85 46 86 54 87
REMARK SMILES IDX 47 88 48 89 52 90 55 91 49 92 50 93 53 94 51 95
REMARK H PARENT 12 5 3 14 16 29 75 48 43 59
REMARK Flexibility Score: inf
ROOT
ATOM      1  C   UNL A   1      36.533  20.316  25.046  1.00  0.00     0.117 C 
ENDROOT
BRANCH   1   2
ATOM      2  N   UNL A   1      36.368  21.504  24.224  1.00  0.00    -0.356 N 
ATOM      3  C   UNL A   1      35.316  22.320  23.972  1.00  0.00     0.225 C 
ATOM      4  O   UNL A   1      35.537  23.267  23.207  1.00  0.00    -0.275 OA
ATOM      5  H   UNL A   1      37.191  21.772  23.755  1.00  0.00     0.163 HD
BRANCH   3   6
ATOM      6  C   UNL A   1      33.916  22.126  24.528  1.00  0.00     0.102 C 
ATOM      7  N   UNL A   1      32.396  23.752  25.408  1.00  0.00    -0.321 N 
ATOM      8  C   UNL A   1      31.704  23.060  24.332  1.00  0.00     0.122 C 
ATOM      9  C   UNL A   1      33.545  22.924  25.793  1.00  0.00     0.096 C 
ATOM     10  C   UNL A   1      32.776  22.344  23.532  1.00  0.00     0.037 C 
ATOM     11  C   UNL A   1      34.694  23.626  26.502  1.00  0.00     0.032 C 
BRANCH   7  12
ATOM     12  C   UNL A   1      31.584  24.259  26.400  1.00  0.00     0.318 C 
ATOM     13  N   UNL A   1      31.339  25.591  26.400  1.00  0.00    -0.331 N 
ATOM     14  H   UNL A   1      30.963  25.951  27.236  1.00  0.00     0.165 HD
ATOM     15  O   UNL A   1      31.044  23.555  27.250  1.00  0.00    -0.249 OA
BRANCH  13  16
ATOM     16  C   UNL A   1      31.551  26.562  25.344  1.00  0.00     0.111 C 
ATOM     17  C   UNL A   1      30.263  26.818  24.558  1.00  0.00     0.036 C 
BRANCH  16  18
ATOM     18  C   UNL A   1      32.124  27.848  25.922  1.00  0.00    -0.026 A 
ATOM     19  C   UNL A   1      33.274  27.803  26.726  1.00  0.00     0.007 A 
ATOM     20  C   UNL A   1      31.523  29.096  25.681  1.00  0.00     0.007 A 
ATOM     21  C   UNL A   1      33.823  28.976  27.254  1.00  0.00     0.021 A 
ATOM     22  C   UNL A   1      32.070  30.269  26.211  1.00  0.00     0.021 A 
ATOM     23  C   UNL A   1      33.222  30.204  26.990  1.00  0.00     0.041 A 
ATOM     24  Cl  UNL A   1      33.908  31.647  27.625  1.00  0.00    -0.084 Cl
ENDBRANCH  16  18
ENDBRANCH  13  16
ENDBRANCH   7  12
ENDBRANCH   3   6
ENDBRANCH   1   2
BRANCH   1  25
ATOM     25  C   UNL A   1      37.890  19.638  24.865  1.00  0.00     0.042 C 
BRANCH  25  26
ATOM     26  C   UNL A   1      39.012  20.168  25.752  1.00  0.00     0.118 C 
BRANCH  26  27
ATOM     27  N   UNL A   1      40.080  19.203  25.947  1.00  0.00    -0.352 N 
ATOM     28  C   UNL A   1      41.430  19.384  26.126  1.00  0.00     0.251 C 
ATOM     29  H   UNL A   1      39.788  18.263  25.953  1.00  0.00     0.163 HD
ATOM     30  O   UNL A   1      42.170  18.404  26.084  1.00  0.00    -0.269 OA
BRANCH  28  31
ATOM     31  C   UNL A   1      42.023  20.728  26.352  1.00  0.00     0.039 A 
ATOM     32  C   UNL A   1      42.245  21.143  27.671  1.00  0.00     0.014 A 
ATOM     33  C   UNL A   1      42.276  21.621  25.308  1.00  0.00     0.014 A 
ATOM     34  C   UNL A   1      42.742  22.424  27.937  1.00  0.00     0.010 A 
ATOM     35  C   UNL A   1      42.855  22.865  25.566  1.00  0.00     0.010 A 
ATOM     36  C   UNL A   1      43.064  23.294  26.885  1.00  0.00    -0.014 A 
BRANCH  36  37
ATOM     37  C   UNL A   1      43.543  24.679  27.150  1.00  0.00     0.031 A 
ATOM     38  C   UNL A   1      42.590  25.716  27.689  1.00  0.00     0.074 A 
ATOM     39  C   UNL A   1      44.817  25.022  26.883  1.00  0.00     0.049 A 
ATOM     40  N   UNL A   1      42.796  26.986  27.938  1.00  0.00    -0.248 NA
ATOM     41  C   UNL A   1      41.213  25.272  27.958  1.00  0.00     0.031 C 
ATOM     42  C   UNL A   1      45.835  24.132  26.325  1.00  0.00     0.029 A 
ATOM     43  N   UNL A   1      45.475  26.217  27.048  1.00  0.00    -0.354 N 
ATOM     44  C   UNL A   1      41.573  27.493  28.362  1.00  0.00     0.074 A 
ATOM     45  C   UNL A   1      40.620  26.408  28.290  1.00  0.00     0.031 C 
ATOM     46  C   UNL A   1      46.994  24.803  26.218  1.00  0.00     0.029 A 
ATOM     47  C   UNL A   1      46.796  26.175  26.674  1.00  0.00     0.049 A 
ATOM     48  H   UNL A   1      45.040  27.027  27.399  1.00  0.00     0.167 HD
ATOM     49  C   UNL A   1      41.275  28.740  28.797  1.00  0.00     0.037 A 
ATOM     50  C   UNL A   1      47.742  27.135  26.704  1.00  0.00     0.037 A 
ATOM     51  C   UNL A   1      42.229  29.810  28.917  1.00  0.00     0.049 A 
ATOM     52  C   UNL A   1      47.395  28.502  27.227  1.00  0.00     0.074 A 
ATOM     53  C   UNL A   1      42.032  31.096  29.393  1.00  0.00     0.029 A 
ATOM     54  N   UNL A   1      43.567  29.713  28.568  1.00  0.00    -0.354 N 
ATOM     55  N   UNL A   1      46.246  28.953  27.669  1.00  0.00    -0.248 NA
ATOM     56  C   UNL A   1      48.481  29.491  27.265  1.00  0.00     0.031 C 
ATOM     57  C   UNL A   1      43.248  31.785  29.308  1.00  0.00     0.029 A 
ATOM     58  C   UNL A   1      44.209  30.917  28.815  1.00  0.00     0.049 A 
ATOM     59  H   UNL A   1      43.999  28.909  28.200  1.00  0.00     0.167 HD
ATOM     60  C   UNL A   1      46.479  30.263  28.068  1.00  0.00     0.074 A 
ATOM     61  C   UNL A   1      47.881  30.532  27.824  1.00  0.00     0.031 C 
ATOM     62  C   UNL A   1      45.609  31.163  28.587  1.00  0.00     0.037 A 
BRANCH  49  63
ATOM     63  C   UNL A   1      39.850  29.013  29.185  1.00  0.00     0.064 A 
ATOM     64  C   UNL A   1      39.398  28.824  30.500  1.00  0.00     0.173 A 
ATOM     65  C   UNL A   1      38.930  29.486  28.238  1.00  0.00     0.173 A 
ATOM     66  F   UNL A   1      40.235  28.360  31.441  1.00  0.00    -0.203 F 
ATOM     67  C   UNL A   1      38.071  29.067  30.844  1.00  0.00     0.198 A 
ATOM     68  C   UNL A   1      37.610  29.756  28.593  1.00  0.00     0.198 A 
ATOM     69  F   UNL A   1      39.311  29.688  26.968  1.00  0.00    -0.203 F 
ATOM     70  F   UNL A   1      37.651  28.828  32.094  1.00  0.00    -0.200 F 
ATOM     71  C   UNL A   1      37.180  29.538  29.892  1.00  0.00     0.200 A 
ATOM     72  F   UNL A   1      36.753  30.220  27.673  1.00  0.00    -0.200 F 
ATOM     73  F   UNL A   1      35.903  29.772  30.225  1.00  0.00    -0.200 F 
ENDBRANCH  49  63
BRANCH  50  74
ATOM     74  C   UNL A   1      49.126  26.820  26.270  1.00  0.00     0.064 A 
ATOM     75  C   UNL A   1      49.520  27.013  24.939  1.00  0.00     0.173 A 
ATOM     76  C   UNL A   1      50.080  26.322  27.169  1.00  0.00     0.173 A 
ATOM     77  F   UNL A   1      48.635  27.468  24.039  1.00  0.00    -0.203 F 
ATOM     78  C   UNL A   1      50.811  26.703  24.517  1.00  0.00     0.198 A 
ATOM     79  C   UNL A   1      51.378  26.034  26.751  1.00  0.00     0.198 A 
ATOM     80  F   UNL A   1      49.753  26.123  28.453  1.00  0.00    -0.203 F 
ATOM     81  F   UNL A   1      51.148  26.859  23.230  1.00  0.00    -0.200 F 
ATOM     82  C   UNL A   1      51.740  26.219  25.425  1.00  0.00     0.200 A 
ATOM     83  F   UNL A   1      52.279  25.577  27.632  1.00  0.00    -0.200 F 
ATOM     84  F   UNL A   1      52.983  25.924  25.019  1.00  0.00    -0.200 F 
ENDBRANCH  50  74
BRANCH  62  85
ATOM     85  C   UNL A   1      46.155  32.505  28.974  1.00  0.00     0.064 A 
ATOM     86  C   UNL A   1      46.649  32.755  30.263  1.00  0.00     0.173 A 
ATOM     87  C   UNL A   1      46.216  33.542  28.032  1.00  0.00     0.173 A 
ATOM     88  F   UNL A   1      46.599  31.799  31.202  1.00  0.00    -0.203 F 
ATOM     89  C   UNL A   1      47.158  34.007  30.602  1.00  0.00     0.198 A 
ATOM     90  C   UNL A   1      46.750  34.784  28.366  1.00  0.00     0.198 A 
ATOM     91  F   UNL A   1      45.763  33.349  26.784  1.00  0.00    -0.203 F 
ATOM     92  F   UNL A   1      47.583  34.239  31.851  1.00  0.00    -0.200 F 
ATOM     93  C   UNL A   1      47.213  35.016  29.652  1.00  0.00     0.200 A 
ATOM     94  F   UNL A   1      46.812  35.755  27.446  1.00  0.00    -0.200 F 
ATOM     95  F   UNL A   1      47.706  36.219  29.979  1.00  0.00    -0.200 F 
ENDBRANCH  62  85
ENDBRANCH  36  37
ENDBRANCH  28  31
ENDBRANCH  26  27
ENDBRANCH  25  26
ENDBRANCH   1  25
TORSDOF 13
ENDMDL
MODEL 2
REMARK VINA RESULT:     -12.5      2.978      8.286
REMARK SMILES C[C@H](NC(=O)N1CC[C@@H](C(=O)NCCCNC(=O)c2ccc(-c3c4nc(c(-c5c(F)c(F)c(F)c(F)c5F)c5ccc([nH]5)c(-c5c(F)c(F)c(F)c(F)c5F)c5nc(c(-c6c(F)c(F)c(F)c(F)c6F)c6ccc3[nH]6)C=C5)C=C4)cc2)[C@H]1C)c1ccc(Cl)cc1
REMARK SMILES IDX 13 1 12 2 10 3 11 4 9 6 6 7 7 8 82 9 8 10 83 11 4 12 3 13
REMARK SMILES IDX 5 15 2 16 1 17 84 18 85 19 90 20 86 21 89 22 87 23 88 24
REMARK SMILES IDX 14 25 15 26 16 27 17 28 18 30 19 31 20 32 81 33 21 34 80 35
REMARK SMILES IDX 22 36 23 37 24 38 74 39 25 40 79 41 73 42 75 43 26 44 78 45
REMARK SMILES IDX 72 46 71 47 27 49 59 50 39 51 58 52 40 53 43 54 57 55 76 56
REMARK SMILES IDX 41 57 42 58 56 60 77 61 44 62 28 63 29 64 37 65 30 66 31 67
REMARK SMILES IDX 35 68 38 69 32 70 33 71 36 72 34 73 60 74 61 75 69 76 62 77
REMARK SMILES IDX 63 78 67 79 70 80 64 81 65 82 68 83 66 84 45 85 46 86 54 87
REMARK SMILES IDX 47 88 48 89 52 90 55 91 49 92 50 93 53 94 51 95
REMARK H PARENT 12 5 3 14 16 29 75 48 43 59
REMARK Flexibility Score: inf
ROOT
ATOM      1  C   UNL A   1      35.147  22.971  23.945  1.00  0.00     0.117 C 
ENDROOT
BRANCH   1   2
ATOM      2  N   UNL A   1      35.117  21.555  24.271  1.00  0.00    -0.356 N 
ATOM      3  C   UNL A   1      34.127  20.708  24.646  1.00  0.00     0.225 C 
ATOM      4  O   UNL A   1      34.464  19.535  24.843  1.00  0.00    -0.275 OA
ATOM      5  H   UNL A   1      35.998  21.120  24.205  1.00  0.00     0.163 HD
BRANCH   3   6
ATOM      6  C   UNL A   1      32.679  21.112  24.864  1.00  0.00     0.102 C 
ATOM      7  N   UNL A   1      31.789  23.161  25.719  1.00  0.00    -0.321 N 
ATOM      8  C   UNL A   1      31.185  22.946  24.414  1.00  0.00     0.122 C 
ATOM      9  C   UNL A   1      32.350  21.878  26.159  1.00  0.00     0.096 C 
ATOM     10  C   UNL A   1      32.037  21.899  23.721  1.00  0.00     0.037 C 
ATOM     11  C   UNL A   1      33.453  21.930  27.205  1.00  0.00     0.032 C 
BRANCH   7  12
ATOM     12  C   UNL A   1      31.027  23.890  26.608  1.00  0.00     0.318 C 
ATOM     13  N   UNL A   1      31.102  25.241  26.549  1.00  0.00    -0.331 N 
ATOM     14  H   UNL A   1      30.742  25.718  27.332  1.00  0.00     0.165 HD
ATOM     15  O   UNL A   1      30.259  23.371  27.415  1.00  0.00    -0.249 OA
BRANCH  13  16
ATOM     16  C   UNL A   1      31.635  26.084  25.497  1.00  0.00     0.111 C 
ATOM     17  C   UNL A   1      30.545  26.485  24.500  1.00  0.00     0.036 C 
BRANCH  16  18
ATOM     18  C   UNL A   1      32.325  27.300  26.099  1.00  0.00    -0.026 A 
ATOM     19  C   UNL A   1      33.718  27.441  25.989  1.00  0.00     0.007 A 
ATOM     20  C   UNL A   1      31.602  28.294  26.781  1.00  0.00     0.007 A 
ATOM     21  C   UNL A   1      34.367  28.559  26.524  1.00  0.00     0.021 A 
ATOM     22  C   UNL A   1      32.251  29.410  27.318  1.00  0.00     0.021 A 
ATOM     23  C   UNL A   1      33.630  29.541  27.181  1.00  0.00     0.041 A 
ATOM     24  Cl  UNL A   1      34.428  30.923  27.823  1.00  0.00    -0.084 Cl
ENDBRANCH  16  18
ENDBRANCH  13  16
ENDBRANCH   7  12
ENDBRANCH   3   6
ENDBRANCH   1   2
BRANCH   1  25
ATOM     25  C   UNL A   1      36.296  23.723  24.615  1.00  0.00     0.042 C 
BRANCH  25  26
ATOM     26  C   UNL A   1      36.655  23.255  26.021  1.00  0.00     0.118 C 
BRANCH  26  27
ATOM     27  N   UNL A   1      37.883  22.480  26.062  1.00  0.00    -0.352 N 
ATOM     28  C   UNL A   1      39.167  22.850  26.382  1.00  0.00     0.251 C 
ATOM     29  H   UNL A   1      37.778  21.531  25.821  1.00  0.00     0.163 HD
ATOM     30  O   UNL A   1      40.083  22.061  26.164  1.00  0.00    -0.269 OA
BRANCH  28  31
ATOM     31  C   UNL A   1      39.483  24.179  26.967  1.00  0.00     0.039 A 
ATOM     32  C   UNL A   1      40.093  25.137  26.149  1.00  0.00     0.014 A 
ATOM     33  C   UNL A   1      39.282  24.469  28.319  1.00  0.00     0.014 A 
ATOM     34  C   UNL A   1      40.468  26.380  26.671  1.00  0.00     0.010 A 
ATOM     35  C   UNL A   1      39.573  25.740  28.820  1.00  0.00     0.010 A 
ATOM     36  C   UNL A   1      40.200  26.699  28.011  1.00  0.00    -0.014 A 
BRANCH  36  37
ATOM     37  C   UNL A   1      40.639  27.995  28.597  1.00  0.00     0.031 A 
ATOM     38  C   UNL A   1      42.098  28.233  28.893  1.00  0.00     0.074 A 
ATOM     39  C   UNL A   1      39.737  28.949  28.895  1.00  0.00     0.049 A 
ATOM     40  N   UNL A   1      42.677  29.269  29.448  1.00  0.00    -0.248 NA
ATOM     41  C   UNL A   1      43.029  27.148  28.543  1.00  0.00     0.031 C 
ATOM     42  C   UNL A   1      38.292  28.839  28.698  1.00  0.00     0.029 A 
ATOM     43  N   UNL A   1      39.905  30.204  29.428  1.00  0.00    -0.354 N 
ATOM     44  C   UNL A   1      44.026  28.947  29.538  1.00  0.00     0.074 A 
ATOM     45  C   UNL A   1      44.174  27.603  29.027  1.00  0.00     0.031 C 
ATOM     46  C   UNL A   1      37.708  29.987  29.079  1.00  0.00     0.029 A 
ATOM     47  C   UNL A   1      38.732  30.904  29.571  1.00  0.00     0.049 A 
ATOM     48  H   UNL A   1      40.783  30.567  29.685  1.00  0.00     0.167 HD
ATOM     49  C   UNL A   1      45.054  29.709  29.982  1.00  0.00     0.037 A 
ATOM     50  C   UNL A   1      38.510  32.148  30.041  1.00  0.00     0.037 A 
ATOM     51  C   UNL A   1      44.921  31.065  30.445  1.00  0.00     0.049 A 
ATOM     52  C   UNL A   1      39.673  32.989  30.492  1.00  0.00     0.074 A 
ATOM     53  C   UNL A   1      45.911  31.935  30.870  1.00  0.00     0.029 A 
ATOM     54  N   UNL A   1      43.720  31.751  30.535  1.00  0.00    -0.354 N 
ATOM     55  N   UNL A   1      40.948  32.689  30.526  1.00  0.00    -0.248 NA
ATOM     56  C   UNL A   1      39.364  34.347  30.959  1.00  0.00     0.031 C 
ATOM     57  C   UNL A   1      45.305  33.142  31.240  1.00  0.00     0.029 A 
ATOM     58  C   UNL A   1      43.943  33.034  31.010  1.00  0.00     0.049 A 
ATOM     59  H   UNL A   1      42.839  31.383  30.295  1.00  0.00     0.167 HD
ATOM     60  C   UNL A   1      41.596  33.828  30.986  1.00  0.00     0.074 A 
ATOM     61  C   UNL A   1      40.573  34.830  31.207  1.00  0.00     0.031 C 
ATOM     62  C   UNL A   1      42.918  34.027  31.205  1.00  0.00     0.037 A 
BRANCH  49  63
ATOM     63  C   UNL A   1      46.423  29.092  29.977  1.00  0.00     0.064 A 
ATOM     64  C   UNL A   1      46.925  28.410  31.096  1.00  0.00     0.173 A 
ATOM     65  C   UNL A   1      47.236  29.166  28.836  1.00  0.00     0.173 A 
ATOM     66  F   UNL A   1      46.193  28.322  32.217  1.00  0.00    -0.203 F 
ATOM     67  C   UNL A   1      48.201  27.854  31.084  1.00  0.00     0.198 A 
ATOM     68  C   UNL A   1      48.501  28.583  28.818  1.00  0.00     0.198 A 
ATOM     69  F   UNL A   1      46.802  29.802  27.738  1.00  0.00    -0.203 F 
ATOM     70  F   UNL A   1      48.680  27.255  32.183  1.00  0.00    -0.200 F 
ATOM     71  C   UNL A   1      48.986  27.937  29.943  1.00  0.00     0.200 A 
ATOM     72  F   UNL A   1      49.253  28.655  27.711  1.00  0.00    -0.200 F 
ATOM     73  F   UNL A   1      50.214  27.401  29.933  1.00  0.00    -0.200 F 
ENDBRANCH  49  63
BRANCH  50  74
ATOM     74  C   UNL A   1      37.129  32.694  30.060  1.00  0.00     0.064 A 
ATOM     75  C   UNL A   1      36.671  33.516  29.021  1.00  0.00     0.173 A 
ATOM     76  C   UNL A   1      36.244  32.410  31.110  1.00  0.00     0.173 A 
ATOM     77  F   UNL A   1      37.490  33.831  28.007  1.00  0.00    -0.203 F 
ATOM     78  C   UNL A   1      35.384  34.049  29.040  1.00  0.00     0.198 A 
ATOM     79  C   UNL A   1      34.949  32.924  31.115  1.00  0.00     0.198 A 
ATOM     80  F   UNL A   1      36.635  31.626  32.124  1.00  0.00    -0.203 F 
ATOM     81  F   UNL A   1      34.986  34.865  28.054  1.00  0.00    -0.200 F 
ATOM     82  C   UNL A   1      34.523  33.748  30.083  1.00  0.00     0.200 A 
ATOM     83  F   UNL A   1      34.114  32.623  32.118  1.00  0.00    -0.200 F 
ATOM     84  F   UNL A   1      33.283  34.259  30.098  1.00  0.00    -0.200 F 
ENDBRANCH  50  74
BRANCH  62  85
ATOM     85  C   UNL A   1      43.343  35.390  31.663  1.00  0.00     0.064 A 
ATOM     86  C   UNL A   1      43.750  36.378  30.755  1.00  0.00     0.173 A 
ATOM     87  C   UNL A   1      43.310  35.720  33.026  1.00  0.00     0.173 A 
ATOM     88  F   UNL A   1      43.811  36.105  29.443  1.00  0.00    -0.203 F 
ATOM     89  C   UNL A   1      44.135  37.641  31.199  1.00  0.00     0.198 A 
ATOM     90  C   UNL A   1      43.671  36.992  33.464  1.00  0.00     0.198 A 
ATOM     91  F   UNL A   1      42.921  34.812  33.933  1.00  0.00    -0.203 F 
ATOM     92  F   UNL A   1      44.564  38.556  30.319  1.00  0.00    -0.200 F 
ATOM     93  C   UNL A   1      44.089  37.947  32.551  1.00  0.00     0.200 A 
ATOM     94  F   UNL A   1      43.617  37.290  34.769  1.00  0.00    -0.200 F 
ATOM     95  F   UNL A   1      44.458  39.164  32.976  1.00  0.00    -0.200 F 
ENDBRANCH  62  85
ENDBRANCH  36  37
ENDBRANCH  28  31
ENDBRANCH  26  27
ENDBRANCH  25  26
ENDBRANCH   1  25
TORSDOF 13
ENDMDL
MODEL 3
REMARK VINA RESULT:     -12.5      2.894      8.278
REMARK SMILES C[C@H](NC(=O)N1CC[C@@H](C(=O)NCCCNC(=O)c2ccc(-c3c4nc(c(-c5c(F)c(F)c(F)c(F)c5F)c5ccc([nH]5)c(-c5c(F)c(F)c(F)c(F)c5F)c5nc(c(-c6c(F)c(F)c(F)c(F)c6F)c6ccc3[nH]6)C=C5)C=C4)cc2)[C@H]1C)c1ccc(Cl)cc1
REMARK SMILES IDX 13 1 12 2 10 3 11 4 9 6 6 7 7 8 82 9 8 10 83 11 4 12 3 13
REMARK SMILES IDX 5 15 2 16 1 17 84 18 85 19 90 20 86 21 89 22 87 23 88 24
REMARK SMILES IDX 14 25 15 26 16 27 17 28 18 30 19 31 20 32 81 33 21 34 80 35
REMARK SMILES IDX 22 36 23 37 24 38 74 39 25 40 79 41 73 42 75 43 26 44 78 45
REMARK SMILES IDX 72 46 71 47 27 49 59 50 39 51 58 52 40 53 43 54 57 55 76 56
REMARK SMILES IDX 41 57 42 58 56 60 77 61 44 62 28 63 29 64 37 65 30 66 31 67
REMARK SMILES IDX 35 68 38 69 32 70 33 71 36 72 34 73 60 74 61 75 69 76 62 77
REMARK SMILES IDX 63 78 67 79 70 80 64 81 65 82 68 83 66 84 45 85 46 86 54 87
REMARK SMILES IDX 47 88 48 89 52 90 55 91 49 92 50 93 53 94 51 95
REMARK H PARENT 12 5 3 14 16 29 75 48 43 59
REMARK Flexibility Score: inf
ROOT
ATOM      1  C   UNL A   1      35.069  23.146  24.037  1.00  0.00     0.117 C 
ENDROOT
BRANCH   1   2
ATOM      2  N   UNL A   1      34.995  21.722  24.320  1.00  0.00    -0.356 N 
ATOM      3  C   UNL A   1      33.971  20.886  24.624  1.00  0.00     0.225 C 
ATOM      4  O   UNL A   1      34.275  19.701  24.802  1.00  0.00    -0.275 OA
ATOM      5  H   UNL A   1      35.869  21.270  24.283  1.00  0.00     0.163 HD
BRANCH   3   6
ATOM      6  C   UNL A   1      32.523  21.315  24.786  1.00  0.00     0.102 C 
ATOM      7  N   UNL A   1      31.636  23.372  25.623  1.00  0.00    -0.321 N 
ATOM      8  C   UNL A   1      31.082  23.180  24.292  1.00  0.00     0.122 C 
ATOM      9  C   UNL A   1      32.154  22.076  26.073  1.00  0.00     0.096 C 
ATOM     10  C   UNL A   1      31.943  22.124  23.625  1.00  0.00     0.037 C 
ATOM     11  C   UNL A   1      33.215  22.099  27.164  1.00  0.00     0.032 C 
BRANCH   7  12
ATOM     12  C   UNL A   1      30.851  24.108  26.486  1.00  0.00     0.318 C 
ATOM     13  N   UNL A   1      30.957  25.457  26.447  1.00  0.00    -0.331 N 
ATOM     14  H   UNL A   1      30.574  25.933  27.219  1.00  0.00     0.165 HD
ATOM     15  O   UNL A   1      30.037  23.597  27.252  1.00  0.00    -0.249 OA
BRANCH  13  16
ATOM     16  C   UNL A   1      31.555  26.301  25.430  1.00  0.00     0.111 C 
ATOM     17  C   UNL A   1      30.511  26.767  24.413  1.00  0.00     0.036 C 
BRANCH  16  18
ATOM     18  C   UNL A   1      32.274  27.474  26.079  1.00  0.00    -0.026 A 
ATOM     19  C   UNL A   1      33.678  27.503  26.116  1.00  0.00     0.007 A 
ATOM     20  C   UNL A   1      31.567  28.541  26.663  1.00  0.00     0.007 A 
ATOM     21  C   UNL A   1      34.356  28.580  26.696  1.00  0.00     0.021 A 
ATOM     22  C   UNL A   1      32.245  29.616  27.244  1.00  0.00     0.021 A 
ATOM     23  C   UNL A   1      33.637  29.634  27.252  1.00  0.00     0.041 A 
ATOM     24  Cl  UNL A   1      34.472  30.966  27.949  1.00  0.00    -0.084 Cl
ENDBRANCH  16  18
ENDBRANCH  13  16
ENDBRANCH   7  12
ENDBRANCH   3   6
ENDBRANCH   1   2
BRANCH   1  25
ATOM     25  C   UNL A   1      36.204  23.852  24.777  1.00  0.00     0.042 C 
BRANCH  25  26
ATOM     26  C   UNL A   1      36.558  23.273  26.143  1.00  0.00     0.118 C 
BRANCH  26  27
ATOM     27  N   UNL A   1      37.792  22.508  26.129  1.00  0.00    -0.352 N 
ATOM     28  C   UNL A   1      39.088  22.891  26.381  1.00  0.00     0.251 C 
ATOM     29  H   UNL A   1      37.683  21.557  25.902  1.00  0.00     0.163 HD
ATOM     30  O   UNL A   1      39.998  22.107  26.125  1.00  0.00    -0.269 OA
BRANCH  28  31
ATOM     31  C   UNL A   1      39.422  24.228  26.938  1.00  0.00     0.039 A 
ATOM     32  C   UNL A   1      39.989  25.180  26.083  1.00  0.00     0.014 A 
ATOM     33  C   UNL A   1      39.279  24.532  28.294  1.00  0.00     0.014 A 
ATOM     34  C   UNL A   1      40.380  26.431  26.575  1.00  0.00     0.010 A 
ATOM     35  C   UNL A   1      39.585  25.810  28.768  1.00  0.00     0.010 A 
ATOM     36  C   UNL A   1      40.170  26.763  27.922  1.00  0.00    -0.014 A 
BRANCH  36  37
ATOM     37  C   UNL A   1      40.627  28.068  28.474  1.00  0.00     0.031 A 
ATOM     38  C   UNL A   1      42.098  28.321  28.689  1.00  0.00     0.074 A 
ATOM     39  C   UNL A   1      39.733  29.016  28.813  1.00  0.00     0.049 A 
ATOM     40  N   UNL A   1      42.696  29.367  29.205  1.00  0.00    -0.248 NA
ATOM     41  C   UNL A   1      43.019  27.243  28.297  1.00  0.00     0.031 C 
ATOM     42  C   UNL A   1      38.281  28.890  28.695  1.00  0.00     0.029 A 
ATOM     43  N   UNL A   1      39.917  30.276  29.328  1.00  0.00    -0.354 N 
ATOM     44  C   UNL A   1      44.051  29.059  29.225  1.00  0.00     0.074 A 
ATOM     45  C   UNL A   1      44.184  27.712  28.716  1.00  0.00     0.031 C 
ATOM     46  C   UNL A   1      37.706  30.036  29.099  1.00  0.00     0.029 A 
ATOM     47  C   UNL A   1      38.747  30.966  29.529  1.00  0.00     0.049 A 
ATOM     48  H   UNL A   1      40.804  30.649  29.534  1.00  0.00     0.167 HD
ATOM     49  C   UNL A   1      45.093  29.834  29.606  1.00  0.00     0.037 A 
ATOM     50  C   UNL A   1      38.538  32.211  30.000  1.00  0.00     0.037 A 
ATOM     51  C   UNL A   1      44.972  31.192  30.067  1.00  0.00     0.049 A 
ATOM     52  C   UNL A   1      39.715  33.066  30.382  1.00  0.00     0.074 A 
ATOM     53  C   UNL A   1      45.975  32.075  30.431  1.00  0.00     0.029 A 
ATOM     54  N   UNL A   1      43.771  31.867  30.216  1.00  0.00    -0.354 N 
ATOM     55  N   UNL A   1      40.993  32.779  30.350  1.00  0.00    -0.248 NA
ATOM     56  C   UNL A   1      39.419  34.426  30.856  1.00  0.00     0.031 C 
ATOM     57  C   UNL A   1      45.377  33.278  30.824  1.00  0.00     0.029 A 
ATOM     58  C   UNL A   1      44.006  33.156  30.669  1.00  0.00     0.049 A 
ATOM     59  H   UNL A   1      42.882  31.489  30.027  1.00  0.00     0.167 HD
ATOM     60  C   UNL A   1      41.654  33.928  30.766  1.00  0.00     0.074 A 
ATOM     61  C   UNL A   1      40.635  34.921  31.035  1.00  0.00     0.031 C 
ATOM     62  C   UNL A   1      42.984  34.140  30.912  1.00  0.00     0.037 A 
BRANCH  49  63
ATOM     63  C   UNL A   1      46.466  29.229  29.532  1.00  0.00     0.064 A 
ATOM     64  C   UNL A   1      47.243  29.313  28.366  1.00  0.00     0.173 A 
ATOM     65  C   UNL A   1      47.019  28.576  30.643  1.00  0.00     0.173 A 
ATOM     66  F   UNL A   1      46.755  29.916  27.272  1.00  0.00    -0.203 F 
ATOM     67  C   UNL A   1      48.509  28.736  28.306  1.00  0.00     0.198 A 
ATOM     68  C   UNL A   1      48.298  28.025  30.588  1.00  0.00     0.198 A 
ATOM     69  F   UNL A   1      46.320  28.472  31.783  1.00  0.00    -0.203 F 
ATOM     70  F   UNL A   1      49.210  28.782  27.165  1.00  0.00    -0.200 F 
ATOM     71  C   UNL A   1      49.037  28.098  29.418  1.00  0.00     0.200 A 
ATOM     72  F   UNL A   1      48.810  27.418  31.667  1.00  0.00    -0.200 F 
ATOM     73  F   UNL A   1      50.256  27.543  29.358  1.00  0.00    -0.200 F 
ENDBRANCH  49  63
BRANCH  50  74
ATOM     74  C   UNL A   1      37.155  32.744  30.090  1.00  0.00     0.064 A 
ATOM     75  C   UNL A   1      36.625  33.534  29.061  1.00  0.00     0.173 A 
ATOM     76  C   UNL A   1      36.338  32.479  31.199  1.00  0.00     0.173 A 
ATOM     77  F   UNL A   1      37.378  33.831  27.991  1.00  0.00    -0.203 F 
ATOM     78  C   UNL A   1      35.336  34.055  29.144  1.00  0.00     0.198 A 
ATOM     79  C   UNL A   1      35.040  32.981  31.270  1.00  0.00     0.198 A 
ATOM     80  F   UNL A   1      36.799  31.726  32.207  1.00  0.00    -0.203 F 
ATOM     81  F   UNL A   1      34.869  34.841  28.164  1.00  0.00    -0.200 F 
ATOM     82  C   UNL A   1      34.543  33.774  30.246  1.00  0.00     0.200 A 
ATOM     83  F   UNL A   1      34.271  32.699  32.330  1.00  0.00    -0.200 F 
ATOM     84  F   UNL A   1      33.301  34.273  30.324  1.00  0.00    -0.200 F 
ENDBRANCH  50  74
BRANCH  62  85
ATOM     85  C   UNL A   1      43.419  35.511  31.336  1.00  0.00     0.064 A 
ATOM     86  C   UNL A   1      43.574  35.849  32.688  1.00  0.00     0.173 A 
ATOM     87  C   UNL A   1      43.717  36.488  30.375  1.00  0.00     0.173 A 
ATOM     88  F   UNL A   1      43.288  34.953  33.645  1.00  0.00    -0.203 F 
ATOM     89  C   UNL A   1      43.985  37.126  33.063  1.00  0.00     0.198 A 
ATOM     90  C   UNL A   1      44.153  37.755  30.751  1.00  0.00     0.198 A 
ATOM     91  F   UNL A   1      43.591  36.211  29.068  1.00  0.00    -0.203 F 
ATOM     92  F   UNL A   1      44.083  37.442  34.361  1.00  0.00    -0.200 F 
ATOM     93  C   UNL A   1      44.279  38.074  32.095  1.00  0.00     0.200 A 
ATOM     94  F   UNL A   1      44.446  38.668  29.815  1.00  0.00    -0.200 F 
ATOM     95  F   UNL A   1      44.677  39.302  32.457  1.00  0.00    -0.200 F 
ENDBRANCH  62  85
ENDBRANCH  36  37
ENDBRANCH  28  31
ENDBRANCH  26  27
ENDBRANCH  25  26
ENDBRANCH   1  25
TORSDOF 13
ENDMDL
