MODEL 1
REMARK VINA RESULT:     -14.4      0.000      0.000
REMARK SMILES Cc1ccc(C(=O)C[C@@H](C(=O)NCCCNC(=O)c2ccc(-c3c4nc(c(-c5c(F)c(F)c(F)c(F)c5F)c5ccc([nH]5)c(-c5c(F)c(F)c(F)c(F)c5F)c5nc(c(-c6c(F)c(F)c(F)c(F)c6F)c6ccc3[nH]6)C=C5)C=C4)cc2)[NH+]2CC[NH+](Cc3ccccc3)CC2)cc1
REMARK SMILES IDX 13 1 12 2 10 3 11 4 9 6 8 7 6 8 7 9 5 10 1 11 2 12 3 13
REMARK SMILES IDX 96 14 4 15 95 16 82 17 83 18 94 19 84 21 93 22 85 23 86 25
REMARK SMILES IDX 87 26 88 27 92 28 89 29 91 30 90 31 14 32 15 33 16 34 17 35
REMARK SMILES IDX 18 37 19 38 20 39 81 40 21 41 80 42 22 43 23 44 24 45 74 46
REMARK SMILES IDX 25 47 79 48 73 49 75 50 26 51 78 52 72 53 71 54 27 56 59 57
REMARK SMILES IDX 39 58 58 59 40 60 43 61 57 62 76 63 41 64 42 65 56 67 77 68
REMARK SMILES IDX 44 69 28 70 29 71 37 72 30 73 31 74 35 75 38 76 32 77 33 78
REMARK SMILES IDX 36 79 34 80 60 81 61 82 69 83 62 84 63 85 67 86 70 87 64 88
REMARK SMILES IDX 65 89 68 90 66 91 45 92 46 93 54 94 47 95 48 96 52 97 55 98
REMARK SMILES IDX 49 99 50 100 53 101 51 102
REMARK H PARENT 12 5 82 20 85 24 16 36 75 55 43 66
REMARK Flexibility Score: inf
ROOT
ATOM      1  C   UNL A   1      32.659  27.804  26.946  1.00  0.00     0.118 C 
ENDROOT
BRANCH   1   2
ATOM      2  N   UNL A   1      31.435  27.032  27.038  1.00  0.00    -0.351 N 
ATOM      3  C   UNL A   1      30.825  26.215  26.131  1.00  0.00     0.278 C 
ATOM      4  O   UNL A   1      29.738  25.741  26.480  1.00  0.00    -0.268 OA
ATOM      5  H   UNL A   1      30.966  27.113  27.900  1.00  0.00     0.163 HD
BRANCH   3   6
ATOM      6  C   UNL A   1      31.494  25.842  24.774  1.00  0.00     0.282 C 
BRANCH   6   7
ATOM      7  C   UNL A   1      30.533  25.804  23.572  1.00  0.00     0.156 C 
BRANCH   7   8
ATOM      8  C   UNL A   1      30.499  27.111  22.804  1.00  0.00     0.169 C 
ATOM      9  O   UNL A   1      31.228  27.308  21.834  1.00  0.00    -0.294 OA
BRANCH   8  10
ATOM     10  C   UNL A   1      29.692  28.229  23.357  1.00  0.00     0.018 A 
ATOM     11  C   UNL A   1      27.820  31.946  22.834  1.00  0.00     0.044 C 
ATOM     12  C   UNL A   1      28.362  30.634  23.287  1.00  0.00    -0.051 A 
ATOM     13  C   UNL A   1      27.657  29.452  23.037  1.00  0.00     0.004 A 
ATOM     14  C   UNL A   1      29.646  30.581  23.822  1.00  0.00     0.004 A 
ATOM     15  C   UNL A   1      28.326  28.237  23.069  1.00  0.00     0.012 A 
ATOM     16  C   UNL A   1      30.310  29.365  23.879  1.00  0.00     0.012 A 
ENDBRANCH   8  10
ENDBRANCH   7   8
ENDBRANCH   6   7
BRANCH   6  17
ATOM     17  N   UNL A   1      32.130  24.499  24.853  1.00  0.00    -0.315 N 
ATOM     18  C   UNL A   1      32.542  23.952  23.563  1.00  0.00     0.325 C 
ATOM     19  C   UNL A   1      33.083  24.255  25.945  1.00  0.00     0.325 C 
ATOM     20  H   UNL A   1      31.339  23.931  25.156  1.00  0.00     0.349 HD
ATOM     21  C   UNL A   1      33.562  22.796  23.641  1.00  0.00     0.324 C 
ATOM     22  C   UNL A   1      33.589  22.791  26.072  1.00  0.00     0.324 C 
ATOM     23  N   UNL A   1      33.532  21.988  24.855  1.00  0.00    -0.322 N 
ATOM     24  H   UNL A   1      34.419  21.486  24.837  1.00  0.00     0.348 HD
BRANCH  23  25
ATOM     25  C   UNL A   1      32.638  20.831  24.868  1.00  0.00     0.299 C 
BRANCH  25  26
ATOM     26  C   UNL A   1      33.077  19.477  24.339  1.00  0.00     0.006 A 
ATOM     27  C   UNL A   1      32.319  18.877  23.317  1.00  0.00     0.009 A 
ATOM     28  C   UNL A   1      34.277  18.848  24.693  1.00  0.00     0.009 A 
ATOM     29  C   UNL A   1      32.721  17.679  22.715  1.00  0.00     0.001 A 
ATOM     30  C   UNL A   1      34.672  17.637  24.115  1.00  0.00     0.001 A 
ATOM     31  C   UNL A   1      33.892  17.051  23.126  1.00  0.00     0.000 A 
ENDBRANCH  25  26
ENDBRANCH  23  25
ENDBRANCH   6  17
ENDBRANCH   3   6
ENDBRANCH   1   2
BRANCH   1  32
ATOM     32  C   UNL A   1      32.444  29.289  27.243  1.00  0.00     0.042 C 
BRANCH  32  33
ATOM     33  C   UNL A   1      33.659  30.171  26.926  1.00  0.00     0.118 C 
BRANCH  33  34
ATOM     34  N   UNL A   1      33.968  31.083  28.032  1.00  0.00    -0.352 N 
ATOM     35  C   UNL A   1      35.112  31.196  28.799  1.00  0.00     0.251 C 
ATOM     36  H   UNL A   1      33.247  31.713  28.265  1.00  0.00     0.163 HD
ATOM     37  O   UNL A   1      35.284  32.127  29.561  1.00  0.00    -0.269 OA
BRANCH  35  38
ATOM     38  C   UNL A   1      36.160  30.178  28.619  1.00  0.00     0.039 A 
ATOM     39  C   UNL A   1      36.548  29.415  29.720  1.00  0.00     0.014 A 
ATOM     40  C   UNL A   1      36.872  30.141  27.425  1.00  0.00     0.014 A 
ATOM     41  C   UNL A   1      37.799  28.805  29.707  1.00  0.00     0.010 A 
ATOM     42  C   UNL A   1      38.117  29.529  27.414  1.00  0.00     0.010 A 
ATOM     43  C   UNL A   1      38.628  28.966  28.591  1.00  0.00    -0.014 A 
BRANCH  43  44
ATOM     44  C   UNL A   1      40.083  28.828  28.714  1.00  0.00     0.031 A 
ATOM     45  C   UNL A   1      40.832  27.670  28.193  1.00  0.00     0.074 A 
ATOM     46  C   UNL A   1      40.790  29.831  29.289  1.00  0.00     0.049 A 
ATOM     47  N   UNL A   1      41.898  27.208  28.759  1.00  0.00    -0.248 NA
ATOM     48  C   UNL A   1      40.459  26.943  26.991  1.00  0.00     0.031 C 
ATOM     49  C   UNL A   1      42.245  29.990  29.314  1.00  0.00     0.029 A 
ATOM     50  N   UNL A   1      40.315  30.905  30.062  1.00  0.00    -0.354 N 
ATOM     51  C   UNL A   1      42.492  26.318  27.895  1.00  0.00     0.074 A 
ATOM     52  C   UNL A   1      41.520  26.140  26.836  1.00  0.00     0.031 C 
ATOM     53  C   UNL A   1      42.571  30.885  30.259  1.00  0.00     0.029 A 
ATOM     54  C   UNL A   1      41.352  31.249  30.956  1.00  0.00     0.049 A 
ATOM     55  H   UNL A   1      39.432  31.333  29.994  1.00  0.00     0.167 HD
ATOM     56  C   UNL A   1      43.785  25.929  28.115  1.00  0.00     0.037 A 
ATOM     57  C   UNL A   1      41.167  31.186  32.303  1.00  0.00     0.037 A 
ATOM     58  C   UNL A   1      44.358  26.618  29.273  1.00  0.00     0.049 A 
ATOM     59  C   UNL A   1      42.043  30.168  32.991  1.00  0.00     0.074 A 
ATOM     60  C   UNL A   1      45.226  27.695  29.383  1.00  0.00     0.029 A 
ATOM     61  N   UNL A   1      43.852  26.393  30.548  1.00  0.00    -0.354 N 
ATOM     62  N   UNL A   1      42.748  29.272  32.360  1.00  0.00    -0.248 NA
ATOM     63  C   UNL A   1      42.146  30.036  34.441  1.00  0.00     0.031 C 
ATOM     64  C   UNL A   1      45.230  28.125  30.732  1.00  0.00     0.029 A 
ATOM     65  C   UNL A   1      44.365  27.312  31.445  1.00  0.00     0.049 A 
ATOM     66  H   UNL A   1      43.216  25.679  30.781  1.00  0.00     0.167 HD
ATOM     67  C   UNL A   1      43.310  28.409  33.264  1.00  0.00     0.074 A 
ATOM     68  C   UNL A   1      42.946  28.961  34.553  1.00  0.00     0.031 C 
ATOM     69  C   UNL A   1      43.987  27.295  32.852  1.00  0.00     0.037 A 
BRANCH  56  70
ATOM     70  C   UNL A   1      44.645  25.126  27.150  1.00  0.00     0.064 A 
ATOM     71  C   UNL A   1      45.516  25.767  26.236  1.00  0.00     0.173 A 
ATOM     72  C   UNL A   1      44.658  23.721  27.068  1.00  0.00     0.173 A 
ATOM     73  F   UNL A   1      45.725  27.089  26.271  1.00  0.00    -0.203 F 
ATOM     74  C   UNL A   1      46.226  25.073  25.250  1.00  0.00     0.198 A 
ATOM     75  C   UNL A   1      45.328  23.030  26.051  1.00  0.00     0.198 A 
ATOM     76  F   UNL A   1      44.086  22.964  28.010  1.00  0.00    -0.203 F 
ATOM     77  F   UNL A   1      47.028  25.744  24.411  1.00  0.00    -0.200 F 
ATOM     78  C   UNL A   1      46.101  23.707  25.132  1.00  0.00     0.200 A 
ATOM     79  F   UNL A   1      45.224  21.695  25.978  1.00  0.00    -0.200 F 
ATOM     80  F   UNL A   1      46.749  23.043  24.165  1.00  0.00    -0.200 F 
ENDBRANCH  56  70
BRANCH  57  81
ATOM     81  C   UNL A   1      39.792  31.557  32.717  1.00  0.00     0.064 A 
ATOM     82  C   UNL A   1      39.427  32.916  32.643  1.00  0.00     0.173 A 
ATOM     83  C   UNL A   1      38.764  30.613  32.807  1.00  0.00     0.173 A 
ATOM     84  F   UNL A   1      40.377  33.860  32.541  1.00  0.00    -0.203 F 
ATOM     85  C   UNL A   1      38.094  33.304  32.545  1.00  0.00     0.198 A 
ATOM     86  C   UNL A   1      37.427  31.008  32.728  1.00  0.00     0.198 A 
ATOM     87  F   UNL A   1      39.048  29.304  32.848  1.00  0.00    -0.203 F 
ATOM     88  F   UNL A   1      37.787  34.592  32.341  1.00  0.00    -0.200 F 
ATOM     89  C   UNL A   1      37.096  32.345  32.559  1.00  0.00     0.200 A 
ATOM     90  F   UNL A   1      36.458  30.081  32.719  1.00  0.00    -0.200 F 
ATOM     91  F   UNL A   1      35.821  32.708  32.358  1.00  0.00    -0.200 F 
ENDBRANCH  57  81
BRANCH  69  92
ATOM     92  C   UNL A   1      44.435  26.143  33.726  1.00  0.00     0.064 A 
ATOM     93  C   UNL A   1      43.572  25.361  34.512  1.00  0.00     0.173 A 
ATOM     94  C   UNL A   1      45.783  25.703  33.696  1.00  0.00     0.173 A 
ATOM     95  F   UNL A   1      42.250  25.571  34.523  1.00  0.00    -0.203 F 
ATOM     96  C   UNL A   1      44.032  24.282  35.274  1.00  0.00     0.198 A 
ATOM     97  C   UNL A   1      46.226  24.588  34.406  1.00  0.00     0.198 A 
ATOM     98  F   UNL A   1      46.709  26.327  32.954  1.00  0.00    -0.203 F 
ATOM     99  F   UNL A   1      43.173  23.604  36.048  1.00  0.00    -0.200 F 
ATOM    100  C   UNL A   1      45.355  23.889  35.214  1.00  0.00     0.200 A 
ATOM    101  F   UNL A   1      47.500  24.184  34.287  1.00  0.00    -0.200 F 
ATOM    102  F   UNL A   1      45.781  22.827  35.912  1.00  0.00    -0.200 F 
ENDBRANCH  69  92
ENDBRANCH  43  44
ENDBRANCH  35  38
ENDBRANCH  33  34
ENDBRANCH  32  33
ENDBRANCH   1  32
TORSDOF 16
ENDMDL
MODEL 2
REMARK VINA RESULT:     -14.2      0.747      1.709
REMARK SMILES Cc1ccc(C(=O)C[C@@H](C(=O)NCCCNC(=O)c2ccc(-c3c4nc(c(-c5c(F)c(F)c(F)c(F)c5F)c5ccc([nH]5)c(-c5c(F)c(F)c(F)c(F)c5F)c5nc(c(-c6c(F)c(F)c(F)c(F)c6F)c6ccc3[nH]6)C=C5)C=C4)cc2)[NH+]2CC[NH+](Cc3ccccc3)CC2)cc1
REMARK SMILES IDX 13 1 12 2 10 3 11 4 9 6 8 7 6 8 7 9 5 10 1 11 2 12 3 13
REMARK SMILES IDX 96 14 4 15 95 16 82 17 83 18 94 19 84 21 93 22 85 23 86 25
REMARK SMILES IDX 87 26 88 27 92 28 89 29 91 30 90 31 14 32 15 33 16 34 17 35
REMARK SMILES IDX 18 37 19 38 20 39 81 40 21 41 80 42 22 43 23 44 24 45 74 46
REMARK SMILES IDX 25 47 79 48 73 49 75 50 26 51 78 52 72 53 71 54 27 56 59 57
REMARK SMILES IDX 39 58 58 59 40 60 43 61 57 62 76 63 41 64 42 65 56 67 77 68
REMARK SMILES IDX 44 69 28 70 29 71 37 72 30 73 31 74 35 75 38 76 32 77 33 78
REMARK SMILES IDX 36 79 34 80 60 81 61 82 69 83 62 84 63 85 67 86 70 87 64 88
REMARK SMILES IDX 65 89 68 90 66 91 45 92 46 93 54 94 47 95 48 96 52 97 55 98
REMARK SMILES IDX 49 99 50 100 53 101 51 102
REMARK H PARENT 12 5 82 20 85 24 16 36 75 55 43 66
REMARK Flexibility Score: inf
ROOT
ATOM      1  C   UNL A   1      31.903  28.748  26.764  1.00  0.00     0.118 C 
ENDROOT
BRANCH   1   2
ATOM      2  N   UNL A   1      31.404  27.418  27.050  1.00  0.00    -0.351 N 
ATOM      3  C   UNL A   1      31.649  26.222  26.439  1.00  0.00     0.278 C 
ATOM      4  O   UNL A   1      31.014  25.255  26.876  1.00  0.00    -0.268 OA
ATOM      5  H   UNL A   1      30.784  27.370  27.814  1.00  0.00     0.163 HD
BRANCH   3   6
ATOM      6  C   UNL A   1      32.719  26.072  25.316  1.00  0.00     0.282 C 
BRANCH   6   7
ATOM      7  C   UNL A   1      32.261  26.544  23.925  1.00  0.00     0.156 C 
BRANCH   7   8
ATOM      8  C   UNL A   1      30.758  26.457  23.739  1.00  0.00     0.169 C 
ATOM      9  O   UNL A   1      30.195  25.383  23.535  1.00  0.00    -0.294 OA
BRANCH   8  10
ATOM     10  C   UNL A   1      29.990  27.723  23.627  1.00  0.00     0.018 A 
ATOM     11  C   UNL A   1      28.027  30.568  21.250  1.00  0.00     0.044 C 
ATOM     12  C   UNL A   1      28.626  29.720  22.319  1.00  0.00    -0.051 A 
ATOM     13  C   UNL A   1      27.918  28.633  22.843  1.00  0.00     0.004 A 
ATOM     14  C   UNL A   1      29.954  29.927  22.681  1.00  0.00     0.004 A 
ATOM     15  C   UNL A   1      28.604  27.622  23.500  1.00  0.00     0.012 A 
ATOM     16  C   UNL A   1      30.637  28.930  23.361  1.00  0.00     0.012 A 
ENDBRANCH   8  10
ENDBRANCH   7   8
ENDBRANCH   6   7
BRANCH   6  17
ATOM     17  N   UNL A   1      33.130  24.649  25.168  1.00  0.00    -0.315 N 
ATOM     18  C   UNL A   1      33.442  24.253  23.797  1.00  0.00     0.325 C 
ATOM     19  C   UNL A   1      34.036  24.088  26.180  1.00  0.00     0.325 C 
ATOM     20  H   UNL A   1      32.259  24.174  25.403  1.00  0.00     0.349 HD
ATOM     21  C   UNL A   1      34.263  22.952  23.666  1.00  0.00     0.324 C 
ATOM     22  C   UNL A   1      34.299  22.560  26.065  1.00  0.00     0.324 C 
ATOM     23  N   UNL A   1      34.108  21.978  24.740  1.00  0.00    -0.322 N 
ATOM     24  H   UNL A   1      34.902  21.351  24.619  1.00  0.00     0.348 HD
BRANCH  23  25
ATOM     25  C   UNL A   1      33.038  20.991  24.601  1.00  0.00     0.299 C 
BRANCH  25  26
ATOM     26  C   UNL A   1      33.328  19.551  24.214  1.00  0.00     0.006 A 
ATOM     27  C   UNL A   1      32.528  18.948  23.226  1.00  0.00     0.009 A 
ATOM     28  C   UNL A   1      34.436  18.825  24.666  1.00  0.00     0.009 A 
ATOM     29  C   UNL A   1      32.801  17.660  22.751  1.00  0.00     0.001 A 
ATOM     30  C   UNL A   1      34.698  17.527  24.217  1.00  0.00     0.001 A 
ATOM     31  C   UNL A   1      33.879  16.943  23.258  1.00  0.00     0.000 A 
ENDBRANCH  25  26
ENDBRANCH  23  25
ENDBRANCH   6  17
ENDBRANCH   3   6
ENDBRANCH   1   2
BRANCH   1  32
ATOM     32  C   UNL A   1      33.228  29.045  27.468  1.00  0.00     0.042 C 
BRANCH  32  33
ATOM     33  C   UNL A   1      33.864  30.382  27.062  1.00  0.00     0.118 C 
BRANCH  33  34
ATOM     34  N   UNL A   1      34.211  31.192  28.235  1.00  0.00    -0.352 N 
ATOM     35  C   UNL A   1      35.347  31.175  29.022  1.00  0.00     0.251 C 
ATOM     36  H   UNL A   1      33.529  31.851  28.502  1.00  0.00     0.163 HD
ATOM     37  O   UNL A   1      35.565  32.037  29.852  1.00  0.00    -0.269 OA
BRANCH  35  38
ATOM     38  C   UNL A   1      36.330  30.105  28.784  1.00  0.00     0.039 A 
ATOM     39  C   UNL A   1      36.746  29.328  29.864  1.00  0.00     0.014 A 
ATOM     40  C   UNL A   1      36.963  30.029  27.549  1.00  0.00     0.014 A 
ATOM     41  C   UNL A   1      37.962  28.655  29.777  1.00  0.00     0.010 A 
ATOM     42  C   UNL A   1      38.173  29.356  27.465  1.00  0.00     0.010 A 
ATOM     43  C   UNL A   1      38.728  28.771  28.611  1.00  0.00    -0.014 A 
BRANCH  43  44
ATOM     44  C   UNL A   1      40.179  28.560  28.645  1.00  0.00     0.031 A 
ATOM     45  C   UNL A   1      40.837  27.376  28.065  1.00  0.00     0.074 A 
ATOM     46  C   UNL A   1      40.967  29.519  29.189  1.00  0.00     0.049 A 
ATOM     47  N   UNL A   1      41.911  26.854  28.560  1.00  0.00    -0.248 NA
ATOM     48  C   UNL A   1      40.358  26.687  26.878  1.00  0.00     0.031 C 
ATOM     49  C   UNL A   1      42.427  29.607  29.128  1.00  0.00     0.029 A 
ATOM     50  N   UNL A   1      40.593  30.602  30.003  1.00  0.00    -0.354 N 
ATOM     51  C   UNL A   1      42.408  25.949  27.650  1.00  0.00     0.074 A 
ATOM     52  C   UNL A   1      41.367  25.836  26.649  1.00  0.00     0.031 C 
ATOM     53  C   UNL A   1      42.852  30.470  30.064  1.00  0.00     0.029 A 
ATOM     54  C   UNL A   1      41.696  30.882  30.836  1.00  0.00     0.049 A 
ATOM     55  H   UNL A   1      39.729  31.074  29.993  1.00  0.00     0.167 HD
ATOM     56  C   UNL A   1      43.690  25.495  27.788  1.00  0.00     0.037 A 
ATOM     57  C   UNL A   1      41.589  30.807  32.192  1.00  0.00     0.037 A 
ATOM     58  C   UNL A   1      44.365  26.138  28.918  1.00  0.00     0.049 A 
ATOM     59  C   UNL A   1      42.453  29.737  32.813  1.00  0.00     0.074 A 
ATOM     60  C   UNL A   1      45.290  27.169  28.989  1.00  0.00     0.029 A 
ATOM     61  N   UNL A   1      43.924  25.918  30.218  1.00  0.00    -0.354 N 
ATOM     62  N   UNL A   1      43.074  28.818  32.129  1.00  0.00    -0.248 NA
ATOM     63  C   UNL A   1      42.635  29.577  34.252  1.00  0.00     0.031 C 
ATOM     64  C   UNL A   1      45.395  27.577  30.340  1.00  0.00     0.029 A 
ATOM     65  C   UNL A   1      44.535  26.796  31.094  1.00  0.00     0.049 A 
ATOM     66  H   UNL A   1      43.270  25.231  30.480  1.00  0.00     0.167 HD
ATOM     67  C   UNL A   1      43.645  27.915  32.986  1.00  0.00     0.074 A 
ATOM     68  C   UNL A   1      43.386  28.464  34.303  1.00  0.00     0.031 C 
ATOM     69  C   UNL A   1      44.241  26.776  32.521  1.00  0.00     0.037 A 
BRANCH  56  70
ATOM     70  C   UNL A   1      44.451  24.666  26.762  1.00  0.00     0.064 A 
ATOM     71  C   UNL A   1      44.217  23.276  26.624  1.00  0.00     0.173 A 
ATOM     72  C   UNL A   1      45.427  25.175  25.887  1.00  0.00     0.173 A 
ATOM     73  F   UNL A   1      43.229  22.658  27.284  1.00  0.00    -0.203 F 
ATOM     74  C   UNL A   1      44.981  22.458  25.785  1.00  0.00     0.198 A 
ATOM     75  C   UNL A   1      46.226  24.351  25.084  1.00  0.00     0.198 A 
ATOM     76  F   UNL A   1      45.593  26.491  25.718  1.00  0.00    -0.203 F 
ATOM     77  F   UNL A   1      44.710  21.147  25.707  1.00  0.00    -0.200 F 
ATOM     78  C   UNL A   1      46.013  22.989  25.043  1.00  0.00     0.200 A 
ATOM     79  F   UNL A   1      47.200  24.894  24.340  1.00  0.00    -0.200 F 
ATOM     80  F   UNL A   1      46.771  22.203  24.268  1.00  0.00    -0.200 F 
ENDBRANCH  56  70
BRANCH  57  81
ATOM     81  C   UNL A   1      40.261  31.238  32.693  1.00  0.00     0.064 A 
ATOM     82  C   UNL A   1      39.955  32.612  32.644  1.00  0.00     0.173 A 
ATOM     83  C   UNL A   1      39.199  30.341  32.846  1.00  0.00     0.173 A 
ATOM     84  F   UNL A   1      40.937  33.513  32.483  1.00  0.00    -0.203 F 
ATOM     85  C   UNL A   1      38.636  33.060  32.630  1.00  0.00     0.198 A 
ATOM     86  C   UNL A   1      37.879  30.797  32.852  1.00  0.00     0.198 A 
ATOM     87  F   UNL A   1      39.425  29.020  32.867  1.00  0.00    -0.203 F 
ATOM     88  F   UNL A   1      38.376  34.362  32.448  1.00  0.00    -0.200 F 
ATOM     89  C   UNL A   1      37.599  32.148  32.706  1.00  0.00     0.200 A 
ATOM     90  F   UNL A   1      36.870  29.914  32.903  1.00  0.00    -0.200 F 
ATOM     91  F   UNL A   1      36.331  32.568  32.586  1.00  0.00    -0.200 F 
ENDBRANCH  57  81
BRANCH  69  92
ATOM     92  C   UNL A   1      44.683  25.590  33.352  1.00  0.00     0.064 A 
ATOM     93  C   UNL A   1      46.011  25.143  33.453  1.00  0.00     0.173 A 
ATOM     94  C   UNL A   1      43.759  24.923  34.196  1.00  0.00     0.173 A 
ATOM     95  F   UNL A   1      47.012  25.771  32.824  1.00  0.00    -0.203 F 
ATOM     96  C   UNL A   1      46.373  24.063  34.265  1.00  0.00     0.198 A 
ATOM     97  C   UNL A   1      44.135  23.889  35.053  1.00  0.00     0.198 A 
ATOM     98  F   UNL A   1      42.465  25.272  34.237  1.00  0.00    -0.203 F 
ATOM     99  F   UNL A   1      47.647  23.646  34.282  1.00  0.00    -0.200 F 
ATOM    100  C   UNL A   1      45.439  23.442  35.072  1.00  0.00     0.200 A 
ATOM    101  F   UNL A   1      43.228  23.340  35.875  1.00  0.00    -0.200 F 
ATOM    102  F   UNL A   1      45.801  22.438  35.881  1.00  0.00    -0.200 F 
ENDBRANCH  69  92
ENDBRANCH  43  44
ENDBRANCH  35  38
ENDBRANCH  33  34
ENDBRANCH  32  33
ENDBRANCH   1  32
TORSDOF 16
ENDMDL
MODEL 3
REMARK VINA RESULT:     -14.1      3.458     10.306
REMARK SMILES Cc1ccc(C(=O)C[C@@H](C(=O)NCCCNC(=O)c2ccc(-c3c4nc(c(-c5c(F)c(F)c(F)c(F)c5F)c5ccc([nH]5)c(-c5c(F)c(F)c(F)c(F)c5F)c5nc(c(-c6c(F)c(F)c(F)c(F)c6F)c6ccc3[nH]6)C=C5)C=C4)cc2)[NH+]2CC[NH+](Cc3ccccc3)CC2)cc1
REMARK SMILES IDX 13 1 12 2 10 3 11 4 9 6 8 7 6 8 7 9 5 10 1 11 2 12 3 13
REMARK SMILES IDX 96 14 4 15 95 16 82 17 83 18 94 19 84 21 93 22 85 23 86 25
REMARK SMILES IDX 87 26 88 27 92 28 89 29 91 30 90 31 14 32 15 33 16 34 17 35
REMARK SMILES IDX 18 37 19 38 20 39 81 40 21 41 80 42 22 43 23 44 24 45 74 46
REMARK SMILES IDX 25 47 79 48 73 49 75 50 26 51 78 52 72 53 71 54 27 56 59 57
REMARK SMILES IDX 39 58 58 59 40 60 43 61 57 62 76 63 41 64 42 65 56 67 77 68
REMARK SMILES IDX 44 69 28 70 29 71 37 72 30 73 31 74 35 75 38 76 32 77 33 78
REMARK SMILES IDX 36 79 34 80 60 81 61 82 69 83 62 84 63 85 67 86 70 87 64 88
REMARK SMILES IDX 65 89 68 90 66 91 45 92 46 93 54 94 47 95 48 96 52 97 55 98
REMARK SMILES IDX 49 99 50 100 53 101 51 102
REMARK H PARENT 12 5 82 20 85 24 16 36 75 55 43 66
REMARK Flexibility Score: inf
ROOT
ATOM      1  C   UNL A   1      37.605  23.191  25.769  1.00  0.00     0.118 C 
ENDROOT
BRANCH   1   2
ATOM      2  N   UNL A   1      37.334  23.244  24.346  1.00  0.00    -0.351 N 
ATOM      3  C   UNL A   1      36.188  23.001  23.645  1.00  0.00     0.278 C 
ATOM      4  O   UNL A   1      36.286  23.064  22.415  1.00  0.00    -0.268 OA
ATOM      5  H   UNL A   1      38.108  23.499  23.792  1.00  0.00     0.163 HD
BRANCH   3   6
ATOM      6  C   UNL A   1      34.826  22.738  24.356  1.00  0.00     0.282 C 
BRANCH   6   7
ATOM      7  C   UNL A   1      34.111  21.447  23.918  1.00  0.00     0.156 C 
BRANCH   7   8
ATOM      8  C   UNL A   1      34.170  20.357  24.971  1.00  0.00     0.169 C 
ATOM      9  O   UNL A   1      34.667  20.555  26.078  1.00  0.00    -0.294 OA
BRANCH   8  10
ATOM     10  C   UNL A   1      33.778  18.979  24.577  1.00  0.00     0.018 A 
ATOM     11  C   UNL A   1      33.000  14.996  25.634  1.00  0.00     0.044 C 
ATOM     12  C   UNL A   1      33.189  16.326  24.990  1.00  0.00    -0.051 A 
ATOM     13  C   UNL A   1      32.154  17.267  24.992  1.00  0.00     0.004 A 
ATOM     14  C   UNL A   1      34.452  16.679  24.525  1.00  0.00     0.004 A 
ATOM     15  C   UNL A   1      32.448  18.608  24.787  1.00  0.00     0.012 A 
ATOM     16  C   UNL A   1      34.744  18.014  24.295  1.00  0.00     0.012 A 
ENDBRANCH   8  10
ENDBRANCH   7   8
ENDBRANCH   6   7
BRANCH   6  17
ATOM     17  N   UNL A   1      33.877  23.856  24.104  1.00  0.00    -0.315 N 
ATOM     18  C   UNL A   1      34.439  25.185  24.333  1.00  0.00     0.325 C 
ATOM     19  C   UNL A   1      33.008  23.764  22.922  1.00  0.00     0.325 C 
ATOM     20  H   UNL A   1      33.202  23.707  24.852  1.00  0.00     0.349 HD
ATOM     21  C   UNL A   1      33.653  26.346  23.687  1.00  0.00     0.324 C 
ATOM     22  C   UNL A   1      31.930  24.878  22.800  1.00  0.00     0.324 C 
ATOM     23  N   UNL A   1      32.224  26.129  23.491  1.00  0.00    -0.322 N 
ATOM     24  H   UNL A   1      31.955  26.857  22.830  1.00  0.00     0.348 HD
BRANCH  23  25
ATOM     25  C   UNL A   1      31.334  26.503  24.588  1.00  0.00     0.299 C 
BRANCH  25  26
ATOM     26  C   UNL A   1      31.575  27.749  25.423  1.00  0.00     0.006 A 
ATOM     27  C   UNL A   1      32.150  27.601  26.698  1.00  0.00     0.009 A 
ATOM     28  C   UNL A   1      31.406  29.056  24.949  1.00  0.00     0.009 A 
ATOM     29  C   UNL A   1      32.491  28.712  27.479  1.00  0.00     0.001 A 
ATOM     30  C   UNL A   1      31.718  30.170  25.735  1.00  0.00     0.001 A 
ATOM     31  C   UNL A   1      32.261  29.997  27.001  1.00  0.00     0.000 A 
ENDBRANCH  25  26
ENDBRANCH  23  25
ENDBRANCH   6  17
ENDBRANCH   3   6
ENDBRANCH   1   2
BRANCH   1  32
ATOM     32  C   UNL A   1      38.784  22.277  26.111  1.00  0.00     0.042 C 
BRANCH  32  33
ATOM     33  C   UNL A   1      39.743  22.863  27.156  1.00  0.00     0.118 C 
BRANCH  33  34
ATOM     34  N   UNL A   1      41.023  23.254  26.554  1.00  0.00    -0.352 N 
ATOM     35  C   UNL A   1      41.560  24.510  26.345  1.00  0.00     0.251 C 
ATOM     36  H   UNL A   1      41.587  22.505  26.253  1.00  0.00     0.163 HD
ATOM     37  O   UNL A   1      42.715  24.664  25.999  1.00  0.00    -0.269 OA
BRANCH  35  38
ATOM     38  C   UNL A   1      40.702  25.676  26.615  1.00  0.00     0.039 A 
ATOM     39  C   UNL A   1      41.083  26.918  26.109  1.00  0.00     0.014 A 
ATOM     40  C   UNL A   1      39.657  25.553  27.524  1.00  0.00     0.014 A 
ATOM     41  C   UNL A   1      40.581  28.070  26.709  1.00  0.00     0.010 A 
ATOM     42  C   UNL A   1      39.157  26.702  28.118  1.00  0.00     0.010 A 
ATOM     43  C   UNL A   1      39.705  27.951  27.794  1.00  0.00    -0.014 A 
BRANCH  43  44
ATOM     44  C   UNL A   1      39.572  29.037  28.771  1.00  0.00     0.031 A 
ATOM     45  C   UNL A   1      38.514  30.061  28.702  1.00  0.00     0.074 A 
ATOM     46  C   UNL A   1      40.428  29.081  29.821  1.00  0.00     0.049 A 
ATOM     47  N   UNL A   1      38.688  31.280  29.095  1.00  0.00    -0.248 NA
ATOM     48  C   UNL A   1      37.175  29.805  28.201  1.00  0.00     0.031 C 
ATOM     49  C   UNL A   1      40.334  29.936  31.006  1.00  0.00     0.029 A 
ATOM     50  N   UNL A   1      41.639  28.390  29.992  1.00  0.00    -0.354 N 
ATOM     51  C   UNL A   1      37.458  31.894  29.147  1.00  0.00     0.074 A 
ATOM     52  C   UNL A   1      36.557  30.951  28.517  1.00  0.00     0.031 C 
ATOM     53  C   UNL A   1      41.522  29.951  31.628  1.00  0.00     0.029 A 
ATOM     54  C   UNL A   1      42.455  29.201  30.809  1.00  0.00     0.049 A 
ATOM     55  H   UNL A   1      41.873  27.511  29.616  1.00  0.00     0.167 HD
ATOM     56  C   UNL A   1      37.325  33.075  29.825  1.00  0.00     0.037 A 
ATOM     57  C   UNL A   1      43.657  29.662  30.364  1.00  0.00     0.037 A 
ATOM     58  C   UNL A   1      38.585  33.468  30.461  1.00  0.00     0.049 A 
ATOM     59  C   UNL A   1      43.725  31.164  30.239  1.00  0.00     0.074 A 
ATOM     60  C   UNL A   1      39.035  33.384  31.770  1.00  0.00     0.029 A 
ATOM     61  N   UNL A   1      39.692  33.795  29.687  1.00  0.00    -0.354 N 
ATOM     62  N   UNL A   1      42.687  31.947  30.324  1.00  0.00    -0.248 NA
ATOM     63  C   UNL A   1      44.952  31.898  29.945  1.00  0.00     0.031 C 
ATOM     64  C   UNL A   1      40.425  33.650  31.778  1.00  0.00     0.029 A 
ATOM     65  C   UNL A   1      40.824  33.896  30.475  1.00  0.00     0.049 A 
ATOM     66  H   UNL A   1      39.674  33.935  28.713  1.00  0.00     0.167 HD
ATOM     67  C   UNL A   1      43.054  33.232  30.019  1.00  0.00     0.074 A 
ATOM     68  C   UNL A   1      44.491  33.156  29.841  1.00  0.00     0.031 C 
ATOM     69  C   UNL A   1      42.123  34.226  29.902  1.00  0.00     0.037 A 
BRANCH  56  70
ATOM     70  C   UNL A   1      36.009  33.765  30.151  1.00  0.00     0.064 A 
ATOM     71  C   UNL A   1      35.195  34.313  29.129  1.00  0.00     0.173 A 
ATOM     72  C   UNL A   1      35.490  33.927  31.448  1.00  0.00     0.173 A 
ATOM     73  F   UNL A   1      35.473  34.130  27.832  1.00  0.00    -0.203 F 
ATOM     74  C   UNL A   1      34.045  35.064  29.396  1.00  0.00     0.198 A 
ATOM     75  C   UNL A   1      34.367  34.720  31.720  1.00  0.00     0.198 A 
ATOM     76  F   UNL A   1      36.002  33.265  32.491  1.00  0.00    -0.203 F 
ATOM     77  F   UNL A   1      33.324  35.560  28.381  1.00  0.00    -0.200 F 
ATOM     78  C   UNL A   1      33.652  35.301  30.694  1.00  0.00     0.200 A 
ATOM     79  F   UNL A   1      33.980  34.905  32.990  1.00  0.00    -0.200 F 
ATOM     80  F   UNL A   1      32.574  36.051  30.955  1.00  0.00    -0.200 F 
ENDBRANCH  56  70
BRANCH  57  81
ATOM     81  C   UNL A   1      44.360  28.693  29.488  1.00  0.00     0.064 A 
ATOM     82  C   UNL A   1      44.964  27.576  30.096  1.00  0.00     0.173 A 
ATOM     83  C   UNL A   1      44.131  28.638  28.109  1.00  0.00     0.173 A 
ATOM     84  F   UNL A   1      45.192  27.573  31.419  1.00  0.00    -0.203 F 
ATOM     85  C   UNL A   1      45.219  26.410  29.378  1.00  0.00     0.198 A 
ATOM     86  C   UNL A   1      44.407  27.474  27.389  1.00  0.00     0.198 A 
ATOM     87  F   UNL A   1      43.531  29.658  27.481  1.00  0.00    -0.203 F 
ATOM     88  F   UNL A   1      45.670  25.320  30.014  1.00  0.00    -0.200 F 
ATOM     89  C   UNL A   1      44.913  26.352  28.030  1.00  0.00     0.200 A 
ATOM     90  F   UNL A   1      44.092  27.406  26.087  1.00  0.00    -0.200 F 
ATOM     91  F   UNL A   1      45.059  25.198  27.363  1.00  0.00    -0.200 F 
ENDBRANCH  57  81
BRANCH  69  92
ATOM     92  C   UNL A   1      42.354  35.610  29.335  1.00  0.00     0.064 A 
ATOM     93  C   UNL A   1      41.791  36.081  28.137  1.00  0.00     0.173 A 
ATOM     94  C   UNL A   1      43.078  36.577  30.078  1.00  0.00     0.173 A 
ATOM     95  F   UNL A   1      40.966  35.323  27.405  1.00  0.00    -0.203 F 
ATOM     96  C   UNL A   1      42.006  37.383  27.675  1.00  0.00     0.198 A 
ATOM     97  C   UNL A   1      43.236  37.894  29.646  1.00  0.00     0.198 A 
ATOM     98  F   UNL A   1      43.633  36.281  31.263  1.00  0.00    -0.203 F 
ATOM     99  F   UNL A   1      41.488  37.761  26.498  1.00  0.00    -0.200 F 
ATOM    100  C   UNL A   1      42.719  38.292  28.432  1.00  0.00     0.200 A 
ATOM    101  F   UNL A   1      43.877  38.778  30.424  1.00  0.00    -0.200 F 
ATOM    102  F   UNL A   1      42.883  39.552  28.006  1.00  0.00    -0.200 F 
ENDBRANCH  69  92
ENDBRANCH  43  44
ENDBRANCH  35  38
ENDBRANCH  33  34
ENDBRANCH  32  33
ENDBRANCH   1  32
TORSDOF 16
ENDMDL
