MODEL 1
REMARK VINA RESULT:     -10.0      0.000      0.000
REMARK SMILES O=C(COCC[NH+]1CCCC1)NCCCNC(=O)c1ccc(-c2c3nc(c(-c4c(F)c(F)c(F)c(F)c4F)c4ccc([nH]4)c(-c4c(F)c(F)c(F)c(F)c4F)c4nc(c(-c5c(F)c(F)c(F)c(F)c5F)c5ccc2[nH]5)C=C4)C=C3)cc1
REMARK SMILES IDX 13 1 12 2 1 3 2 4 3 6 4 7 5 8 6 9 7 10 8 11 11 12 9 14 10 15
REMARK SMILES IDX 14 16 15 17 16 18 17 19 18 21 19 22 20 23 81 24 21 25 80 26
REMARK SMILES IDX 22 27 23 28 24 29 74 30 25 31 79 32 73 33 75 34 26 35 78 36
REMARK SMILES IDX 72 37 71 38 27 40 59 41 39 42 58 43 40 44 43 45 57 46 76 47
REMARK SMILES IDX 41 48 42 49 56 51 77 52 44 53 28 54 29 55 37 56 30 57 31 58
REMARK SMILES IDX 35 59 38 60 32 61 33 62 36 63 34 64 60 65 61 66 69 67 62 68
REMARK SMILES IDX 63 69 67 70 70 71 64 72 65 73 68 74 66 75 45 76 46 77 54 78
REMARK SMILES IDX 47 79 48 80 52 81 55 82 49 83 50 84 53 85 51 86
REMARK H PARENT 12 5 7 13 16 20 75 39 43 50
REMARK Flexibility Score: inf
ROOT
ATOM      1  C   UNL A   1      33.130  35.451  29.249  1.00  0.00     0.117 C 
ENDROOT
BRANCH   1   2
ATOM      2  N   UNL A   1      33.667  36.391  30.214  1.00  0.00    -0.354 N 
ATOM      3  O   UNL A   1      31.874  36.453  31.645  1.00  0.00    -0.272 OA
ATOM      4  C   UNL A   1      33.057  36.683  31.415  1.00  0.00     0.246 C 
ATOM      5  H   UNL A   1      34.515  36.845  30.001  1.00  0.00     0.163 HD
BRANCH   4   6
ATOM      6  C   UNL A   1      33.983  37.322  32.464  1.00  0.00     0.260 C 
BRANCH   6   7
ATOM      7  O   UNL A   1      34.308  36.582  33.628  1.00  0.00    -0.366 OA
BRANCH   7   8
ATOM      8  C   UNL A   1      34.704  35.221  33.446  1.00  0.00     0.222 C 
BRANCH   8   9
ATOM      9  C   UNL A   1      35.896  34.955  32.496  1.00  0.00     0.291 C 
BRANCH   9  10
ATOM     10  N   UNL A   1      36.969  34.019  32.858  1.00  0.00    -0.333 N 
ATOM     11  C   UNL A   1      36.895  33.378  34.168  1.00  0.00     0.262 C 
ATOM     12  C   UNL A   1      38.334  34.507  32.684  1.00  0.00     0.262 C 
ATOM     13  H   UNL A   1      36.763  33.311  32.152  1.00  0.00     0.348 HD
ATOM     14  C   UNL A   1      37.862  34.163  35.029  1.00  0.00     0.067 C 
ATOM     15  C   UNL A   1      38.958  34.588  34.071  1.00  0.00     0.067 C 
ENDBRANCH   9  10
ENDBRANCH   8   9
ENDBRANCH   7   8
ENDBRANCH   6   7
ENDBRANCH   4   6
ENDBRANCH   1   2
BRANCH   1  16
ATOM     16  C   UNL A   1      34.146  34.667  28.430  1.00  0.00     0.042 C 
BRANCH  16  17
ATOM     17  C   UNL A   1      34.400  33.260  28.934  1.00  0.00     0.118 C 
BRANCH  17  18
ATOM     18  N   UNL A   1      33.844  32.239  28.058  1.00  0.00    -0.352 N 
ATOM     19  C   UNL A   1      34.386  31.061  27.628  1.00  0.00     0.251 C 
ATOM     20  H   UNL A   1      32.937  32.427  27.724  1.00  0.00     0.163 HD
ATOM     21  O   UNL A   1      33.807  30.401  26.766  1.00  0.00    -0.269 OA
BRANCH  19  22
ATOM     22  C   UNL A   1      35.671  30.584  28.180  1.00  0.00     0.039 A 
ATOM     23  C   UNL A   1      35.647  29.746  29.298  1.00  0.00     0.014 A 
ATOM     24  C   UNL A   1      36.893  30.980  27.631  1.00  0.00     0.014 A 
ATOM     25  C   UNL A   1      36.845  29.289  29.845  1.00  0.00     0.010 A 
ATOM     26  C   UNL A   1      38.083  30.443  28.115  1.00  0.00     0.010 A 
ATOM     27  C   UNL A   1      38.073  29.620  29.247  1.00  0.00    -0.014 A 
BRANCH  27  28
ATOM     28  C   UNL A   1      39.351  29.154  29.840  1.00  0.00     0.031 A 
ATOM     29  C   UNL A   1      39.882  29.799  31.091  1.00  0.00     0.074 A 
ATOM     30  C   UNL A   1      40.038  28.160  29.245  1.00  0.00     0.049 A 
ATOM     31  N   UNL A   1      40.961  29.516  31.776  1.00  0.00    -0.248 NA
ATOM     32  C   UNL A   1      39.112  30.932  31.633  1.00  0.00     0.031 C 
ATOM     33  C   UNL A   1      39.654  27.496  27.998  1.00  0.00     0.029 A 
ATOM     34  N   UNL A   1      41.200  27.530  29.613  1.00  0.00    -0.354 N 
ATOM     35  C   UNL A   1      41.000  30.436  32.816  1.00  0.00     0.074 A 
ATOM     36  C   UNL A   1      39.880  31.331  32.635  1.00  0.00     0.031 C 
ATOM     37  C   UNL A   1      40.541  26.525  27.727  1.00  0.00     0.029 A 
ATOM     38  C   UNL A   1      41.571  26.521  28.760  1.00  0.00     0.049 A 
ATOM     39  H   UNL A   1      41.717  27.779  30.413  1.00  0.00     0.167 HD
ATOM     40  C   UNL A   1      41.873  30.508  33.850  1.00  0.00     0.037 A 
ATOM     41  C   UNL A   1      42.623  25.682  28.813  1.00  0.00     0.037 A 
ATOM     42  C   UNL A   1      42.977  29.603  34.036  1.00  0.00     0.049 A 
ATOM     43  C   UNL A   1      43.575  25.779  29.976  1.00  0.00     0.074 A 
ATOM     44  C   UNL A   1      43.894  29.560  35.070  1.00  0.00     0.029 A 
ATOM     45  N   UNL A   1      43.314  28.582  33.158  1.00  0.00    -0.354 N 
ATOM     46  N   UNL A   1      43.559  26.603  30.996  1.00  0.00    -0.248 NA
ATOM     47  C   UNL A   1      44.681  24.813  30.002  1.00  0.00     0.031 C 
ATOM     48  C   UNL A   1      44.819  28.547  34.791  1.00  0.00     0.029 A 
ATOM     49  C   UNL A   1      44.436  27.913  33.619  1.00  0.00     0.049 A 
ATOM     50  H   UNL A   1      42.826  28.365  32.331  1.00  0.00     0.167 HD
ATOM     51  C   UNL A   1      44.625  26.231  31.804  1.00  0.00     0.074 A 
ATOM     52  C   UNL A   1      45.256  25.096  31.163  1.00  0.00     0.031 C 
ATOM     53  C   UNL A   1      45.043  26.777  32.974  1.00  0.00     0.037 A 
BRANCH  40  54
ATOM     54  C   UNL A   1      41.664  31.603  34.859  1.00  0.00     0.064 A 
ATOM     55  C   UNL A   1      42.391  32.802  34.810  1.00  0.00     0.173 A 
ATOM     56  C   UNL A   1      40.707  31.460  35.876  1.00  0.00     0.173 A 
ATOM     57  F   UNL A   1      43.327  32.987  33.867  1.00  0.00    -0.203 F 
ATOM     58  C   UNL A   1      42.194  33.803  35.760  1.00  0.00     0.198 A 
ATOM     59  C   UNL A   1      40.486  32.478  36.802  1.00  0.00     0.198 A 
ATOM     60  F   UNL A   1      39.980  30.337  35.969  1.00  0.00    -0.203 F 
ATOM     61  F   UNL A   1      42.943  34.913  35.726  1.00  0.00    -0.200 F 
ATOM     62  C   UNL A   1      41.237  33.643  36.750  1.00  0.00     0.200 A 
ATOM     63  F   UNL A   1      39.550  32.328  37.750  1.00  0.00    -0.200 F 
ATOM     64  F   UNL A   1      41.042  34.608  37.658  1.00  0.00    -0.200 F 
ENDBRANCH  40  54
BRANCH  41  65
ATOM     65  C   UNL A   1      42.808  24.650  27.759  1.00  0.00     0.064 A 
ATOM     66  C   UNL A   1      42.395  23.325  27.963  1.00  0.00     0.173 A 
ATOM     67  C   UNL A   1      43.411  24.961  26.533  1.00  0.00     0.173 A 
ATOM     68  F   UNL A   1      41.826  22.972  29.126  1.00  0.00    -0.203 F 
ATOM     69  C   UNL A   1      42.608  22.346  26.995  1.00  0.00     0.198 A 
ATOM     70  C   UNL A   1      43.594  23.989  25.551  1.00  0.00     0.198 A 
ATOM     71  F   UNL A   1      43.817  26.215  26.282  1.00  0.00    -0.203 F 
ATOM     72  F   UNL A   1      42.256  21.077  27.239  1.00  0.00    -0.200 F 
ATOM     73  C   UNL A   1      43.202  22.680  25.788  1.00  0.00     0.200 A 
ATOM     74  F   UNL A   1      44.153  24.319  24.379  1.00  0.00    -0.200 F 
ATOM     75  F   UNL A   1      43.407  21.739  24.856  1.00  0.00    -0.200 F 
ENDBRANCH  41  65
BRANCH  53  76
ATOM     76  C   UNL A   1      46.201  26.113  33.666  1.00  0.00     0.064 A 
ATOM     77  C   UNL A   1      46.024  25.039  34.551  1.00  0.00     0.173 A 
ATOM     78  C   UNL A   1      47.512  26.555  33.426  1.00  0.00     0.173 A 
ATOM     79  F   UNL A   1      44.792  24.585  34.824  1.00  0.00    -0.203 F 
ATOM     80  C   UNL A   1      47.111  24.465  35.205  1.00  0.00     0.198 A 
ATOM     81  C   UNL A   1      48.599  25.952  34.051  1.00  0.00     0.198 A 
ATOM     82  F   UNL A   1      47.740  27.570  32.579  1.00  0.00    -0.203 F 
ATOM     83  F   UNL A   1      46.910  23.488  36.101  1.00  0.00    -0.200 F 
ATOM     84  C   UNL A   1      48.397  24.917  34.951  1.00  0.00     0.200 A 
ATOM     85  F   UNL A   1      49.842  26.378  33.788  1.00  0.00    -0.200 F 
ATOM     86  F   UNL A   1      49.441  24.362  35.581  1.00  0.00    -0.200 F 
ENDBRANCH  53  76
ENDBRANCH  27  28
ENDBRANCH  19  22
ENDBRANCH  17  18
ENDBRANCH  16  17
ENDBRANCH   1  16
TORSDOF 14
ENDMDL
MODEL 2
REMARK VINA RESULT:      -9.9      6.283     12.144
REMARK SMILES O=C(COCC[NH+]1CCCC1)NCCCNC(=O)c1ccc(-c2c3nc(c(-c4c(F)c(F)c(F)c(F)c4F)c4ccc([nH]4)c(-c4c(F)c(F)c(F)c(F)c4F)c4nc(c(-c5c(F)c(F)c(F)c(F)c5F)c5ccc2[nH]5)C=C4)C=C3)cc1
REMARK SMILES IDX 13 1 12 2 1 3 2 4 3 6 4 7 5 8 6 9 7 10 8 11 11 12 9 14 10 15
REMARK SMILES IDX 14 16 15 17 16 18 17 19 18 21 19 22 20 23 81 24 21 25 80 26
REMARK SMILES IDX 22 27 23 28 24 29 74 30 25 31 79 32 73 33 75 34 26 35 78 36
REMARK SMILES IDX 72 37 71 38 27 40 59 41 39 42 58 43 40 44 43 45 57 46 76 47
REMARK SMILES IDX 41 48 42 49 56 51 77 52 44 53 28 54 29 55 37 56 30 57 31 58
REMARK SMILES IDX 35 59 38 60 32 61 33 62 36 63 34 64 60 65 61 66 69 67 62 68
REMARK SMILES IDX 63 69 67 70 70 71 64 72 65 73 68 74 66 75 45 76 46 77 54 78
REMARK SMILES IDX 47 79 48 80 52 81 55 82 49 83 50 84 53 85 51 86
REMARK H PARENT 12 5 7 13 16 20 75 39 43 50
REMARK Flexibility Score: inf
ROOT
ATOM      1  C   UNL A   1      37.032  20.493  24.645  1.00  0.00     0.117 C 
ENDROOT
BRANCH   1   2
ATOM      2  N   UNL A   1      35.835  20.413  25.460  1.00  0.00    -0.354 N 
ATOM      3  O   UNL A   1      35.760  22.601  26.149  1.00  0.00    -0.272 OA
ATOM      4  C   UNL A   1      35.211  21.512  26.008  1.00  0.00     0.246 C 
ATOM      5  H   UNL A   1      35.446  19.524  25.631  1.00  0.00     0.163 HD
BRANCH   4   6
ATOM      6  C   UNL A   1      33.750  21.275  26.429  1.00  0.00     0.260 C 
BRANCH   6   7
ATOM      7  O   UNL A   1      32.730  21.398  25.453  1.00  0.00    -0.366 OA
BRANCH   7   8
ATOM      8  C   UNL A   1      32.510  20.277  24.594  1.00  0.00     0.222 C 
BRANCH   8   9
ATOM      9  C   UNL A   1      32.537  18.874  25.246  1.00  0.00     0.291 C 
BRANCH   9  10
ATOM     10  N   UNL A   1      32.422  17.652  24.438  1.00  0.00    -0.333 N 
ATOM     11  C   UNL A   1      32.930  16.410  25.012  1.00  0.00     0.262 C 
ATOM     12  C   UNL A   1      32.919  17.738  23.067  1.00  0.00     0.262 C 
ATOM     13  H   UNL A   1      31.403  17.600  24.432  1.00  0.00     0.348 HD
ATOM     14  C   UNL A   1      34.281  16.213  24.356  1.00  0.00     0.067 C 
ATOM     15  C   UNL A   1      34.110  16.795  22.966  1.00  0.00     0.067 C 
ENDBRANCH   9  10
ENDBRANCH   8   9
ENDBRANCH   7   8
ENDBRANCH   6   7
ENDBRANCH   4   6
ENDBRANCH   1   2
BRANCH   1  16
ATOM     16  C   UNL A   1      38.124  19.476  24.945  1.00  0.00     0.042 C 
BRANCH  16  17
ATOM     17  C   UNL A   1      39.199  19.974  25.892  1.00  0.00     0.118 C 
BRANCH  17  18
ATOM     18  N   UNL A   1      40.389  19.137  25.882  1.00  0.00    -0.352 N 
ATOM     19  C   UNL A   1      41.703  19.476  26.048  1.00  0.00     0.251 C 
ATOM     20  H   UNL A   1      40.223  18.178  25.733  1.00  0.00     0.163 HD
ATOM     21  O   UNL A   1      42.579  18.634  25.859  1.00  0.00    -0.269 OA
BRANCH  19  22
ATOM     22  C   UNL A   1      42.076  20.852  26.437  1.00  0.00     0.039 A 
ATOM     23  C   UNL A   1      42.211  21.816  25.435  1.00  0.00     0.014 A 
ATOM     24  C   UNL A   1      42.327  21.190  27.770  1.00  0.00     0.014 A 
ATOM     25  C   UNL A   1      42.571  23.119  25.774  1.00  0.00     0.010 A 
ATOM     26  C   UNL A   1      42.587  22.512  28.117  1.00  0.00     0.010 A 
ATOM     27  C   UNL A   1      42.745  23.482  27.120  1.00  0.00    -0.014 A 
BRANCH  27  28
ATOM     28  C   UNL A   1      43.151  24.863  27.483  1.00  0.00     0.031 A 
ATOM     29  C   UNL A   1      44.560  25.326  27.228  1.00  0.00     0.074 A 
ATOM     30  C   UNL A   1      42.256  25.692  28.053  1.00  0.00     0.049 A 
ATOM     31  N   UNL A   1      45.099  26.499  27.447  1.00  0.00    -0.248 NA
ATOM     32  C   UNL A   1      45.497  24.334  26.677  1.00  0.00     0.031 C 
ATOM     33  C   UNL A   1      40.880  25.338  28.402  1.00  0.00     0.029 A 
ATOM     34  N   UNL A   1      42.369  27.006  28.433  1.00  0.00    -0.354 N 
ATOM     35  C   UNL A   1      46.430  26.380  27.069  1.00  0.00     0.074 A 
ATOM     36  C   UNL A   1      46.638  25.005  26.676  1.00  0.00     0.031 C 
ATOM     37  C   UNL A   1      40.263  26.420  28.906  1.00  0.00     0.029 A 
ATOM     38  C   UNL A   1      41.209  27.530  28.947  1.00  0.00     0.049 A 
ATOM     39  H   UNL A   1      43.202  27.522  28.345  1.00  0.00     0.167 HD
ATOM     40  C   UNL A   1      47.387  27.339  27.023  1.00  0.00     0.037 A 
ATOM     41  C   UNL A   1      40.940  28.772  29.393  1.00  0.00     0.037 A 
ATOM     42  C   UNL A   1      47.169  28.711  27.400  1.00  0.00     0.049 A 
ATOM     43  C   UNL A   1      42.019  29.820  29.325  1.00  0.00     0.074 A 
ATOM     44  C   UNL A   1      48.055  29.771  27.350  1.00  0.00     0.029 A 
ATOM     45  N   UNL A   1      45.975  29.210  27.902  1.00  0.00    -0.354 N 
ATOM     46  N   UNL A   1      43.253  29.715  28.894  1.00  0.00    -0.248 NA
ATOM     47  C   UNL A   1      41.658  31.166  29.789  1.00  0.00     0.031 C 
ATOM     48  C   UNL A   1      47.414  30.900  27.873  1.00  0.00     0.029 A 
ATOM     49  C   UNL A   1      46.108  30.560  28.182  1.00  0.00     0.049 A 
ATOM     50  H   UNL A   1      45.155  28.681  28.038  1.00  0.00     0.167 HD
ATOM     51  C   UNL A   1      43.802  30.987  28.996  1.00  0.00     0.074 A 
ATOM     52  C   UNL A   1      42.760  31.849  29.515  1.00  0.00     0.031 C 
ATOM     53  C   UNL A   1      45.055  31.405  28.687  1.00  0.00     0.037 A 
BRANCH  40  54
ATOM     54  C   UNL A   1      48.753  26.933  26.545  1.00  0.00     0.064 A 
ATOM     55  C   UNL A   1      49.123  27.031  25.195  1.00  0.00     0.173 A 
ATOM     56  C   UNL A   1      49.714  26.462  27.453  1.00  0.00     0.173 A 
ATOM     57  F   UNL A   1      48.241  27.463  24.282  1.00  0.00    -0.203 F 
ATOM     58  C   UNL A   1      50.390  26.640  24.765  1.00  0.00     0.198 A 
ATOM     59  C   UNL A   1      50.992  26.106  27.026  1.00  0.00     0.198 A 
ATOM     60  F   UNL A   1      49.418  26.350  28.756  1.00  0.00    -0.203 F 
ATOM     61  F   UNL A   1      50.698  26.688  23.463  1.00  0.00    -0.200 F 
ATOM     62  C   UNL A   1      51.325  26.186  25.682  1.00  0.00     0.200 A 
ATOM     63  F   UNL A   1      51.899  25.681  27.916  1.00  0.00    -0.200 F 
ATOM     64  F   UNL A   1      52.545  25.817  25.270  1.00  0.00    -0.200 F 
ENDBRANCH  40  54
BRANCH  41  65
ATOM     65  C   UNL A   1      39.583  29.103  29.902  1.00  0.00     0.064 A 
ATOM     66  C   UNL A   1      38.580  29.567  29.039  1.00  0.00     0.173 A 
ATOM     67  C   UNL A   1      39.264  28.977  31.261  1.00  0.00     0.173 A 
ATOM     68  F   UNL A   1      38.840  29.722  27.731  1.00  0.00    -0.203 F 
ATOM     69  C   UNL A   1      37.322  29.923  29.519  1.00  0.00     0.198 A 
ATOM     70  C   UNL A   1      37.995  29.300  31.737  1.00  0.00     0.198 A 
ATOM     71  F   UNL A   1      40.183  28.529  32.129  1.00  0.00    -0.203 F 
ATOM     72  F   UNL A   1      36.401  30.418  28.682  1.00  0.00    -0.200 F 
ATOM     73  C   UNL A   1      37.028  29.783  30.868  1.00  0.00     0.200 A 
ATOM     74  F   UNL A   1      37.709  29.148  33.037  1.00  0.00    -0.200 F 
ATOM     75  F   UNL A   1      35.818  30.124  31.330  1.00  0.00    -0.200 F 
ENDBRANCH  41  65
BRANCH  53  76
ATOM     76  C   UNL A   1      45.347  32.872  28.842  1.00  0.00     0.064 A 
ATOM     77  C   UNL A   1      45.938  33.395  30.002  1.00  0.00     0.173 A 
ATOM     78  C   UNL A   1      45.040  33.765  27.803  1.00  0.00     0.173 A 
ATOM     79  F   UNL A   1      46.241  32.588  31.029  1.00  0.00    -0.203 F 
ATOM     80  C   UNL A   1      46.165  34.762  30.135  1.00  0.00     0.198 A 
ATOM     81  C   UNL A   1      45.306  35.125  27.924  1.00  0.00     0.198 A 
ATOM     82  F   UNL A   1      44.486  33.317  26.667  1.00  0.00    -0.203 F 
ATOM     83  F   UNL A   1      46.664  35.248  31.280  1.00  0.00    -0.200 F 
ATOM     84  C   UNL A   1      45.855  35.625  29.094  1.00  0.00     0.200 A 
ATOM     85  F   UNL A   1      45.024  35.953  26.909  1.00  0.00    -0.200 F 
ATOM     86  F   UNL A   1      46.076  36.941  29.223  1.00  0.00    -0.200 F 
ENDBRANCH  53  76
ENDBRANCH  27  28
ENDBRANCH  19  22
ENDBRANCH  17  18
ENDBRANCH  16  17
ENDBRANCH   1  16
TORSDOF 14
ENDMDL
MODEL 3
REMARK VINA RESULT:      -9.9      6.369     10.899
REMARK SMILES O=C(COCC[NH+]1CCCC1)NCCCNC(=O)c1ccc(-c2c3nc(c(-c4c(F)c(F)c(F)c(F)c4F)c4ccc([nH]4)c(-c4c(F)c(F)c(F)c(F)c4F)c4nc(c(-c5c(F)c(F)c(F)c(F)c5F)c5ccc2[nH]5)C=C4)C=C3)cc1
REMARK SMILES IDX 13 1 12 2 1 3 2 4 3 6 4 7 5 8 6 9 7 10 8 11 11 12 9 14 10 15
REMARK SMILES IDX 14 16 15 17 16 18 17 19 18 21 19 22 20 23 81 24 21 25 80 26
REMARK SMILES IDX 22 27 23 28 24 29 74 30 25 31 79 32 73 33 75 34 26 35 78 36
REMARK SMILES IDX 72 37 71 38 27 40 59 41 39 42 58 43 40 44 43 45 57 46 76 47
REMARK SMILES IDX 41 48 42 49 56 51 77 52 44 53 28 54 29 55 37 56 30 57 31 58
REMARK SMILES IDX 35 59 38 60 32 61 33 62 36 63 34 64 60 65 61 66 69 67 62 68
REMARK SMILES IDX 63 69 67 70 70 71 64 72 65 73 68 74 66 75 45 76 46 77 54 78
REMARK SMILES IDX 47 79 48 80 52 81 55 82 49 83 50 84 53 85 51 86
REMARK H PARENT 12 5 7 13 16 20 75 39 43 50
REMARK Flexibility Score: inf
ROOT
ATOM      1  C   UNL A   1      37.246  20.430  24.622  1.00  0.00     0.117 C 
ENDROOT
BRANCH   1   2
ATOM      2  N   UNL A   1      36.040  20.490  25.426  1.00  0.00    -0.354 N 
ATOM      3  O   UNL A   1      36.159  22.701  26.030  1.00  0.00    -0.272 OA
ATOM      4  C   UNL A   1      35.514  21.662  25.924  1.00  0.00     0.246 C 
ATOM      5  H   UNL A   1      35.571  19.647  25.626  1.00  0.00     0.163 HD
BRANCH   4   6
ATOM      6  C   UNL A   1      34.035  21.574  26.338  1.00  0.00     0.260 C 
BRANCH   6   7
ATOM      7  O   UNL A   1      33.040  21.915  25.389  1.00  0.00    -0.366 OA
BRANCH   7   8
ATOM      8  C   UNL A   1      32.123  20.887  25.007  1.00  0.00     0.222 C 
BRANCH   8   9
ATOM      9  C   UNL A   1      32.556  19.950  23.855  1.00  0.00     0.291 C 
BRANCH   9  10
ATOM     10  N   UNL A   1      32.453  18.490  23.977  1.00  0.00    -0.333 N 
ATOM     11  C   UNL A   1      33.115  17.858  25.115  1.00  0.00     0.262 C 
ATOM     12  C   UNL A   1      32.797  17.719  22.785  1.00  0.00     0.262 C 
ATOM     13  H   UNL A   1      31.446  18.446  24.137  1.00  0.00     0.348 HD
ATOM     14  C   UNL A   1      34.402  17.299  24.543  1.00  0.00     0.067 C 
ATOM     15  C   UNL A   1      34.043  16.910  23.123  1.00  0.00     0.067 C 
ENDBRANCH   9  10
ENDBRANCH   8   9
ENDBRANCH   7   8
ENDBRANCH   6   7
ENDBRANCH   4   6
ENDBRANCH   1   2
BRANCH   1  16
ATOM     16  C   UNL A   1      38.261  19.362  25.004  1.00  0.00     0.042 C 
BRANCH  16  17
ATOM     17  C   UNL A   1      39.322  19.830  25.981  1.00  0.00     0.118 C 
BRANCH  17  18
ATOM     18  N   UNL A   1      40.461  18.926  26.051  1.00  0.00    -0.352 N 
ATOM     19  C   UNL A   1      41.797  19.202  26.135  1.00  0.00     0.251 C 
ATOM     20  H   UNL A   1      40.234  17.968  26.034  1.00  0.00     0.163 HD
ATOM     21  O   UNL A   1      42.616  18.290  26.035  1.00  0.00    -0.269 OA
BRANCH  19  22
ATOM     22  C   UNL A   1      42.262  20.592  26.329  1.00  0.00     0.039 A 
ATOM     23  C   UNL A   1      42.416  21.067  27.634  1.00  0.00     0.014 A 
ATOM     24  C   UNL A   1      42.513  21.435  25.244  1.00  0.00     0.014 A 
ATOM     25  C   UNL A   1      42.845  22.377  27.845  1.00  0.00     0.010 A 
ATOM     26  C   UNL A   1      43.036  22.707  25.456  1.00  0.00     0.010 A 
ATOM     27  C   UNL A   1      43.175  23.202  26.758  1.00  0.00    -0.014 A 
BRANCH  27  28
ATOM     28  C   UNL A   1      43.609  24.604  26.979  1.00  0.00     0.031 A 
ATOM     29  C   UNL A   1      42.631  25.625  27.492  1.00  0.00     0.074 A 
ATOM     30  C   UNL A   1      44.879  24.959  26.705  1.00  0.00     0.049 A 
ATOM     31  N   UNL A   1      42.823  26.888  27.777  1.00  0.00    -0.248 NA
ATOM     32  C   UNL A   1      41.242  25.175  27.690  1.00  0.00     0.031 C 
ATOM     33  C   UNL A   1      45.902  24.073  26.149  1.00  0.00     0.029 A 
ATOM     34  N   UNL A   1      45.527  26.158  26.863  1.00  0.00    -0.354 N 
ATOM     35  C   UNL A   1      41.586  27.379  28.175  1.00  0.00     0.074 A 
ATOM     36  C   UNL A   1      40.635  26.301  28.029  1.00  0.00     0.031 C 
ATOM     37  C   UNL A   1      47.060  24.746  26.051  1.00  0.00     0.029 A 
ATOM     38  C   UNL A   1      46.852  26.117  26.505  1.00  0.00     0.049 A 
ATOM     39  H   UNL A   1      45.084  26.969  27.202  1.00  0.00     0.167 HD
ATOM     40  C   UNL A   1      41.277  28.609  28.653  1.00  0.00     0.037 A 
ATOM     41  C   UNL A   1      47.793  27.079  26.547  1.00  0.00     0.037 A 
ATOM     42  C   UNL A   1      42.232  29.674  28.813  1.00  0.00     0.049 A 
ATOM     43  C   UNL A   1      47.425  28.436  27.088  1.00  0.00     0.074 A 
ATOM     44  C   UNL A   1      42.035  30.942  29.327  1.00  0.00     0.029 A 
ATOM     45  N   UNL A   1      43.571  29.591  28.453  1.00  0.00    -0.354 N 
ATOM     46  N   UNL A   1      46.269  28.866  27.535  1.00  0.00    -0.248 NA
ATOM     47  C   UNL A   1      48.500  29.434  27.147  1.00  0.00     0.031 C 
ATOM     48  C   UNL A   1      43.241  31.645  29.229  1.00  0.00     0.029 A 
ATOM     49  C   UNL A   1      44.207  30.793  28.719  1.00  0.00     0.049 A 
ATOM     50  H   UNL A   1      44.004  28.795  28.067  1.00  0.00     0.167 HD
ATOM     51  C   UNL A   1      46.488  30.168  27.965  1.00  0.00     0.074 A 
ATOM     52  C   UNL A   1      47.890  30.451  27.739  1.00  0.00     0.031 C 
ATOM     53  C   UNL A   1      45.607  31.052  28.500  1.00  0.00     0.037 A 
BRANCH  40  54
ATOM     54  C   UNL A   1      39.847  28.864  29.037  1.00  0.00     0.064 A 
ATOM     55  C   UNL A   1      38.898  29.308  28.103  1.00  0.00     0.173 A 
ATOM     56  C   UNL A   1      39.412  28.638  30.352  1.00  0.00     0.173 A 
ATOM     57  F   UNL A   1      39.261  29.552  26.835  1.00  0.00    -0.203 F 
ATOM     58  C   UNL A   1      37.578  29.552  28.477  1.00  0.00     0.198 A 
ATOM     59  C   UNL A   1      38.083  28.847  30.715  1.00  0.00     0.198 A 
ATOM     60  F   UNL A   1      40.273  28.210  31.287  1.00  0.00    -0.203 F 
ATOM     61  F   UNL A   1      36.706  30.032  27.581  1.00  0.00    -0.200 F 
ATOM     62  C   UNL A   1      37.170  29.313  29.781  1.00  0.00     0.200 A 
ATOM     63  F   UNL A   1      37.687  28.603  31.972  1.00  0.00    -0.200 F 
ATOM     64  F   UNL A   1      35.899  29.540  30.139  1.00  0.00    -0.200 F 
ENDBRANCH  40  54
BRANCH  41  65
ATOM     65  C   UNL A   1      49.182  26.784  26.107  1.00  0.00     0.064 A 
ATOM     66  C   UNL A   1      49.575  26.977  24.775  1.00  0.00     0.173 A 
ATOM     67  C   UNL A   1      50.141  26.290  27.002  1.00  0.00     0.173 A 
ATOM     68  F   UNL A   1      48.690  27.433  23.874  1.00  0.00    -0.203 F 
ATOM     69  C   UNL A   1      50.862  26.658  24.348  1.00  0.00     0.198 A 
ATOM     70  C   UNL A   1      51.438  26.002  26.583  1.00  0.00     0.198 A 
ATOM     71  F   UNL A   1      49.820  26.094  28.290  1.00  0.00    -0.203 F 
ATOM     72  F   UNL A   1      51.193  26.798  23.058  1.00  0.00    -0.200 F 
ATOM     73  C   UNL A   1      51.795  26.176  25.254  1.00  0.00     0.200 A 
ATOM     74  F   UNL A   1      52.341  25.553  27.465  1.00  0.00    -0.200 F 
ATOM     75  F   UNL A   1      53.033  25.869  24.845  1.00  0.00    -0.200 F 
ENDBRANCH  41  65
BRANCH  53  76
ATOM     76  C   UNL A   1      46.151  32.384  28.937  1.00  0.00     0.064 A 
ATOM     77  C   UNL A   1      46.661  32.593  30.228  1.00  0.00     0.173 A 
ATOM     78  C   UNL A   1      46.173  33.463  28.040  1.00  0.00     0.173 A 
ATOM     79  F   UNL A   1      46.653  31.599  31.127  1.00  0.00    -0.203 F 
ATOM     80  C   UNL A   1      47.126  33.846  30.617  1.00  0.00     0.198 A 
ATOM     81  C   UNL A   1      46.677  34.703  28.422  1.00  0.00     0.198 A 
ATOM     82  F   UNL A   1      45.710  33.314  26.790  1.00  0.00    -0.203 F 
ATOM     83  F   UNL A   1      47.541  34.042  31.877  1.00  0.00    -0.200 F 
ATOM     84  C   UNL A   1      47.140  34.898  29.713  1.00  0.00     0.200 A 
ATOM     85  F   UNL A   1      46.707  35.712  27.539  1.00  0.00    -0.200 F 
ATOM     86  F   UNL A   1      47.589  36.103  30.090  1.00  0.00    -0.200 F 
ENDBRANCH  53  76
ENDBRANCH  27  28
ENDBRANCH  19  22
ENDBRANCH  17  18
ENDBRANCH  16  17
ENDBRANCH   1  16
TORSDOF 14
ENDMDL
