MODEL 1
REMARK VINA RESULT:     -12.8      0.000      0.000
REMARK SMILES CC(C)CCOc1ccc(C(=O)N2CCC[C@H](C(=O)NCCCNC(=O)c3ccc(-c4c5nc(c(-c6c(F)c(F)c(F)c(F)c6F)c6ccc([nH]6)c(-c6c(F)c(F)c(F)c(F)c6F)c6nc(c(-c7c(F)c(F)c(F)c(F)c7F)c7ccc4[nH]7)C=C6)C=C5)cc3)C2)cc1
REMARK SMILES IDX 18 1 19 2 20 3 17 5 13 6 14 7 90 8 15 9 16 10 11 11 12 12
REMARK SMILES IDX 10 13 7 14 8 15 92 16 9 17 91 18 6 19 5 20 4 21 2 22 1 23
REMARK SMILES IDX 3 24 21 25 22 26 23 27 24 28 25 29 26 31 27 32 28 33 89 34
REMARK SMILES IDX 29 35 88 36 30 37 31 38 32 39 82 40 33 41 87 42 81 43 83 44
REMARK SMILES IDX 34 45 86 46 80 47 79 48 35 50 67 51 47 52 66 53 48 54 51 55
REMARK SMILES IDX 65 56 84 57 49 58 50 59 64 61 85 62 52 63 36 64 37 65 45 66
REMARK SMILES IDX 38 67 39 68 43 69 46 70 40 71 41 72 44 73 42 74 68 75 69 76
REMARK SMILES IDX 77 77 70 78 71 79 75 80 78 81 72 82 73 83 76 84 74 85 53 86
REMARK SMILES IDX 54 87 62 88 55 89 56 90 60 91 63 92 57 93 58 94 61 95 59 96
REMARK H PARENT 20 4 24 30 83 49 51 60
REMARK Flexibility Score: inf
ROOT
ATOM      1  C   UNL A   1      32.689  29.196  24.743  1.00  0.00     0.224 C 
ATOM      2  O   UNL A   1      33.622  29.169  23.933  1.00  0.00    -0.275 OA
ATOM      3  N   UNL A   1      32.697  30.219  25.634  1.00  0.00    -0.356 N 
ATOM      4  H   UNL A   1      33.509  30.776  25.612  1.00  0.00     0.163 HD
ENDROOT
BRANCH   1   5
ATOM      5  C   UNL A   1      31.621  28.098  24.695  1.00  0.00     0.098 C 
ATOM      6  N   UNL A   1      32.157  26.116  23.238  1.00  0.00    -0.338 N 
ATOM      7  C   UNL A   1      30.937  26.303  22.454  1.00  0.00     0.120 C 
ATOM      8  C   UNL A   1      32.170  26.677  24.587  1.00  0.00     0.133 C 
ATOM      9  C   UNL A   1      30.447  27.744  22.427  1.00  0.00     0.022 C 
ATOM     10  C   UNL A   1      30.416  28.395  23.803  1.00  0.00     0.017 C 
BRANCH   6  11
ATOM     11  C   UNL A   1      33.244  25.482  22.625  1.00  0.00     0.253 C 
ATOM     12  O   UNL A   1      33.886  26.056  21.742  1.00  0.00    -0.269 OA
BRANCH  11  13
ATOM     13  C   UNL A   1      33.596  24.056  22.926  1.00  0.00     0.040 A 
ATOM     14  C   UNL A   1      33.706  21.579  24.180  1.00  0.00     0.119 A 
ATOM     15  C   UNL A   1      32.652  21.847  23.316  1.00  0.00     0.047 A 
ATOM     16  C   UNL A   1      34.807  22.422  24.249  1.00  0.00     0.047 A 
ATOM     17  C   UNL A   1      32.605  23.088  22.677  1.00  0.00     0.017 A 
ATOM     18  C   UNL A   1      34.724  23.685  23.669  1.00  0.00     0.017 A 
BRANCH  14  19
ATOM     19  O   UNL A   1      33.625  20.564  25.093  1.00  0.00    -0.494 OA
BRANCH  19  20
ATOM     20  C   UNL A   1      33.893  19.288  24.458  1.00  0.00     0.230 C 
BRANCH  20  21
ATOM     21  C   UNL A   1      33.166  18.104  25.133  1.00  0.00     0.044 C 
BRANCH  21  22
ATOM     22  C   UNL A   1      33.743  16.703  24.811  1.00  0.00    -0.014 C 
ATOM     23  C   UNL A   1      32.821  15.567  25.246  1.00  0.00     0.007 C 
ATOM     24  C   UNL A   1      34.060  16.582  23.318  1.00  0.00     0.007 C 
ENDBRANCH  21  22
ENDBRANCH  20  21
ENDBRANCH  19  20
ENDBRANCH  14  19
ENDBRANCH  11  13
ENDBRANCH   6  11
ENDBRANCH   1   5
BRANCH   3  25
ATOM     25  C   UNL A   1      31.711  30.628  26.606  1.00  0.00     0.117 C 
BRANCH  25  26
ATOM     26  C   UNL A   1      31.515  32.129  26.673  1.00  0.00     0.042 C 
BRANCH  26  27
ATOM     27  C   UNL A   1      32.727  32.852  27.221  1.00  0.00     0.118 C 
BRANCH  27  28
ATOM     28  N   UNL A   1      32.429  34.220  27.635  1.00  0.00    -0.352 N 
ATOM     29  C   UNL A   1      32.984  35.001  28.622  1.00  0.00     0.251 C 
ATOM     30  H   UNL A   1      31.709  34.657  27.123  1.00  0.00     0.163 HD
ATOM     31  O   UNL A   1      32.499  36.092  28.887  1.00  0.00    -0.269 OA
BRANCH  29  32
ATOM     32  C   UNL A   1      34.147  34.508  29.390  1.00  0.00     0.039 A 
ATOM     33  C   UNL A   1      33.930  33.882  30.621  1.00  0.00     0.014 A 
ATOM     34  C   UNL A   1      35.444  34.645  28.896  1.00  0.00     0.014 A 
ATOM     35  C   UNL A   1      35.006  33.325  31.313  1.00  0.00     0.010 A 
ATOM     36  C   UNL A   1      36.492  33.981  29.519  1.00  0.00     0.010 A 
ATOM     37  C   UNL A   1      36.288  33.330  30.743  1.00  0.00    -0.014 A 
BRANCH  37  38
ATOM     38  C   UNL A   1      37.449  32.700  31.419  1.00  0.00     0.031 A 
ATOM     39  C   UNL A   1      38.181  31.574  30.741  1.00  0.00     0.074 A 
ATOM     40  C   UNL A   1      37.787  33.079  32.667  1.00  0.00     0.049 A 
ATOM     41  N   UNL A   1      39.139  30.809  31.200  1.00  0.00    -0.248 NA
ATOM     42  C   UNL A   1      37.746  31.230  29.375  1.00  0.00     0.031 C 
ATOM     43  C   UNL A   1      37.112  34.115  33.451  1.00  0.00     0.029 A 
ATOM     44  N   UNL A   1      38.777  32.626  33.501  1.00  0.00    -0.354 N 
ATOM     45  C   UNL A   1      39.392  29.882  30.198  1.00  0.00     0.074 A 
ATOM     46  C   UNL A   1      38.447  30.134  29.135  1.00  0.00     0.031 C 
ATOM     47  C   UNL A   1      37.729  34.242  34.637  1.00  0.00     0.029 A 
ATOM     48  C   UNL A   1      38.813  33.269  34.714  1.00  0.00     0.049 A 
ATOM     49  H   UNL A   1      39.405  31.908  33.252  1.00  0.00     0.167 HD
ATOM     50  C   UNL A   1      40.350  28.927  30.154  1.00  0.00     0.037 A 
ATOM     51  C   UNL A   1      39.629  33.086  35.769  1.00  0.00     0.037 A 
ATOM     52  C   UNL A   1      41.322  28.719  31.194  1.00  0.00     0.049 A 
ATOM     53  C   UNL A   1      40.706  32.038  35.684  1.00  0.00     0.074 A 
ATOM     54  C   UNL A   1      42.382  27.833  31.220  1.00  0.00     0.029 A 
ATOM     55  N   UNL A   1      41.352  29.420  32.391  1.00  0.00    -0.354 N 
ATOM     56  N   UNL A   1      40.981  31.212  34.704  1.00  0.00    -0.248 NA
ATOM     57  C   UNL A   1      41.591  31.903  36.850  1.00  0.00     0.031 C 
ATOM     58  C   UNL A   1      43.033  27.968  32.451  1.00  0.00     0.029 A 
ATOM     59  C   UNL A   1      42.406  28.974  33.171  1.00  0.00     0.049 A 
ATOM     60  H   UNL A   1      40.719  30.129  32.648  1.00  0.00     0.167 HD
ATOM     61  C   UNL A   1      42.084  30.479  35.120  1.00  0.00     0.074 A 
ATOM     62  C   UNL A   1      42.437  30.970  36.436  1.00  0.00     0.031 C 
ATOM     63  C   UNL A   1      42.745  29.488  34.473  1.00  0.00     0.037 A 
BRANCH  50  64
ATOM     64  C   UNL A   1      40.400  28.048  28.938  1.00  0.00     0.064 A 
ATOM     65  C   UNL A   1      39.694  26.835  28.875  1.00  0.00     0.173 A 
ATOM     66  C   UNL A   1      41.148  28.427  27.815  1.00  0.00     0.173 A 
ATOM     67  F   UNL A   1      38.974  26.418  29.928  1.00  0.00    -0.203 F 
ATOM     68  C   UNL A   1      39.763  26.022  27.747  1.00  0.00     0.198 A 
ATOM     69  C   UNL A   1      41.189  27.628  26.675  1.00  0.00     0.198 A 
ATOM     70  F   UNL A   1      41.839  29.577  27.819  1.00  0.00    -0.203 F 
ATOM     71  F   UNL A   1      39.127  24.843  27.734  1.00  0.00    -0.200 F 
ATOM     72  C   UNL A   1      40.504  26.422  26.646  1.00  0.00     0.200 A 
ATOM     73  F   UNL A   1      41.895  28.021  25.606  1.00  0.00    -0.200 F 
ATOM     74  F   UNL A   1      40.566  25.640  25.559  1.00  0.00    -0.200 F 
ENDBRANCH  50  64
BRANCH  51  75
ATOM     75  C   UNL A   1      39.485  33.940  36.978  1.00  0.00     0.064 A 
ATOM     76  C   UNL A   1      40.079  35.208  37.034  1.00  0.00     0.173 A 
ATOM     77  C   UNL A   1      38.758  33.510  38.096  1.00  0.00     0.173 A 
ATOM     78  F   UNL A   1      40.801  35.656  35.996  1.00  0.00    -0.203 F 
ATOM     79  C   UNL A   1      39.969  36.006  38.171  1.00  0.00     0.198 A 
ATOM     80  C   UNL A   1      38.624  34.321  39.223  1.00  0.00     0.198 A 
ATOM     81  F   UNL A   1      38.164  32.308  38.092  1.00  0.00    -0.203 F 
ATOM     82  F   UNL A   1      40.585  37.195  38.215  1.00  0.00    -0.200 F 
ATOM     83  C   UNL A   1      39.237  35.564  39.262  1.00  0.00     0.200 A 
ATOM     84  F   UNL A   1      37.903  33.896  40.270  1.00  0.00    -0.200 F 
ATOM     85  F   UNL A   1      39.129  36.332  40.355  1.00  0.00    -0.200 F 
ENDBRANCH  51  75
BRANCH  63  86
ATOM     86  C   UNL A   1      43.938  28.896  35.163  1.00  0.00     0.064 A 
ATOM     87  C   UNL A   1      43.821  27.789  36.015  1.00  0.00     0.173 A 
ATOM     88  C   UNL A   1      45.220  29.416  34.929  1.00  0.00     0.173 A 
ATOM     89  F   UNL A   1      42.615  27.266  36.280  1.00  0.00    -0.203 F 
ATOM     90  C   UNL A   1      44.943  27.239  36.628  1.00  0.00     0.198 A 
ATOM     91  C   UNL A   1      46.342  28.844  35.520  1.00  0.00     0.198 A 
ATOM     92  F   UNL A   1      45.385  30.469  34.116  1.00  0.00    -0.203 F 
ATOM     93  F   UNL A   1      44.803  26.210  37.475  1.00  0.00    -0.200 F 
ATOM     94  C   UNL A   1      46.202  27.760  36.374  1.00  0.00     0.200 A 
ATOM     95  F   UNL A   1      47.561  29.340  35.261  1.00  0.00    -0.200 F 
ATOM     96  F   UNL A   1      47.282  27.223  36.958  1.00  0.00    -0.200 F 
ENDBRANCH  63  86
ENDBRANCH  37  38
ENDBRANCH  29  32
ENDBRANCH  27  28
ENDBRANCH  26  27
ENDBRANCH  25  26
ENDBRANCH   3  25
TORSDOF 16
ENDMDL
MODEL 2
REMARK VINA RESULT:     -12.8      2.167      4.975
REMARK SMILES CC(C)CCOc1ccc(C(=O)N2CCC[C@H](C(=O)NCCCNC(=O)c3ccc(-c4c5nc(c(-c6c(F)c(F)c(F)c(F)c6F)c6ccc([nH]6)c(-c6c(F)c(F)c(F)c(F)c6F)c6nc(c(-c7c(F)c(F)c(F)c(F)c7F)c7ccc4[nH]7)C=C6)C=C5)cc3)C2)cc1
REMARK SMILES IDX 18 1 19 2 20 3 17 5 13 6 14 7 90 8 15 9 16 10 11 11 12 12
REMARK SMILES IDX 10 13 7 14 8 15 92 16 9 17 91 18 6 19 5 20 4 21 2 22 1 23
REMARK SMILES IDX 3 24 21 25 22 26 23 27 24 28 25 29 26 31 27 32 28 33 89 34
REMARK SMILES IDX 29 35 88 36 30 37 31 38 32 39 82 40 33 41 87 42 81 43 83 44
REMARK SMILES IDX 34 45 86 46 80 47 79 48 35 50 67 51 47 52 66 53 48 54 51 55
REMARK SMILES IDX 65 56 84 57 49 58 50 59 64 61 85 62 52 63 36 64 37 65 45 66
REMARK SMILES IDX 38 67 39 68 43 69 46 70 40 71 41 72 44 73 42 74 68 75 69 76
REMARK SMILES IDX 77 77 70 78 71 79 75 80 78 81 72 82 73 83 76 84 74 85 53 86
REMARK SMILES IDX 54 87 62 88 55 89 56 90 60 91 63 92 57 93 58 94 61 95 59 96
REMARK H PARENT 20 4 24 30 83 49 51 60
REMARK Flexibility Score: inf
ROOT
ATOM      1  C   UNL A   1      31.843  24.204  26.874  1.00  0.00     0.224 C 
ATOM      2  O   UNL A   1      30.870  23.576  27.307  1.00  0.00    -0.275 OA
ATOM      3  N   UNL A   1      31.647  25.524  26.634  1.00  0.00    -0.356 N 
ATOM      4  H   UNL A   1      30.713  25.824  26.725  1.00  0.00     0.163 HD
ENDROOT
BRANCH   1   5
ATOM      5  C   UNL A   1      33.166  23.468  26.636  1.00  0.00     0.098 C 
ATOM      6  N   UNL A   1      33.806  23.121  24.226  1.00  0.00    -0.338 N 
ATOM      7  C   UNL A   1      33.890  21.673  24.408  1.00  0.00     0.120 C 
ATOM      8  C   UNL A   1      33.955  23.948  25.420  1.00  0.00     0.133 C 
ATOM      9  C   UNL A   1      32.999  21.147  25.524  1.00  0.00     0.022 C 
ATOM     10  C   UNL A   1      33.112  21.950  26.814  1.00  0.00     0.017 C 
BRANCH   6  11
ATOM     11  C   UNL A   1      33.518  23.608  22.946  1.00  0.00     0.253 C 
ATOM     12  O   UNL A   1      34.255  23.342  21.994  1.00  0.00    -0.269 OA
BRANCH  11  13
ATOM     13  C   UNL A   1      32.383  24.557  22.702  1.00  0.00     0.040 A 
ATOM     14  C   UNL A   1      30.618  26.685  22.996  1.00  0.00     0.119 A 
ATOM     15  C   UNL A   1      31.832  26.902  22.356  1.00  0.00     0.047 A 
ATOM     16  C   UNL A   1      30.181  25.398  23.280  1.00  0.00     0.047 A 
ATOM     17  C   UNL A   1      32.712  25.830  22.199  1.00  0.00     0.017 A 
ATOM     18  C   UNL A   1      31.086  24.344  23.188  1.00  0.00     0.017 A 
BRANCH  14  19
ATOM     19  O   UNL A   1      29.891  27.729  23.498  1.00  0.00    -0.494 OA
BRANCH  19  20
ATOM     20  C   UNL A   1      30.378  28.986  22.967  1.00  0.00     0.230 C 
BRANCH  20  21
ATOM     21  C   UNL A   1      29.620  30.216  23.515  1.00  0.00     0.044 C 
BRANCH  21  22
ATOM     22  C   UNL A   1      28.151  30.353  23.044  1.00  0.00    -0.014 C 
ATOM     23  C   UNL A   1      27.433  31.542  23.677  1.00  0.00     0.007 C 
ATOM     24  C   UNL A   1      28.082  30.448  21.517  1.00  0.00     0.007 C 
ENDBRANCH  21  22
ENDBRANCH  20  21
ENDBRANCH  19  20
ENDBRANCH  14  19
ENDBRANCH  11  13
ENDBRANCH   6  11
ENDBRANCH   1   5
BRANCH   3  25
ATOM     25  C   UNL A   1      32.580  26.563  26.267  1.00  0.00     0.117 C 
BRANCH  25  26
ATOM     26  C   UNL A   1      31.973  27.952  26.280  1.00  0.00     0.042 C 
BRANCH  26  27
ATOM     27  C   UNL A   1      32.909  29.002  25.719  1.00  0.00     0.118 C 
BRANCH  27  28
ATOM     28  N   UNL A   1      32.515  30.360  26.081  1.00  0.00    -0.352 N 
ATOM     29  C   UNL A   1      33.095  31.265  26.939  1.00  0.00     0.251 C 
ATOM     30  H   UNL A   1      31.697  30.683  25.636  1.00  0.00     0.163 HD
ATOM     31  O   UNL A   1      32.529  32.319  27.193  1.00  0.00    -0.269 OA
BRANCH  29  32
ATOM     32  C   UNL A   1      34.387  30.951  27.584  1.00  0.00     0.039 A 
ATOM     33  C   UNL A   1      35.321  31.974  27.765  1.00  0.00     0.014 A 
ATOM     34  C   UNL A   1      34.673  29.658  28.025  1.00  0.00     0.014 A 
ATOM     35  C   UNL A   1      36.504  31.716  28.458  1.00  0.00     0.010 A 
ATOM     36  C   UNL A   1      35.786  29.434  28.823  1.00  0.00     0.010 A 
ATOM     37  C   UNL A   1      36.724  30.454  29.032  1.00  0.00    -0.014 A 
BRANCH  37  38
ATOM     38  C   UNL A   1      37.941  30.155  29.825  1.00  0.00     0.031 A 
ATOM     39  C   UNL A   1      38.983  29.227  29.262  1.00  0.00     0.074 A 
ATOM     40  C   UNL A   1      38.068  30.645  31.073  1.00  0.00     0.049 A 
ATOM     41  N   UNL A   1      40.057  28.740  29.831  1.00  0.00    -0.248 NA
ATOM     42  C   UNL A   1      38.765  28.743  27.888  1.00  0.00     0.031 C 
ATOM     43  C   UNL A   1      37.094  31.503  31.750  1.00  0.00     0.029 A 
ATOM     44  N   UNL A   1      39.064  30.479  32.001  1.00  0.00    -0.354 N 
ATOM     45  C   UNL A   1      40.616  27.874  28.900  1.00  0.00     0.074 A 
ATOM     46  C   UNL A   1      39.732  27.850  27.757  1.00  0.00     0.031 C 
ATOM     47  C   UNL A   1      37.557  31.817  32.971  1.00  0.00     0.029 A 
ATOM     48  C   UNL A   1      38.837  31.148  33.179  1.00  0.00     0.049 A 
ATOM     49  H   UNL A   1      39.868  29.933  31.838  1.00  0.00     0.167 HD
ATOM     50  C   UNL A   1      41.779  27.187  28.977  1.00  0.00     0.037 A 
ATOM     51  C   UNL A   1      39.580  31.208  34.301  1.00  0.00     0.037 A 
ATOM     52  C   UNL A   1      42.679  27.261  30.096  1.00  0.00     0.049 A 
ATOM     53  C   UNL A   1      40.884  30.459  34.351  1.00  0.00     0.074 A 
ATOM     54  C   UNL A   1      43.919  26.669  30.248  1.00  0.00     0.029 A 
ATOM     55  N   UNL A   1      42.434  27.984  31.255  1.00  0.00    -0.354 N 
ATOM     56  N   UNL A   1      41.437  29.698  33.438  1.00  0.00    -0.248 NA
ATOM     57  C   UNL A   1      41.672  30.585  35.585  1.00  0.00     0.031 C 
ATOM     58  C   UNL A   1      44.409  27.000  31.515  1.00  0.00     0.029 A 
ATOM     59  C   UNL A   1      43.494  27.839  32.133  1.00  0.00     0.049 A 
ATOM     60  H   UNL A   1      41.626  28.520  31.427  1.00  0.00     0.167 HD
ATOM     61  C   UNL A   1      42.647  29.277  33.973  1.00  0.00     0.074 A 
ATOM     62  C   UNL A   1      42.754  29.881  35.285  1.00  0.00     0.031 C 
ATOM     63  C   UNL A   1      43.584  28.462  33.429  1.00  0.00     0.037 A 
BRANCH  50  64
ATOM     64  C   UNL A   1      42.148  26.311  27.815  1.00  0.00     0.064 A 
ATOM     65  C   UNL A   1      43.049  26.738  26.826  1.00  0.00     0.173 A 
ATOM     66  C   UNL A   1      41.609  25.022  27.696  1.00  0.00     0.173 A 
ATOM     67  F   UNL A   1      43.583  27.967  26.884  1.00  0.00    -0.203 F 
ATOM     68  C   UNL A   1      43.369  25.920  25.745  1.00  0.00     0.198 A 
ATOM     69  C   UNL A   1      41.956  24.194  26.632  1.00  0.00     0.198 A 
ATOM     70  F   UNL A   1      40.745  24.562  28.614  1.00  0.00    -0.203 F 
ATOM     71  F   UNL A   1      44.185  26.373  24.784  1.00  0.00    -0.200 F 
ATOM     72  C   UNL A   1      42.828  24.647  25.653  1.00  0.00     0.200 A 
ATOM     73  F   UNL A   1      41.443  22.958  26.549  1.00  0.00    -0.200 F 
ATOM     74  F   UNL A   1      43.140  23.859  24.614  1.00  0.00    -0.200 F 
ENDBRANCH  50  64
BRANCH  51  75
ATOM     75  C   UNL A   1      39.127  32.036  35.450  1.00  0.00     0.064 A 
ATOM     76  C   UNL A   1      39.467  33.393  35.533  1.00  0.00     0.173 A 
ATOM     77  C   UNL A   1      38.351  31.494  36.484  1.00  0.00     0.173 A 
ATOM     78  F   UNL A   1      40.223  33.954  34.577  1.00  0.00    -0.203 F 
ATOM     79  C   UNL A   1      39.067  34.172  36.617  1.00  0.00     0.198 A 
ATOM     80  C   UNL A   1      37.928  32.280  37.554  1.00  0.00     0.198 A 
ATOM     81  F   UNL A   1      37.993  30.202  36.450  1.00  0.00    -0.203 F 
ATOM     82  F   UNL A   1      39.445  35.455  36.694  1.00  0.00    -0.200 F 
ATOM     83  C   UNL A   1      38.293  33.615  37.624  1.00  0.00     0.200 A 
ATOM     84  F   UNL A   1      37.167  31.743  38.518  1.00  0.00    -0.200 F 
ATOM     85  F   UNL A   1      37.906  34.365  38.666  1.00  0.00    -0.200 F 
ENDBRANCH  51  75
BRANCH  63  86
ATOM     86  C   UNL A   1      44.822  28.208  34.237  1.00  0.00     0.064 A 
ATOM     87  C   UNL A   1      45.936  29.056  34.162  1.00  0.00     0.173 A 
ATOM     88  C   UNL A   1      44.874  27.127  35.130  1.00  0.00     0.173 A 
ATOM     89  F   UNL A   1      45.939  30.093  33.311  1.00  0.00    -0.203 F 
ATOM     90  C   UNL A   1      47.068  28.816  34.936  1.00  0.00     0.198 A 
ATOM     91  C   UNL A   1      45.995  26.910  35.925  1.00  0.00     0.198 A 
ATOM     92  F   UNL A   1      43.831  26.292  35.244  1.00  0.00    -0.203 F 
ATOM     93  F   UNL A   1      48.139  29.613  34.815  1.00  0.00    -0.200 F 
ATOM     94  C   UNL A   1      47.094  27.750  35.822  1.00  0.00     0.200 A 
ATOM     95  F   UNL A   1      46.012  25.887  36.792  1.00  0.00    -0.200 F 
ATOM     96  F   UNL A   1      48.181  27.528  36.573  1.00  0.00    -0.200 F 
ENDBRANCH  63  86
ENDBRANCH  37  38
ENDBRANCH  29  32
ENDBRANCH  27  28
ENDBRANCH  26  27
ENDBRANCH  25  26
ENDBRANCH   3  25
TORSDOF 16
ENDMDL
MODEL 3
REMARK VINA RESULT:     -12.7      5.493     11.389
REMARK SMILES CC(C)CCOc1ccc(C(=O)N2CCC[C@H](C(=O)NCCCNC(=O)c3ccc(-c4c5nc(c(-c6c(F)c(F)c(F)c(F)c6F)c6ccc([nH]6)c(-c6c(F)c(F)c(F)c(F)c6F)c6nc(c(-c7c(F)c(F)c(F)c(F)c7F)c7ccc4[nH]7)C=C6)C=C5)cc3)C2)cc1
REMARK SMILES IDX 18 1 19 2 20 3 17 5 13 6 14 7 90 8 15 9 16 10 11 11 12 12
REMARK SMILES IDX 10 13 7 14 8 15 92 16 9 17 91 18 6 19 5 20 4 21 2 22 1 23
REMARK SMILES IDX 3 24 21 25 22 26 23 27 24 28 25 29 26 31 27 32 28 33 89 34
REMARK SMILES IDX 29 35 88 36 30 37 31 38 32 39 82 40 33 41 87 42 81 43 83 44
REMARK SMILES IDX 34 45 86 46 80 47 79 48 35 50 67 51 47 52 66 53 48 54 51 55
REMARK SMILES IDX 65 56 84 57 49 58 50 59 64 61 85 62 52 63 36 64 37 65 45 66
REMARK SMILES IDX 38 67 39 68 43 69 46 70 40 71 41 72 44 73 42 74 68 75 69 76
REMARK SMILES IDX 77 77 70 78 71 79 75 80 78 81 72 82 73 83 76 84 74 85 53 86
REMARK SMILES IDX 54 87 62 88 55 89 56 90 60 91 63 92 57 93 58 94 61 95 59 96
REMARK H PARENT 20 4 24 30 83 49 51 60
REMARK Flexibility Score: inf
ROOT
ATOM      1  C   UNL A   1      35.464  22.398  25.769  1.00  0.00     0.224 C 
ATOM      2  O   UNL A   1      35.183  22.898  26.864  1.00  0.00    -0.275 OA
ATOM      3  N   UNL A   1      36.759  22.038  25.588  1.00  0.00    -0.356 N 
ATOM      4  H   UNL A   1      37.367  22.316  26.311  1.00  0.00     0.163 HD
ENDROOT
BRANCH   1   5
ATOM      5  C   UNL A   1      34.363  22.231  24.715  1.00  0.00     0.098 C 
ATOM      6  N   UNL A   1      32.115  23.190  25.322  1.00  0.00    -0.338 N 
ATOM      7  C   UNL A   1      31.460  21.896  25.134  1.00  0.00     0.120 C 
ATOM      8  C   UNL A   1      33.382  23.398  24.625  1.00  0.00     0.133 C 
ATOM      9  C   UNL A   1      32.385  20.708  25.362  1.00  0.00     0.022 C 
ATOM     10  C   UNL A   1      33.725  20.843  24.650  1.00  0.00     0.017 C 
BRANCH   6  11
ATOM     11  C   UNL A   1      31.528  24.104  26.204  1.00  0.00     0.253 C 
ATOM     12  O   UNL A   1      31.220  23.761  27.347  1.00  0.00    -0.269 OA
BRANCH  11  13
ATOM     13  C   UNL A   1      31.146  25.486  25.765  1.00  0.00     0.040 A 
ATOM     14  C   UNL A   1      30.941  27.806  24.249  1.00  0.00     0.119 A 
ATOM     15  C   UNL A   1      30.082  26.748  23.977  1.00  0.00     0.047 A 
ATOM     16  C   UNL A   1      31.728  27.812  25.392  1.00  0.00     0.047 A 
ATOM     17  C   UNL A   1      30.178  25.588  24.747  1.00  0.00     0.017 A 
ATOM     18  C   UNL A   1      31.874  26.631  26.114  1.00  0.00     0.017 A 
BRANCH  14  19
ATOM     19  O   UNL A   1      31.148  28.797  23.329  1.00  0.00    -0.494 OA
BRANCH  19  20
ATOM     20  C   UNL A   1      30.175  29.857  23.499  1.00  0.00     0.230 C 
BRANCH  20  21
ATOM     21  C   UNL A   1      29.216  30.007  22.298  1.00  0.00     0.044 C 
BRANCH  21  22
ATOM     22  C   UNL A   1      27.712  30.095  22.657  1.00  0.00    -0.014 C 
ATOM     23  C   UNL A   1      27.138  28.764  23.140  1.00  0.00     0.007 C 
ATOM     24  C   UNL A   1      27.472  31.184  23.706  1.00  0.00     0.007 C 
ENDBRANCH  21  22
ENDBRANCH  20  21
ENDBRANCH  19  20
ENDBRANCH  14  19
ENDBRANCH  11  13
ENDBRANCH   6  11
ENDBRANCH   1   5
BRANCH   3  25
ATOM     25  C   UNL A   1      37.393  21.316  24.511  1.00  0.00     0.117 C 
BRANCH  25  26
ATOM     26  C   UNL A   1      38.069  20.035  24.959  1.00  0.00     0.042 C 
BRANCH  26  27
ATOM     27  C   UNL A   1      39.182  20.281  25.955  1.00  0.00     0.118 C 
BRANCH  27  28
ATOM     28  N   UNL A   1      40.213  19.247  25.917  1.00  0.00    -0.352 N 
ATOM     29  C   UNL A   1      41.580  19.337  26.040  1.00  0.00     0.251 C 
ATOM     30  H   UNL A   1      39.873  18.333  25.779  1.00  0.00     0.163 HD
ATOM     31  O   UNL A   1      42.278  18.350  25.855  1.00  0.00    -0.269 OA
BRANCH  29  32
ATOM     32  C   UNL A   1      42.211  20.634  26.361  1.00  0.00     0.039 A 
ATOM     33  C   UNL A   1      42.613  21.469  25.316  1.00  0.00     0.014 A 
ATOM     34  C   UNL A   1      42.392  21.036  27.685  1.00  0.00     0.014 A 
ATOM     35  C   UNL A   1      43.122  22.737  25.600  1.00  0.00     0.010 A 
ATOM     36  C   UNL A   1      42.775  22.341  27.962  1.00  0.00     0.010 A 
ATOM     37  C   UNL A   1      43.163  23.200  26.924  1.00  0.00    -0.014 A 
BRANCH  37  38
ATOM     38  C   UNL A   1      43.642  24.561  27.265  1.00  0.00     0.031 A 
ATOM     39  C   UNL A   1      42.679  25.566  27.836  1.00  0.00     0.074 A 
ATOM     40  C   UNL A   1      44.911  24.916  26.984  1.00  0.00     0.049 A 
ATOM     41  N   UNL A   1      42.859  26.838  28.091  1.00  0.00    -0.248 NA
ATOM     42  C   UNL A   1      41.314  25.089  28.115  1.00  0.00     0.031 C 
ATOM     43  C   UNL A   1      45.919  24.048  26.372  1.00  0.00     0.029 A 
ATOM     44  N   UNL A   1      45.567  26.108  27.165  1.00  0.00    -0.354 N 
ATOM     45  C   UNL A   1      41.627  27.311  28.524  1.00  0.00     0.074 A 
ATOM     46  C   UNL A   1      40.693  26.212  28.437  1.00  0.00     0.031 C 
ATOM     47  C   UNL A   1      47.074  24.725  26.261  1.00  0.00     0.029 A 
ATOM     48  C   UNL A   1      46.876  26.084  26.752  1.00  0.00     0.049 A 
ATOM     49  H   UNL A   1      45.139  26.904  27.556  1.00  0.00     0.167 HD
ATOM     50  C   UNL A   1      41.312  28.543  28.987  1.00  0.00     0.037 A 
ATOM     51  C   UNL A   1      47.808  27.056  26.765  1.00  0.00     0.037 A 
ATOM     52  C   UNL A   1      42.261  29.615  29.123  1.00  0.00     0.049 A 
ATOM     53  C   UNL A   1      47.441  28.409  27.313  1.00  0.00     0.074 A 
ATOM     54  C   UNL A   1      42.069  30.878  29.650  1.00  0.00     0.029 A 
ATOM     55  N   UNL A   1      43.591  29.539  28.732  1.00  0.00    -0.354 N 
ATOM     56  N   UNL A   1      46.291  28.827  27.785  1.00  0.00    -0.248 NA
ATOM     57  C   UNL A   1      48.504  29.424  27.336  1.00  0.00     0.031 C 
ATOM     58  C   UNL A   1      43.272  31.583  29.543  1.00  0.00     0.029 A 
ATOM     59  C   UNL A   1      44.227  30.741  28.994  1.00  0.00     0.049 A 
ATOM     60  H   UNL A   1      44.019  28.749  28.330  1.00  0.00     0.167 HD
ATOM     61  C   UNL A   1      46.497  30.139  28.186  1.00  0.00     0.074 A 
ATOM     62  C   UNL A   1      47.888  30.443  27.917  1.00  0.00     0.031 C 
ATOM     63  C   UNL A   1      45.616  31.015  28.728  1.00  0.00     0.037 A 
BRANCH  50  64
ATOM     64  C   UNL A   1      39.888  28.790  29.392  1.00  0.00     0.064 A 
ATOM     65  C   UNL A   1      38.939  29.292  28.486  1.00  0.00     0.173 A 
ATOM     66  C   UNL A   1      39.458  28.506  30.697  1.00  0.00     0.173 A 
ATOM     67  F   UNL A   1      39.300  29.594  27.229  1.00  0.00    -0.203 F 
ATOM     68  C   UNL A   1      37.626  29.532  28.881  1.00  0.00     0.198 A 
ATOM     69  C   UNL A   1      38.136  28.715  31.079  1.00  0.00     0.198 A 
ATOM     70  F   UNL A   1      40.321  28.022  31.602  1.00  0.00    -0.203 F 
ATOM     71  F   UNL A   1      36.755  30.066  28.014  1.00  0.00    -0.200 F 
ATOM     72  C   UNL A   1      37.224  29.237  30.174  1.00  0.00     0.200 A 
ATOM     73  F   UNL A   1      37.745  28.418  32.326  1.00  0.00    -0.200 F 
ATOM     74  F   UNL A   1      35.957  29.464  30.552  1.00  0.00    -0.200 F 
ENDBRANCH  50  64
BRANCH  51  75
ATOM     75  C   UNL A   1      49.185  26.774  26.283  1.00  0.00     0.064 A 
ATOM     76  C   UNL A   1      49.551  27.049  24.957  1.00  0.00     0.173 A 
ATOM     77  C   UNL A   1      50.161  26.225  27.127  1.00  0.00     0.173 A 
ATOM     78  F   UNL A   1      48.647  27.556  24.106  1.00  0.00    -0.203 F 
ATOM     79  C   UNL A   1      50.832  26.766  24.489  1.00  0.00     0.198 A 
ATOM     80  C   UNL A   1      51.451  25.969  26.666  1.00  0.00     0.198 A 
ATOM     81  F   UNL A   1      49.865  25.950  28.406  1.00  0.00    -0.203 F 
ATOM     82  F   UNL A   1      51.141  26.996  23.206  1.00  0.00    -0.200 F 
ATOM     83  C   UNL A   1      51.783  26.231  25.345  1.00  0.00     0.200 A 
ATOM     84  F   UNL A   1      52.371  25.467  27.500  1.00  0.00    -0.200 F 
ATOM     85  F   UNL A   1      53.017  25.962  24.896  1.00  0.00    -0.200 F 
ENDBRANCH  51  75
BRANCH  63  86
ATOM     86  C   UNL A   1      46.138  32.372  29.099  1.00  0.00     0.064 A 
ATOM     87  C   UNL A   1      46.091  33.449  28.203  1.00  0.00     0.173 A 
ATOM     88  C   UNL A   1      46.649  32.605  30.385  1.00  0.00     0.173 A 
ATOM     89  F   UNL A   1      45.625  33.271  26.958  1.00  0.00    -0.203 F 
ATOM     90  C   UNL A   1      46.560  34.706  28.573  1.00  0.00     0.198 A 
ATOM     91  C   UNL A   1      47.087  33.871  30.761  1.00  0.00     0.198 A 
ATOM     92  F   UNL A   1      46.707  31.609  31.281  1.00  0.00    -0.203 F 
ATOM     93  F   UNL A   1      46.548  35.710  27.686  1.00  0.00    -0.200 F 
ATOM     94  C   UNL A   1      47.048  34.918  29.853  1.00  0.00     0.200 A 
ATOM     95  F   UNL A   1      47.545  34.078  32.004  1.00  0.00    -0.200 F 
ATOM     96  F   UNL A   1      47.490  36.132  30.210  1.00  0.00    -0.200 F 
ENDBRANCH  63  86
ENDBRANCH  37  38
ENDBRANCH  29  32
ENDBRANCH  27  28
ENDBRANCH  26  27
ENDBRANCH  25  26
ENDBRANCH   3  25
TORSDOF 16
ENDMDL
