MODEL 1
REMARK VINA RESULT:     -13.4      0.000      0.000
REMARK SMILES Cc1ccccc1OCC(=O)N1C[C@H](O)C[C@H]1C(=O)NCCCNC(=O)c1ccc(-c2c3nc(c(-c4c(F)c(F)c(F)c(F)c4F)c4ccc([nH]4)c(-c4c(F)c(F)c(F)c(F)c4F)c4nc(c(-c5c(F)c(F)c(F)c(F)c5F)c5ccc2[nH]5)C=C4)C=C3)cc1
REMARK SMILES IDX 21 1 20 2 18 3 19 4 17 6 12 7 13 8 14 9 16 10 10 11 11 12
REMARK SMILES IDX 9 13 8 14 7 15 1 16 2 17 3 18 4 19 6 20 5 21 15 22 22 24
REMARK SMILES IDX 23 25 24 26 25 27 26 29 27 30 28 31 89 32 29 33 88 34 30 35
REMARK SMILES IDX 31 36 32 37 82 38 33 39 87 40 81 41 83 42 34 43 86 44 80 45
REMARK SMILES IDX 79 46 35 48 67 49 47 50 66 51 48 52 51 53 65 54 84 55 49 56
REMARK SMILES IDX 50 57 64 59 85 60 52 61 36 62 37 63 45 64 38 65 39 66 43 67
REMARK SMILES IDX 46 68 40 69 41 70 44 71 42 72 68 73 69 74 77 75 70 76 71 77
REMARK SMILES IDX 75 78 78 79 72 80 73 81 76 82 74 83 53 84 54 85 62 86 55 87
REMARK SMILES IDX 56 88 60 89 63 90 57 91 58 92 61 93 59 94
REMARK H PARENT 20 5 15 23 24 28 83 47 51 58
REMARK Flexibility Score: inf
ROOT
ATOM      1  C   UNL A   1      32.107  30.117  25.871  1.00  0.00     0.117 C 
ENDROOT
BRANCH   1   2
ATOM      2  N   UNL A   1      33.203  29.711  25.009  1.00  0.00    -0.354 N 
ATOM      3  C   UNL A   1      33.600  28.482  24.569  1.00  0.00     0.242 C 
ATOM      4  O   UNL A   1      34.429  28.473  23.651  1.00  0.00    -0.273 OA
ATOM      5  H   UNL A   1      33.759  30.456  24.683  1.00  0.00     0.163 HD
BRANCH   3   6
ATOM      6  C   UNL A   1      32.956  27.160  25.044  1.00  0.00     0.177 C 
ATOM      7  N   UNL A   1      32.122  26.438  24.079  1.00  0.00    -0.325 N 
ATOM      8  C   UNL A   1      32.601  25.084  23.850  1.00  0.00     0.152 C 
ATOM      9  C   UNL A   1      33.510  24.792  25.042  1.00  0.00     0.136 C 
ATOM     10  C   UNL A   1      34.001  26.151  25.534  1.00  0.00     0.069 C 
BRANCH   7  11
ATOM     11  C   UNL A   1      30.901  26.963  23.700  1.00  0.00     0.261 C 
ATOM     12  O   UNL A   1      29.855  26.596  24.242  1.00  0.00    -0.271 OA
BRANCH  11  13
ATOM     13  C   UNL A   1      30.843  27.930  22.508  1.00  0.00     0.329 C 
BRANCH  13  14
ATOM     14  O   UNL A   1      29.600  28.318  21.985  1.00  0.00    -0.484 OA
BRANCH  14  15
ATOM     15  C   UNL A   1      28.891  29.396  22.414  1.00  0.00     0.122 A 
ATOM     16  C   UNL A   1      26.827  28.340  23.574  1.00  0.00     0.048 C 
ATOM     17  C   UNL A   1      27.681  29.488  23.116  1.00  0.00    -0.009 A 
ATOM     18  C   UNL A   1      27.215  30.775  23.473  1.00  0.00     0.007 A 
ATOM     19  C   UNL A   1      27.908  31.937  23.132  1.00  0.00     0.001 A 
ATOM     20  C   UNL A   1      29.559  30.582  22.050  1.00  0.00     0.047 A 
ATOM     21  C   UNL A   1      29.081  31.840  22.405  1.00  0.00     0.004 A 
ENDBRANCH  14  15
ENDBRANCH  13  14
ENDBRANCH  11  13
ENDBRANCH   7  11
BRANCH   9  22
ATOM     22  O   UNL A   1      32.773  24.144  26.077  1.00  0.00    -0.391 OA
ATOM     23  H   UNL A   1      32.270  23.405  25.701  1.00  0.00     0.211 HD
ENDBRANCH   9  22
ENDBRANCH   3   6
ENDBRANCH   1   2
BRANCH   1  24
ATOM     24  C   UNL A   1      32.575  30.865  27.105  1.00  0.00     0.042 C 
BRANCH  24  25
ATOM     25  C   UNL A   1      33.959  30.444  27.569  1.00  0.00     0.118 C 
BRANCH  25  26
ATOM     26  N   UNL A   1      34.553  31.353  28.548  1.00  0.00    -0.352 N 
ATOM     27  C   UNL A   1      35.744  31.224  29.247  1.00  0.00     0.251 C 
ATOM     28  H   UNL A   1      34.038  32.170  28.738  1.00  0.00     0.163 HD
ATOM     29  O   UNL A   1      36.115  32.088  30.022  1.00  0.00    -0.269 OA
BRANCH  27  30
ATOM     30  C   UNL A   1      36.620  30.073  28.932  1.00  0.00     0.039 A 
ATOM     31  C   UNL A   1      36.852  29.128  29.936  1.00  0.00     0.014 A 
ATOM     32  C   UNL A   1      37.388  30.081  27.773  1.00  0.00     0.014 A 
ATOM     33  C   UNL A   1      38.018  28.372  29.892  1.00  0.00     0.010 A 
ATOM     34  C   UNL A   1      38.599  29.424  27.785  1.00  0.00     0.010 A 
ATOM     35  C   UNL A   1      38.944  28.627  28.882  1.00  0.00    -0.014 A 
BRANCH  35  36
ATOM     36  C   UNL A   1      40.336  28.200  28.951  1.00  0.00     0.031 A 
ATOM     37  C   UNL A   1      40.738  26.881  28.424  1.00  0.00     0.074 A 
ATOM     38  C   UNL A   1      41.266  29.068  29.408  1.00  0.00     0.049 A 
ATOM     39  N   UNL A   1      41.827  26.268  28.742  1.00  0.00    -0.248 NA
ATOM     40  C   UNL A   1      39.894  26.116  27.515  1.00  0.00     0.031 C 
ATOM     41  C   UNL A   1      42.717  28.968  29.284  1.00  0.00     0.029 A 
ATOM     42  N   UNL A   1      41.066  30.156  30.278  1.00  0.00    -0.354 N 
ATOM     43  C   UNL A   1      41.961  25.181  27.907  1.00  0.00     0.074 A 
ATOM     44  C   UNL A   1      40.703  25.100  27.201  1.00  0.00     0.031 C 
ATOM     45  C   UNL A   1      43.286  29.710  30.247  1.00  0.00     0.029 A 
ATOM     46  C   UNL A   1      42.214  30.180  31.106  1.00  0.00     0.049 A 
ATOM     47  H   UNL A   1      40.296  30.768  30.306  1.00  0.00     0.167 HD
ATOM     48  C   UNL A   1      43.171  24.554  27.823  1.00  0.00     0.037 A 
ATOM     49  C   UNL A   1      42.135  29.947  32.449  1.00  0.00     0.037 A 
ATOM     50  C   UNL A   1      44.119  25.114  28.781  1.00  0.00     0.049 A 
ATOM     51  C   UNL A   1      42.993  28.798  32.921  1.00  0.00     0.074 A 
ATOM     52  C   UNL A   1      45.115  26.071  28.663  1.00  0.00     0.029 A 
ATOM     53  N   UNL A   1      43.905  24.935  30.143  1.00  0.00    -0.354 N 
ATOM     54  N   UNL A   1      43.404  27.835  32.145  1.00  0.00    -0.248 NA
ATOM     55  C   UNL A   1      43.421  28.626  34.306  1.00  0.00     0.031 C 
ATOM     56  C   UNL A   1      45.462  26.506  29.965  1.00  0.00     0.029 A 
ATOM     57  C   UNL A   1      44.696  25.798  30.874  1.00  0.00     0.049 A 
ATOM     58  H   UNL A   1      43.276  24.285  30.531  1.00  0.00     0.167 HD
ATOM     59  C   UNL A   1      44.122  26.932  32.885  1.00  0.00     0.074 A 
ATOM     60  C   UNL A   1      44.115  27.477  34.229  1.00  0.00     0.031 C 
ATOM     61  C   UNL A   1      44.653  25.804  32.326  1.00  0.00     0.037 A 
BRANCH  48  62
ATOM     62  C   UNL A   1      43.576  23.652  26.674  1.00  0.00     0.064 A 
ATOM     63  C   UNL A   1      43.104  22.323  26.598  1.00  0.00     0.173 A 
ATOM     64  C   UNL A   1      44.480  24.010  25.658  1.00  0.00     0.173 A 
ATOM     65  F   UNL A   1      42.145  21.870  27.414  1.00  0.00    -0.203 F 
ATOM     66  C   UNL A   1      43.602  21.399  25.673  1.00  0.00     0.198 A 
ATOM     67  C   UNL A   1      45.024  23.073  24.771  1.00  0.00     0.198 A 
ATOM     68  F   UNL A   1      44.821  25.287  25.447  1.00  0.00    -0.203 F 
ATOM     69  F   UNL A   1      43.122  20.148  25.659  1.00  0.00    -0.200 F 
ATOM     70  C   UNL A   1      44.595  21.762  24.789  1.00  0.00     0.200 A 
ATOM     71  F   UNL A   1      45.965  23.455  23.897  1.00  0.00    -0.200 F 
ATOM     72  F   UNL A   1      45.112  20.865  23.939  1.00  0.00    -0.200 F 
ENDBRANCH  48  62
BRANCH  49  73
ATOM     73  C   UNL A   1      40.822  30.321  33.041  1.00  0.00     0.064 A 
ATOM     74  C   UNL A   1      40.515  31.688  33.191  1.00  0.00     0.173 A 
ATOM     75  C   UNL A   1      39.763  29.410  33.111  1.00  0.00     0.173 A 
ATOM     76  F   UNL A   1      41.494  32.605  33.132  1.00  0.00    -0.203 F 
ATOM     77  C   UNL A   1      39.198  32.129  33.283  1.00  0.00     0.198 A 
ATOM     78  C   UNL A   1      38.444  29.856  33.222  1.00  0.00     0.198 A 
ATOM     79  F   UNL A   1      39.985  28.096  32.958  1.00  0.00    -0.203 F 
ATOM     80  F   UNL A   1      38.932  33.444  33.301  1.00  0.00    -0.200 F 
ATOM     81  C   UNL A   1      38.161  31.213  33.272  1.00  0.00     0.200 A 
ATOM     82  F   UNL A   1      37.436  28.971  33.177  1.00  0.00    -0.200 F 
ATOM     83  F   UNL A   1      36.889  31.637  33.261  1.00  0.00    -0.200 F 
ENDBRANCH  49  73
BRANCH  61  84
ATOM     84  C   UNL A   1      45.261  24.644  33.073  1.00  0.00     0.064 A 
ATOM     85  C   UNL A   1      46.566  24.646  33.591  1.00  0.00     0.173 A 
ATOM     86  C   UNL A   1      44.464  23.529  33.431  1.00  0.00     0.173 A 
ATOM     87  F   UNL A   1      47.382  25.695  33.419  1.00  0.00    -0.203 F 
ATOM     88  C   UNL A   1      47.057  23.587  34.360  1.00  0.00     0.198 A 
ATOM     89  C   UNL A   1      44.938  22.502  34.246  1.00  0.00     0.198 A 
ATOM     90  F   UNL A   1      43.191  23.417  33.022  1.00  0.00    -0.203 F 
ATOM     91  F   UNL A   1      48.322  23.619  34.801  1.00  0.00    -0.200 F 
ATOM     92  C   UNL A   1      46.239  22.524  34.699  1.00  0.00     0.200 A 
ATOM     93  F   UNL A   1      44.117  21.507  34.608  1.00  0.00    -0.200 F 
ATOM     94  F   UNL A   1      46.699  21.536  35.479  1.00  0.00    -0.200 F 
ENDBRANCH  61  84
ENDBRANCH  35  36
ENDBRANCH  27  30
ENDBRANCH  25  26
ENDBRANCH  24  25
ENDBRANCH   1  24
TORSDOF 15
ENDMDL
MODEL 2
REMARK VINA RESULT:     -13.2      1.293      3.794
REMARK SMILES Cc1ccccc1OCC(=O)N1C[C@H](O)C[C@H]1C(=O)NCCCNC(=O)c1ccc(-c2c3nc(c(-c4c(F)c(F)c(F)c(F)c4F)c4ccc([nH]4)c(-c4c(F)c(F)c(F)c(F)c4F)c4nc(c(-c5c(F)c(F)c(F)c(F)c5F)c5ccc2[nH]5)C=C4)C=C3)cc1
REMARK SMILES IDX 21 1 20 2 18 3 19 4 17 6 12 7 13 8 14 9 16 10 10 11 11 12
REMARK SMILES IDX 9 13 8 14 7 15 1 16 2 17 3 18 4 19 6 20 5 21 15 22 22 24
REMARK SMILES IDX 23 25 24 26 25 27 26 29 27 30 28 31 89 32 29 33 88 34 30 35
REMARK SMILES IDX 31 36 32 37 82 38 33 39 87 40 81 41 83 42 34 43 86 44 80 45
REMARK SMILES IDX 79 46 35 48 67 49 47 50 66 51 48 52 51 53 65 54 84 55 49 56
REMARK SMILES IDX 50 57 64 59 85 60 52 61 36 62 37 63 45 64 38 65 39 66 43 67
REMARK SMILES IDX 46 68 40 69 41 70 44 71 42 72 68 73 69 74 77 75 70 76 71 77
REMARK SMILES IDX 75 78 78 79 72 80 73 81 76 82 74 83 53 84 54 85 62 86 55 87
REMARK SMILES IDX 56 88 60 89 63 90 57 91 58 92 61 93 59 94
REMARK H PARENT 20 5 15 23 24 28 83 47 51 58
REMARK Flexibility Score: inf
ROOT
ATOM      1  C   UNL A   1      31.940  29.925  25.730  1.00  0.00     0.117 C 
ENDROOT
BRANCH   1   2
ATOM      2  N   UNL A   1      32.861  29.696  24.632  1.00  0.00    -0.354 N 
ATOM      3  C   UNL A   1      32.980  28.660  23.752  1.00  0.00     0.242 C 
ATOM      4  O   UNL A   1      33.711  28.857  22.773  1.00  0.00    -0.273 OA
ATOM      5  H   UNL A   1      33.518  30.418  24.498  1.00  0.00     0.163 HD
BRANCH   3   6
ATOM      6  C   UNL A   1      32.140  27.366  23.843  1.00  0.00     0.177 C 
ATOM      7  N   UNL A   1      32.094  26.689  25.141  1.00  0.00    -0.325 N 
ATOM      8  C   UNL A   1      30.734  26.546  25.634  1.00  0.00     0.152 C 
ATOM      9  C   UNL A   1      29.856  26.746  24.401  1.00  0.00     0.136 C 
ATOM     10  C   UNL A   1      30.679  27.596  23.436  1.00  0.00     0.069 C 
BRANCH   7  11
ATOM     11  C   UNL A   1      33.224  26.056  25.624  1.00  0.00     0.261 C 
ATOM     12  O   UNL A   1      34.165  26.702  26.093  1.00  0.00    -0.271 OA
BRANCH  11  13
ATOM     13  C   UNL A   1      33.349  24.533  25.464  1.00  0.00     0.329 C 
BRANCH  13  14
ATOM     14  O   UNL A   1      34.202  23.811  26.313  1.00  0.00    -0.484 OA
BRANCH  14  15
ATOM     15  C   UNL A   1      35.226  23.026  25.883  1.00  0.00     0.122 A 
ATOM     16  C   UNL A   1      34.038  20.857  25.105  1.00  0.00     0.048 C 
ATOM     17  C   UNL A   1      35.234  21.733  25.341  1.00  0.00    -0.009 A 
ATOM     18  C   UNL A   1      36.476  21.193  24.932  1.00  0.00     0.007 A 
ATOM     19  C   UNL A   1      37.674  21.893  25.071  1.00  0.00     0.001 A 
ATOM     20  C   UNL A   1      36.450  23.705  26.047  1.00  0.00     0.047 A 
ATOM     21  C   UNL A   1      37.662  23.152  25.644  1.00  0.00     0.004 A 
ENDBRANCH  14  15
ENDBRANCH  13  14
ENDBRANCH  11  13
ENDBRANCH   7  11
BRANCH   9  22
ATOM     22  O   UNL A   1      29.558  25.489  23.798  1.00  0.00    -0.391 OA
ATOM     23  H   UNL A   1      29.942  24.776  24.331  1.00  0.00     0.211 HD
ENDBRANCH   9  22
ENDBRANCH   3   6
ENDBRANCH   1   2
BRANCH   1  24
ATOM     24  C   UNL A   1      32.469  30.919  26.746  1.00  0.00     0.042 C 
BRANCH  24  25
ATOM     25  C   UNL A   1      33.679  30.404  27.508  1.00  0.00     0.118 C 
BRANCH  25  26
ATOM     26  N   UNL A   1      34.293  31.403  28.382  1.00  0.00    -0.352 N 
ATOM     27  C   UNL A   1      35.491  31.336  29.077  1.00  0.00     0.251 C 
ATOM     28  H   UNL A   1      33.787  32.240  28.492  1.00  0.00     0.163 HD
ATOM     29  O   UNL A   1      35.878  32.271  29.755  1.00  0.00    -0.269 OA
BRANCH  27  30
ATOM     30  C   UNL A   1      36.353  30.149  28.873  1.00  0.00     0.039 A 
ATOM     31  C   UNL A   1      36.613  29.327  29.974  1.00  0.00     0.014 A 
ATOM     32  C   UNL A   1      37.084  30.015  27.698  1.00  0.00     0.014 A 
ATOM     33  C   UNL A   1      37.775  28.563  29.984  1.00  0.00     0.010 A 
ATOM     34  C   UNL A   1      38.293  29.356  27.751  1.00  0.00     0.010 A 
ATOM     35  C   UNL A   1      38.669  28.691  28.923  1.00  0.00    -0.014 A 
BRANCH  35  36
ATOM     36  C   UNL A   1      40.062  28.265  28.998  1.00  0.00     0.031 A 
ATOM     37  C   UNL A   1      40.460  26.930  28.511  1.00  0.00     0.074 A 
ATOM     38  C   UNL A   1      40.994  29.147  29.424  1.00  0.00     0.049 A 
ATOM     39  N   UNL A   1      41.551  26.327  28.844  1.00  0.00    -0.248 NA
ATOM     40  C   UNL A   1      39.612  26.137  27.631  1.00  0.00     0.031 C 
ATOM     41  C   UNL A   1      42.445  29.042  29.296  1.00  0.00     0.029 A 
ATOM     42  N   UNL A   1      40.799  30.262  30.261  1.00  0.00    -0.354 N 
ATOM     43  C   UNL A   1      41.680  25.215  28.043  1.00  0.00     0.074 A 
ATOM     44  C   UNL A   1      40.419  25.112  27.346  1.00  0.00     0.031 C 
ATOM     45  C   UNL A   1      43.018  29.814  30.233  1.00  0.00     0.029 A 
ATOM     46  C   UNL A   1      41.950  30.311  31.082  1.00  0.00     0.049 A 
ATOM     47  H   UNL A   1      40.029  30.875  30.273  1.00  0.00     0.167 HD
ATOM     48  C   UNL A   1      42.889  24.584  27.973  1.00  0.00     0.037 A 
ATOM     49  C   UNL A   1      41.877  30.120  32.432  1.00  0.00     0.037 A 
ATOM     50  C   UNL A   1      43.842  25.174  28.909  1.00  0.00     0.049 A 
ATOM     51  C   UNL A   1      42.737  28.987  32.936  1.00  0.00     0.074 A 
ATOM     52  C   UNL A   1      44.838  26.125  28.756  1.00  0.00     0.029 A 
ATOM     53  N   UNL A   1      43.634  25.038  30.277  1.00  0.00    -0.354 N 
ATOM     54  N   UNL A   1      43.144  27.999  32.189  1.00  0.00    -0.248 NA
ATOM     55  C   UNL A   1      43.171  28.858  34.324  1.00  0.00     0.031 C 
ATOM     56  C   UNL A   1      45.191  26.601  30.043  1.00  0.00     0.029 A 
ATOM     57  C   UNL A   1      44.429  25.922  30.976  1.00  0.00     0.049 A 
ATOM     58  H   UNL A   1      43.006  24.400  30.688  1.00  0.00     0.167 HD
ATOM     59  C   UNL A   1      43.865  27.119  32.954  1.00  0.00     0.074 A 
ATOM     60  C   UNL A   1      43.864  27.706  34.280  1.00  0.00     0.031 C 
ATOM     61  C   UNL A   1      44.392  25.974  32.428  1.00  0.00     0.037 A 
BRANCH  48  62
ATOM     62  C   UNL A   1      43.289  23.647  26.851  1.00  0.00     0.064 A 
ATOM     63  C   UNL A   1      42.869  22.297  26.853  1.00  0.00     0.173 A 
ATOM     64  C   UNL A   1      44.139  23.991  25.786  1.00  0.00     0.173 A 
ATOM     65  F   UNL A   1      41.960  21.846  27.726  1.00  0.00    -0.203 F 
ATOM     66  C   UNL A   1      43.370  21.352  25.953  1.00  0.00     0.198 A 
ATOM     67  C   UNL A   1      44.688  23.036  24.922  1.00  0.00     0.198 A 
ATOM     68  F   UNL A   1      44.420  25.269  25.505  1.00  0.00    -0.203 F 
ATOM     69  F   UNL A   1      42.942  20.083  26.014  1.00  0.00    -0.200 F 
ATOM     70  C   UNL A   1      44.315  21.712  25.016  1.00  0.00     0.200 A 
ATOM     71  F   UNL A   1      45.581  23.414  23.995  1.00  0.00    -0.200 F 
ATOM     72  F   UNL A   1      44.836  20.798  24.188  1.00  0.00    -0.200 F 
ENDBRANCH  48  62
BRANCH  49  73
ATOM     73  C   UNL A   1      40.567  30.514  33.018  1.00  0.00     0.064 A 
ATOM     74  C   UNL A   1      40.252  31.884  33.105  1.00  0.00     0.173 A 
ATOM     75  C   UNL A   1      39.516  29.600  33.142  1.00  0.00     0.173 A 
ATOM     76  F   UNL A   1      41.224  32.804  32.993  1.00  0.00    -0.203 F 
ATOM     77  C   UNL A   1      38.932  32.321  33.188  1.00  0.00     0.198 A 
ATOM     78  C   UNL A   1      38.194  30.042  33.244  1.00  0.00     0.198 A 
ATOM     79  F   UNL A   1      39.745  28.282  33.050  1.00  0.00    -0.203 F 
ATOM     80  F   UNL A   1      38.658  33.633  33.146  1.00  0.00    -0.200 F 
ATOM     81  C   UNL A   1      37.903  31.398  33.231  1.00  0.00     0.200 A 
ATOM     82  F   UNL A   1      37.192  29.150  33.251  1.00  0.00    -0.200 F 
ATOM     83  F   UNL A   1      36.627  31.813  33.212  1.00  0.00    -0.200 F 
ENDBRANCH  49  73
BRANCH  61  84
ATOM     84  C   UNL A   1      45.003  24.838  33.208  1.00  0.00     0.064 A 
ATOM     85  C   UNL A   1      44.329  23.642  33.504  1.00  0.00     0.173 A 
ATOM     86  C   UNL A   1      46.378  24.864  33.550  1.00  0.00     0.173 A 
ATOM     87  F   UNL A   1      43.058  23.448  33.130  1.00  0.00    -0.203 F 
ATOM     88  C   UNL A   1      44.965  22.575  34.146  1.00  0.00     0.198 A 
ATOM     89  C   UNL A   1      47.023  23.777  34.138  1.00  0.00     0.198 A 
ATOM     90  F   UNL A   1      47.142  25.938  33.299  1.00  0.00    -0.203 F 
ATOM     91  F   UNL A   1      44.269  21.469  34.440  1.00  0.00    -0.200 F 
ATOM     92  C   UNL A   1      46.313  22.638  34.449  1.00  0.00     0.200 A 
ATOM     93  F   UNL A   1      48.340  23.835  34.377  1.00  0.00    -0.200 F 
ATOM     94  F   UNL A   1      46.930  21.593  35.018  1.00  0.00    -0.200 F 
ENDBRANCH  61  84
ENDBRANCH  35  36
ENDBRANCH  27  30
ENDBRANCH  25  26
ENDBRANCH  24  25
ENDBRANCH   1  24
TORSDOF 15
ENDMDL
MODEL 3
REMARK VINA RESULT:     -13.1      3.806      9.925
REMARK SMILES Cc1ccccc1OCC(=O)N1C[C@H](O)C[C@H]1C(=O)NCCCNC(=O)c1ccc(-c2c3nc(c(-c4c(F)c(F)c(F)c(F)c4F)c4ccc([nH]4)c(-c4c(F)c(F)c(F)c(F)c4F)c4nc(c(-c5c(F)c(F)c(F)c(F)c5F)c5ccc2[nH]5)C=C4)C=C3)cc1
REMARK SMILES IDX 21 1 20 2 18 3 19 4 17 6 12 7 13 8 14 9 16 10 10 11 11 12
REMARK SMILES IDX 9 13 8 14 7 15 1 16 2 17 3 18 4 19 6 20 5 21 15 22 22 24
REMARK SMILES IDX 23 25 24 26 25 27 26 29 27 30 28 31 89 32 29 33 88 34 30 35
REMARK SMILES IDX 31 36 32 37 82 38 33 39 87 40 81 41 83 42 34 43 86 44 80 45
REMARK SMILES IDX 79 46 35 48 67 49 47 50 66 51 48 52 51 53 65 54 84 55 49 56
REMARK SMILES IDX 50 57 64 59 85 60 52 61 36 62 37 63 45 64 38 65 39 66 43 67
REMARK SMILES IDX 46 68 40 69 41 70 44 71 42 72 68 73 69 74 77 75 70 76 71 77
REMARK SMILES IDX 75 78 78 79 72 80 73 81 76 82 74 83 53 84 54 85 62 86 55 87
REMARK SMILES IDX 56 88 60 89 63 90 57 91 58 92 61 93 59 94
REMARK H PARENT 20 5 15 23 24 28 83 47 51 58
REMARK Flexibility Score: inf
ROOT
ATOM      1  C   UNL A   1      36.337  21.453  24.983  1.00  0.00     0.117 C 
ENDROOT
BRANCH   1   2
ATOM      2  N   UNL A   1      35.547  21.455  26.200  1.00  0.00    -0.354 N 
ATOM      3  C   UNL A   1      34.240  21.770  26.430  1.00  0.00     0.242 C 
ATOM      4  O   UNL A   1      33.787  21.447  27.535  1.00  0.00    -0.273 OA
ATOM      5  H   UNL A   1      36.044  21.180  27.005  1.00  0.00     0.163 HD
BRANCH   3   6
ATOM      6  C   UNL A   1      33.300  22.342  25.344  1.00  0.00     0.177 C 
ATOM      7  N   UNL A   1      33.851  23.367  24.455  1.00  0.00    -0.325 N 
ATOM      8  C   UNL A   1      33.769  22.978  23.057  1.00  0.00     0.152 C 
ATOM      9  C   UNL A   1      32.729  21.859  23.031  1.00  0.00     0.136 C 
ATOM     10  C   UNL A   1      32.741  21.246  24.428  1.00  0.00     0.069 C 
BRANCH   7  11
ATOM     11  C   UNL A   1      34.134  24.626  24.952  1.00  0.00     0.261 C 
ATOM     12  O   UNL A   1      35.166  24.840  25.593  1.00  0.00    -0.271 OA
BRANCH  11  13
ATOM     13  C   UNL A   1      33.087  25.739  24.798  1.00  0.00     0.329 C 
BRANCH  13  14
ATOM     14  O   UNL A   1      33.500  27.050  24.516  1.00  0.00    -0.484 OA
BRANCH  14  15
ATOM     15  C   UNL A   1      33.135  28.141  25.241  1.00  0.00     0.122 A 
ATOM     16  C   UNL A   1      31.023  29.004  24.010  1.00  0.00     0.048 C 
ATOM     17  C   UNL A   1      32.068  29.038  25.088  1.00  0.00    -0.009 A 
ATOM     18  C   UNL A   1      31.918  30.063  26.052  1.00  0.00     0.007 A 
ATOM     19  C   UNL A   1      32.801  30.213  27.120  1.00  0.00     0.001 A 
ATOM     20  C   UNL A   1      34.036  28.329  26.308  1.00  0.00     0.047 A 
ATOM     21  C   UNL A   1      33.874  29.348  27.242  1.00  0.00     0.004 A 
ENDBRANCH  14  15
ENDBRANCH  13  14
ENDBRANCH  11  13
ENDBRANCH   7  11
BRANCH   9  22
ATOM     22  O   UNL A   1      31.436  22.394  22.753  1.00  0.00    -0.391 OA
ATOM     23  H   UNL A   1      30.877  21.702  22.367  1.00  0.00     0.211 HD
ENDBRANCH   9  22
ENDBRANCH   3   6
ENDBRANCH   1   2
BRANCH   1  24
ATOM     24  C   UNL A   1      37.831  21.410  25.248  1.00  0.00     0.042 C 
BRANCH  24  25
ATOM     25  C   UNL A   1      38.375  22.715  25.805  1.00  0.00     0.118 C 
BRANCH  25  26
ATOM     26  N   UNL A   1      39.800  22.668  26.127  1.00  0.00    -0.352 N 
ATOM     27  C   UNL A   1      40.619  23.679  26.606  1.00  0.00     0.251 C 
ATOM     28  H   UNL A   1      40.240  21.799  25.986  1.00  0.00     0.163 HD
ATOM     29  O   UNL A   1      41.796  23.474  26.847  1.00  0.00    -0.269 OA
BRANCH  27  30
ATOM     30  C   UNL A   1      40.002  24.982  26.941  1.00  0.00     0.039 A 
ATOM     31  C   UNL A   1      40.443  26.117  26.253  1.00  0.00     0.014 A 
ATOM     32  C   UNL A   1      39.209  25.104  28.077  1.00  0.00     0.014 A 
ATOM     33  C   UNL A   1      40.313  27.363  26.856  1.00  0.00     0.010 A 
ATOM     34  C   UNL A   1      39.186  26.316  28.732  1.00  0.00     0.010 A 
ATOM     35  C   UNL A   1      39.803  27.429  28.152  1.00  0.00    -0.014 A 
BRANCH  35  36
ATOM     36  C   UNL A   1      39.981  28.588  29.019  1.00  0.00     0.031 A 
ATOM     37  C   UNL A   1      38.934  29.625  29.101  1.00  0.00     0.074 A 
ATOM     38  C   UNL A   1      41.068  28.644  29.821  1.00  0.00     0.049 A 
ATOM     39  N   UNL A   1      39.126  30.823  29.537  1.00  0.00    -0.248 NA
ATOM     40  C   UNL A   1      37.572  29.394  28.640  1.00  0.00     0.031 C 
ATOM     41  C   UNL A   1      41.292  29.533  30.958  1.00  0.00     0.029 A 
ATOM     42  N   UNL A   1      42.310  28.010  29.627  1.00  0.00    -0.354 N 
ATOM     43  C   UNL A   1      37.896  31.430  29.662  1.00  0.00     0.074 A 
ATOM     44  C   UNL A   1      36.968  30.517  29.038  1.00  0.00     0.031 C 
ATOM     45  C   UNL A   1      42.613  29.637  31.172  1.00  0.00     0.029 A 
ATOM     46  C   UNL A   1      43.273  28.941  30.082  1.00  0.00     0.049 A 
ATOM     47  H   UNL A   1      42.472  27.114  29.255  1.00  0.00     0.167 HD
ATOM     48  C   UNL A   1      37.794  32.578  30.394  1.00  0.00     0.037 A 
ATOM     49  C   UNL A   1      44.181  29.508  29.234  1.00  0.00     0.037 A 
ATOM     50  C   UNL A   1      39.109  33.039  30.833  1.00  0.00     0.049 A 
ATOM     51  C   UNL A   1      44.134  31.016  29.209  1.00  0.00     0.074 A 
ATOM     52  C   UNL A   1      39.809  32.880  32.018  1.00  0.00     0.029 A 
ATOM     53  N   UNL A   1      40.026  33.492  29.891  1.00  0.00    -0.354 N 
ATOM     54  N   UNL A   1      43.092  31.715  29.563  1.00  0.00    -0.248 NA
ATOM     55  C   UNL A   1      45.240  31.851  28.750  1.00  0.00     0.031 C 
ATOM     56  C   UNL A   1      41.169  33.192  31.770  1.00  0.00     0.029 A 
ATOM     57  C   UNL A   1      41.289  33.562  30.443  1.00  0.00     0.049 A 
ATOM     58  H   UNL A   1      39.805  33.729  28.961  1.00  0.00     0.167 HD
ATOM     59  C   UNL A   1      43.357  33.047  29.385  1.00  0.00     0.074 A 
ATOM     60  C   UNL A   1      44.718  33.083  28.886  1.00  0.00     0.031 C 
ATOM     61  C   UNL A   1      42.425  34.008  29.655  1.00  0.00     0.037 A 
BRANCH  48  62
ATOM     62  C   UNL A   1      36.492  33.105  30.962  1.00  0.00     0.064 A 
ATOM     63  C   UNL A   1      35.581  33.812  30.144  1.00  0.00     0.173 A 
ATOM     64  C   UNL A   1      36.112  33.011  32.312  1.00  0.00     0.173 A 
ATOM     65  F   UNL A   1      35.736  33.881  28.817  1.00  0.00    -0.203 F 
ATOM     66  C   UNL A   1      34.469  34.483  30.663  1.00  0.00     0.198 A 
ATOM     67  C   UNL A   1      35.034  33.730  32.842  1.00  0.00     0.198 A 
ATOM     68  F   UNL A   1      36.731  32.173  33.152  1.00  0.00    -0.203 F 
ATOM     69  F   UNL A   1      33.649  35.148  29.837  1.00  0.00    -0.200 F 
ATOM     70  C   UNL A   1      34.221  34.480  32.019  1.00  0.00     0.200 A 
ATOM     71  F   UNL A   1      34.790  33.686  34.160  1.00  0.00    -0.200 F 
ATOM     72  F   UNL A   1      33.187  35.165  32.524  1.00  0.00    -0.200 F 
ENDBRANCH  48  62
BRANCH  49  73
ATOM     73  C   UNL A   1      44.514  28.653  28.063  1.00  0.00     0.064 A 
ATOM     74  C   UNL A   1      45.306  27.505  28.270  1.00  0.00     0.173 A 
ATOM     75  C   UNL A   1      43.793  28.733  26.867  1.00  0.00     0.173 A 
ATOM     76  F   UNL A   1      46.019  27.377  29.401  1.00  0.00    -0.203 F 
ATOM     77  C   UNL A   1      45.278  26.435  27.379  1.00  0.00     0.198 A 
ATOM     78  C   UNL A   1      43.783  27.665  25.966  1.00  0.00     0.198 A 
ATOM     79  F   UNL A   1      43.006  29.790  26.616  1.00  0.00    -0.203 F 
ATOM     80  F   UNL A   1      45.947  25.309  27.665  1.00  0.00    -0.200 F 
ATOM     81  C   UNL A   1      44.496  26.506  26.240  1.00  0.00     0.200 A 
ATOM     82  F   UNL A   1      42.998  27.717  24.880  1.00  0.00    -0.200 F 
ATOM     83  F   UNL A   1      44.389  25.443  25.430  1.00  0.00    -0.200 F 
ENDBRANCH  49  73
BRANCH  61  84
ATOM     84  C   UNL A   1      42.524  35.469  29.292  1.00  0.00     0.064 A 
ATOM     85  C   UNL A   1      43.335  36.390  29.973  1.00  0.00     0.173 A 
ATOM     86  C   UNL A   1      41.904  35.955  28.114  1.00  0.00     0.173 A 
ATOM     87  F   UNL A   1      44.065  36.024  31.035  1.00  0.00    -0.203 F 
ATOM     88  C   UNL A   1      43.471  37.713  29.543  1.00  0.00     0.198 A 
ATOM     89  C   UNL A   1      42.087  37.259  27.657  1.00  0.00     0.198 A 
ATOM     90  F   UNL A   1      41.122  35.169  27.358  1.00  0.00    -0.203 F 
ATOM     91  F   UNL A   1      44.228  38.565  30.248  1.00  0.00    -0.200 F 
ATOM     92  C   UNL A   1      42.859  38.143  28.379  1.00  0.00     0.200 A 
ATOM     93  F   UNL A   1      41.530  37.643  26.500  1.00  0.00    -0.200 F 
ATOM     94  F   UNL A   1      43.033  39.398  27.944  1.00  0.00    -0.200 F 
ENDBRANCH  61  84
ENDBRANCH  35  36
ENDBRANCH  27  30
ENDBRANCH  25  26
ENDBRANCH  24  25
ENDBRANCH   1  24
TORSDOF 15
ENDMDL
