MODEL 1
REMARK VINA RESULT:     -11.7      0.000      0.000
REMARK SMILES CNC(=O)C[N@H+]1CC[C@@H](C(=O)NCCCNC(=O)c2ccc(-c3c4nc(c(-c5c(F)c(F)c(F)c(F)c5F)c5ccc([nH]5)c(-c5c(F)c(F)c(F)c(F)c5F)c5nc(c(-c6c(F)c(F)c(F)c(F)c6F)c6ccc3[nH]6)C=C5)C=C4)cc2)[C@H]1C
REMARK SMILES IDX 14 1 13 2 12 3 10 4 11 5 9 7 6 8 7 9 82 10 8 12 83 13 5 14
REMARK SMILES IDX 3 15 1 16 2 17 4 19 15 20 16 21 17 22 18 24 19 25 20 26
REMARK SMILES IDX 81 27 21 28 80 29 22 30 23 31 24 32 74 33 25 34 79 35 73 36
REMARK SMILES IDX 75 37 26 38 78 39 72 40 71 41 27 43 59 44 39 45 58 46 40 47
REMARK SMILES IDX 43 48 57 49 76 50 41 51 42 52 56 54 77 55 44 56 28 57 29 58
REMARK SMILES IDX 37 59 30 60 31 61 35 62 38 63 32 64 33 65 36 66 34 67 60 68
REMARK SMILES IDX 61 69 69 70 62 71 63 72 67 73 70 74 64 75 65 76 68 77 66 78
REMARK SMILES IDX 45 79 46 80 54 81 47 82 48 83 52 84 55 85 49 86 50 87 53 88
REMARK SMILES IDX 51 89
REMARK H PARENT 12 6 6 11 2 18 16 23 75 42 43 53
REMARK Flexibility Score: inf
ROOT
ATOM      1  C   UNL A   1      31.312  32.278  26.506  1.00  0.00     0.042 C 
ENDROOT
BRANCH   1   2
ATOM      2  C   UNL A   1      31.459  30.824  26.068  1.00  0.00     0.117 C 
BRANCH   2   3
ATOM      3  N   UNL A   1      32.761  30.275  26.413  1.00  0.00    -0.356 N 
ATOM      4  C   UNL A   1      33.283  29.026  26.328  1.00  0.00     0.229 C 
ATOM      5  O   UNL A   1      34.418  28.876  26.791  1.00  0.00    -0.275 OA
ATOM      6  H   UNL A   1      33.386  30.941  26.780  1.00  0.00     0.163 HD
BRANCH   4   7
ATOM      7  C   UNL A   1      32.559  27.845  25.705  1.00  0.00     0.142 C 
ATOM      8  N   UNL A   1      32.727  26.110  24.037  1.00  0.00    -0.324 N 
ATOM      9  C   UNL A   1      32.566  25.469  25.342  1.00  0.00     0.263 C 
ATOM     10  C   UNL A   1      32.714  27.579  24.199  1.00  0.00     0.194 C 
ATOM     11  H   UNL A   1      31.923  25.944  23.431  1.00  0.00     0.348 HD
ATOM     12  C   UNL A   1      32.766  26.520  26.413  1.00  0.00     0.081 C 
ATOM     13  C   UNL A   1      33.761  28.402  23.453  1.00  0.00     0.076 C 
BRANCH   8  14
ATOM     14  C   UNL A   1      33.775  25.475  23.226  1.00  0.00     0.363 C 
BRANCH  14  15
ATOM     15  C   UNL A   1      33.277  24.994  21.859  1.00  0.00     0.274 C 
ATOM     16  C   UNL A   1      32.822  22.648  22.678  1.00  0.00     0.143 C 
ATOM     17  N   UNL A   1      32.873  23.700  21.692  1.00  0.00    -0.354 N 
ATOM     18  H   UNL A   1      32.580  23.455  20.785  1.00  0.00     0.163 HD
ATOM     19  O   UNL A   1      33.277  25.744  20.879  1.00  0.00    -0.269 OA
ENDBRANCH  14  15
ENDBRANCH   8  14
ENDBRANCH   4   7
ENDBRANCH   2   3
ENDBRANCH   1   2
BRANCH   1  20
ATOM     20  C   UNL A   1      32.513  32.840  27.250  1.00  0.00     0.118 C 
BRANCH  20  21
ATOM     21  N   UNL A   1      32.341  34.232  27.626  1.00  0.00    -0.352 N 
ATOM     22  C   UNL A   1      32.964  34.961  28.611  1.00  0.00     0.251 C 
ATOM     23  H   UNL A   1      31.677  34.730  27.094  1.00  0.00     0.163 HD
ATOM     24  O   UNL A   1      32.542  36.076  28.902  1.00  0.00    -0.269 OA
BRANCH  22  25
ATOM     25  C   UNL A   1      34.127  34.406  29.344  1.00  0.00     0.039 A 
ATOM     26  C   UNL A   1      33.909  33.722  30.544  1.00  0.00     0.014 A 
ATOM     27  C   UNL A   1      35.431  34.579  28.874  1.00  0.00     0.014 A 
ATOM     28  C   UNL A   1      34.988  33.159  31.232  1.00  0.00     0.010 A 
ATOM     29  C   UNL A   1      36.490  33.932  29.504  1.00  0.00     0.010 A 
ATOM     30  C   UNL A   1      36.285  33.230  30.700  1.00  0.00    -0.014 A 
BRANCH  30  31
ATOM     31  C   UNL A   1      37.453  32.620  31.389  1.00  0.00     0.031 A 
ATOM     32  C   UNL A   1      38.184  31.474  30.743  1.00  0.00     0.074 A 
ATOM     33  C   UNL A   1      37.805  33.033  32.621  1.00  0.00     0.049 A 
ATOM     34  N   UNL A   1      39.136  30.715  31.226  1.00  0.00    -0.248 NA
ATOM     35  C   UNL A   1      37.759  31.107  29.383  1.00  0.00     0.031 C 
ATOM     36  C   UNL A   1      37.158  34.107  33.373  1.00  0.00     0.029 A 
ATOM     37  N   UNL A   1      38.789  32.582  33.466  1.00  0.00    -0.354 N 
ATOM     38  C   UNL A   1      39.396  29.766  30.246  1.00  0.00     0.074 A 
ATOM     39  C   UNL A   1      38.467  30.011  29.164  1.00  0.00     0.031 C 
ATOM     40  C   UNL A   1      37.775  34.249  34.557  1.00  0.00     0.029 A 
ATOM     41  C   UNL A   1      38.832  33.247  34.666  1.00  0.00     0.049 A 
ATOM     42  H   UNL A   1      39.408  31.851  33.233  1.00  0.00     0.167 HD
ATOM     43  C   UNL A   1      40.337  28.792  30.238  1.00  0.00     0.037 A 
ATOM     44  C   UNL A   1      39.627  33.064  35.738  1.00  0.00     0.037 A 
ATOM     45  C   UNL A   1      41.287  28.578  31.298  1.00  0.00     0.049 A 
ATOM     46  C   UNL A   1      40.667  31.977  35.707  1.00  0.00     0.074 A 
ATOM     47  C   UNL A   1      42.325  27.666  31.355  1.00  0.00     0.029 A 
ATOM     48  N   UNL A   1      41.311  29.289  32.489  1.00  0.00    -0.354 N 
ATOM     49  N   UNL A   1      40.943  31.121  34.753  1.00  0.00    -0.248 NA
ATOM     50  C   UNL A   1      41.509  31.833  36.903  1.00  0.00     0.031 C 
ATOM     51  C   UNL A   1      42.952  27.795  32.600  1.00  0.00     0.029 A 
ATOM     52  C   UNL A   1      42.335  28.822  33.298  1.00  0.00     0.049 A 
ATOM     53  H   UNL A   1      40.693  30.017  32.725  1.00  0.00     0.167 HD
ATOM     54  C   UNL A   1      42.005  30.359  35.218  1.00  0.00     0.074 A 
ATOM     55  C   UNL A   1      42.332  30.859  36.538  1.00  0.00     0.031 C 
ATOM     56  C   UNL A   1      42.654  29.338  34.605  1.00  0.00     0.037 A 
BRANCH  43  57
ATOM     57  C   UNL A   1      40.378  27.884  29.042  1.00  0.00     0.064 A 
ATOM     58  C   UNL A   1      41.141  28.191  27.904  1.00  0.00     0.173 A 
ATOM     59  C   UNL A   1      39.648  26.685  29.035  1.00  0.00     0.173 A 
ATOM     60  F   UNL A   1      41.849  29.329  27.855  1.00  0.00    -0.203 F 
ATOM     61  C   UNL A   1      41.135  27.358  26.789  1.00  0.00     0.198 A 
ATOM     62  C   UNL A   1      39.671  25.837  27.931  1.00  0.00     0.198 A 
ATOM     63  F   UNL A   1      38.907  26.336  30.098  1.00  0.00    -0.203 F 
ATOM     64  F   UNL A   1      41.818  27.707  25.691  1.00  0.00    -0.200 F 
ATOM     65  C   UNL A   1      40.405  26.179  26.804  1.00  0.00     0.200 A 
ATOM     66  F   UNL A   1      38.976  24.691  27.953  1.00  0.00    -0.200 F 
ATOM     67  F   UNL A   1      40.399  25.379  25.730  1.00  0.00    -0.200 F 
ENDBRANCH  43  57
BRANCH  44  68
ATOM     68  C   UNL A   1      39.492  33.957  36.917  1.00  0.00     0.064 A 
ATOM     69  C   UNL A   1      38.735  33.562  38.028  1.00  0.00     0.173 A 
ATOM     70  C   UNL A   1      40.124  35.208  36.967  1.00  0.00     0.173 A 
ATOM     71  F   UNL A   1      38.094  32.384  38.015  1.00  0.00    -0.203 F 
ATOM     72  C   UNL A   1      38.607  34.387  39.143  1.00  0.00     0.198 A 
ATOM     73  C   UNL A   1      40.016  36.022  38.094  1.00  0.00     0.198 A 
ATOM     74  F   UNL A   1      40.860  35.631  35.930  1.00  0.00    -0.203 F 
ATOM     75  F   UNL A   1      37.849  34.000  40.177  1.00  0.00    -0.200 F 
ATOM     76  C   UNL A   1      39.254  35.614  39.178  1.00  0.00     0.200 A 
ATOM     77  F   UNL A   1      40.650  37.202  38.128  1.00  0.00    -0.200 F 
ATOM     78  F   UNL A   1      39.137  36.403  40.254  1.00  0.00    -0.200 F 
ENDBRANCH  44  68
BRANCH  56  79
ATOM     79  C   UNL A   1      43.812  28.720  35.334  1.00  0.00     0.064 A 
ATOM     80  C   UNL A   1      45.117  29.214  35.198  1.00  0.00     0.173 A 
ATOM     81  C   UNL A   1      43.601  27.650  36.217  1.00  0.00     0.173 A 
ATOM     82  F   UNL A   1      45.373  30.226  34.356  1.00  0.00    -0.203 F 
ATOM     83  C   UNL A   1      46.173  28.643  35.904  1.00  0.00     0.198 A 
ATOM     84  C   UNL A   1      44.655  27.101  36.942  1.00  0.00     0.198 A 
ATOM     85  F   UNL A   1      42.370  27.146  36.387  1.00  0.00    -0.203 F 
ATOM     86  F   UNL A   1      47.421  29.102  35.726  1.00  0.00    -0.200 F 
ATOM     87  C   UNL A   1      45.940  27.594  36.780  1.00  0.00     0.200 A 
ATOM     88  F   UNL A   1      44.425  26.096  37.798  1.00  0.00    -0.200 F 
ATOM     89  F   UNL A   1      46.957  27.052  37.465  1.00  0.00    -0.200 F 
ENDBRANCH  56  79
ENDBRANCH  30  31
ENDBRANCH  22  25
ENDBRANCH  20  21
ENDBRANCH   1  20
TORSDOF 12
ENDMDL
MODEL 2
REMARK VINA RESULT:     -11.6      0.179      1.180
REMARK SMILES CNC(=O)C[N@H+]1CC[C@@H](C(=O)NCCCNC(=O)c2ccc(-c3c4nc(c(-c5c(F)c(F)c(F)c(F)c5F)c5ccc([nH]5)c(-c5c(F)c(F)c(F)c(F)c5F)c5nc(c(-c6c(F)c(F)c(F)c(F)c6F)c6ccc3[nH]6)C=C5)C=C4)cc2)[C@H]1C
REMARK SMILES IDX 14 1 13 2 12 3 10 4 11 5 9 7 6 8 7 9 82 10 8 12 83 13 5 14
REMARK SMILES IDX 3 15 1 16 2 17 4 19 15 20 16 21 17 22 18 24 19 25 20 26
REMARK SMILES IDX 81 27 21 28 80 29 22 30 23 31 24 32 74 33 25 34 79 35 73 36
REMARK SMILES IDX 75 37 26 38 78 39 72 40 71 41 27 43 59 44 39 45 58 46 40 47
REMARK SMILES IDX 43 48 57 49 76 50 41 51 42 52 56 54 77 55 44 56 28 57 29 58
REMARK SMILES IDX 37 59 30 60 31 61 35 62 38 63 32 64 33 65 36 66 34 67 60 68
REMARK SMILES IDX 61 69 69 70 62 71 63 72 67 73 70 74 64 75 65 76 68 77 66 78
REMARK SMILES IDX 45 79 46 80 54 81 47 82 48 83 52 84 55 85 49 86 50 87 53 88
REMARK SMILES IDX 51 89
REMARK H PARENT 12 6 6 11 2 18 16 23 75 42 43 53
REMARK Flexibility Score: inf
ROOT
ATOM      1  C   UNL A   1      31.342  32.279  26.504  1.00  0.00     0.042 C 
ENDROOT
BRANCH   1   2
ATOM      2  C   UNL A   1      31.510  30.839  26.030  1.00  0.00     0.117 C 
BRANCH   2   3
ATOM      3  N   UNL A   1      32.851  30.333  26.275  1.00  0.00    -0.356 N 
ATOM      4  C   UNL A   1      33.406  29.102  26.145  1.00  0.00     0.229 C 
ATOM      5  O   UNL A   1      34.577  28.988  26.522  1.00  0.00    -0.275 OA
ATOM      6  H   UNL A   1      33.479  31.018  26.599  1.00  0.00     0.163 HD
BRANCH   4   7
ATOM      7  C   UNL A   1      32.678  27.900  25.569  1.00  0.00     0.142 C 
ATOM      8  N   UNL A   1      32.777  26.181  23.879  1.00  0.00    -0.324 N 
ATOM      9  C   UNL A   1      32.740  25.528  25.188  1.00  0.00     0.263 C 
ATOM     10  C   UNL A   1      32.727  27.648  24.054  1.00  0.00     0.194 C 
ATOM     11  H   UNL A   1      31.936  25.990  23.335  1.00  0.00     0.348 HD
ATOM     12  C   UNL A   1      32.986  26.579  26.249  1.00  0.00     0.081 C 
ATOM     13  C   UNL A   1      33.683  28.512  23.237  1.00  0.00     0.076 C 
BRANCH   8  14
ATOM     14  C   UNL A   1      33.781  25.588  22.985  1.00  0.00     0.363 C 
BRANCH  14  15
ATOM     15  C   UNL A   1      33.192  25.069  21.669  1.00  0.00     0.274 C 
ATOM     16  C   UNL A   1      32.822  22.740  22.576  1.00  0.00     0.143 C 
ATOM     17  N   UNL A   1      32.791  23.767  21.564  1.00  0.00    -0.354 N 
ATOM     18  H   UNL A   1      32.436  23.496  20.686  1.00  0.00     0.163 HD
ATOM     19  O   UNL A   1      33.114  25.793  20.674  1.00  0.00    -0.269 OA
ENDBRANCH  14  15
ENDBRANCH   8  14
ENDBRANCH   4   7
ENDBRANCH   2   3
ENDBRANCH   1   2
BRANCH   1  20
ATOM     20  C   UNL A   1      32.544  32.849  27.238  1.00  0.00     0.118 C 
BRANCH  20  21
ATOM     21  N   UNL A   1      32.359  34.235  27.630  1.00  0.00    -0.352 N 
ATOM     22  C   UNL A   1      32.983  34.961  28.618  1.00  0.00     0.251 C 
ATOM     23  H   UNL A   1      31.686  34.731  27.109  1.00  0.00     0.163 HD
ATOM     24  O   UNL A   1      32.550  36.068  28.924  1.00  0.00    -0.269 OA
BRANCH  22  25
ATOM     25  C   UNL A   1      34.157  34.411  29.336  1.00  0.00     0.039 A 
ATOM     26  C   UNL A   1      33.960  33.749  30.552  1.00  0.00     0.014 A 
ATOM     27  C   UNL A   1      35.452  34.568  28.836  1.00  0.00     0.014 A 
ATOM     28  C   UNL A   1      35.050  33.191  31.228  1.00  0.00     0.010 A 
ATOM     29  C   UNL A   1      36.520  33.926  29.455  1.00  0.00     0.010 A 
ATOM     30  C   UNL A   1      36.336  33.246  30.668  1.00  0.00    -0.014 A 
BRANCH  30  31
ATOM     31  C   UNL A   1      37.514  32.641  31.342  1.00  0.00     0.031 A 
ATOM     32  C   UNL A   1      38.246  31.501  30.685  1.00  0.00     0.074 A 
ATOM     33  C   UNL A   1      37.878  33.052  32.572  1.00  0.00     0.049 A 
ATOM     34  N   UNL A   1      39.206  30.746  31.157  1.00  0.00    -0.248 NA
ATOM     35  C   UNL A   1      37.809  31.135  29.329  1.00  0.00     0.031 C 
ATOM     36  C   UNL A   1      37.232  34.120  33.333  1.00  0.00     0.029 A 
ATOM     37  N   UNL A   1      38.873  32.604  33.405  1.00  0.00    -0.354 N 
ATOM     38  C   UNL A   1      39.461  29.801  30.171  1.00  0.00     0.074 A 
ATOM     39  C   UNL A   1      38.521  30.043  29.100  1.00  0.00     0.031 C 
ATOM     40  C   UNL A   1      37.860  34.262  34.511  1.00  0.00     0.029 A 
ATOM     41  C   UNL A   1      38.924  33.267  34.606  1.00  0.00     0.049 A 
ATOM     42  H   UNL A   1      39.493  31.878  33.163  1.00  0.00     0.167 HD
ATOM     43  C   UNL A   1      40.408  28.833  30.150  1.00  0.00     0.037 A 
ATOM     44  C   UNL A   1      39.732  33.085  35.669  1.00  0.00     0.037 A 
ATOM     45  C   UNL A   1      41.371  28.620  31.199  1.00  0.00     0.049 A 
ATOM     46  C   UNL A   1      40.777  32.004  35.624  1.00  0.00     0.074 A 
ATOM     47  C   UNL A   1      42.414  27.715  31.244  1.00  0.00     0.029 A 
ATOM     48  N   UNL A   1      41.403  29.329  32.392  1.00  0.00    -0.354 N 
ATOM     49  N   UNL A   1      41.048  31.152  34.666  1.00  0.00    -0.248 NA
ATOM     50  C   UNL A   1      41.633  31.862  36.811  1.00  0.00     0.031 C 
ATOM     51  C   UNL A   1      43.053  27.844  32.483  1.00  0.00     0.029 A 
ATOM     52  C   UNL A   1      42.438  28.865  33.189  1.00  0.00     0.049 A 
ATOM     53  H   UNL A   1      40.783  30.053  32.637  1.00  0.00     0.167 HD
ATOM     54  C   UNL A   1      42.119  30.395  35.117  1.00  0.00     0.074 A 
ATOM     55  C   UNL A   1      42.457  30.894  36.435  1.00  0.00     0.031 C 
ATOM     56  C   UNL A   1      42.768  29.380  34.494  1.00  0.00     0.037 A 
BRANCH  43  57
ATOM     57  C   UNL A   1      40.442  27.927  28.952  1.00  0.00     0.064 A 
ATOM     58  C   UNL A   1      41.215  28.227  27.819  1.00  0.00     0.173 A 
ATOM     59  C   UNL A   1      39.694  26.740  28.937  1.00  0.00     0.173 A 
ATOM     60  F   UNL A   1      41.940  29.355  27.777  1.00  0.00    -0.203 F 
ATOM     61  C   UNL A   1      41.203  27.398  26.701  1.00  0.00     0.198 A 
ATOM     62  C   UNL A   1      39.711  25.895  27.830  1.00  0.00     0.198 A 
ATOM     63  F   UNL A   1      38.943  26.399  29.995  1.00  0.00    -0.203 F 
ATOM     64  F   UNL A   1      41.897  27.741  25.607  1.00  0.00    -0.200 F 
ATOM     65  C   UNL A   1      40.455  26.231  26.708  1.00  0.00     0.200 A 
ATOM     66  F   UNL A   1      38.998  24.759  27.845  1.00  0.00    -0.200 F 
ATOM     67  F   UNL A   1      40.443  25.434  25.631  1.00  0.00    -0.200 F 
ENDBRANCH  43  57
BRANCH  44  68
ATOM     68  C   UNL A   1      39.604  33.974  36.852  1.00  0.00     0.064 A 
ATOM     69  C   UNL A   1      38.824  33.591  37.951  1.00  0.00     0.173 A 
ATOM     70  C   UNL A   1      40.266  35.209  36.918  1.00  0.00     0.173 A 
ATOM     71  F   UNL A   1      38.153  32.430  37.923  1.00  0.00    -0.203 F 
ATOM     72  C   UNL A   1      38.702  34.413  39.069  1.00  0.00     0.198 A 
ATOM     73  C   UNL A   1      40.164  36.018  38.048  1.00  0.00     0.198 A 
ATOM     74  F   UNL A   1      41.026  35.620  35.893  1.00  0.00    -0.203 F 
ATOM     75  F   UNL A   1      37.921  34.038  40.091  1.00  0.00    -0.200 F 
ATOM     76  C   UNL A   1      39.379  35.623  39.120  1.00  0.00     0.200 A 
ATOM     77  F   UNL A   1      40.827  37.182  38.098  1.00  0.00    -0.200 F 
ATOM     78  F   UNL A   1      39.268  36.408  40.199  1.00  0.00    -0.200 F 
ENDBRANCH  44  68
BRANCH  56  79
ATOM     79  C   UNL A   1      43.937  28.767  35.210  1.00  0.00     0.064 A 
ATOM     80  C   UNL A   1      43.784  27.663  36.060  1.00  0.00     0.173 A 
ATOM     81  C   UNL A   1      45.233  29.264  35.001  1.00  0.00     0.173 A 
ATOM     82  F   UNL A   1      42.565  27.159  36.303  1.00  0.00    -0.203 F 
ATOM     83  C   UNL A   1      44.886  27.092  36.694  1.00  0.00     0.198 A 
ATOM     84  C   UNL A   1      46.334  28.673  35.614  1.00  0.00     0.198 A 
ATOM     85  F   UNL A   1      45.432  30.315  34.192  1.00  0.00    -0.203 F 
ATOM     86  F   UNL A   1      44.712  26.064  37.537  1.00  0.00    -0.200 F 
ATOM     87  C   UNL A   1      46.158  27.592  36.464  1.00  0.00     0.200 A 
ATOM     88  F   UNL A   1      47.564  29.150  35.380  1.00  0.00    -0.200 F 
ATOM     89  F   UNL A   1      47.218  27.036  37.067  1.00  0.00    -0.200 F 
ENDBRANCH  56  79
ENDBRANCH  30  31
ENDBRANCH  22  25
ENDBRANCH  20  21
ENDBRANCH   1  20
TORSDOF 12
ENDMDL
MODEL 3
REMARK VINA RESULT:     -11.6      5.913     11.467
REMARK SMILES CNC(=O)C[N@H+]1CC[C@@H](C(=O)NCCCNC(=O)c2ccc(-c3c4nc(c(-c5c(F)c(F)c(F)c(F)c5F)c5ccc([nH]5)c(-c5c(F)c(F)c(F)c(F)c5F)c5nc(c(-c6c(F)c(F)c(F)c(F)c6F)c6ccc3[nH]6)C=C5)C=C4)cc2)[C@H]1C
REMARK SMILES IDX 14 1 13 2 12 3 10 4 11 5 9 7 6 8 7 9 82 10 8 12 83 13 5 14
REMARK SMILES IDX 3 15 1 16 2 17 4 19 15 20 16 21 17 22 18 24 19 25 20 26
REMARK SMILES IDX 81 27 21 28 80 29 22 30 23 31 24 32 74 33 25 34 79 35 73 36
REMARK SMILES IDX 75 37 26 38 78 39 72 40 71 41 27 43 59 44 39 45 58 46 40 47
REMARK SMILES IDX 43 48 57 49 76 50 41 51 42 52 56 54 77 55 44 56 28 57 29 58
REMARK SMILES IDX 37 59 30 60 31 61 35 62 38 63 32 64 33 65 36 66 34 67 60 68
REMARK SMILES IDX 61 69 69 70 62 71 63 72 67 73 70 74 64 75 65 76 68 77 66 78
REMARK SMILES IDX 45 79 46 80 54 81 47 82 48 83 52 84 55 85 49 86 50 87 53 88
REMARK SMILES IDX 51 89
REMARK H PARENT 12 6 6 11 2 18 16 23 75 42 43 53
REMARK Flexibility Score: inf
ROOT
ATOM      1  C   UNL A   1      37.958  19.554  24.979  1.00  0.00     0.042 C 
ENDROOT
BRANCH   1   2
ATOM      2  C   UNL A   1      36.731  20.459  25.028  1.00  0.00     0.117 C 
BRANCH   2   3
ATOM      3  N   UNL A   1      36.932  21.697  24.292  1.00  0.00    -0.356 N 
ATOM      4  C   UNL A   1      36.072  22.562  23.699  1.00  0.00     0.229 C 
ATOM      5  O   UNL A   1      36.583  23.498  23.073  1.00  0.00    -0.275 OA
ATOM      6  H   UNL A   1      37.877  21.958  24.208  1.00  0.00     0.163 HD
BRANCH   4   7
ATOM      7  C   UNL A   1      34.560  22.441  23.772  1.00  0.00     0.142 C 
ATOM      8  N   UNL A   1      32.559  23.455  24.660  1.00  0.00    -0.324 N 
ATOM      9  C   UNL A   1      32.450  23.439  23.200  1.00  0.00     0.263 C 
ATOM     10  C   UNL A   1      33.837  22.836  25.070  1.00  0.00     0.194 C 
ATOM     11  H   UNL A   1      31.865  22.850  25.099  1.00  0.00     0.348 HD
ATOM     12  C   UNL A   1      33.808  23.094  22.628  1.00  0.00     0.081 C 
ATOM     13  C   UNL A   1      34.670  23.529  26.144  1.00  0.00     0.076 C 
BRANCH   8  14
ATOM     14  C   UNL A   1      32.155  24.744  25.239  1.00  0.00     0.363 C 
BRANCH  14  15
ATOM     15  C   UNL A   1      30.913  24.646  26.131  1.00  0.00     0.274 C 
ATOM     16  C   UNL A   1      29.551  26.192  24.668  1.00  0.00     0.143 C 
ATOM     17  N   UNL A   1      29.780  25.339  25.808  1.00  0.00    -0.354 N 
ATOM     18  H   UNL A   1      29.025  25.242  26.432  1.00  0.00     0.163 HD
ATOM     19  O   UNL A   1      30.925  23.987  27.173  1.00  0.00    -0.269 OA
ENDBRANCH  14  15
ENDBRANCH   8  14
ENDBRANCH   4   7
ENDBRANCH   2   3
ENDBRANCH   1   2
BRANCH   1  20
ATOM     20  C   UNL A   1      39.151  20.061  25.772  1.00  0.00     0.118 C 
BRANCH  20  21
ATOM     21  N   UNL A   1      40.205  19.070  25.899  1.00  0.00    -0.352 N 
ATOM     22  C   UNL A   1      41.557  19.242  26.089  1.00  0.00     0.251 C 
ATOM     23  H   UNL A   1      39.907  18.133  25.842  1.00  0.00     0.163 HD
ATOM     24  O   UNL A   1      42.312  18.282  25.978  1.00  0.00    -0.269 OA
BRANCH  22  25
ATOM     25  C   UNL A   1      42.113  20.579  26.403  1.00  0.00     0.039 A 
ATOM     26  C   UNL A   1      42.448  21.438  25.352  1.00  0.00     0.014 A 
ATOM     27  C   UNL A   1      42.337  20.981  27.722  1.00  0.00     0.014 A 
ATOM     28  C   UNL A   1      42.942  22.717  25.626  1.00  0.00     0.010 A 
ATOM     29  C   UNL A   1      42.730  22.287  27.994  1.00  0.00     0.010 A 
ATOM     30  C   UNL A   1      43.056  23.166  26.951  1.00  0.00    -0.014 A 
BRANCH  30  31
ATOM     31  C   UNL A   1      43.549  24.528  27.281  1.00  0.00     0.031 A 
ATOM     32  C   UNL A   1      42.598  25.551  27.842  1.00  0.00     0.074 A 
ATOM     33  C   UNL A   1      44.820  24.875  27.003  1.00  0.00     0.049 A 
ATOM     34  N   UNL A   1      42.787  26.826  28.072  1.00  0.00    -0.248 NA
ATOM     35  C   UNL A   1      41.237  25.083  28.150  1.00  0.00     0.031 C 
ATOM     36  C   UNL A   1      45.833  23.992  26.425  1.00  0.00     0.029 A 
ATOM     37  N   UNL A   1      45.472  26.074  27.155  1.00  0.00    -0.354 N 
ATOM     38  C   UNL A   1      41.564  27.314  28.516  1.00  0.00     0.074 A 
ATOM     39  C   UNL A   1      40.629  26.212  28.473  1.00  0.00     0.031 C 
ATOM     40  C   UNL A   1      46.984  24.671  26.292  1.00  0.00     0.029 A 
ATOM     41  C   UNL A   1      46.778  26.047  26.734  1.00  0.00     0.049 A 
ATOM     42  H   UNL A   1      45.043  26.877  27.532  1.00  0.00     0.167 HD
ATOM     43  C   UNL A   1      41.254  28.562  28.942  1.00  0.00     0.037 A 
ATOM     44  C   UNL A   1      47.704  27.025  26.699  1.00  0.00     0.037 A 
ATOM     45  C   UNL A   1      42.197  29.646  29.023  1.00  0.00     0.049 A 
ATOM     46  C   UNL A   1      47.339  28.404  27.178  1.00  0.00     0.074 A 
ATOM     47  C   UNL A   1      42.002  30.927  29.507  1.00  0.00     0.029 A 
ATOM     48  N   UNL A   1      43.519  29.571  28.607  1.00  0.00    -0.354 N 
ATOM     49  N   UNL A   1      46.196  28.842  27.648  1.00  0.00    -0.248 NA
ATOM     50  C   UNL A   1      48.394  29.425  27.123  1.00  0.00     0.031 C 
ATOM     51  C   UNL A   1      43.194  31.642  29.344  1.00  0.00     0.029 A 
ATOM     52  C   UNL A   1      44.147  30.792  28.805  1.00  0.00     0.049 A 
ATOM     53  H   UNL A   1      43.948  28.771  28.229  1.00  0.00     0.167 HD
ATOM     54  C   UNL A   1      46.402  30.175  27.973  1.00  0.00     0.074 A 
ATOM     55  C   UNL A   1      47.783  30.475  27.654  1.00  0.00     0.031 C 
ATOM     56  C   UNL A   1      45.525  31.071  28.492  1.00  0.00     0.037 A 
BRANCH  43  57
ATOM     57  C   UNL A   1      39.830  28.818  29.348  1.00  0.00     0.064 A 
ATOM     58  C   UNL A   1      39.393  28.633  30.669  1.00  0.00     0.173 A 
ATOM     59  C   UNL A   1      38.890  29.258  28.404  1.00  0.00     0.173 A 
ATOM     60  F   UNL A   1      40.248  28.203  31.609  1.00  0.00    -0.203 F 
ATOM     61  C   UNL A   1      38.061  28.835  31.020  1.00  0.00     0.198 A 
ATOM     62  C   UNL A   1      37.566  29.492  28.765  1.00  0.00     0.198 A 
ATOM     63  F   UNL A   1      39.253  29.458  27.128  1.00  0.00    -0.203 F 
ATOM     64  F   UNL A   1      37.655  28.588  32.272  1.00  0.00    -0.200 F 
ATOM     65  C   UNL A   1      37.149  29.269  30.070  1.00  0.00     0.200 A 
ATOM     66  F   UNL A   1      36.689  29.925  27.848  1.00  0.00    -0.200 F 
ATOM     67  F   UNL A   1      35.867  29.462  30.407  1.00  0.00    -0.200 F 
ENDBRANCH  43  57
BRANCH  44  68
ATOM     68  C   UNL A   1      49.079  26.722  26.225  1.00  0.00     0.064 A 
ATOM     69  C   UNL A   1      49.436  26.939  24.887  1.00  0.00     0.173 A 
ATOM     70  C   UNL A   1      50.064  26.230  27.093  1.00  0.00     0.173 A 
ATOM     71  F   UNL A   1      48.520  27.386  24.015  1.00  0.00    -0.203 F 
ATOM     72  C   UNL A   1      50.723  26.665  24.431  1.00  0.00     0.198 A 
ATOM     73  C   UNL A   1      51.359  25.981  26.641  1.00  0.00     0.198 A 
ATOM     74  F   UNL A   1      49.773  26.007  28.383  1.00  0.00    -0.203 F 
ATOM     75  F   UNL A   1      51.027  26.848  23.140  1.00  0.00    -0.200 F 
ATOM     76  C   UNL A   1      51.686  26.194  25.311  1.00  0.00     0.200 A 
ATOM     77  F   UNL A   1      52.290  25.535  27.496  1.00  0.00    -0.200 F 
ATOM     78  F   UNL A   1      52.927  25.939  24.874  1.00  0.00    -0.200 F 
ENDBRANCH  44  68
BRANCH  56  79
ATOM     79  C   UNL A   1      46.042  32.448  28.790  1.00  0.00     0.064 A 
ATOM     80  C   UNL A   1      46.640  32.762  30.018  1.00  0.00     0.173 A 
ATOM     81  C   UNL A   1      45.979  33.453  27.812  1.00  0.00     0.173 A 
ATOM     82  F   UNL A   1      46.712  31.840  30.990  1.00  0.00    -0.203 F 
ATOM     83  C   UNL A   1      47.137  34.040  30.265  1.00  0.00     0.198 A 
ATOM     84  C   UNL A   1      46.503  34.720  28.052  1.00  0.00     0.198 A 
ATOM     85  F   UNL A   1      45.422  33.201  26.618  1.00  0.00    -0.203 F 
ATOM     86  F   UNL A   1      47.666  34.330  31.462  1.00  0.00    -0.200 F 
ATOM     87  C   UNL A   1      47.076  35.013  29.280  1.00  0.00     0.200 A 
ATOM     88  F   UNL A   1      46.454  35.656  27.095  1.00  0.00    -0.200 F 
ATOM     89  F   UNL A   1      47.563  36.239  29.516  1.00  0.00    -0.200 F 
ENDBRANCH  56  79
ENDBRANCH  30  31
ENDBRANCH  22  25
ENDBRANCH  20  21
ENDBRANCH   1  20
TORSDOF 12
ENDMDL
