MODEL 1
REMARK VINA RESULT:     -13.6      0.000      0.000
REMARK SMILES O=C(NCCCNC(=O)c1ccc(-c2c3nc(c(-c4c(F)c(F)c(F)c(F)c4F)c4ccc([nH]4)c(-c4c(F)c(F)c(F)c(F)c4F)c4nc(c(-c5c(F)c(F)c(F)c(F)c5F)c5ccc2[nH]5)C=C4)C=C3)cc1)C1=Cc2cc(OC(F)(F)F)ccc2O[C@@H]1C(F)(F)F
REMARK SMILES IDX 5 1 4 2 3 3 1 4 2 5 73 7 74 8 87 9 75 10 86 11 76 12 85 13
REMARK SMILES IDX 77 14 84 15 83 16 88 17 89 18 90 19 91 20 78 21 79 22 80 23
REMARK SMILES IDX 81 24 82 25 6 26 7 27 8 28 9 30 10 31 11 32 72 33 12 34
REMARK SMILES IDX 71 35 13 36 14 37 15 38 65 39 16 40 70 41 64 42 66 43 17 44
REMARK SMILES IDX 69 45 63 46 62 47 18 49 50 50 30 51 49 52 31 53 34 54 48 55
REMARK SMILES IDX 67 56 32 57 33 58 47 60 68 61 35 62 19 63 20 64 28 65 21 66
REMARK SMILES IDX 22 67 26 68 29 69 23 70 24 71 27 72 25 73 51 74 52 75 60 76
REMARK SMILES IDX 53 77 54 78 58 79 61 80 55 81 56 82 59 83 57 84 36 85 37 86
REMARK SMILES IDX 45 87 38 88 39 89 43 90 46 91 40 92 41 93 44 94 42 95
REMARK H PARENT 3 6 7 29 66 48 34 59
REMARK Flexibility Score: inf
ROOT
ATOM      1  C   UNL A   1      31.618  28.916  26.451  1.00  0.00     0.042 C 
ENDROOT
BRANCH   1   2
ATOM      2  C   UNL A   1      32.087  27.467  26.367  1.00  0.00     0.118 C 
BRANCH   2   3
ATOM      3  N   UNL A   1      31.106  26.514  26.892  1.00  0.00    -0.352 N 
ATOM      4  O   UNL A   1      29.671  24.762  26.870  1.00  0.00    -0.270 OA
ATOM      5  C   UNL A   1      30.299  25.607  26.249  1.00  0.00     0.251 C 
ATOM      6  H   UNL A   1      31.010  26.524  27.872  1.00  0.00     0.163 HD
BRANCH   5   7
ATOM      7  C   UNL A   1      30.263  25.668  24.779  1.00  0.00     0.067 C 
ATOM      8  C   UNL A   1      29.231  26.309  24.215  1.00  0.00     0.025 C 
ATOM      9  C   UNL A   1      31.534  25.367  24.049  1.00  0.00     0.314 C 
ATOM     10  C   UNL A   1      29.670  27.312  23.241  1.00  0.00     0.021 A 
ATOM     11  O   UNL A   1      31.966  26.459  23.199  1.00  0.00    -0.475 OA
ATOM     12  C   UNL A   1      28.819  28.399  23.003  1.00  0.00     0.058 A 
ATOM     13  C   UNL A   1      31.025  27.408  22.889  1.00  0.00     0.128 A 
ATOM     14  C   UNL A   1      29.333  29.614  22.537  1.00  0.00     0.130 A 
ATOM     15  C   UNL A   1      31.525  28.599  22.369  1.00  0.00     0.051 A 
ATOM     16  C   UNL A   1      30.688  29.711  22.224  1.00  0.00     0.050 A 
BRANCH   9  17
ATOM     17  C   UNL A   1      31.396  24.066  23.242  1.00  0.00     0.429 C 
ATOM     18  F   UNL A   1      32.222  24.069  22.167  1.00  0.00    -0.167 F 
ATOM     19  F   UNL A   1      31.721  22.978  23.980  1.00  0.00    -0.167 F 
ATOM     20  F   UNL A   1      30.137  23.878  22.781  1.00  0.00    -0.167 F 
ENDBRANCH   9  17
BRANCH  14  21
ATOM     21  O   UNL A   1      28.415  30.621  22.455  1.00  0.00    -0.406 OA
BRANCH  21  22
ATOM     22  C   UNL A   1      28.412  31.584  23.498  1.00  0.00     0.573 C 
ATOM     23  F   UNL A   1      29.454  31.395  24.336  1.00  0.00    -0.132 F 
ATOM     24  F   UNL A   1      28.438  32.841  23.010  1.00  0.00    -0.132 F 
ATOM     25  F   UNL A   1      27.273  31.437  24.212  1.00  0.00    -0.132 F 
ENDBRANCH  21  22
ENDBRANCH  14  21
ENDBRANCH   5   7
ENDBRANCH   2   3
ENDBRANCH   1   2
BRANCH   1  26
ATOM     26  C   UNL A   1      32.663  29.910  25.955  1.00  0.00     0.118 C 
BRANCH  26  27
ATOM     27  N   UNL A   1      32.482  31.276  26.428  1.00  0.00    -0.352 N 
ATOM     28  C   UNL A   1      33.278  32.043  27.252  1.00  0.00     0.251 C 
ATOM     29  H   UNL A   1      31.663  31.722  26.110  1.00  0.00     0.163 HD
ATOM     30  O   UNL A   1      32.907  33.173  27.564  1.00  0.00    -0.269 OA
BRANCH  28  31
ATOM     31  C   UNL A   1      34.547  31.509  27.805  1.00  0.00     0.039 A 
ATOM     32  C   UNL A   1      35.594  32.397  28.076  1.00  0.00     0.014 A 
ATOM     33  C   UNL A   1      34.715  30.152  28.085  1.00  0.00     0.014 A 
ATOM     34  C   UNL A   1      36.757  31.939  28.703  1.00  0.00     0.010 A 
ATOM     35  C   UNL A   1      35.811  29.723  28.827  1.00  0.00     0.010 A 
ATOM     36  C   UNL A   1      36.853  30.605  29.135  1.00  0.00    -0.014 A 
BRANCH  36  37
ATOM     37  C   UNL A   1      38.034  30.115  29.895  1.00  0.00     0.031 A 
ATOM     38  C   UNL A   1      38.247  30.540  31.326  1.00  0.00     0.074 A 
ATOM     39  C   UNL A   1      38.957  29.350  29.276  1.00  0.00     0.049 A 
ATOM     40  N   UNL A   1      39.245  30.271  32.133  1.00  0.00    -0.248 NA
ATOM     41  C   UNL A   1      37.232  31.427  31.916  1.00  0.00     0.031 C 
ATOM     42  C   UNL A   1      38.920  28.950  27.867  1.00  0.00     0.029 A 
ATOM     43  N   UNL A   1      40.110  28.776  29.749  1.00  0.00    -0.354 N 
ATOM     44  C   UNL A   1      38.989  30.981  33.300  1.00  0.00     0.074 A 
ATOM     45  C   UNL A   1      37.785  31.748  33.075  1.00  0.00     0.031 C 
ATOM     46  C   UNL A   1      39.972  28.159  27.604  1.00  0.00     0.029 A 
ATOM     47  C   UNL A   1      40.777  28.024  28.812  1.00  0.00     0.049 A 
ATOM     48  H   UNL A   1      40.429  28.892  30.673  1.00  0.00     0.167 HD
ATOM     49  C   UNL A   1      39.673  30.965  34.469  1.00  0.00     0.037 A 
ATOM     50  C   UNL A   1      41.907  27.299  28.921  1.00  0.00     0.037 A 
ATOM     51  C   UNL A   1      40.834  30.150  34.709  1.00  0.00     0.049 A 
ATOM     52  C   UNL A   1      42.605  27.238  30.252  1.00  0.00     0.074 A 
ATOM     53  C   UNL A   1      41.548  29.985  35.882  1.00  0.00     0.029 A 
ATOM     54  N   UNL A   1      41.444  29.352  33.752  1.00  0.00    -0.354 N 
ATOM     55  N   UNL A   1      42.302  27.841  31.376  1.00  0.00    -0.248 NA
ATOM     56  C   UNL A   1      43.796  26.380  30.334  1.00  0.00     0.031 C 
ATOM     57  C   UNL A   1      42.614  29.116  35.625  1.00  0.00     0.029 A 
ATOM     58  C   UNL A   1      42.535  28.702  34.306  1.00  0.00     0.049 A 
ATOM     59  H   UNL A   1      41.146  29.260  32.818  1.00  0.00     0.167 HD
ATOM     60  C   UNL A   1      43.246  27.421  32.301  1.00  0.00     0.074 A 
ATOM     61  C   UNL A   1      44.117  26.489  31.615  1.00  0.00     0.031 C 
ATOM     62  C   UNL A   1      43.387  27.778  33.602  1.00  0.00     0.037 A 
BRANCH  49  63
ATOM     63  C   UNL A   1      39.169  31.837  35.585  1.00  0.00     0.064 A 
ATOM     64  C   UNL A   1      38.300  31.345  36.570  1.00  0.00     0.173 A 
ATOM     65  C   UNL A   1      39.585  33.173  35.689  1.00  0.00     0.173 A 
ATOM     66  F   UNL A   1      37.859  30.079  36.512  1.00  0.00    -0.203 F 
ATOM     67  C   UNL A   1      37.837  32.166  37.596  1.00  0.00     0.198 A 
ATOM     68  C   UNL A   1      39.147  33.982  36.736  1.00  0.00     0.198 A 
ATOM     69  F   UNL A   1      40.419  33.695  34.777  1.00  0.00    -0.203 F 
ATOM     70  F   UNL A   1      36.962  31.688  38.491  1.00  0.00    -0.200 F 
ATOM     71  C   UNL A   1      38.268  33.480  37.682  1.00  0.00     0.200 A 
ATOM     72  F   UNL A   1      39.575  35.249  36.824  1.00  0.00    -0.200 F 
ATOM     73  F   UNL A   1      37.828  34.267  38.675  1.00  0.00    -0.200 F 
ENDBRANCH  49  63
BRANCH  50  74
ATOM     74  C   UNL A   1      42.419  26.534  27.752  1.00  0.00     0.064 A 
ATOM     75  C   UNL A   1      41.983  25.225  27.503  1.00  0.00     0.173 A 
ATOM     76  C   UNL A   1      43.353  27.088  26.866  1.00  0.00     0.173 A 
ATOM     77  F   UNL A   1      41.103  24.643  28.332  1.00  0.00    -0.203 F 
ATOM     78  C   UNL A   1      42.482  24.490  26.429  1.00  0.00     0.198 A 
ATOM     79  C   UNL A   1      43.829  26.364  25.775  1.00  0.00     0.198 A 
ATOM     80  F   UNL A   1      43.796  28.341  27.054  1.00  0.00    -0.203 F 
ATOM     81  F   UNL A   1      42.088  23.223  26.246  1.00  0.00    -0.200 F 
ATOM     82  C   UNL A   1      43.402  25.061  25.563  1.00  0.00     0.200 A 
ATOM     83  F   UNL A   1      44.706  26.926  24.931  1.00  0.00    -0.200 F 
ATOM     84  F   UNL A   1      43.881  24.356  24.530  1.00  0.00    -0.200 F 
ENDBRANCH  50  74
BRANCH  62  85
ATOM     85  C   UNL A   1      44.507  27.137  34.366  1.00  0.00     0.064 A 
ATOM     86  C   UNL A   1      45.774  27.732  34.450  1.00  0.00     0.173 A 
ATOM     87  C   UNL A   1      44.306  25.920  35.037  1.00  0.00     0.173 A 
ATOM     88  F   UNL A   1      46.021  28.887  33.815  1.00  0.00    -0.203 F 
ATOM     89  C   UNL A   1      46.811  27.113  35.145  1.00  0.00     0.198 A 
ATOM     90  C   UNL A   1      45.334  25.322  35.758  1.00  0.00     0.198 A 
ATOM     91  F   UNL A   1      43.109  25.315  34.996  1.00  0.00    -0.203 F 
ATOM     92  F   UNL A   1      48.029  27.670  35.160  1.00  0.00    -0.200 F 
ATOM     93  C   UNL A   1      46.587  25.913  35.803  1.00  0.00     0.200 A 
ATOM     94  F   UNL A   1      45.113  24.169  36.406  1.00  0.00    -0.200 F 
ATOM     95  F   UNL A   1      47.586  25.320  36.471  1.00  0.00    -0.200 F 
ENDBRANCH  62  85
ENDBRANCH  36  37
ENDBRANCH  28  31
ENDBRANCH  26  27
ENDBRANCH   1  26
TORSDOF 13
ENDMDL
MODEL 2
REMARK VINA RESULT:     -13.4      0.358      1.669
REMARK SMILES O=C(NCCCNC(=O)c1ccc(-c2c3nc(c(-c4c(F)c(F)c(F)c(F)c4F)c4ccc([nH]4)c(-c4c(F)c(F)c(F)c(F)c4F)c4nc(c(-c5c(F)c(F)c(F)c(F)c5F)c5ccc2[nH]5)C=C4)C=C3)cc1)C1=Cc2cc(OC(F)(F)F)ccc2O[C@@H]1C(F)(F)F
REMARK SMILES IDX 5 1 4 2 3 3 1 4 2 5 73 7 74 8 87 9 75 10 86 11 76 12 85 13
REMARK SMILES IDX 77 14 84 15 83 16 88 17 89 18 90 19 91 20 78 21 79 22 80 23
REMARK SMILES IDX 81 24 82 25 6 26 7 27 8 28 9 30 10 31 11 32 72 33 12 34
REMARK SMILES IDX 71 35 13 36 14 37 15 38 65 39 16 40 70 41 64 42 66 43 17 44
REMARK SMILES IDX 69 45 63 46 62 47 18 49 50 50 30 51 49 52 31 53 34 54 48 55
REMARK SMILES IDX 67 56 32 57 33 58 47 60 68 61 35 62 19 63 20 64 28 65 21 66
REMARK SMILES IDX 22 67 26 68 29 69 23 70 24 71 27 72 25 73 51 74 52 75 60 76
REMARK SMILES IDX 53 77 54 78 58 79 61 80 55 81 56 82 59 83 57 84 36 85 37 86
REMARK SMILES IDX 45 87 38 88 39 89 43 90 46 91 40 92 41 93 44 94 42 95
REMARK H PARENT 3 6 7 29 66 48 34 59
REMARK Flexibility Score: inf
ROOT
ATOM      1  C   UNL A   1      31.724  28.667  26.402  1.00  0.00     0.042 C 
ENDROOT
BRANCH   1   2
ATOM      2  C   UNL A   1      32.291  27.251  26.438  1.00  0.00     0.118 C 
BRANCH   2   3
ATOM      3  N   UNL A   1      31.323  26.255  26.905  1.00  0.00    -0.352 N 
ATOM      4  O   UNL A   1      29.975  24.438  26.803  1.00  0.00    -0.270 OA
ATOM      5  C   UNL A   1      30.603  25.308  26.218  1.00  0.00     0.251 C 
ATOM      6  H   UNL A   1      31.162  26.266  27.876  1.00  0.00     0.163 HD
BRANCH   5   7
ATOM      7  C   UNL A   1      30.661  25.359  24.748  1.00  0.00     0.067 C 
ATOM      8  C   UNL A   1      29.720  26.075  24.120  1.00  0.00     0.025 C 
ATOM      9  C   UNL A   1      31.946  24.952  24.098  1.00  0.00     0.314 C 
ATOM     10  C   UNL A   1      30.296  27.033  23.171  1.00  0.00     0.021 A 
ATOM     11  O   UNL A   1      32.515  25.999  23.272  1.00  0.00    -0.475 OA
ATOM     12  C   UNL A   1      29.551  28.182  22.878  1.00  0.00     0.058 A 
ATOM     13  C   UNL A   1      31.673  27.018  22.902  1.00  0.00     0.128 A 
ATOM     14  C   UNL A   1      30.188  29.348  22.440  1.00  0.00     0.130 A 
ATOM     15  C   UNL A   1      32.298  28.161  22.409  1.00  0.00     0.051 A 
ATOM     16  C   UNL A   1      31.563  29.334  22.210  1.00  0.00     0.050 A 
BRANCH   9  17
ATOM     17  C   UNL A   1      31.753  23.659  23.288  1.00  0.00     0.429 C 
ATOM     18  F   UNL A   1      30.438  23.377  23.126  1.00  0.00    -0.167 F 
ATOM     19  F   UNL A   1      32.287  23.757  22.048  1.00  0.00    -0.167 F 
ATOM     20  F   UNL A   1      32.323  22.587  23.889  1.00  0.00    -0.167 F 
ENDBRANCH   9  17
BRANCH  14  21
ATOM     21  O   UNL A   1      29.360  30.425  22.298  1.00  0.00    -0.406 OA
BRANCH  21  22
ATOM     22  C   UNL A   1      29.030  31.149  23.473  1.00  0.00     0.573 C 
ATOM     23  F   UNL A   1      29.895  30.872  24.473  1.00  0.00    -0.132 F 
ATOM     24  F   UNL A   1      29.004  32.478  23.244  1.00  0.00    -0.132 F 
ATOM     25  F   UNL A   1      27.795  30.771  23.876  1.00  0.00    -0.132 F 
ENDBRANCH  21  22
ENDBRANCH  14  21
ENDBRANCH   5   7
ENDBRANCH   2   3
ENDBRANCH   1   2
BRANCH   1  26
ATOM     26  C   UNL A   1      32.733  29.700  25.914  1.00  0.00     0.118 C 
BRANCH  26  27
ATOM     27  N   UNL A   1      32.512  31.053  26.408  1.00  0.00    -0.352 N 
ATOM     28  C   UNL A   1      33.281  31.825  27.252  1.00  0.00     0.251 C 
ATOM     29  H   UNL A   1      31.685  31.483  26.090  1.00  0.00     0.163 HD
ATOM     30  O   UNL A   1      32.879  32.940  27.580  1.00  0.00    -0.269 OA
BRANCH  28  31
ATOM     31  C   UNL A   1      34.559  31.315  27.808  1.00  0.00     0.039 A 
ATOM     32  C   UNL A   1      35.611  32.213  28.021  1.00  0.00     0.014 A 
ATOM     33  C   UNL A   1      34.730  29.972  28.145  1.00  0.00     0.014 A 
ATOM     34  C   UNL A   1      36.784  31.781  28.648  1.00  0.00     0.010 A 
ATOM     35  C   UNL A   1      35.838  29.575  28.888  1.00  0.00     0.010 A 
ATOM     36  C   UNL A   1      36.886  30.468  29.138  1.00  0.00    -0.014 A 
BRANCH  36  37
ATOM     37  C   UNL A   1      38.079  30.011  29.901  1.00  0.00     0.031 A 
ATOM     38  C   UNL A   1      38.297  30.471  31.320  1.00  0.00     0.074 A 
ATOM     39  C   UNL A   1      39.007  29.245  29.291  1.00  0.00     0.049 A 
ATOM     40  N   UNL A   1      39.304  30.234  32.125  1.00  0.00    -0.248 NA
ATOM     41  C   UNL A   1      37.274  31.358  31.898  1.00  0.00     0.031 C 
ATOM     42  C   UNL A   1      38.966  28.813  27.892  1.00  0.00     0.029 A 
ATOM     43  N   UNL A   1      40.171  28.697  29.769  1.00  0.00    -0.354 N 
ATOM     44  C   UNL A   1      39.047  30.966  33.278  1.00  0.00     0.074 A 
ATOM     45  C   UNL A   1      37.831  31.711  33.046  1.00  0.00     0.031 C 
ATOM     46  C   UNL A   1      40.026  28.031  27.639  1.00  0.00     0.029 A 
ATOM     47  C   UNL A   1      40.842  27.933  28.843  1.00  0.00     0.049 A 
ATOM     48  H   UNL A   1      40.496  28.838  30.688  1.00  0.00     0.167 HD
ATOM     49  C   UNL A   1      39.740  30.985  34.442  1.00  0.00     0.037 A 
ATOM     50  C   UNL A   1      41.982  27.227  28.959  1.00  0.00     0.037 A 
ATOM     51  C   UNL A   1      40.913  30.191  34.691  1.00  0.00     0.049 A 
ATOM     52  C   UNL A   1      42.691  27.204  30.287  1.00  0.00     0.074 A 
ATOM     53  C   UNL A   1      41.638  30.062  35.862  1.00  0.00     0.029 A 
ATOM     54  N   UNL A   1      41.527  29.380  33.747  1.00  0.00    -0.354 N 
ATOM     55  N   UNL A   1      42.388  27.828  31.399  1.00  0.00    -0.248 NA
ATOM     56  C   UNL A   1      43.894  26.364  30.378  1.00  0.00     0.031 C 
ATOM     57  C   UNL A   1      42.714  29.202  35.616  1.00  0.00     0.029 A 
ATOM     58  C   UNL A   1      42.631  28.757  34.307  1.00  0.00     0.049 A 
ATOM     59  H   UNL A   1      41.223  29.263  32.818  1.00  0.00     0.167 HD
ATOM     60  C   UNL A   1      43.344  27.442  32.326  1.00  0.00     0.074 A 
ATOM     61  C   UNL A   1      44.223  26.506  31.654  1.00  0.00     0.031 C 
ATOM     62  C   UNL A   1      43.489  27.829  33.618  1.00  0.00     0.037 A 
BRANCH  49  63
ATOM     63  C   UNL A   1      39.232  31.875  35.542  1.00  0.00     0.064 A 
ATOM     64  C   UNL A   1      39.573  33.235  35.607  1.00  0.00     0.173 A 
ATOM     65  C   UNL A   1      38.371  31.370  36.528  1.00  0.00     0.173 A 
ATOM     66  F   UNL A   1      40.405  33.767  34.698  1.00  0.00    -0.203 F 
ATOM     67  C   UNL A   1      39.099  34.047  36.634  1.00  0.00     0.198 A 
ATOM     68  C   UNL A   1      37.871  32.193  37.534  1.00  0.00     0.198 A 
ATOM     69  F   UNL A   1      38.009  30.078  36.512  1.00  0.00    -0.203 F 
ATOM     70  F   UNL A   1      39.485  35.328  36.706  1.00  0.00    -0.200 F 
ATOM     71  C   UNL A   1      38.242  33.527  37.591  1.00  0.00     0.200 A 
ATOM     72  F   UNL A   1      37.033  31.691  38.452  1.00  0.00    -0.200 F 
ATOM     73  F   UNL A   1      37.780  34.312  38.576  1.00  0.00    -0.200 F 
ENDBRANCH  49  63
BRANCH  50  74
ATOM     74  C   UNL A   1      42.496  26.442  27.805  1.00  0.00     0.064 A 
ATOM     75  C   UNL A   1      43.458  26.982  26.939  1.00  0.00     0.173 A 
ATOM     76  C   UNL A   1      42.036  25.145  27.537  1.00  0.00     0.173 A 
ATOM     77  F   UNL A   1      43.917  28.226  27.141  1.00  0.00    -0.203 F 
ATOM     78  C   UNL A   1      43.920  26.266  25.836  1.00  0.00     0.198 A 
ATOM     79  C   UNL A   1      42.521  24.418  26.452  1.00  0.00     0.198 A 
ATOM     80  F   UNL A   1      41.122  24.578  28.339  1.00  0.00    -0.203 F 
ATOM     81  F   UNL A   1      44.801  26.827  24.997  1.00  0.00    -0.200 F 
ATOM     82  C   UNL A   1      43.455  24.983  25.596  1.00  0.00     0.200 A 
ATOM     83  F   UNL A   1      42.080  23.171  26.232  1.00  0.00    -0.200 F 
ATOM     84  F   UNL A   1      43.900  24.293  24.537  1.00  0.00    -0.200 F 
ENDBRANCH  50  74
BRANCH  62  85
ATOM     85  C   UNL A   1      44.624  27.220  34.388  1.00  0.00     0.064 A 
ATOM     86  C   UNL A   1      45.883  27.835  34.450  1.00  0.00     0.173 A 
ATOM     87  C   UNL A   1      44.445  26.015  35.085  1.00  0.00     0.173 A 
ATOM     88  F   UNL A   1      46.109  28.980  33.789  1.00  0.00    -0.203 F 
ATOM     89  C   UNL A   1      46.933  27.246  35.151  1.00  0.00     0.198 A 
ATOM     90  C   UNL A   1      45.486  25.447  35.811  1.00  0.00     0.198 A 
ATOM     91  F   UNL A   1      43.257  25.393  35.065  1.00  0.00    -0.203 F 
ATOM     92  F   UNL A   1      48.143  27.820  35.145  1.00  0.00    -0.200 F 
ATOM     93  C   UNL A   1      46.731  26.057  35.835  1.00  0.00     0.200 A 
ATOM     94  F   UNL A   1      45.286  24.305  36.484  1.00  0.00    -0.200 F 
ATOM     95  F   UNL A   1      47.742  25.492  36.508  1.00  0.00    -0.200 F 
ENDBRANCH  62  85
ENDBRANCH  36  37
ENDBRANCH  28  31
ENDBRANCH  26  27
ENDBRANCH   1  26
TORSDOF 13
ENDMDL
MODEL 3
REMARK VINA RESULT:     -13.1      2.390      8.396
REMARK SMILES O=C(NCCCNC(=O)c1ccc(-c2c3nc(c(-c4c(F)c(F)c(F)c(F)c4F)c4ccc([nH]4)c(-c4c(F)c(F)c(F)c(F)c4F)c4nc(c(-c5c(F)c(F)c(F)c(F)c5F)c5ccc2[nH]5)C=C4)C=C3)cc1)C1=Cc2cc(OC(F)(F)F)ccc2O[C@@H]1C(F)(F)F
REMARK SMILES IDX 5 1 4 2 3 3 1 4 2 5 73 7 74 8 87 9 75 10 86 11 76 12 85 13
REMARK SMILES IDX 77 14 84 15 83 16 88 17 89 18 90 19 91 20 78 21 79 22 80 23
REMARK SMILES IDX 81 24 82 25 6 26 7 27 8 28 9 30 10 31 11 32 72 33 12 34
REMARK SMILES IDX 71 35 13 36 14 37 15 38 65 39 16 40 70 41 64 42 66 43 17 44
REMARK SMILES IDX 69 45 63 46 62 47 18 49 50 50 30 51 49 52 31 53 34 54 48 55
REMARK SMILES IDX 67 56 32 57 33 58 47 60 68 61 35 62 19 63 20 64 28 65 21 66
REMARK SMILES IDX 22 67 26 68 29 69 23 70 24 71 27 72 25 73 51 74 52 75 60 76
REMARK SMILES IDX 53 77 54 78 58 79 61 80 55 81 56 82 59 83 57 84 36 85 37 86
REMARK SMILES IDX 45 87 38 88 39 89 43 90 46 91 40 92 41 93 44 94 42 95
REMARK H PARENT 3 6 7 29 66 48 34 59
REMARK Flexibility Score: inf
ROOT
ATOM      1  C   UNL A   1      31.462  32.128  26.575  1.00  0.00     0.042 C 
ENDROOT
BRANCH   1   2
ATOM      2  C   UNL A   1      31.829  30.715  26.134  1.00  0.00     0.118 C 
BRANCH   2   3
ATOM      3  N   UNL A   1      31.553  29.703  27.158  1.00  0.00    -0.352 N 
ATOM      4  O   UNL A   1      31.597  27.673  28.160  1.00  0.00    -0.270 OA
ATOM      5  C   UNL A   1      31.711  28.339  27.141  1.00  0.00     0.251 C 
ATOM      6  H   UNL A   1      31.194  30.063  28.001  1.00  0.00     0.163 HD
BRANCH   5   7
ATOM      7  C   UNL A   1      32.070  27.722  25.854  1.00  0.00     0.067 C 
ATOM      8  C   UNL A   1      33.340  27.330  25.693  1.00  0.00     0.025 C 
ATOM      9  C   UNL A   1      30.949  27.231  24.993  1.00  0.00     0.314 C 
ATOM     10  C   UNL A   1      33.435  25.939  25.238  1.00  0.00     0.021 A 
ATOM     11  O   UNL A   1      31.051  25.818  24.688  1.00  0.00    -0.475 OA
ATOM     12  C   UNL A   1      34.602  25.233  25.555  1.00  0.00     0.058 A 
ATOM     13  C   UNL A   1      32.276  25.232  24.886  1.00  0.00     0.128 A 
ATOM     14  C   UNL A   1      34.585  23.837  25.645  1.00  0.00     0.130 A 
ATOM     15  C   UNL A   1      32.275  23.839  24.917  1.00  0.00     0.051 A 
ATOM     16  C   UNL A   1      33.417  23.143  25.327  1.00  0.00     0.050 A 
BRANCH   9  17
ATOM     17  C   UNL A   1      30.856  28.064  23.703  1.00  0.00     0.429 C 
ATOM     18  F   UNL A   1      29.910  29.028  23.812  1.00  0.00    -0.167 F 
ATOM     19  F   UNL A   1      32.023  28.692  23.425  1.00  0.00    -0.167 F 
ATOM     20  F   UNL A   1      30.538  27.308  22.625  1.00  0.00    -0.167 F 
ENDBRANCH   9  17
BRANCH  14  21
ATOM     21  O   UNL A   1      35.758  23.284  26.071  1.00  0.00    -0.406 OA
BRANCH  21  22
ATOM     22  C   UNL A   1      36.803  23.162  25.118  1.00  0.00     0.573 C 
ATOM     23  F   UNL A   1      37.424  21.968  25.228  1.00  0.00    -0.132 F 
ATOM     24  F   UNL A   1      36.346  23.327  23.859  1.00  0.00    -0.132 F 
ATOM     25  F   UNL A   1      37.716  24.130  25.360  1.00  0.00    -0.132 F 
ENDBRANCH  21  22
ENDBRANCH  14  21
ENDBRANCH   5   7
ENDBRANCH   2   3
ENDBRANCH   1   2
BRANCH   1  26
ATOM     26  C   UNL A   1      32.603  32.843  27.292  1.00  0.00     0.118 C 
BRANCH  26  27
ATOM     27  N   UNL A   1      32.323  34.224  27.662  1.00  0.00    -0.352 N 
ATOM     28  C   UNL A   1      32.960  35.046  28.568  1.00  0.00     0.251 C 
ATOM     29  H   UNL A   1      31.562  34.635  27.193  1.00  0.00     0.163 HD
ATOM     30  O   UNL A   1      32.524  36.179  28.760  1.00  0.00    -0.269 OA
BRANCH  28  31
ATOM     31  C   UNL A   1      34.129  34.568  29.348  1.00  0.00     0.039 A 
ATOM     32  C   UNL A   1      33.920  34.050  30.630  1.00  0.00     0.014 A 
ATOM     33  C   UNL A   1      35.423  34.599  28.828  1.00  0.00     0.014 A 
ATOM     34  C   UNL A   1      34.985  33.488  31.341  1.00  0.00     0.010 A 
ATOM     35  C   UNL A   1      36.451  33.922  29.475  1.00  0.00     0.010 A 
ATOM     36  C   UNL A   1      36.252  33.369  30.745  1.00  0.00    -0.014 A 
BRANCH  36  37
ATOM     37  C   UNL A   1      37.378  32.684  31.437  1.00  0.00     0.031 A 
ATOM     38  C   UNL A   1      38.094  31.537  30.770  1.00  0.00     0.074 A 
ATOM     39  C   UNL A   1      37.705  33.041  32.695  1.00  0.00     0.049 A 
ATOM     40  N   UNL A   1      39.054  30.775  31.234  1.00  0.00    -0.248 NA
ATOM     41  C   UNL A   1      37.640  31.161  29.421  1.00  0.00     0.031 C 
ATOM     42  C   UNL A   1      37.026  34.068  33.490  1.00  0.00     0.029 A 
ATOM     43  N   UNL A   1      38.689  32.578  33.532  1.00  0.00    -0.354 N 
ATOM     44  C   UNL A   1      39.287  29.819  30.252  1.00  0.00     0.074 A 
ATOM     45  C   UNL A   1      38.324  30.049  29.200  1.00  0.00     0.031 C 
ATOM     46  C   UNL A   1      37.642  34.189  34.676  1.00  0.00     0.029 A 
ATOM     47  C   UNL A   1      38.735  33.227  34.743  1.00  0.00     0.049 A 
ATOM     48  H   UNL A   1      39.304  31.849  33.288  1.00  0.00     0.167 HD
ATOM     49  C   UNL A   1      40.243  28.860  30.212  1.00  0.00     0.037 A 
ATOM     50  C   UNL A   1      39.573  33.068  35.785  1.00  0.00     0.037 A 
ATOM     51  C   UNL A   1      41.240  28.678  31.232  1.00  0.00     0.049 A 
ATOM     52  C   UNL A   1      40.674  32.047  35.683  1.00  0.00     0.074 A 
ATOM     53  C   UNL A   1      42.310  27.801  31.249  1.00  0.00     0.029 A 
ATOM     54  N   UNL A   1      41.292  29.397  32.417  1.00  0.00    -0.354 N 
ATOM     55  N   UNL A   1      40.941  31.211  34.709  1.00  0.00    -0.248 NA
ATOM     56  C   UNL A   1      41.601  31.960  36.820  1.00  0.00     0.031 C 
ATOM     57  C   UNL A   1      42.988  27.964  32.462  1.00  0.00     0.029 A 
ATOM     58  C   UNL A   1      42.369  28.975  33.179  1.00  0.00     0.049 A 
ATOM     59  H   UNL A   1      40.658  30.104  32.678  1.00  0.00     0.167 HD
ATOM     60  C   UNL A   1      42.075  30.515  35.103  1.00  0.00     0.074 A 
ATOM     61  C   UNL A   1      42.462  31.048  36.394  1.00  0.00     0.031 C 
ATOM     62  C   UNL A   1      42.735  29.521  34.460  1.00  0.00     0.037 A 
BRANCH  49  63
ATOM     63  C   UNL A   1      40.271  27.952  29.014  1.00  0.00     0.064 A 
ATOM     64  C   UNL A   1      41.009  28.270  27.864  1.00  0.00     0.173 A 
ATOM     65  C   UNL A   1      39.575  26.733  29.028  1.00  0.00     0.173 A 
ATOM     66  F   UNL A   1      41.680  29.430  27.791  1.00  0.00    -0.203 F 
ATOM     67  C   UNL A   1      41.022  27.421  26.760  1.00  0.00     0.198 A 
ATOM     68  C   UNL A   1      39.619  25.870  27.935  1.00  0.00     0.198 A 
ATOM     69  F   UNL A   1      38.858  26.376  30.103  1.00  0.00    -0.203 F 
ATOM     70  F   UNL A   1      41.687  27.776  25.652  1.00  0.00    -0.200 F 
ATOM     71  C   UNL A   1      40.334  26.219  26.800  1.00  0.00     0.200 A 
ATOM     72  F   UNL A   1      38.963  24.702  27.981  1.00  0.00    -0.200 F 
ATOM     73  F   UNL A   1      40.354  25.398  25.739  1.00  0.00    -0.200 F 
ENDBRANCH  49  63
BRANCH  50  74
ATOM     74  C   UNL A   1      39.437  33.927  36.991  1.00  0.00     0.064 A 
ATOM     75  C   UNL A   1      40.010  35.206  37.032  1.00  0.00     0.173 A 
ATOM     76  C   UNL A   1      38.738  33.492  38.126  1.00  0.00     0.173 A 
ATOM     77  F   UNL A   1      40.704  35.662  35.978  1.00  0.00    -0.203 F 
ATOM     78  C   UNL A   1      39.915  36.005  38.170  1.00  0.00     0.198 A 
ATOM     79  C   UNL A   1      38.617  34.303  39.253  1.00  0.00     0.198 A 
ATOM     80  F   UNL A   1      38.162  32.280  38.136  1.00  0.00    -0.203 F 
ATOM     81  F   UNL A   1      40.518  37.201  38.199  1.00  0.00    -0.200 F 
ATOM     82  C   UNL A   1      39.215  35.554  39.278  1.00  0.00     0.200 A 
ATOM     83  F   UNL A   1      37.925  33.870  40.316  1.00  0.00    -0.200 F 
ATOM     84  F   UNL A   1      39.121  36.322  40.372  1.00  0.00    -0.200 F 
ENDBRANCH  50  74
BRANCH  62  85
ATOM     85  C   UNL A   1      43.955  28.967  35.135  1.00  0.00     0.064 A 
ATOM     86  C   UNL A   1      45.233  29.489  34.886  1.00  0.00     0.173 A 
ATOM     87  C   UNL A   1      43.842  27.912  36.055  1.00  0.00     0.173 A 
ATOM     88  F   UNL A   1      45.396  30.487  34.006  1.00  0.00    -0.203 F 
ATOM     89  C   UNL A   1      46.358  28.949  35.505  1.00  0.00     0.198 A 
ATOM     90  C   UNL A   1      44.964  27.398  36.696  1.00  0.00     0.198 A 
ATOM     91  F   UNL A   1      42.641  27.385  36.335  1.00  0.00    -0.203 F 
ATOM     92  F   UNL A   1      47.575  29.423  35.206  1.00  0.00    -0.200 F 
ATOM     93  C   UNL A   1      46.222  27.909  36.413  1.00  0.00     0.200 A 
ATOM     94  F   UNL A   1      44.830  26.403  37.584  1.00  0.00    -0.200 F 
ATOM     95  F   UNL A   1      47.306  27.392  37.007  1.00  0.00    -0.200 F 
ENDBRANCH  62  85
ENDBRANCH  36  37
ENDBRANCH  28  31
ENDBRANCH  26  27
ENDBRANCH   1  26
TORSDOF 13
ENDMDL
