MODEL 1
REMARK VINA RESULT:     -13.2      0.000      0.000
REMARK SMILES O=C(NCCCNC(=O)c1cc(Br)ccc1N1CC2(CCCCC2)C1)c1ccc(-c2c3nc(c(-c4c(F)c(F)c(F)c(F)c4F)c4ccc([nH]4)c(-c4c(F)c(F)c(F)c(F)c4F)c4nc(c(-c5c(F)c(F)c(F)c(F)c5F)c5ccc2[nH]5)C=C4)C=C3)cc1
REMARK SMILES IDX 4 1 3 2 1 3 2 4 26 6 27 7 88 8 28 9 87 10 29 11 30 12 31 13
REMARK SMILES IDX 81 14 32 15 86 16 80 17 82 18 33 19 85 20 79 21 78 22 34 24
REMARK SMILES IDX 66 25 46 26 65 27 47 28 50 29 64 30 83 31 48 32 49 33 63 35
REMARK SMILES IDX 84 36 51 37 35 38 36 39 44 40 37 41 38 42 42 43 45 44 39 45
REMARK SMILES IDX 40 46 43 47 41 48 67 49 68 50 76 51 69 52 70 53 74 54 77 55
REMARK SMILES IDX 71 56 72 57 75 58 73 59 52 60 53 61 61 62 54 63 55 64 59 65
REMARK SMILES IDX 62 66 56 67 57 68 60 69 58 70 5 71 6 72 7 73 8 74 9 76 10 77
REMARK SMILES IDX 11 78 16 79 12 80 15 81 13 82 14 83 17 84 18 85 25 86 19 87
REMARK SMILES IDX 20 88 24 89 21 90 23 91 22 92
REMARK H PARENT 3 5 82 23 50 34 7 75
REMARK Flexibility Score: inf
ROOT
ATOM      1  C   UNL A   1      33.195  29.113  25.186  1.00  0.00     0.118 C 
ENDROOT
BRANCH   1   2
ATOM      2  N   UNL A   1      32.736  30.387  25.722  1.00  0.00    -0.352 N 
ATOM      3  O   UNL A   1      32.506  32.108  27.138  1.00  0.00    -0.269 OA
ATOM      4  C   UNL A   1      33.166  31.134  26.790  1.00  0.00     0.251 C 
ATOM      5  H   UNL A   1      31.981  30.782  25.230  1.00  0.00     0.163 HD
BRANCH   4   6
ATOM      6  C   UNL A   1      34.393  30.785  27.543  1.00  0.00     0.039 A 
ATOM      7  C   UNL A   1      34.639  29.488  27.996  1.00  0.00     0.014 A 
ATOM      8  C   UNL A   1      35.363  31.778  27.727  1.00  0.00     0.014 A 
ATOM      9  C   UNL A   1      35.789  29.215  28.738  1.00  0.00     0.010 A 
ATOM     10  C   UNL A   1      36.545  31.489  28.413  1.00  0.00     0.010 A 
ATOM     11  C   UNL A   1      36.754  30.212  28.951  1.00  0.00    -0.014 A 
BRANCH  11  12
ATOM     12  C   UNL A   1      37.993  29.893  29.703  1.00  0.00     0.031 A 
ATOM     13  C   UNL A   1      38.209  30.416  31.094  1.00  0.00     0.074 A 
ATOM     14  C   UNL A   1      38.930  29.117  29.126  1.00  0.00     0.049 A 
ATOM     15  N   UNL A   1      39.222  30.222  31.901  1.00  0.00    -0.248 NA
ATOM     16  C   UNL A   1      37.156  31.280  31.649  1.00  0.00     0.031 C 
ATOM     17  C   UNL A   1      38.856  28.576  27.767  1.00  0.00     0.029 A 
ATOM     18  N   UNL A   1      40.123  28.644  29.610  1.00  0.00    -0.354 N 
ATOM     19  C   UNL A   1      38.942  30.956  33.044  1.00  0.00     0.074 A 
ATOM     20  C   UNL A   1      37.670  31.611  32.826  1.00  0.00     0.031 C 
ATOM     21  C   UNL A   1      39.941  27.820  27.538  1.00  0.00     0.029 A 
ATOM     22  C   UNL A   1      40.798  27.849  28.720  1.00  0.00     0.049 A 
ATOM     23  H   UNL A   1      40.462  28.855  30.509  1.00  0.00     0.167 HD
ATOM     24  C   UNL A   1      39.678  31.067  34.176  1.00  0.00     0.037 A 
ATOM     25  C   UNL A   1      41.978  27.213  28.838  1.00  0.00     0.037 A 
ATOM     26  C   UNL A   1      40.922  30.388  34.415  1.00  0.00     0.049 A 
ATOM     27  C   UNL A   1      42.757  27.324  30.115  1.00  0.00     0.074 A 
ATOM     28  C   UNL A   1      41.697  30.379  35.563  1.00  0.00     0.029 A 
ATOM     29  N   UNL A   1      41.576  29.592  33.486  1.00  0.00    -0.354 N 
ATOM     30  N   UNL A   1      42.457  27.984  31.206  1.00  0.00    -0.248 NA
ATOM     31  C   UNL A   1      44.039  26.609  30.175  1.00  0.00     0.031 C 
ATOM     32  C   UNL A   1      42.832  29.598  35.320  1.00  0.00     0.029 A 
ATOM     33  C   UNL A   1      42.754  29.104  34.029  1.00  0.00     0.049 A 
ATOM     34  H   UNL A   1      41.251  29.404  32.577  1.00  0.00     0.167 HD
ATOM     35  C   UNL A   1      43.511  27.769  32.080  1.00  0.00     0.074 A 
ATOM     36  C   UNL A   1      44.450  26.901  31.402  1.00  0.00     0.031 C 
ATOM     37  C   UNL A   1      43.684  28.255  33.333  1.00  0.00     0.037 A 
BRANCH  24  38
ATOM     38  C   UNL A   1      39.154  31.969  35.250  1.00  0.00     0.064 A 
ATOM     39  C   UNL A   1      38.376  31.472  36.306  1.00  0.00     0.173 A 
ATOM     40  C   UNL A   1      39.467  33.335  35.244  1.00  0.00     0.173 A 
ATOM     41  F   UNL A   1      38.042  30.174  36.346  1.00  0.00    -0.203 F 
ATOM     42  C   UNL A   1      37.918  32.317  37.313  1.00  0.00     0.198 A 
ATOM     43  C   UNL A   1      39.018  34.175  36.260  1.00  0.00     0.198 A 
ATOM     44  F   UNL A   1      40.208  33.855  34.254  1.00  0.00    -0.203 F 
ATOM     45  F   UNL A   1      37.153  31.829  38.299  1.00  0.00    -0.200 F 
ATOM     46  C   UNL A   1      38.243  33.666  37.291  1.00  0.00     0.200 A 
ATOM     47  F   UNL A   1      39.334  35.477  36.241  1.00  0.00    -0.200 F 
ATOM     48  F   UNL A   1      37.802  34.478  38.263  1.00  0.00    -0.200 F 
ENDBRANCH  24  38
BRANCH  25  49
ATOM     49  C   UNL A   1      42.480  26.404  27.703  1.00  0.00     0.064 A 
ATOM     50  C   UNL A   1      42.033  25.093  27.504  1.00  0.00     0.173 A 
ATOM     51  C   UNL A   1      43.379  26.945  26.773  1.00  0.00     0.173 A 
ATOM     52  F   UNL A   1      41.185  24.534  28.379  1.00  0.00    -0.203 F 
ATOM     53  C   UNL A   1      42.466  24.349  26.408  1.00  0.00     0.198 A 
ATOM     54  C   UNL A   1      43.799  26.205  25.671  1.00  0.00     0.198 A 
ATOM     55  F   UNL A   1      43.830  28.199  26.926  1.00  0.00    -0.203 F 
ATOM     56  F   UNL A   1      42.035  23.091  26.244  1.00  0.00    -0.200 F 
ATOM     57  C   UNL A   1      43.343  24.908  25.490  1.00  0.00     0.200 A 
ATOM     58  F   UNL A   1      44.640  26.751  24.781  1.00  0.00    -0.200 F 
ATOM     59  F   UNL A   1      43.750  24.195  24.431  1.00  0.00    -0.200 F 
ENDBRANCH  25  49
BRANCH  37  60
ATOM     60  C   UNL A   1      44.944  27.868  34.042  1.00  0.00     0.064 A 
ATOM     61  C   UNL A   1      46.091  28.669  33.961  1.00  0.00     0.173 A 
ATOM     62  C   UNL A   1      44.994  26.713  34.835  1.00  0.00     0.173 A 
ATOM     63  F   UNL A   1      46.090  29.775  33.201  1.00  0.00    -0.203 F 
ATOM     64  C   UNL A   1      47.253  28.320  34.644  1.00  0.00     0.198 A 
ATOM     65  C   UNL A   1      46.153  26.374  35.525  1.00  0.00     0.198 A 
ATOM     66  F   UNL A   1      43.919  25.918  34.940  1.00  0.00    -0.203 F 
ATOM     67  F   UNL A   1      48.348  29.084  34.534  1.00  0.00    -0.200 F 
ATOM     68  C   UNL A   1      47.282  27.176  35.427  1.00  0.00     0.200 A 
ATOM     69  F   UNL A   1      46.181  25.270  36.284  1.00  0.00    -0.200 F 
ATOM     70  F   UNL A   1      48.402  26.841  36.084  1.00  0.00    -0.200 F 
ENDBRANCH  37  60
ENDBRANCH  11  12
ENDBRANCH   4   6
ENDBRANCH   1   2
BRANCH   1  71
ATOM     71  C   UNL A   1      33.371  29.127  23.670  1.00  0.00     0.042 C 
BRANCH  71  72
ATOM     72  C   UNL A   1      33.963  27.853  23.078  1.00  0.00     0.118 C 
BRANCH  72  73
ATOM     73  N   UNL A   1      33.194  27.343  21.955  1.00  0.00    -0.352 N 
ATOM     74  C   UNL A   1      32.034  26.613  21.924  1.00  0.00     0.253 C 
ATOM     75  H   UNL A   1      33.569  27.558  21.069  1.00  0.00     0.163 HD
ATOM     76  O   UNL A   1      31.568  26.279  20.837  1.00  0.00    -0.269 OA
BRANCH  74  77
ATOM     77  C   UNL A   1      31.314  26.294  23.173  1.00  0.00     0.064 A 
ATOM     78  C   UNL A   1      31.889  25.299  23.985  1.00  0.00     0.031 A 
ATOM     79  C   UNL A   1      30.231  27.064  23.641  1.00  0.00     0.050 A 
ATOM     80  C   UNL A   1      31.351  25.017  25.236  1.00  0.00     0.018 A 
ATOM     81  C   UNL A   1      29.730  26.768  24.925  1.00  0.00     0.028 A 
ATOM     82  Br  UNL A   1      32.109  23.652  26.298  1.00  0.00    -0.051 Br
ATOM     83  C   UNL A   1      30.270  25.745  25.710  1.00  0.00     0.018 A 
BRANCH  79  84
ATOM     84  N   UNL A   1      29.611  28.112  22.941  1.00  0.00    -0.370 N 
ATOM     85  C   UNL A   1      30.040  29.385  22.475  1.00  0.00     0.125 C 
ATOM     86  C   UNL A   1      28.213  28.401  22.878  1.00  0.00     0.125 C 
ATOM     87  C   UNL A   1      28.567  29.861  22.522  1.00  0.00     0.005 C 
ATOM     88  C   UNL A   1      27.940  30.314  21.199  1.00  0.00     0.011 C 
ATOM     89  C   UNL A   1      28.264  30.860  23.649  1.00  0.00     0.011 C 
ATOM     90  C   UNL A   1      28.429  31.711  20.827  1.00  0.00     0.001 C 
ATOM     91  C   UNL A   1      28.777  32.248  23.268  1.00  0.00     0.001 C 
ATOM     92  C   UNL A   1      28.173  32.718  21.947  1.00  0.00     0.000 C 
ENDBRANCH  79  84
ENDBRANCH  74  77
ENDBRANCH  72  73
ENDBRANCH  71  72
ENDBRANCH   1  71
TORSDOF 11
ENDMDL
MODEL 2
REMARK VINA RESULT:     -13.0      0.404      7.266
REMARK SMILES O=C(NCCCNC(=O)c1cc(Br)ccc1N1CC2(CCCCC2)C1)c1ccc(-c2c3nc(c(-c4c(F)c(F)c(F)c(F)c4F)c4ccc([nH]4)c(-c4c(F)c(F)c(F)c(F)c4F)c4nc(c(-c5c(F)c(F)c(F)c(F)c5F)c5ccc2[nH]5)C=C4)C=C3)cc1
REMARK SMILES IDX 4 1 3 2 1 3 2 4 26 6 27 7 88 8 28 9 87 10 29 11 30 12 31 13
REMARK SMILES IDX 81 14 32 15 86 16 80 17 82 18 33 19 85 20 79 21 78 22 34 24
REMARK SMILES IDX 66 25 46 26 65 27 47 28 50 29 64 30 83 31 48 32 49 33 63 35
REMARK SMILES IDX 84 36 51 37 35 38 36 39 44 40 37 41 38 42 42 43 45 44 39 45
REMARK SMILES IDX 40 46 43 47 41 48 67 49 68 50 76 51 69 52 70 53 74 54 77 55
REMARK SMILES IDX 71 56 72 57 75 58 73 59 52 60 53 61 61 62 54 63 55 64 59 65
REMARK SMILES IDX 62 66 56 67 57 68 60 69 58 70 5 71 6 72 7 73 8 74 9 76 10 77
REMARK SMILES IDX 11 78 16 79 12 80 15 81 13 82 14 83 17 84 18 85 25 86 19 87
REMARK SMILES IDX 20 88 24 89 21 90 23 91 22 92
REMARK H PARENT 3 5 82 23 50 34 7 75
REMARK Flexibility Score: inf
ROOT
ATOM      1  C   UNL A   1      33.294  28.929  24.923  1.00  0.00     0.118 C 
ENDROOT
BRANCH   1   2
ATOM      2  N   UNL A   1      32.703  30.137  25.480  1.00  0.00    -0.352 N 
ATOM      3  O   UNL A   1      32.273  31.785  26.937  1.00  0.00    -0.269 OA
ATOM      4  C   UNL A   1      33.031  30.888  26.581  1.00  0.00     0.251 C 
ATOM      5  H   UNL A   1      31.928  30.476  24.977  1.00  0.00     0.163 HD
BRANCH   4   6
ATOM      6  C   UNL A   1      34.263  30.632  27.361  1.00  0.00     0.039 A 
ATOM      7  C   UNL A   1      35.187  31.642  27.638  1.00  0.00     0.014 A 
ATOM      8  C   UNL A   1      34.453  29.354  27.902  1.00  0.00     0.014 A 
ATOM      9  C   UNL A   1      36.355  31.345  28.342  1.00  0.00     0.010 A 
ATOM     10  C   UNL A   1      35.591  29.073  28.663  1.00  0.00     0.010 A 
ATOM     11  C   UNL A   1      36.566  30.059  28.863  1.00  0.00    -0.014 A 
BRANCH  11  12
ATOM     12  C   UNL A   1      37.792  29.773  29.649  1.00  0.00     0.031 A 
ATOM     13  C   UNL A   1      38.865  28.874  29.105  1.00  0.00     0.074 A 
ATOM     14  C   UNL A   1      37.940  30.335  30.864  1.00  0.00     0.049 A 
ATOM     15  N   UNL A   1      40.007  28.530  29.647  1.00  0.00    -0.248 NA
ATOM     16  C   UNL A   1      38.623  28.273  27.784  1.00  0.00     0.031 C 
ATOM     17  C   UNL A   1      36.955  31.196  31.519  1.00  0.00     0.029 A 
ATOM     18  N   UNL A   1      38.977  30.270  31.759  1.00  0.00    -0.354 N 
ATOM     19  C   UNL A   1      40.605  27.657  28.751  1.00  0.00     0.074 A 
ATOM     20  C   UNL A   1      39.698  27.512  27.632  1.00  0.00     0.031 C 
ATOM     21  C   UNL A   1      37.447  31.606  32.698  1.00  0.00     0.029 A 
ATOM     22  C   UNL A   1      38.766  31.012  32.893  1.00  0.00     0.049 A 
ATOM     23  H   UNL A   1      39.793  29.744  31.602  1.00  0.00     0.167 HD
ATOM     24  C   UNL A   1      41.806  27.039  28.849  1.00  0.00     0.037 A 
ATOM     25  C   UNL A   1      39.547  31.193  33.974  1.00  0.00     0.037 A 
ATOM     26  C   UNL A   1      42.729  27.209  29.938  1.00  0.00     0.049 A 
ATOM     27  C   UNL A   1      40.887  30.525  34.043  1.00  0.00     0.074 A 
ATOM     28  C   UNL A   1      44.002  26.684  30.083  1.00  0.00     0.029 A 
ATOM     29  N   UNL A   1      42.478  27.967  31.071  1.00  0.00    -0.354 N 
ATOM     30  N   UNL A   1      41.461  29.739  33.166  1.00  0.00    -0.248 NA
ATOM     31  C   UNL A   1      41.685  30.762  35.254  1.00  0.00     0.031 C 
ATOM     32  C   UNL A   1      44.512  27.105  31.317  1.00  0.00     0.029 A 
ATOM     33  C   UNL A   1      43.564  27.907  31.930  1.00  0.00     0.049 A 
ATOM     34  H   UNL A   1      41.651  28.472  31.241  1.00  0.00     0.167 HD
ATOM     35  C   UNL A   1      42.682  29.384  33.716  1.00  0.00     0.074 A 
ATOM     36  C   UNL A   1      42.779  30.056  34.995  1.00  0.00     0.031 C 
ATOM     37  C   UNL A   1      43.636  28.569  33.205  1.00  0.00     0.037 A 
BRANCH  24  38
ATOM     38  C   UNL A   1      42.192  26.106  27.743  1.00  0.00     0.064 A 
ATOM     39  C   UNL A   1      41.694  24.797  27.683  1.00  0.00     0.173 A 
ATOM     40  C   UNL A   1      43.037  26.541  26.712  1.00  0.00     0.173 A 
ATOM     41  F   UNL A   1      40.892  24.335  28.654  1.00  0.00    -0.203 F 
ATOM     42  C   UNL A   1      42.040  23.950  26.634  1.00  0.00     0.198 A 
ATOM     43  C   UNL A   1      43.370  25.696  25.657  1.00  0.00     0.198 A 
ATOM     44  F   UNL A   1      43.538  27.786  26.728  1.00  0.00    -0.203 F 
ATOM     45  F   UNL A   1      41.575  22.694  26.609  1.00  0.00    -0.200 F 
ATOM     46  C   UNL A   1      42.874  24.401  25.621  1.00  0.00     0.200 A 
ATOM     47  F   UNL A   1      44.173  26.132  24.678  1.00  0.00    -0.200 F 
ATOM     48  F   UNL A   1      43.205  23.584  24.611  1.00  0.00    -0.200 F 
ENDBRANCH  24  38
BRANCH  25  49
ATOM     49  C   UNL A   1      39.068  32.063  35.074  1.00  0.00     0.064 A 
ATOM     50  C   UNL A   1      38.395  31.522  36.175  1.00  0.00     0.173 A 
ATOM     51  C   UNL A   1      39.317  33.442  35.064  1.00  0.00     0.173 A 
ATOM     52  F   UNL A   1      38.123  30.210  36.215  1.00  0.00    -0.203 F 
ATOM     53  C   UNL A   1      37.988  32.332  37.233  1.00  0.00     0.198 A 
ATOM     54  C   UNL A   1      38.923  34.248  36.129  1.00  0.00     0.198 A 
ATOM     55  F   UNL A   1      39.961  34.001  34.029  1.00  0.00    -0.203 F 
ATOM     56  F   UNL A   1      37.333  31.795  38.272  1.00  0.00    -0.200 F 
ATOM     57  C   UNL A   1      38.259  33.693  37.212  1.00  0.00     0.200 A 
ATOM     58  F   UNL A   1      39.193  35.561  36.110  1.00  0.00    -0.200 F 
ATOM     59  F   UNL A   1      37.877  34.468  38.236  1.00  0.00    -0.200 F 
ENDBRANCH  25  49
BRANCH  37  60
ATOM     60  C   UNL A   1      44.858  28.348  34.041  1.00  0.00     0.064 A 
ATOM     61  C   UNL A   1      45.949  29.225  33.968  1.00  0.00     0.173 A 
ATOM     62  C   UNL A   1      44.925  27.277  34.943  1.00  0.00     0.173 A 
ATOM     63  F   UNL A   1      45.931  30.254  33.107  1.00  0.00    -0.203 F 
ATOM     64  C   UNL A   1      47.073  29.031  34.766  1.00  0.00     0.198 A 
ATOM     65  C   UNL A   1      46.045  27.093  35.747  1.00  0.00     0.198 A 
ATOM     66  F   UNL A   1      43.904  26.414  35.044  1.00  0.00    -0.203 F 
ATOM     67  F   UNL A   1      48.116  29.866  34.664  1.00  0.00    -0.200 F 
ATOM     68  C   UNL A   1      47.118  27.969  35.656  1.00  0.00     0.200 A 
ATOM     69  F   UNL A   1      46.089  26.068  36.609  1.00  0.00    -0.200 F 
ATOM     70  F   UNL A   1      48.202  27.784  36.424  1.00  0.00    -0.200 F 
ENDBRANCH  37  60
ENDBRANCH  11  12
ENDBRANCH   4   6
ENDBRANCH   1   2
BRANCH   1  71
ATOM     71  C   UNL A   1      33.492  28.998  23.411  1.00  0.00     0.042 C 
BRANCH  71  72
ATOM     72  C   UNL A   1      34.023  27.721  22.771  1.00  0.00     0.118 C 
BRANCH  72  73
ATOM     73  N   UNL A   1      33.158  27.216  21.718  1.00  0.00    -0.352 N 
ATOM     74  C   UNL A   1      31.970  26.534  21.787  1.00  0.00     0.253 C 
ATOM     75  H   UNL A   1      33.478  27.394  20.803  1.00  0.00     0.163 HD
ATOM     76  O   UNL A   1      31.417  26.194  20.744  1.00  0.00    -0.269 OA
BRANCH  74  77
ATOM     77  C   UNL A   1      31.327  26.276  23.091  1.00  0.00     0.064 A 
ATOM     78  C   UNL A   1      31.925  25.286  23.893  1.00  0.00     0.031 A 
ATOM     79  C   UNL A   1      30.304  27.095  23.606  1.00  0.00     0.050 A 
ATOM     80  C   UNL A   1      31.464  25.058  25.185  1.00  0.00     0.018 A 
ATOM     81  C   UNL A   1      29.883  26.853  24.929  1.00  0.00     0.028 A 
ATOM     82  Br  UNL A   1      32.249  23.699  26.235  1.00  0.00    -0.051 Br
ATOM     83  C   UNL A   1      30.441  25.836  25.708  1.00  0.00     0.018 A 
BRANCH  79  84
ATOM     84  N   UNL A   1      29.672  28.144  22.917  1.00  0.00    -0.370 N 
ATOM     85  C   UNL A   1      30.083  29.431  22.475  1.00  0.00     0.125 C 
ATOM     86  C   UNL A   1      28.270  28.410  22.847  1.00  0.00     0.125 C 
ATOM     87  C   UNL A   1      28.601  29.881  22.517  1.00  0.00     0.005 C 
ATOM     88  C   UNL A   1      27.977  30.344  21.196  1.00  0.00     0.011 C 
ATOM     89  C   UNL A   1      28.272  30.857  23.657  1.00  0.00     0.011 C 
ATOM     90  C   UNL A   1      28.445  31.755  20.849  1.00  0.00     0.001 C 
ATOM     91  C   UNL A   1      28.764  32.259  23.302  1.00  0.00     0.001 C 
ATOM     92  C   UNL A   1      28.163  32.739  21.983  1.00  0.00     0.000 C 
ENDBRANCH  79  84
ENDBRANCH  74  77
ENDBRANCH  72  73
ENDBRANCH  71  72
ENDBRANCH   1  71
TORSDOF 11
ENDMDL
MODEL 3
REMARK VINA RESULT:     -13.0      1.604      2.425
REMARK SMILES O=C(NCCCNC(=O)c1cc(Br)ccc1N1CC2(CCCCC2)C1)c1ccc(-c2c3nc(c(-c4c(F)c(F)c(F)c(F)c4F)c4ccc([nH]4)c(-c4c(F)c(F)c(F)c(F)c4F)c4nc(c(-c5c(F)c(F)c(F)c(F)c5F)c5ccc2[nH]5)C=C4)C=C3)cc1
REMARK SMILES IDX 4 1 3 2 1 3 2 4 26 6 27 7 88 8 28 9 87 10 29 11 30 12 31 13
REMARK SMILES IDX 81 14 32 15 86 16 80 17 82 18 33 19 85 20 79 21 78 22 34 24
REMARK SMILES IDX 66 25 46 26 65 27 47 28 50 29 64 30 83 31 48 32 49 33 63 35
REMARK SMILES IDX 84 36 51 37 35 38 36 39 44 40 37 41 38 42 42 43 45 44 39 45
REMARK SMILES IDX 40 46 43 47 41 48 67 49 68 50 76 51 69 52 70 53 74 54 77 55
REMARK SMILES IDX 71 56 72 57 75 58 73 59 52 60 53 61 61 62 54 63 55 64 59 65
REMARK SMILES IDX 62 66 56 67 57 68 60 69 58 70 5 71 6 72 7 73 8 74 9 76 10 77
REMARK SMILES IDX 11 78 16 79 12 80 15 81 13 82 14 83 17 84 18 85 25 86 19 87
REMARK SMILES IDX 20 88 24 89 21 90 23 91 22 92
REMARK H PARENT 3 5 82 23 50 34 7 75
REMARK Flexibility Score: inf
ROOT
ATOM      1  C   UNL A   1      32.539  32.466  26.626  1.00  0.00     0.118 C 
ENDROOT
BRANCH   1   2
ATOM      2  N   UNL A   1      32.364  33.766  27.256  1.00  0.00    -0.352 N 
ATOM      3  O   UNL A   1      32.568  35.415  28.761  1.00  0.00    -0.269 OA
ATOM      4  C   UNL A   1      33.009  34.362  28.311  1.00  0.00     0.251 C 
ATOM      5  H   UNL A   1      31.656  34.318  26.853  1.00  0.00     0.163 HD
BRANCH   4   6
ATOM      6  C   UNL A   1      34.209  33.758  28.934  1.00  0.00     0.039 A 
ATOM      7  C   UNL A   1      35.492  34.261  28.710  1.00  0.00     0.014 A 
ATOM      8  C   UNL A   1      34.028  32.703  29.837  1.00  0.00     0.014 A 
ATOM      9  C   UNL A   1      36.598  33.634  29.285  1.00  0.00     0.010 A 
ATOM     10  C   UNL A   1      35.131  32.117  30.465  1.00  0.00     0.010 A 
ATOM     11  C   UNL A   1      36.428  32.559  30.170  1.00  0.00    -0.014 A 
BRANCH  11  12
ATOM     12  C   UNL A   1      37.612  31.932  30.809  1.00  0.00     0.031 A 
ATOM     13  C   UNL A   1      38.024  32.306  32.204  1.00  0.00     0.074 A 
ATOM     14  C   UNL A   1      38.317  31.012  30.125  1.00  0.00     0.049 A 
ATOM     15  N   UNL A   1      39.019  31.846  32.922  1.00  0.00    -0.248 NA
ATOM     16  C   UNL A   1      37.223  33.338  32.880  1.00  0.00     0.031 C 
ATOM     17  C   UNL A   1      38.041  30.589  28.751  1.00  0.00     0.029 A 
ATOM     18  N   UNL A   1      39.406  30.264  30.494  1.00  0.00    -0.354 N 
ATOM     19  C   UNL A   1      38.980  32.547  34.118  1.00  0.00     0.074 A 
ATOM     20  C   UNL A   1      37.871  33.473  34.030  1.00  0.00     0.031 C 
ATOM     21  C   UNL A   1      38.917  29.634  28.403  1.00  0.00     0.029 A 
ATOM     22  C   UNL A   1      39.832  29.401  29.516  1.00  0.00     0.049 A 
ATOM     23  H   UNL A   1      39.838  30.338  31.374  1.00  0.00     0.167 HD
ATOM     24  C   UNL A   1      39.791  32.423  35.195  1.00  0.00     0.037 A 
ATOM     25  C   UNL A   1      40.849  28.520  29.514  1.00  0.00     0.037 A 
ATOM     26  C   UNL A   1      40.869  31.478  35.305  1.00  0.00     0.049 A 
ATOM     27  C   UNL A   1      41.713  28.378  30.732  1.00  0.00     0.074 A 
ATOM     28  C   UNL A   1      41.694  31.229  36.390  1.00  0.00     0.029 A 
ATOM     29  N   UNL A   1      41.272  30.623  34.292  1.00  0.00    -0.354 N 
ATOM     30  N   UNL A   1      41.634  29.014  31.874  1.00  0.00    -0.248 NA
ATOM     31  C   UNL A   1      42.808  27.402  30.659  1.00  0.00     0.031 C 
ATOM     32  C   UNL A   1      42.612  30.238  36.023  1.00  0.00     0.029 A 
ATOM     33  C   UNL A   1      42.347  29.859  34.718  1.00  0.00     0.049 A 
ATOM     34  H   UNL A   1      40.858  30.568  33.401  1.00  0.00     0.167 HD
ATOM     35  C   UNL A   1      42.668  28.521  32.654  1.00  0.00     0.074 A 
ATOM     36  C   UNL A   1      43.350  27.517  31.864  1.00  0.00     0.031 C 
ATOM     37  C   UNL A   1      43.022  28.876  33.913  1.00  0.00     0.037 A 
BRANCH  24  38
ATOM     38  C   UNL A   1      39.546  33.345  36.350  1.00  0.00     0.064 A 
ATOM     39  C   UNL A   1      38.719  32.973  37.419  1.00  0.00     0.173 A 
ATOM     40  C   UNL A   1      40.178  34.595  36.405  1.00  0.00     0.173 A 
ATOM     41  F   UNL A   1      38.085  31.791  37.402  1.00  0.00    -0.203 F 
ATOM     42  C   UNL A   1      38.522  33.828  38.499  1.00  0.00     0.198 A 
ATOM     43  C   UNL A   1      39.989  35.443  37.493  1.00  0.00     0.198 A 
ATOM     44  F   UNL A   1      40.979  34.993  35.405  1.00  0.00    -0.203 F 
ATOM     45  F   UNL A   1      37.705  33.466  39.498  1.00  0.00    -0.200 F 
ATOM     46  C   UNL A   1      39.159  35.060  38.537  1.00  0.00     0.200 A 
ATOM     47  F   UNL A   1      40.607  36.631  37.531  1.00  0.00    -0.200 F 
ATOM     48  F   UNL A   1      38.969  35.882  39.579  1.00  0.00    -0.200 F 
ENDBRANCH  24  38
BRANCH  25  49
ATOM     49  C   UNL A   1      41.090  27.698  28.305  1.00  0.00     0.064 A 
ATOM     50  C   UNL A   1      41.937  28.150  27.286  1.00  0.00     0.173 A 
ATOM     51  C   UNL A   1      40.514  26.427  28.171  1.00  0.00     0.173 A 
ATOM     52  F   UNL A   1      42.494  29.366  27.369  1.00  0.00    -0.203 F 
ATOM     53  C   UNL A   1      42.202  27.356  26.173  1.00  0.00     0.198 A 
ATOM     54  C   UNL A   1      40.793  25.628  27.065  1.00  0.00     0.198 A 
ATOM     55  F   UNL A   1      39.699  25.955  29.126  1.00  0.00    -0.203 F 
ATOM     56  F   UNL A   1      43.006  27.814  25.203  1.00  0.00    -0.200 F 
ATOM     57  C   UNL A   1      41.636  26.093  26.067  1.00  0.00     0.200 A 
ATOM     58  F   UNL A   1      40.252  24.406  26.969  1.00  0.00    -0.200 F 
ATOM     59  F   UNL A   1      41.903  25.326  25.001  1.00  0.00    -0.200 F 
ENDBRANCH  25  49
BRANCH  37  60
ATOM     60  C   UNL A   1      44.209  28.182  34.505  1.00  0.00     0.064 A 
ATOM     61  C   UNL A   1      45.492  28.737  34.406  1.00  0.00     0.173 A 
ATOM     62  C   UNL A   1      44.059  26.977  35.205  1.00  0.00     0.173 A 
ATOM     63  F   UNL A   1      45.681  29.882  33.731  1.00  0.00    -0.203 F 
ATOM     64  C   UNL A   1      46.589  28.102  34.980  1.00  0.00     0.198 A 
ATOM     65  C   UNL A   1      45.156  26.351  35.788  1.00  0.00     0.198 A 
ATOM     66  F   UNL A   1      42.848  26.410  35.323  1.00  0.00    -0.203 F 
ATOM     67  F   UNL A   1      47.812  28.635  34.853  1.00  0.00    -0.200 F 
ATOM     68  C   UNL A   1      46.419  26.913  35.673  1.00  0.00     0.200 A 
ATOM     69  F   UNL A   1      44.992  25.203  36.459  1.00  0.00    -0.200 F 
ATOM     70  F   UNL A   1      47.478  26.302  36.225  1.00  0.00    -0.200 F 
ENDBRANCH  37  60
ENDBRANCH  11  12
ENDBRANCH   4   6
ENDBRANCH   1   2
BRANCH   1  71
ATOM     71  C   UNL A   1      31.238  31.678  26.501  1.00  0.00     0.042 C 
BRANCH  71  72
ATOM     72  C   UNL A   1      31.403  30.223  26.078  1.00  0.00     0.118 C 
BRANCH  72  73
ATOM     73  N   UNL A   1      32.256  30.068  24.912  1.00  0.00    -0.352 N 
ATOM     74  C   UNL A   1      32.463  28.987  24.093  1.00  0.00     0.253 C 
ATOM     75  H   UNL A   1      32.771  30.872  24.669  1.00  0.00     0.163 HD
ATOM     76  O   UNL A   1      33.255  29.089  23.158  1.00  0.00    -0.269 OA
BRANCH  74  77
ATOM     77  C   UNL A   1      31.693  27.742  24.284  1.00  0.00     0.064 A 
ATOM     78  C   UNL A   1      32.288  26.763  25.102  1.00  0.00     0.031 A 
ATOM     79  C   UNL A   1      30.360  27.602  23.852  1.00  0.00     0.050 A 
ATOM     80  C   UNL A   1      31.587  25.610  25.438  1.00  0.00     0.018 A 
ATOM     81  C   UNL A   1      29.672  26.433  24.237  1.00  0.00     0.028 A 
ATOM     82  Br  UNL A   1      32.412  24.287  26.503  1.00  0.00    -0.051 Br
ATOM     83  C   UNL A   1      30.280  25.438  25.006  1.00  0.00     0.018 A 
BRANCH  79  84
ATOM     84  N   UNL A   1      29.649  28.535  23.079  1.00  0.00    -0.370 N 
ATOM     85  C   UNL A   1      30.002  29.727  22.388  1.00  0.00     0.125 C 
ATOM     86  C   UNL A   1      28.248  28.807  23.126  1.00  0.00     0.125 C 
ATOM     87  C   UNL A   1      28.534  30.200  22.525  1.00  0.00     0.005 C 
ATOM     88  C   UNL A   1      27.761  30.452  21.226  1.00  0.00     0.011 C 
ATOM     89  C   UNL A   1      28.335  31.353  23.521  1.00  0.00     0.011 C 
ATOM     90  C   UNL A   1      28.182  31.781  20.603  1.00  0.00     0.001 C 
ATOM     91  C   UNL A   1      28.778  32.672  22.889  1.00  0.00     0.001 C 
ATOM     92  C   UNL A   1      28.028  32.941  21.586  1.00  0.00     0.000 C 
ENDBRANCH  79  84
ENDBRANCH  74  77
ENDBRANCH  72  73
ENDBRANCH  71  72
ENDBRANCH   1  71
TORSDOF 11
ENDMDL
