MODEL 1
REMARK VINA RESULT:     -13.4      0.000      0.000
REMARK SMILES NS(=O)(=O)c1ccc(-n2nc(C(F)F)cc2-c2ccc(C(=O)NCCCNC(=O)c3ccc(-c4c5nc(c(-c6c(F)c(F)c(F)c(F)c6F)c6ccc([nH]6)c(-c6c(F)c(F)c(F)c(F)c6F)c6nc(c(-c7c(F)c(F)c(F)c(F)c7F)c7ccc4[nH]7)C=C6)C=C5)cc3)cc2)cc1
REMARK SMILES IDX 24 1 23 2 21 3 22 4 20 6 17 7 18 8 94 9 19 10 93 11 16 12
REMARK SMILES IDX 9 13 10 14 11 15 15 16 8 17 5 18 6 19 96 20 7 21 95 22 2 23
REMARK SMILES IDX 3 24 4 25 1 26 12 29 13 30 14 31 25 32 26 33 27 34 28 35
REMARK SMILES IDX 29 37 30 38 31 39 92 40 32 41 91 42 33 43 34 44 35 45 85 46
REMARK SMILES IDX 36 47 90 48 84 49 86 50 37 51 89 52 83 53 82 54 38 56 70 57
REMARK SMILES IDX 50 58 69 59 51 60 54 61 68 62 87 63 52 64 53 65 67 67 88 68
REMARK SMILES IDX 55 69 39 70 40 71 48 72 41 73 42 74 46 75 49 76 43 77 44 78
REMARK SMILES IDX 47 79 45 80 71 81 72 82 80 83 73 84 74 85 78 86 81 87 75 88
REMARK SMILES IDX 76 89 79 90 77 91 56 92 57 93 65 94 58 95 59 96 63 97 66 98
REMARK SMILES IDX 60 99 61 100 64 101 62 102
REMARK H PARENT 23 5 1 27 1 28 27 36 86 55 54 66
REMARK Flexibility Score: inf
ROOT
ATOM      1  C   UNL A   1      31.931  31.159  26.755  1.00  0.00     0.118 C 
ENDROOT
BRANCH   1   2
ATOM      2  N   UNL A   1      33.061  30.761  27.583  1.00  0.00    -0.352 N 
ATOM      3  C   UNL A   1      33.739  29.568  27.682  1.00  0.00     0.251 C 
ATOM      4  O   UNL A   1      34.724  29.520  28.416  1.00  0.00    -0.269 OA
ATOM      5  H   UNL A   1      33.399  31.470  28.177  1.00  0.00     0.163 HD
BRANCH   3   6
ATOM      6  C   UNL A   1      33.346  28.361  26.905  1.00  0.00     0.039 A 
ATOM      7  C   UNL A   1      32.560  26.042  25.535  1.00  0.00     0.000 A 
ATOM      8  C   UNL A   1      31.782  26.530  26.592  1.00  0.00     0.011 A 
ATOM      9  C   UNL A   1      33.714  26.716  25.158  1.00  0.00     0.011 A 
ATOM     10  C   UNL A   1      32.179  27.682  27.280  1.00  0.00     0.014 A 
ATOM     11  C   UNL A   1      34.067  27.891  25.806  1.00  0.00     0.014 A 
BRANCH   7  12
ATOM     12  C   UNL A   1      32.140  24.906  24.738  1.00  0.00     0.075 A 
ATOM     13  N   UNL A   1      31.086  24.928  23.835  1.00  0.00    -0.233 N 
ATOM     14  N   UNL A   1      30.820  23.690  23.351  1.00  0.00    -0.166 NA
ATOM     15  C   UNL A   1      31.861  22.935  23.753  1.00  0.00     0.129 A 
ATOM     16  C   UNL A   1      32.682  23.643  24.661  1.00  0.00     0.060 A 
BRANCH  13  17
ATOM     17  C   UNL A   1      30.344  26.064  23.415  1.00  0.00     0.065 A 
ATOM     18  C   UNL A   1      28.987  28.415  22.797  1.00  0.00     0.082 A 
ATOM     19  C   UNL A   1      30.263  28.205  22.273  1.00  0.00     0.024 A 
ATOM     20  C   UNL A   1      28.370  27.441  23.592  1.00  0.00     0.024 A 
ATOM     21  C   UNL A   1      30.942  27.030  22.588  1.00  0.00     0.030 A 
ATOM     22  C   UNL A   1      29.039  26.247  23.880  1.00  0.00     0.030 A 
BRANCH  18  23
ATOM     23  S   UNL A   1      28.162  29.940  22.450  1.00  0.00     0.238 S 
ATOM     24  O   UNL A   1      26.987  30.046  23.296  1.00  0.00    -0.207 OA
ATOM     25  O   UNL A   1      28.123  30.130  21.028  1.00  0.00    -0.207 OA
BRANCH  23  26
ATOM     26  N   UNL A   1      29.232  31.092  23.052  1.00  0.00    -0.225 NA
ATOM     27  H   UNL A   1      29.280  31.011  24.068  1.00  0.00     0.137 HD
ATOM     28  H   UNL A   1      28.905  32.024  22.800  1.00  0.00     0.137 HD
ENDBRANCH  23  26
ENDBRANCH  18  23
ENDBRANCH  13  17
BRANCH  15  29
ATOM     29  C   UNL A   1      32.093  21.534  23.275  1.00  0.00     0.393 C 
ATOM     30  F   UNL A   1      32.158  21.448  21.920  1.00  0.00    -0.203 F 
ATOM     31  F   UNL A   1      33.260  21.025  23.760  1.00  0.00    -0.203 F 
ENDBRANCH  15  29
ENDBRANCH   7  12
ENDBRANCH   3   6
ENDBRANCH   1   2
BRANCH   1  32
ATOM     32  C   UNL A   1      31.665  32.671  26.836  1.00  0.00     0.042 C 
BRANCH  32  33
ATOM     33  C   UNL A   1      32.871  33.447  27.319  1.00  0.00     0.118 C 
BRANCH  33  34
ATOM     34  N   UNL A   1      32.512  34.459  28.312  1.00  0.00    -0.352 N 
ATOM     35  C   UNL A   1      33.104  34.709  29.532  1.00  0.00     0.251 C 
ATOM     36  H   UNL A   1      31.748  35.035  28.080  1.00  0.00     0.163 HD
ATOM     37  O   UNL A   1      32.505  35.322  30.406  1.00  0.00    -0.269 OA
BRANCH  35  38
ATOM     38  C   UNL A   1      34.468  34.210  29.766  1.00  0.00     0.039 A 
ATOM     39  C   UNL A   1      34.721  33.213  30.709  1.00  0.00     0.014 A 
ATOM     40  C   UNL A   1      35.490  34.717  28.971  1.00  0.00     0.014 A 
ATOM     41  C   UNL A   1      35.999  32.665  30.769  1.00  0.00     0.010 A 
ATOM     42  C   UNL A   1      36.682  34.046  28.895  1.00  0.00     0.010 A 
ATOM     43  C   UNL A   1      36.967  33.064  29.831  1.00  0.00    -0.014 A 
BRANCH  43  44
ATOM     44  C   UNL A   1      38.253  32.383  29.747  1.00  0.00     0.031 A 
ATOM     45  C   UNL A   1      38.176  31.008  29.198  1.00  0.00     0.074 A 
ATOM     46  C   UNL A   1      39.438  32.988  29.986  1.00  0.00     0.049 A 
ATOM     47  N   UNL A   1      38.297  29.906  29.859  1.00  0.00    -0.248 NA
ATOM     48  C   UNL A   1      37.772  30.818  27.797  1.00  0.00     0.031 C 
ATOM     49  C   UNL A   1      39.691  34.410  30.255  1.00  0.00     0.029 A 
ATOM     50  N   UNL A   1      40.697  32.461  29.965  1.00  0.00    -0.354 N 
ATOM     51  C   UNL A   1      38.212  28.883  28.920  1.00  0.00     0.074 A 
ATOM     52  C   UNL A   1      37.699  29.485  27.719  1.00  0.00     0.031 C 
ATOM     53  C   UNL A   1      41.014  34.669  30.158  1.00  0.00     0.029 A 
ATOM     54  C   UNL A   1      41.713  33.407  30.022  1.00  0.00     0.049 A 
ATOM     55  H   UNL A   1      40.870  31.493  29.914  1.00  0.00     0.167 HD
ATOM     56  C   UNL A   1      38.851  27.701  29.149  1.00  0.00     0.037 A 
ATOM     57  C   UNL A   1      43.046  33.175  30.007  1.00  0.00     0.037 A 
ATOM     58  C   UNL A   1      39.295  27.630  30.520  1.00  0.00     0.049 A 
ATOM     59  C   UNL A   1      43.251  31.797  30.496  1.00  0.00     0.074 A 
ATOM     60  C   UNL A   1      38.726  27.381  31.750  1.00  0.00     0.029 A 
ATOM     61  N   UNL A   1      40.492  28.257  30.742  1.00  0.00    -0.354 N 
ATOM     62  N   UNL A   1      43.001  31.432  31.723  1.00  0.00    -0.248 NA
ATOM     63  C   UNL A   1      43.415  30.710  29.538  1.00  0.00     0.031 C 
ATOM     64  C   UNL A   1      39.553  28.041  32.711  1.00  0.00     0.029 A 
ATOM     65  C   UNL A   1      40.621  28.640  32.050  1.00  0.00     0.049 A 
ATOM     66  H   UNL A   1      41.173  28.414  30.049  1.00  0.00     0.167 HD
ATOM     67  C   UNL A   1      42.545  30.136  31.599  1.00  0.00     0.074 A 
ATOM     68  C   UNL A   1      42.999  29.687  30.289  1.00  0.00     0.031 C 
ATOM     69  C   UNL A   1      41.568  29.663  32.422  1.00  0.00     0.037 A 
BRANCH  56  70
ATOM     70  C   UNL A   1      39.520  26.845  28.093  1.00  0.00     0.064 A 
ATOM     71  C   UNL A   1      39.446  25.439  28.215  1.00  0.00     0.173 A 
ATOM     72  C   UNL A   1      40.487  27.319  27.182  1.00  0.00     0.173 A 
ATOM     73  F   UNL A   1      38.569  24.871  29.057  1.00  0.00    -0.203 F 
ATOM     74  C   UNL A   1      40.331  24.587  27.546  1.00  0.00     0.198 A 
ATOM     75  C   UNL A   1      41.336  26.463  26.479  1.00  0.00     0.198 A 
ATOM     76  F   UNL A   1      40.735  28.622  27.018  1.00  0.00    -0.203 F 
ATOM     77  F   UNL A   1      40.303  23.270  27.792  1.00  0.00    -0.200 F 
ATOM     78  C   UNL A   1      41.281  25.101  26.685  1.00  0.00     0.200 A 
ATOM     79  F   UNL A   1      42.265  26.982  25.664  1.00  0.00    -0.200 F 
ATOM     80  F   UNL A   1      42.172  24.296  26.091  1.00  0.00    -0.200 F 
ENDBRANCH  56  70
BRANCH  57  81
ATOM     81  C   UNL A   1      44.150  33.992  29.465  1.00  0.00     0.064 A 
ATOM     82  C   UNL A   1      44.419  34.025  28.088  1.00  0.00     0.173 A 
ATOM     83  C   UNL A   1      44.746  34.995  30.251  1.00  0.00     0.173 A 
ATOM     84  F   UNL A   1      43.866  33.118  27.270  1.00  0.00    -0.203 F 
ATOM     85  C   UNL A   1      45.193  35.041  27.519  1.00  0.00     0.198 A 
ATOM     86  C   UNL A   1      45.519  36.008  29.682  1.00  0.00     0.198 A 
ATOM     87  F   UNL A   1      44.497  35.068  31.567  1.00  0.00    -0.203 F 
ATOM     88  F   UNL A   1      45.364  35.086  26.190  1.00  0.00    -0.200 F 
ATOM     89  C   UNL A   1      45.726  36.042  28.314  1.00  0.00     0.200 A 
ATOM     90  F   UNL A   1      45.997  36.994  30.455  1.00  0.00    -0.200 F 
ATOM     91  F   UNL A   1      46.396  37.062  27.760  1.00  0.00    -0.200 F 
ENDBRANCH  57  81
BRANCH  69  92
ATOM     92  C   UNL A   1      41.383  30.371  33.727  1.00  0.00     0.064 A 
ATOM     93  C   UNL A   1      40.455  31.402  33.950  1.00  0.00     0.173 A 
ATOM     94  C   UNL A   1      42.153  29.945  34.816  1.00  0.00     0.173 A 
ATOM     95  F   UNL A   1      39.638  31.815  32.975  1.00  0.00    -0.203 F 
ATOM     96  C   UNL A   1      40.336  32.004  35.201  1.00  0.00     0.198 A 
ATOM     97  C   UNL A   1      42.010  30.525  36.071  1.00  0.00     0.198 A 
ATOM     98  F   UNL A   1      43.028  28.938  34.664  1.00  0.00    -0.203 F 
ATOM     99  F   UNL A   1      39.459  33.001  35.388  1.00  0.00    -0.200 F 
ATOM    100  C   UNL A   1      41.110  31.561  36.262  1.00  0.00     0.200 A 
ATOM    101  F   UNL A   1      42.734  30.066  37.101  1.00  0.00    -0.200 F 
ATOM    102  F   UNL A   1      40.976  32.120  37.473  1.00  0.00    -0.200 F 
ENDBRANCH  69  92
ENDBRANCH  43  44
ENDBRANCH  35  38
ENDBRANCH  33  34
ENDBRANCH  32  33
ENDBRANCH   1  32
TORSDOF 15
ENDMDL
MODEL 2
REMARK VINA RESULT:     -13.1      4.598      9.192
REMARK SMILES NS(=O)(=O)c1ccc(-n2nc(C(F)F)cc2-c2ccc(C(=O)NCCCNC(=O)c3ccc(-c4c5nc(c(-c6c(F)c(F)c(F)c(F)c6F)c6ccc([nH]6)c(-c6c(F)c(F)c(F)c(F)c6F)c6nc(c(-c7c(F)c(F)c(F)c(F)c7F)c7ccc4[nH]7)C=C6)C=C5)cc3)cc2)cc1
REMARK SMILES IDX 24 1 23 2 21 3 22 4 20 6 17 7 18 8 94 9 19 10 93 11 16 12
REMARK SMILES IDX 9 13 10 14 11 15 15 16 8 17 5 18 6 19 96 20 7 21 95 22 2 23
REMARK SMILES IDX 3 24 4 25 1 26 12 29 13 30 14 31 25 32 26 33 27 34 28 35
REMARK SMILES IDX 29 37 30 38 31 39 92 40 32 41 91 42 33 43 34 44 35 45 85 46
REMARK SMILES IDX 36 47 90 48 84 49 86 50 37 51 89 52 83 53 82 54 38 56 70 57
REMARK SMILES IDX 50 58 69 59 51 60 54 61 68 62 87 63 52 64 53 65 67 67 88 68
REMARK SMILES IDX 55 69 39 70 40 71 48 72 41 73 42 74 46 75 49 76 43 77 44 78
REMARK SMILES IDX 47 79 45 80 71 81 72 82 80 83 73 84 74 85 78 86 81 87 75 88
REMARK SMILES IDX 76 89 79 90 77 91 56 92 57 93 65 94 58 95 59 96 63 97 66 98
REMARK SMILES IDX 60 99 61 100 64 101 62 102
REMARK H PARENT 23 5 1 27 1 28 27 36 86 55 54 66
REMARK Flexibility Score: inf
ROOT
ATOM      1  C   UNL A   1      38.528  20.786  25.486  1.00  0.00     0.118 C 
ENDROOT
BRANCH   1   2
ATOM      2  N   UNL A   1      39.026  22.130  25.747  1.00  0.00    -0.352 N 
ATOM      3  C   UNL A   1      38.398  23.354  25.718  1.00  0.00     0.251 C 
ATOM      4  O   UNL A   1      39.040  24.344  26.063  1.00  0.00    -0.269 OA
ATOM      5  H   UNL A   1      39.980  22.170  25.986  1.00  0.00     0.163 HD
BRANCH   3   6
ATOM      6  C   UNL A   1      36.970  23.508  25.328  1.00  0.00     0.039 A 
ATOM      7  C   UNL A   1      34.248  23.751  24.692  1.00  0.00     0.000 A 
ATOM      8  C   UNL A   1      34.668  23.844  26.024  1.00  0.00     0.011 A 
ATOM      9  C   UNL A   1      35.183  23.551  23.685  1.00  0.00     0.011 A 
ATOM     10  C   UNL A   1      36.024  23.715  26.342  1.00  0.00     0.014 A 
ATOM     11  C   UNL A   1      36.533  23.486  24.003  1.00  0.00     0.014 A 
BRANCH   7  12
ATOM     12  C   UNL A   1      32.867  23.969  24.309  1.00  0.00     0.075 A 
ATOM     13  N   UNL A   1      31.985  22.961  23.943  1.00  0.00    -0.233 N 
ATOM     14  N   UNL A   1      30.814  23.467  23.485  1.00  0.00    -0.166 NA
ATOM     15  C   UNL A   1      30.862  24.776  23.798  1.00  0.00     0.129 A 
ATOM     16  C   UNL A   1      32.145  25.140  24.269  1.00  0.00     0.060 A 
BRANCH  13  17
ATOM     17  C   UNL A   1      32.209  21.561  24.021  1.00  0.00     0.065 A 
ATOM     18  C   UNL A   1      32.896  18.866  24.139  1.00  0.00     0.082 A 
ATOM     19  C   UNL A   1      32.878  19.618  25.315  1.00  0.00     0.024 A 
ATOM     20  C   UNL A   1      32.533  19.440  22.915  1.00  0.00     0.024 A 
ATOM     21  C   UNL A   1      32.538  20.967  25.252  1.00  0.00     0.030 A 
ATOM     22  C   UNL A   1      32.160  20.788  22.858  1.00  0.00     0.030 A 
BRANCH  18  23
ATOM     23  S   UNL A   1      33.398  17.172  24.218  1.00  0.00     0.238 S 
ATOM     24  O   UNL A   1      33.646  16.688  22.872  1.00  0.00    -0.207 OA
ATOM     25  O   UNL A   1      32.554  16.484  25.153  1.00  0.00    -0.207 OA
BRANCH  23  26
ATOM     26  N   UNL A   1      34.920  17.263  24.931  1.00  0.00    -0.225 NA
ATOM     27  H   UNL A   1      34.817  17.476  25.923  1.00  0.00     0.137 HD
ATOM     28  H   UNL A   1      35.463  17.998  24.479  1.00  0.00     0.137 HD
ENDBRANCH  23  26
ENDBRANCH  18  23
ENDBRANCH  13  17
BRANCH  15  29
ATOM     29  C   UNL A   1      29.688  25.698  23.660  1.00  0.00     0.393 C 
ATOM     30  F   UNL A   1      29.203  26.110  24.861  1.00  0.00    -0.203 F 
ATOM     31  F   UNL A   1      30.011  26.820  22.958  1.00  0.00    -0.203 F 
ENDBRANCH  15  29
ENDBRANCH   7  12
ENDBRANCH   3   6
ENDBRANCH   1   2
BRANCH   1  32
ATOM     32  C   UNL A   1      39.594  19.715  25.766  1.00  0.00     0.042 C 
BRANCH  32  33
ATOM     33  C   UNL A   1      40.774  20.259  26.542  1.00  0.00     0.118 C 
BRANCH  33  34
ATOM     34  N   UNL A   1      42.045  19.725  26.056  1.00  0.00    -0.352 N 
ATOM     35  C   UNL A   1      43.138  20.417  25.578  1.00  0.00     0.251 C 
ATOM     36  H   UNL A   1      42.131  18.744  26.070  1.00  0.00     0.163 HD
ATOM     37  O   UNL A   1      43.977  19.860  24.882  1.00  0.00    -0.269 OA
BRANCH  35  38
ATOM     38  C   UNL A   1      43.266  21.844  25.910  1.00  0.00     0.039 A 
ATOM     39  C   UNL A   1      42.686  22.828  25.108  1.00  0.00     0.014 A 
ATOM     40  C   UNL A   1      43.927  22.180  27.087  1.00  0.00     0.014 A 
ATOM     41  C   UNL A   1      42.697  24.144  25.560  1.00  0.00     0.010 A 
ATOM     42  C   UNL A   1      43.764  23.431  27.619  1.00  0.00     0.010 A 
ATOM     43  C   UNL A   1      43.208  24.432  26.838  1.00  0.00    -0.014 A 
BRANCH  43  44
ATOM     44  C   UNL A   1      43.071  25.763  27.417  1.00  0.00     0.031 A 
ATOM     45  C   UNL A   1      44.100  26.730  26.964  1.00  0.00     0.074 A 
ATOM     46  C   UNL A   1      42.016  26.148  28.170  1.00  0.00     0.049 A 
ATOM     47  N   UNL A   1      45.098  27.171  27.652  1.00  0.00    -0.248 NA
ATOM     48  C   UNL A   1      44.124  27.141  25.553  1.00  0.00     0.031 C 
ATOM     49  C   UNL A   1      40.788  25.395  28.461  1.00  0.00     0.029 A 
ATOM     50  N   UNL A   1      41.784  27.344  28.784  1.00  0.00    -0.354 N 
ATOM     51  C   UNL A   1      45.749  28.093  26.838  1.00  0.00     0.074 A 
ATOM     52  C   UNL A   1      45.231  27.889  25.511  1.00  0.00     0.031 C 
ATOM     53  C   UNL A   1      39.862  26.216  29.002  1.00  0.00     0.029 A 
ATOM     54  C   UNL A   1      40.495  27.490  29.280  1.00  0.00     0.049 A 
ATOM     55  H   UNL A   1      42.472  28.044  28.868  1.00  0.00     0.167 HD
ATOM     56  C   UNL A   1      46.436  29.126  27.401  1.00  0.00     0.037 A 
ATOM     57  C   UNL A   1      39.983  28.567  29.921  1.00  0.00     0.037 A 
ATOM     58  C   UNL A   1      46.598  28.905  28.818  1.00  0.00     0.049 A 
ATOM     59  C   UNL A   1      41.122  29.299  30.512  1.00  0.00     0.074 A 
ATOM     60  C   UNL A   1      47.399  28.134  29.631  1.00  0.00     0.029 A 
ATOM     61  N   UNL A   1      45.514  29.293  29.561  1.00  0.00    -0.354 N 
ATOM     62  N   UNL A   1      41.851  28.820  31.482  1.00  0.00    -0.248 NA
ATOM     63  C   UNL A   1      41.689  30.440  29.804  1.00  0.00     0.031 C 
ATOM     64  C   UNL A   1      46.664  27.933  30.840  1.00  0.00     0.029 A 
ATOM     65  C   UNL A   1      45.455  28.616  30.749  1.00  0.00     0.049 A 
ATOM     66  H   UNL A   1      44.861  29.972  29.276  1.00  0.00     0.167 HD
ATOM     67  C   UNL A   1      43.117  29.297  31.214  1.00  0.00     0.074 A 
ATOM     68  C   UNL A   1      42.926  30.422  30.308  1.00  0.00     0.031 C 
ATOM     69  C   UNL A   1      44.215  28.537  31.484  1.00  0.00     0.037 A 
BRANCH  56  70
ATOM     70  C   UNL A   1      46.527  30.531  26.841  1.00  0.00     0.064 A 
ATOM     71  C   UNL A   1      47.779  31.186  26.856  1.00  0.00     0.173 A 
ATOM     72  C   UNL A   1      45.415  31.367  26.608  1.00  0.00     0.173 A 
ATOM     73  F   UNL A   1      48.909  30.497  27.076  1.00  0.00    -0.203 F 
ATOM     74  C   UNL A   1      47.893  32.575  26.738  1.00  0.00     0.198 A 
ATOM     75  C   UNL A   1      45.537  32.746  26.441  1.00  0.00     0.198 A 
ATOM     76  F   UNL A   1      44.159  30.911  26.647  1.00  0.00    -0.203 F 
ATOM     77  F   UNL A   1      49.089  33.161  26.886  1.00  0.00    -0.200 F 
ATOM     78  C   UNL A   1      46.770  33.355  26.539  1.00  0.00     0.200 A 
ATOM     79  F   UNL A   1      44.434  33.488  26.270  1.00  0.00    -0.200 F 
ATOM     80  F   UNL A   1      46.866  34.690  26.489  1.00  0.00    -0.200 F 
ENDBRANCH  56  70
BRANCH  57  81
ATOM     81  C   UNL A   1      38.607  29.101  29.942  1.00  0.00     0.064 A 
ATOM     82  C   UNL A   1      37.916  29.280  31.151  1.00  0.00     0.173 A 
ATOM     83  C   UNL A   1      38.075  29.740  28.808  1.00  0.00     0.173 A 
ATOM     84  F   UNL A   1      38.377  28.723  32.281  1.00  0.00    -0.203 F 
ATOM     85  C   UNL A   1      36.789  30.103  31.233  1.00  0.00     0.198 A 
ATOM     86  C   UNL A   1      36.949  30.561  28.891  1.00  0.00     0.198 A 
ATOM     87  F   UNL A   1      38.703  29.665  27.625  1.00  0.00    -0.203 F 
ATOM     88  F   UNL A   1      36.202  30.314  32.420  1.00  0.00    -0.200 F 
ATOM     89  C   UNL A   1      36.318  30.757  30.107  1.00  0.00     0.200 A 
ATOM     90  F   UNL A   1      36.524  31.220  27.804  1.00  0.00    -0.200 F 
ATOM     91  F   UNL A   1      35.289  31.611  30.202  1.00  0.00    -0.200 F 
ENDBRANCH  57  81
BRANCH  69  92
ATOM     92  C   UNL A   1      44.054  27.454  32.503  1.00  0.00     0.064 A 
ATOM     93  C   UNL A   1      43.992  26.083  32.205  1.00  0.00     0.173 A 
ATOM     94  C   UNL A   1      44.008  27.827  33.852  1.00  0.00     0.173 A 
ATOM     95  F   UNL A   1      44.097  25.646  30.944  1.00  0.00    -0.203 F 
ATOM     96  C   UNL A   1      43.851  25.133  33.215  1.00  0.00     0.198 A 
ATOM     97  C   UNL A   1      43.900  26.876  34.860  1.00  0.00     0.198 A 
ATOM     98  F   UNL A   1      44.100  29.123  34.191  1.00  0.00    -0.203 F 
ATOM     99  F   UNL A   1      43.774  23.829  32.908  1.00  0.00    -0.200 F 
ATOM    100  C   UNL A   1      43.811  25.530  34.542  1.00  0.00     0.200 A 
ATOM    101  F   UNL A   1      43.900  27.265  36.142  1.00  0.00    -0.200 F 
ATOM    102  F   UNL A   1      43.704  24.616  35.517  1.00  0.00    -0.200 F 
ENDBRANCH  69  92
ENDBRANCH  43  44
ENDBRANCH  35  38
ENDBRANCH  33  34
ENDBRANCH  32  33
ENDBRANCH   1  32
TORSDOF 15
ENDMDL
MODEL 3
REMARK VINA RESULT:     -12.9      4.719      9.431
REMARK SMILES NS(=O)(=O)c1ccc(-n2nc(C(F)F)cc2-c2ccc(C(=O)NCCCNC(=O)c3ccc(-c4c5nc(c(-c6c(F)c(F)c(F)c(F)c6F)c6ccc([nH]6)c(-c6c(F)c(F)c(F)c(F)c6F)c6nc(c(-c7c(F)c(F)c(F)c(F)c7F)c7ccc4[nH]7)C=C6)C=C5)cc3)cc2)cc1
REMARK SMILES IDX 24 1 23 2 21 3 22 4 20 6 17 7 18 8 94 9 19 10 93 11 16 12
REMARK SMILES IDX 9 13 10 14 11 15 15 16 8 17 5 18 6 19 96 20 7 21 95 22 2 23
REMARK SMILES IDX 3 24 4 25 1 26 12 29 13 30 14 31 25 32 26 33 27 34 28 35
REMARK SMILES IDX 29 37 30 38 31 39 92 40 32 41 91 42 33 43 34 44 35 45 85 46
REMARK SMILES IDX 36 47 90 48 84 49 86 50 37 51 89 52 83 53 82 54 38 56 70 57
REMARK SMILES IDX 50 58 69 59 51 60 54 61 68 62 87 63 52 64 53 65 67 67 88 68
REMARK SMILES IDX 55 69 39 70 40 71 48 72 41 73 42 74 46 75 49 76 43 77 44 78
REMARK SMILES IDX 47 79 45 80 71 81 72 82 80 83 73 84 74 85 78 86 81 87 75 88
REMARK SMILES IDX 76 89 79 90 77 91 56 92 57 93 65 94 58 95 59 96 63 97 66 98
REMARK SMILES IDX 60 99 61 100 64 101 62 102
REMARK H PARENT 23 5 1 27 1 28 27 36 86 55 54 66
REMARK Flexibility Score: inf
ROOT
ATOM      1  C   UNL A   1      37.830  20.659  25.043  1.00  0.00     0.118 C 
ENDROOT
BRANCH   1   2
ATOM      2  N   UNL A   1      38.533  21.898  25.346  1.00  0.00    -0.352 N 
ATOM      3  C   UNL A   1      38.098  23.202  25.390  1.00  0.00     0.251 C 
ATOM      4  O   UNL A   1      38.893  24.066  25.756  1.00  0.00    -0.269 OA
ATOM      5  H   UNL A   1      39.488  21.781  25.555  1.00  0.00     0.163 HD
BRANCH   3   6
ATOM      6  C   UNL A   1      36.701  23.589  25.054  1.00  0.00     0.039 A 
ATOM      7  C   UNL A   1      34.102  24.347  24.318  1.00  0.00     0.000 A 
ATOM      8  C   UNL A   1      34.975  23.815  23.361  1.00  0.00     0.011 A 
ATOM      9  C   UNL A   1      34.521  24.486  25.634  1.00  0.00     0.011 A 
ATOM     10  C   UNL A   1      36.273  23.444  23.728  1.00  0.00     0.014 A 
ATOM     11  C   UNL A   1      35.789  24.059  26.001  1.00  0.00     0.014 A 
BRANCH   7  12
ATOM     12  C   UNL A   1      32.721  24.658  24.003  1.00  0.00     0.075 A 
ATOM     13  N   UNL A   1      31.768  23.719  23.639  1.00  0.00    -0.233 N 
ATOM     14  N   UNL A   1      30.610  24.308  23.251  1.00  0.00    -0.166 NA
ATOM     15  C   UNL A   1      30.749  25.599  23.609  1.00  0.00     0.129 A 
ATOM     16  C   UNL A   1      32.069  25.870  24.037  1.00  0.00     0.060 A 
BRANCH  13  17
ATOM     17  C   UNL A   1      31.911  22.305  23.655  1.00  0.00     0.065 A 
ATOM     18  C   UNL A   1      32.446  19.573  23.671  1.00  0.00     0.082 A 
ATOM     19  C   UNL A   1      32.394  20.266  24.881  1.00  0.00     0.024 A 
ATOM     20  C   UNL A   1      32.192  20.228  22.459  1.00  0.00     0.024 A 
ATOM     21  C   UNL A   1      32.131  21.634  24.871  1.00  0.00     0.030 A 
ATOM     22  C   UNL A   1      31.894  21.595  22.452  1.00  0.00     0.030 A 
BRANCH  18  23
ATOM     23  S   UNL A   1      32.852  17.852  23.690  1.00  0.00     0.238 S 
ATOM     24  O   UNL A   1      34.147  17.678  24.321  1.00  0.00    -0.207 OA
ATOM     25  O   UNL A   1      32.521  17.287  22.413  1.00  0.00    -0.207 OA
BRANCH  23  26
ATOM     26  N   UNL A   1      31.747  17.217  24.789  1.00  0.00    -0.225 NA
ATOM     27  H   UNL A   1      31.887  17.654  25.701  1.00  0.00     0.137 HD
ATOM     28  H   UNL A   1      31.887  16.210  24.869  1.00  0.00     0.137 HD
ENDBRANCH  23  26
ENDBRANCH  18  23
ENDBRANCH  13  17
BRANCH  15  29
ATOM     29  C   UNL A   1      29.626  26.592  23.556  1.00  0.00     0.393 C 
ATOM     30  F   UNL A   1      28.425  26.040  23.873  1.00  0.00    -0.203 F 
ATOM     31  F   UNL A   1      29.829  27.625  24.420  1.00  0.00    -0.203 F 
ENDBRANCH  15  29
ENDBRANCH   7  12
ENDBRANCH   3   6
ENDBRANCH   1   2
BRANCH   1  32
ATOM     32  C   UNL A   1      38.694  19.422  25.335  1.00  0.00     0.042 C 
BRANCH  32  33
ATOM     33  C   UNL A   1      39.850  19.728  26.263  1.00  0.00     0.118 C 
BRANCH  33  34
ATOM     34  N   UNL A   1      41.098  19.120  25.806  1.00  0.00    -0.352 N 
ATOM     35  C   UNL A   1      42.333  19.713  25.650  1.00  0.00     0.251 C 
ATOM     36  H   UNL A   1      41.050  18.163  25.578  1.00  0.00     0.163 HD
ATOM     37  O   UNL A   1      43.188  19.205  24.935  1.00  0.00    -0.269 OA
BRANCH  35  38
ATOM     38  C   UNL A   1      42.597  20.980  26.350  1.00  0.00     0.039 A 
ATOM     39  C   UNL A   1      42.704  22.183  25.651  1.00  0.00     0.014 A 
ATOM     40  C   UNL A   1      42.671  20.951  27.739  1.00  0.00     0.014 A 
ATOM     41  C   UNL A   1      42.787  23.367  26.378  1.00  0.00     0.010 A 
ATOM     42  C   UNL A   1      42.553  22.119  28.445  1.00  0.00     0.010 A 
ATOM     43  C   UNL A   1      42.674  23.329  27.779  1.00  0.00    -0.014 A 
BRANCH  43  44
ATOM     44  C   UNL A   1      42.573  24.557  28.557  1.00  0.00     0.031 A 
ATOM     45  C   UNL A   1      41.329  25.327  28.314  1.00  0.00     0.074 A 
ATOM     46  C   UNL A   1      43.442  24.900  29.534  1.00  0.00     0.049 A 
ATOM     47  N   UNL A   1      41.221  26.429  27.651  1.00  0.00    -0.248 NA
ATOM     48  C   UNL A   1      40.039  24.747  28.714  1.00  0.00     0.031 C 
ATOM     49  C   UNL A   1      44.550  24.104  30.080  1.00  0.00     0.029 A 
ATOM     50  N   UNL A   1      43.471  26.022  30.310  1.00  0.00    -0.354 N 
ATOM     51  C   UNL A   1      39.884  26.803  27.743  1.00  0.00     0.074 A 
ATOM     52  C   UNL A   1      39.179  25.649  28.231  1.00  0.00     0.031 C 
ATOM     53  C   UNL A   1      44.999  24.664  31.224  1.00  0.00     0.029 A 
ATOM     54  C   UNL A   1      44.354  25.952  31.381  1.00  0.00     0.049 A 
ATOM     55  H   UNL A   1      42.914  26.813  30.126  1.00  0.00     0.167 HD
ATOM     56  C   UNL A   1      39.546  28.122  27.681  1.00  0.00     0.037 A 
ATOM     57  C   UNL A   1      44.581  26.905  32.314  1.00  0.00     0.037 A 
ATOM     58  C   UNL A   1      40.672  28.907  27.236  1.00  0.00     0.049 A 
ATOM     59  C   UNL A   1      44.204  28.200  31.712  1.00  0.00     0.074 A 
ATOM     60  C   UNL A   1      41.302  29.173  26.040  1.00  0.00     0.029 A 
ATOM     61  N   UNL A   1      41.544  29.234  28.240  1.00  0.00    -0.354 N 
ATOM     62  N   UNL A   1      44.853  28.739  30.718  1.00  0.00    -0.248 NA
ATOM     63  C   UNL A   1      42.885  28.761  31.980  1.00  0.00     0.031 C 
ATOM     64  C   UNL A   1      42.652  29.511  26.368  1.00  0.00     0.029 A 
ATOM     65  C   UNL A   1      42.799  29.479  27.751  1.00  0.00     0.049 A 
ATOM     66  H   UNL A   1      41.300  29.285  29.192  1.00  0.00     0.167 HD
ATOM     67  C   UNL A   1      43.872  29.372  29.983  1.00  0.00     0.074 A 
ATOM     68  C   UNL A   1      42.741  29.518  30.890  1.00  0.00     0.031 C 
ATOM     69  C   UNL A   1      43.947  29.421  28.624  1.00  0.00     0.037 A 
BRANCH  56  70
ATOM     70  C   UNL A   1      38.430  28.781  28.466  1.00  0.00     0.064 A 
ATOM     71  C   UNL A   1      37.649  29.773  27.830  1.00  0.00     0.173 A 
ATOM     72  C   UNL A   1      38.310  28.731  29.871  1.00  0.00     0.173 A 
ATOM     73  F   UNL A   1      37.686  29.922  26.498  1.00  0.00    -0.203 F 
ATOM     74  C   UNL A   1      36.884  30.694  28.554  1.00  0.00     0.198 A 
ATOM     75  C   UNL A   1      37.508  29.621  30.585  1.00  0.00     0.198 A 
ATOM     76  F   UNL A   1      39.046  27.905  30.621  1.00  0.00    -0.203 F 
ATOM     77  F   UNL A   1      36.263  31.694  27.913  1.00  0.00    -0.200 F 
ATOM     78  C   UNL A   1      36.821  30.622  29.932  1.00  0.00     0.200 A 
ATOM     79  F   UNL A   1      37.476  29.548  31.924  1.00  0.00    -0.200 F 
ATOM     80  F   UNL A   1      36.143  31.539  30.634  1.00  0.00    -0.200 F 
ENDBRANCH  56  70
BRANCH  57  81
ATOM     81  C   UNL A   1      44.957  26.777  33.737  1.00  0.00     0.064 A 
ATOM     82  C   UNL A   1      44.042  26.301  34.688  1.00  0.00     0.173 A 
ATOM     83  C   UNL A   1      46.309  26.812  34.121  1.00  0.00     0.173 A 
ATOM     84  F   UNL A   1      42.738  26.212  34.386  1.00  0.00    -0.203 F 
ATOM     85  C   UNL A   1      44.463  25.831  35.936  1.00  0.00     0.198 A 
ATOM     86  C   UNL A   1      46.729  26.343  35.367  1.00  0.00     0.198 A 
ATOM     87  F   UNL A   1      47.255  27.202  33.253  1.00  0.00    -0.203 F 
ATOM     88  F   UNL A   1      43.571  25.310  36.790  1.00  0.00    -0.200 F 
ATOM     89  C   UNL A   1      45.808  25.835  36.266  1.00  0.00     0.200 A 
ATOM     90  F   UNL A   1      48.037  26.315  35.661  1.00  0.00    -0.200 F 
ATOM     91  F   UNL A   1      46.222  25.307  37.426  1.00  0.00    -0.200 F 
ENDBRANCH  57  81
BRANCH  69  92
ATOM     92  C   UNL A   1      45.302  29.242  28.015  1.00  0.00     0.064 A 
ATOM     93  C   UNL A   1      45.820  28.015  27.569  1.00  0.00     0.173 A 
ATOM     94  C   UNL A   1      46.091  30.384  27.831  1.00  0.00     0.173 A 
ATOM     95  F   UNL A   1      45.097  26.892  27.650  1.00  0.00    -0.203 F 
ATOM     96  C   UNL A   1      47.090  27.934  27.002  1.00  0.00     0.198 A 
ATOM     97  C   UNL A   1      47.344  30.306  27.235  1.00  0.00     0.198 A 
ATOM     98  F   UNL A   1      45.626  31.586  28.207  1.00  0.00    -0.203 F 
ATOM     99  F   UNL A   1      47.575  26.749  26.601  1.00  0.00    -0.200 F 
ATOM    100  C   UNL A   1      47.849  29.081  26.830  1.00  0.00     0.200 A 
ATOM    101  F   UNL A   1      48.057  31.424  27.038  1.00  0.00    -0.200 F 
ATOM    102  F   UNL A   1      49.059  29.009  26.258  1.00  0.00    -0.200 F 
ENDBRANCH  69  92
ENDBRANCH  43  44
ENDBRANCH  35  38
ENDBRANCH  33  34
ENDBRANCH  32  33
ENDBRANCH   1  32
TORSDOF 15
ENDMDL
