MODEL 1
REMARK VINA RESULT:     -12.0      0.000      0.000
REMARK SMILES O=C(CCNC(=O)COc1ccccc1Cl)NCCCNC(=O)c1ccc(-c2c3nc(c(-c4c(F)c(F)c(F)c(F)c4F)c4ccc([nH]4)c(-c4c(F)c(F)c(F)c(F)c4F)c4nc(c(-c5c(F)c(F)c(F)c(F)c5F)c5ccc2[nH]5)C=C4)C=C3)cc1
REMARK SMILES IDX 1 1 2 2 17 3 3 5 4 6 5 7 6 8 7 10 8 11 9 12 10 13 11 14
REMARK SMILES IDX 15 15 12 16 14 17 16 18 13 19 18 20 19 21 20 22 21 23 22 24
REMARK SMILES IDX 23 26 24 27 25 28 86 29 26 30 85 31 27 32 28 33 29 34 79 35
REMARK SMILES IDX 30 36 84 37 78 38 80 39 31 40 83 41 77 42 76 43 32 45 64 46
REMARK SMILES IDX 44 47 63 48 45 49 48 50 62 51 81 52 46 53 47 54 61 56 82 57
REMARK SMILES IDX 49 58 33 59 34 60 42 61 35 62 36 63 40 64 43 65 37 66 38 67
REMARK SMILES IDX 41 68 39 69 65 70 66 71 74 72 67 73 68 74 72 75 75 76 69 77
REMARK SMILES IDX 70 78 73 79 71 80 50 81 51 82 59 83 52 84 53 85 57 86 60 87
REMARK SMILES IDX 54 88 55 89 58 90 56 91
REMARK H PARENT 17 4 5 9 21 25 80 44 48 55
REMARK Flexibility Score: inf
ROOT
ATOM      1  O   UNL A   1      33.727  28.964  25.697  1.00  0.00    -0.275 OA
ATOM      2  C   UNL A   1      32.946  29.387  24.853  1.00  0.00     0.221 C 
ATOM      3  N   UNL A   1      31.892  30.229  25.129  1.00  0.00    -0.356 N 
ATOM      4  H   UNL A   1      31.333  30.551  24.385  1.00  0.00     0.163 HD
ENDROOT
BRANCH   2   5
ATOM      5  C   UNL A   1      33.060  28.998  23.397  1.00  0.00     0.121 C 
BRANCH   5   6
ATOM      6  C   UNL A   1      32.119  27.850  23.049  1.00  0.00     0.126 C 
BRANCH   6   7
ATOM      7  N   UNL A   1      32.448  27.161  21.809  1.00  0.00    -0.353 N 
ATOM      8  C   UNL A   1      33.038  25.940  21.634  1.00  0.00     0.257 C 
ATOM      9  H   UNL A   1      32.214  27.641  20.982  1.00  0.00     0.163 HD
ATOM     10  O   UNL A   1      33.107  25.483  20.491  1.00  0.00    -0.271 OA
BRANCH   8  11
ATOM     11  C   UNL A   1      33.561  25.150  22.839  1.00  0.00     0.329 C 
BRANCH  11  12
ATOM     12  O   UNL A   1      34.562  24.188  22.527  1.00  0.00    -0.482 OA
BRANCH  12  13
ATOM     13  C   UNL A   1      34.427  22.993  23.181  1.00  0.00     0.138 A 
ATOM     14  C   UNL A   1      33.150  22.427  23.158  1.00  0.00     0.048 A 
ATOM     15  C   UNL A   1      35.420  22.421  23.985  1.00  0.00     0.083 A 
ATOM     16  C   UNL A   1      32.871  21.287  23.915  1.00  0.00     0.004 A 
ATOM     17  C   UNL A   1      35.136  21.281  24.743  1.00  0.00     0.024 A 
ATOM     18  Cl  UNL A   1      36.995  23.092  24.149  1.00  0.00    -0.080 Cl
ATOM     19  C   UNL A   1      33.862  20.716  24.710  1.00  0.00     0.002 A 
ENDBRANCH  12  13
ENDBRANCH  11  12
ENDBRANCH   8  11
ENDBRANCH   6   7
ENDBRANCH   5   6
ENDBRANCH   2   5
BRANCH   3  20
ATOM     20  C   UNL A   1      31.576  30.657  26.477  1.00  0.00     0.117 C 
BRANCH  20  21
ATOM     21  C   UNL A   1      31.457  32.170  26.615  1.00  0.00     0.042 C 
BRANCH  21  22
ATOM     22  C   UNL A   1      32.614  32.851  27.339  1.00  0.00     0.118 C 
BRANCH  22  23
ATOM     23  N   UNL A   1      32.345  34.229  27.719  1.00  0.00    -0.352 N 
ATOM     24  C   UNL A   1      32.975  35.018  28.651  1.00  0.00     0.251 C 
ATOM     25  H   UNL A   1      31.602  34.660  27.239  1.00  0.00     0.163 HD
ATOM     26  O   UNL A   1      32.529  36.133  28.912  1.00  0.00    -0.269 OA
BRANCH  24  27
ATOM     27  C   UNL A   1      34.165  34.520  29.375  1.00  0.00     0.039 A 
ATOM     28  C   UNL A   1      33.987  33.938  30.633  1.00  0.00     0.014 A 
ATOM     29  C   UNL A   1      35.447  34.624  28.828  1.00  0.00     0.014 A 
ATOM     30  C   UNL A   1      35.081  33.395  31.310  1.00  0.00     0.010 A 
ATOM     31  C   UNL A   1      36.527  34.022  29.473  1.00  0.00     0.010 A 
ATOM     32  C   UNL A   1      36.354  33.394  30.717  1.00  0.00    -0.014 A 
BRANCH  32  33
ATOM     33  C   UNL A   1      37.504  32.722  31.375  1.00  0.00     0.031 A 
ATOM     34  C   UNL A   1      38.199  31.568  30.708  1.00  0.00     0.074 A 
ATOM     35  C   UNL A   1      37.888  33.115  32.605  1.00  0.00     0.049 A 
ATOM     36  N   UNL A   1      39.176  30.819  31.155  1.00  0.00    -0.248 NA
ATOM     37  C   UNL A   1      37.715  31.189  29.371  1.00  0.00     0.031 C 
ATOM     38  C   UNL A   1      37.269  34.194  33.378  1.00  0.00     0.029 A 
ATOM     39  N   UNL A   1      38.882  32.647  33.428  1.00  0.00    -0.354 N 
ATOM     40  C   UNL A   1      39.416  29.878  30.161  1.00  0.00     0.074 A 
ATOM     41  C   UNL A   1      38.448  30.116  29.112  1.00  0.00     0.031 C 
ATOM     42  C   UNL A   1      37.910  34.319  34.551  1.00  0.00     0.029 A 
ATOM     43  C   UNL A   1      38.956  33.303  34.633  1.00  0.00     0.049 A 
ATOM     44  H   UNL A   1      39.485  31.909  33.179  1.00  0.00     0.167 HD
ATOM     45  C   UNL A   1      40.371  28.917  30.120  1.00  0.00     0.037 A 
ATOM     46  C   UNL A   1      39.767  33.104  35.690  1.00  0.00     0.037 A 
ATOM     47  C   UNL A   1      41.344  28.693  31.158  1.00  0.00     0.049 A 
ATOM     48  C   UNL A   1      40.806  32.016  35.625  1.00  0.00     0.074 A 
ATOM     49  C   UNL A   1      42.386  27.782  31.182  1.00  0.00     0.029 A 
ATOM     50  N   UNL A   1      41.394  29.385  32.359  1.00  0.00    -0.354 N 
ATOM     51  N   UNL A   1      41.067  31.177  34.653  1.00  0.00    -0.248 NA
ATOM     52  C   UNL A   1      41.667  31.852  36.805  1.00  0.00     0.031 C 
ATOM     53  C   UNL A   1      43.031  27.885  32.418  1.00  0.00     0.029 A 
ATOM     54  C   UNL A   1      42.430  28.902  33.142  1.00  0.00     0.049 A 
ATOM     55  H   UNL A   1      40.782  30.113  32.618  1.00  0.00     0.167 HD
ATOM     56  C   UNL A   1      42.139  30.409  35.088  1.00  0.00     0.074 A 
ATOM     57  C   UNL A   1      42.489  30.892  36.408  1.00  0.00     0.031 C 
ATOM     58  C   UNL A   1      42.775  29.396  34.451  1.00  0.00     0.037 A 
BRANCH  45  59
ATOM     59  C   UNL A   1      40.410  28.028  28.910  1.00  0.00     0.064 A 
ATOM     60  C   UNL A   1      41.186  28.347  27.785  1.00  0.00     0.173 A 
ATOM     61  C   UNL A   1      39.695  26.820  28.890  1.00  0.00     0.173 A 
ATOM     62  F   UNL A   1      41.882  29.494  27.749  1.00  0.00    -0.203 F 
ATOM     63  C   UNL A   1      41.222  27.508  26.676  1.00  0.00     0.198 A 
ATOM     64  C   UNL A   1      39.759  25.967  27.792  1.00  0.00     0.198 A 
ATOM     65  F   UNL A   1      38.943  26.461  29.941  1.00  0.00    -0.203 F 
ATOM     66  F   UNL A   1      41.931  27.859  25.593  1.00  0.00    -0.200 F 
ATOM     67  C   UNL A   1      40.516  26.314  26.682  1.00  0.00     0.200 A 
ATOM     68  F   UNL A   1      39.087  24.807  27.806  1.00  0.00    -0.200 F 
ATOM     69  F   UNL A   1      40.557  25.503  25.616  1.00  0.00    -0.200 F 
ENDBRANCH  45  59
BRANCH  46  70
ATOM     70  C   UNL A   1      39.641  33.963  36.896  1.00  0.00     0.064 A 
ATOM     71  C   UNL A   1      38.858  33.562  37.987  1.00  0.00     0.173 A 
ATOM     72  C   UNL A   1      40.291  35.204  36.981  1.00  0.00     0.173 A 
ATOM     73  F   UNL A   1      38.198  32.395  37.945  1.00  0.00    -0.203 F 
ATOM     74  C   UNL A   1      38.709  34.378  39.107  1.00  0.00     0.198 A 
ATOM     75  C   UNL A   1      40.167  36.005  38.114  1.00  0.00     0.198 A 
ATOM     76  F   UNL A   1      41.055  35.632  35.966  1.00  0.00    -0.203 F 
ATOM     77  F   UNL A   1      37.913  33.993  40.113  1.00  0.00    -0.200 F 
ATOM     78  C   UNL A   1      39.369  35.597  39.172  1.00  0.00     0.200 A 
ATOM     79  F   UNL A   1      40.817  37.174  38.178  1.00  0.00    -0.200 F 
ATOM     80  F   UNL A   1      39.228  36.380  40.250  1.00  0.00    -0.200 F 
ENDBRANCH  46  70
BRANCH  58  81
ATOM     81  C   UNL A   1      43.943  28.763  35.155  1.00  0.00     0.064 A 
ATOM     82  C   UNL A   1      45.248  29.259  35.012  1.00  0.00     0.173 A 
ATOM     83  C   UNL A   1      43.747  27.669  36.012  1.00  0.00     0.173 A 
ATOM     84  F   UNL A   1      45.492  30.293  34.192  1.00  0.00    -0.203 F 
ATOM     85  C   UNL A   1      46.315  28.666  35.680  1.00  0.00     0.198 A 
ATOM     86  C   UNL A   1      44.811  27.100  36.704  1.00  0.00     0.198 A 
ATOM     87  F   UNL A   1      42.518  27.161  36.190  1.00  0.00    -0.203 F 
ATOM     88  F   UNL A   1      47.560  29.125  35.490  1.00  0.00    -0.200 F 
ATOM     89  C   UNL A   1      46.096  27.593  36.533  1.00  0.00     0.200 A 
ATOM     90  F   UNL A   1      44.595  26.074  37.539  1.00  0.00    -0.200 F 
ATOM     91  F   UNL A   1      47.124  27.030  37.182  1.00  0.00    -0.200 F 
ENDBRANCH  58  81
ENDBRANCH  32  33
ENDBRANCH  24  27
ENDBRANCH  22  23
ENDBRANCH  21  22
ENDBRANCH  20  21
ENDBRANCH   3  20
TORSDOF 15
ENDMDL
MODEL 2
REMARK VINA RESULT:     -11.9      4.682     10.639
REMARK SMILES O=C(CCNC(=O)COc1ccccc1Cl)NCCCNC(=O)c1ccc(-c2c3nc(c(-c4c(F)c(F)c(F)c(F)c4F)c4ccc([nH]4)c(-c4c(F)c(F)c(F)c(F)c4F)c4nc(c(-c5c(F)c(F)c(F)c(F)c5F)c5ccc2[nH]5)C=C4)C=C3)cc1
REMARK SMILES IDX 1 1 2 2 17 3 3 5 4 6 5 7 6 8 7 10 8 11 9 12 10 13 11 14
REMARK SMILES IDX 15 15 12 16 14 17 16 18 13 19 18 20 19 21 20 22 21 23 22 24
REMARK SMILES IDX 23 26 24 27 25 28 86 29 26 30 85 31 27 32 28 33 29 34 79 35
REMARK SMILES IDX 30 36 84 37 78 38 80 39 31 40 83 41 77 42 76 43 32 45 64 46
REMARK SMILES IDX 44 47 63 48 45 49 48 50 62 51 81 52 46 53 47 54 61 56 82 57
REMARK SMILES IDX 49 58 33 59 34 60 42 61 35 62 36 63 40 64 43 65 37 66 38 67
REMARK SMILES IDX 41 68 39 69 65 70 66 71 74 72 67 73 68 74 72 75 75 76 69 77
REMARK SMILES IDX 70 78 73 79 71 80 50 81 51 82 59 83 52 84 53 85 57 86 60 87
REMARK SMILES IDX 54 88 55 89 58 90 56 91
REMARK H PARENT 17 4 5 9 21 25 80 44 48 55
REMARK Flexibility Score: inf
ROOT
ATOM      1  O   UNL A   1      32.971  37.267  29.992  1.00  0.00    -0.275 OA
ATOM      2  C   UNL A   1      32.890  36.291  30.728  1.00  0.00     0.221 C 
ATOM      3  N   UNL A   1      33.024  34.989  30.300  1.00  0.00    -0.356 N 
ATOM      4  H   UNL A   1      32.981  34.263  30.964  1.00  0.00     0.163 HD
ENDROOT
BRANCH   2   5
ATOM      5  C   UNL A   1      32.608  36.429  32.206  1.00  0.00     0.121 C 
BRANCH   5   6
ATOM      6  C   UNL A   1      33.858  36.831  32.979  1.00  0.00     0.126 C 
BRANCH   6   7
ATOM      7  N   UNL A   1      34.227  35.910  34.044  1.00  0.00    -0.353 N 
ATOM      8  C   UNL A   1      35.109  34.866  34.012  1.00  0.00     0.257 C 
ATOM      9  H   UNL A   1      33.777  36.058  34.908  1.00  0.00     0.163 HD
ATOM     10  O   UNL A   1      35.373  34.290  35.070  1.00  0.00    -0.271 OA
BRANCH   8  11
ATOM     11  C   UNL A   1      35.780  34.457  32.695  1.00  0.00     0.329 C 
BRANCH  11  12
ATOM     12  O   UNL A   1      37.201  34.414  32.743  1.00  0.00    -0.482 OA
BRANCH  12  13
ATOM     13  C   UNL A   1      37.724  33.185  33.048  1.00  0.00     0.138 A 
ATOM     14  C   UNL A   1      36.978  32.083  32.621  1.00  0.00     0.048 A 
ATOM     15  C   UNL A   1      38.832  32.987  33.880  1.00  0.00     0.083 A 
ATOM     16  C   UNL A   1      37.347  30.792  33.006  1.00  0.00     0.004 A 
ATOM     17  C   UNL A   1      39.196  31.694  34.264  1.00  0.00     0.024 A 
ATOM     18  Cl  UNL A   1      39.761  34.282  34.527  1.00  0.00    -0.080 Cl
ATOM     19  C   UNL A   1      38.453  30.598  33.830  1.00  0.00     0.002 A 
ENDBRANCH  12  13
ENDBRANCH  11  12
ENDBRANCH   8  11
ENDBRANCH   6   7
ENDBRANCH   5   6
ENDBRANCH   2   5
BRANCH   3  20
ATOM     20  C   UNL A   1      33.227  34.648  28.906  1.00  0.00     0.117 C 
BRANCH  20  21
ATOM     21  C   UNL A   1      34.692  34.428  28.548  1.00  0.00     0.042 C 
BRANCH  21  22
ATOM     22  C   UNL A   1      35.216  33.017  28.791  1.00  0.00     0.118 C 
BRANCH  22  23
ATOM     23  N   UNL A   1      34.361  31.968  28.257  1.00  0.00    -0.352 N 
ATOM     24  C   UNL A   1      34.657  30.657  27.974  1.00  0.00     0.251 C 
ATOM     25  H   UNL A   1      33.432  32.237  28.071  1.00  0.00     0.163 HD
ATOM     26  O   UNL A   1      33.823  29.946  27.419  1.00  0.00    -0.269 OA
BRANCH  24  27
ATOM     27  C   UNL A   1      35.990  30.103  28.295  1.00  0.00     0.039 A 
ATOM     28  C   UNL A   1      36.999  30.187  27.331  1.00  0.00     0.014 A 
ATOM     29  C   UNL A   1      36.251  29.502  29.529  1.00  0.00     0.014 A 
ATOM     30  C   UNL A   1      38.286  29.737  27.630  1.00  0.00     0.010 A 
ATOM     31  C   UNL A   1      37.552  29.115  29.850  1.00  0.00     0.010 A 
ATOM     32  C   UNL A   1      38.585  29.236  28.907  1.00  0.00    -0.014 A 
BRANCH  32  33
ATOM     33  C   UNL A   1      39.974  28.858  29.275  1.00  0.00     0.031 A 
ATOM     34  C   UNL A   1      40.822  29.778  30.109  1.00  0.00     0.074 A 
ATOM     35  C   UNL A   1      40.494  27.707  28.808  1.00  0.00     0.049 A 
ATOM     36  N   UNL A   1      42.072  29.647  30.476  1.00  0.00    -0.248 NA
ATOM     37  C   UNL A   1      40.187  31.022  30.572  1.00  0.00     0.031 C 
ATOM     38  C   UNL A   1      39.791  26.747  27.954  1.00  0.00     0.029 A 
ATOM     39  N   UNL A   1      41.740  27.152  28.972  1.00  0.00    -0.354 N 
ATOM     40  C   UNL A   1      42.375  30.792  31.201  1.00  0.00     0.074 A 
ATOM     41  C   UNL A   1      41.196  31.630  31.179  1.00  0.00     0.031 C 
ATOM     42  C   UNL A   1      40.606  25.714  27.689  1.00  0.00     0.029 A 
ATOM     43  C   UNL A   1      41.902  25.956  28.315  1.00  0.00     0.049 A 
ATOM     44  H   UNL A   1      42.450  27.572  29.510  1.00  0.00     0.167 HD
ATOM     45  C   UNL A   1      43.526  31.104  31.846  1.00  0.00     0.037 A 
ATOM     46  C   UNL A   1      42.977  25.149  28.219  1.00  0.00     0.037 A 
ATOM     47  C   UNL A   1      44.692  30.261  31.881  1.00  0.00     0.049 A 
ATOM     48  C   UNL A   1      44.249  25.531  28.928  1.00  0.00     0.074 A 
ATOM     49  C   UNL A   1      45.885  30.465  32.554  1.00  0.00     0.029 A 
ATOM     50  N   UNL A   1      44.815  29.052  31.212  1.00  0.00    -0.354 N 
ATOM     51  N   UNL A   1      44.502  26.583  29.668  1.00  0.00    -0.248 NA
ATOM     52  C   UNL A   1      45.384  24.607  28.794  1.00  0.00     0.031 C 
ATOM     53  C   UNL A   1      46.748  29.409  32.248  1.00  0.00     0.029 A 
ATOM     54  C   UNL A   1      46.074  28.514  31.434  1.00  0.00     0.049 A 
ATOM     55  H   UNL A   1      44.113  28.637  30.660  1.00  0.00     0.167 HD
ATOM     56  C   UNL A   1      45.809  26.434  30.111  1.00  0.00     0.074 A 
ATOM     57  C   UNL A   1      46.293  25.181  29.569  1.00  0.00     0.031 C 
ATOM     58  C   UNL A   1      46.542  27.261  30.896  1.00  0.00     0.037 A 
BRANCH  45  59
ATOM     59  C   UNL A   1      43.583  32.421  32.566  1.00  0.00     0.064 A 
ATOM     60  C   UNL A   1      43.161  32.552  33.898  1.00  0.00     0.173 A 
ATOM     61  C   UNL A   1      44.105  33.559  31.931  1.00  0.00     0.173 A 
ATOM     62  F   UNL A   1      42.646  31.497  34.549  1.00  0.00    -0.203 F 
ATOM     63  C   UNL A   1      43.231  33.776  34.557  1.00  0.00     0.198 A 
ATOM     64  C   UNL A   1      44.204  34.774  32.604  1.00  0.00     0.198 A 
ATOM     65  F   UNL A   1      44.530  33.490  30.661  1.00  0.00    -0.203 F 
ATOM     66  F   UNL A   1      42.775  33.887  35.813  1.00  0.00    -0.200 F 
ATOM     67  C   UNL A   1      43.760  34.884  33.913  1.00  0.00     0.200 A 
ATOM     68  F   UNL A   1      44.728  35.841  31.984  1.00  0.00    -0.200 F 
ATOM     69  F   UNL A   1      43.834  36.061  34.551  1.00  0.00    -0.200 F 
ENDBRANCH  45  59
BRANCH  46  70
ATOM     70  C   UNL A   1      42.894  23.891  27.433  1.00  0.00     0.064 A 
ATOM     71  C   UNL A   1      42.464  22.697  28.028  1.00  0.00     0.173 A 
ATOM     72  C   UNL A   1      43.251  23.851  26.077  1.00  0.00     0.173 A 
ATOM     73  F   UNL A   1      42.133  22.678  29.328  1.00  0.00    -0.203 F 
ATOM     74  C   UNL A   1      42.416  21.507  27.305  1.00  0.00     0.198 A 
ATOM     75  C   UNL A   1      43.174  22.668  25.347  1.00  0.00     0.198 A 
ATOM     76  F   UNL A   1      43.667  24.967  25.459  1.00  0.00    -0.203 F 
ATOM     77  F   UNL A   1      42.051  20.370  27.912  1.00  0.00    -0.200 F 
ATOM     78  C   UNL A   1      42.766  21.494  25.962  1.00  0.00     0.200 A 
ATOM     79  F   UNL A   1      43.499  22.663  24.047  1.00  0.00    -0.200 F 
ATOM     80  F   UNL A   1      42.718  20.350  25.266  1.00  0.00    -0.200 F 
ENDBRANCH  46  70
BRANCH  58  81
ATOM     81  C   UNL A   1      47.934  26.822  31.252  1.00  0.00     0.064 A 
ATOM     82  C   UNL A   1      49.053  27.249  30.522  1.00  0.00     0.173 A 
ATOM     83  C   UNL A   1      48.153  25.992  32.363  1.00  0.00     0.173 A 
ATOM     84  F   UNL A   1      48.898  28.030  29.442  1.00  0.00    -0.203 F 
ATOM     85  C   UNL A   1      50.336  26.840  30.874  1.00  0.00     0.198 A 
ATOM     86  C   UNL A   1      49.439  25.612  32.732  1.00  0.00     0.198 A 
ATOM     87  F   UNL A   1      47.118  25.561  33.100  1.00  0.00    -0.203 F 
ATOM     88  F   UNL A   1      51.386  27.219  30.132  1.00  0.00    -0.200 F 
ATOM     89  C   UNL A   1      50.530  26.029  31.984  1.00  0.00     0.200 A 
ATOM     90  F   UNL A   1      49.626  24.842  33.813  1.00  0.00    -0.200 F 
ATOM     91  F   UNL A   1      51.767  25.644  32.327  1.00  0.00    -0.200 F 
ENDBRANCH  58  81
ENDBRANCH  32  33
ENDBRANCH  24  27
ENDBRANCH  22  23
ENDBRANCH  21  22
ENDBRANCH  20  21
ENDBRANCH   3  20
TORSDOF 15
ENDMDL
MODEL 3
REMARK VINA RESULT:     -11.8      4.726     10.616
REMARK SMILES O=C(CCNC(=O)COc1ccccc1Cl)NCCCNC(=O)c1ccc(-c2c3nc(c(-c4c(F)c(F)c(F)c(F)c4F)c4ccc([nH]4)c(-c4c(F)c(F)c(F)c(F)c4F)c4nc(c(-c5c(F)c(F)c(F)c(F)c5F)c5ccc2[nH]5)C=C4)C=C3)cc1
REMARK SMILES IDX 1 1 2 2 17 3 3 5 4 6 5 7 6 8 7 10 8 11 9 12 10 13 11 14
REMARK SMILES IDX 15 15 12 16 14 17 16 18 13 19 18 20 19 21 20 22 21 23 22 24
REMARK SMILES IDX 23 26 24 27 25 28 86 29 26 30 85 31 27 32 28 33 29 34 79 35
REMARK SMILES IDX 30 36 84 37 78 38 80 39 31 40 83 41 77 42 76 43 32 45 64 46
REMARK SMILES IDX 44 47 63 48 45 49 48 50 62 51 81 52 46 53 47 54 61 56 82 57
REMARK SMILES IDX 49 58 33 59 34 60 42 61 35 62 36 63 40 64 43 65 37 66 38 67
REMARK SMILES IDX 41 68 39 69 65 70 66 71 74 72 67 73 68 74 72 75 75 76 69 77
REMARK SMILES IDX 70 78 73 79 71 80 50 81 51 82 59 83 52 84 53 85 57 86 60 87
REMARK SMILES IDX 54 88 55 89 58 90 56 91
REMARK H PARENT 17 4 5 9 21 25 80 44 48 55
REMARK Flexibility Score: inf
ROOT
ATOM      1  O   UNL A   1      31.835  36.439  30.596  1.00  0.00    -0.275 OA
ATOM      2  C   UNL A   1      33.029  36.565  30.842  1.00  0.00     0.221 C 
ATOM      3  N   UNL A   1      34.034  35.976  30.107  1.00  0.00    -0.356 N 
ATOM      4  H   UNL A   1      34.971  36.159  30.350  1.00  0.00     0.163 HD
ENDROOT
BRANCH   2   5
ATOM      5  C   UNL A   1      33.519  37.383  32.014  1.00  0.00     0.121 C 
BRANCH   5   6
ATOM      6  C   UNL A   1      34.012  36.495  33.150  1.00  0.00     0.126 C 
BRANCH   6   7
ATOM      7  N   UNL A   1      33.558  35.114  33.072  1.00  0.00    -0.353 N 
ATOM      8  C   UNL A   1      34.254  33.964  33.321  1.00  0.00     0.257 C 
ATOM      9  H   UNL A   1      32.619  34.991  32.802  1.00  0.00     0.163 HD
ATOM     10  O   UNL A   1      33.638  32.896  33.323  1.00  0.00    -0.271 OA
BRANCH   8  11
ATOM     11  C   UNL A   1      35.755  34.016  33.629  1.00  0.00     0.329 C 
BRANCH  11  12
ATOM     12  O   UNL A   1      36.588  33.486  32.605  1.00  0.00    -0.482 OA
BRANCH  12  13
ATOM     13  C   UNL A   1      37.540  32.605  33.045  1.00  0.00     0.138 A 
ATOM     14  C   UNL A   1      37.199  31.252  32.972  1.00  0.00     0.048 A 
ATOM     15  C   UNL A   1      38.720  32.984  33.697  1.00  0.00     0.083 A 
ATOM     16  C   UNL A   1      38.038  30.283  33.528  1.00  0.00     0.004 A 
ATOM     17  C   UNL A   1      39.555  32.011  34.253  1.00  0.00     0.024 A 
ATOM     18  Cl  UNL A   1      39.184  34.626  33.915  1.00  0.00    -0.080 Cl
ATOM     19  C   UNL A   1      39.213  30.663  34.171  1.00  0.00     0.002 A 
ENDBRANCH  12  13
ENDBRANCH  11  12
ENDBRANCH   8  11
ENDBRANCH   6   7
ENDBRANCH   5   6
ENDBRANCH   2   5
BRANCH   3  20
ATOM     20  C   UNL A   1      33.762  35.097  28.988  1.00  0.00     0.117 C 
BRANCH  20  21
ATOM     21  C   UNL A   1      34.938  34.195  28.631  1.00  0.00     0.042 C 
BRANCH  21  22
ATOM     22  C   UNL A   1      34.934  32.825  29.301  1.00  0.00     0.118 C 
BRANCH  22  23
ATOM     23  N   UNL A   1      34.158  31.821  28.591  1.00  0.00    -0.352 N 
ATOM     24  C   UNL A   1      34.539  30.584  28.131  1.00  0.00     0.251 C 
ATOM     25  H   UNL A   1      33.221  32.064  28.412  1.00  0.00     0.163 HD
ATOM     26  O   UNL A   1      33.764  29.918  27.449  1.00  0.00    -0.269 OA
BRANCH  24  27
ATOM     27  C   UNL A   1      35.893  30.062  28.416  1.00  0.00     0.039 A 
ATOM     28  C   UNL A   1      36.873  30.169  27.425  1.00  0.00     0.014 A 
ATOM     29  C   UNL A   1      36.202  29.470  29.643  1.00  0.00     0.014 A 
ATOM     30  C   UNL A   1      38.178  29.751  27.689  1.00  0.00     0.010 A 
ATOM     31  C   UNL A   1      37.520  29.115  29.929  1.00  0.00     0.010 A 
ATOM     32  C   UNL A   1      38.524  29.259  28.958  1.00  0.00    -0.014 A 
BRANCH  32  33
ATOM     33  C   UNL A   1      39.931  28.914  29.289  1.00  0.00     0.031 A 
ATOM     34  C   UNL A   1      40.786  29.866  30.077  1.00  0.00     0.074 A 
ATOM     35  C   UNL A   1      40.459  27.764  28.827  1.00  0.00     0.049 A 
ATOM     36  N   UNL A   1      42.050  29.766  30.407  1.00  0.00    -0.248 NA
ATOM     37  C   UNL A   1      40.142  31.107  30.537  1.00  0.00     0.031 C 
ATOM     38  C   UNL A   1      39.747  26.775  28.014  1.00  0.00     0.029 A 
ATOM     39  N   UNL A   1      41.720  27.237  28.962  1.00  0.00    -0.354 N 
ATOM     40  C   UNL A   1      42.353  30.931  31.100  1.00  0.00     0.074 A 
ATOM     41  C   UNL A   1      41.157  31.746  31.100  1.00  0.00     0.031 C 
ATOM     42  C   UNL A   1      40.574  25.753  27.742  1.00  0.00     0.029 A 
ATOM     43  C   UNL A   1      41.884  26.031  28.323  1.00  0.00     0.049 A 
ATOM     44  H   UNL A   1      42.438  27.680  29.468  1.00  0.00     0.167 HD
ATOM     45  C   UNL A   1      43.517  31.278  31.701  1.00  0.00     0.037 A 
ATOM     46  C   UNL A   1      42.971  25.244  28.207  1.00  0.00     0.037 A 
ATOM     47  C   UNL A   1      44.701  30.457  31.716  1.00  0.00     0.049 A 
ATOM     48  C   UNL A   1      44.257  25.663  28.868  1.00  0.00     0.074 A 
ATOM     49  C   UNL A   1      45.910  30.698  32.346  1.00  0.00     0.029 A 
ATOM     50  N   UNL A   1      44.826  29.238  31.066  1.00  0.00    -0.354 N 
ATOM     51  N   UNL A   1      44.513  26.734  29.579  1.00  0.00    -0.248 NA
ATOM     52  C   UNL A   1      45.405  24.759  28.715  1.00  0.00     0.031 C 
ATOM     53  C   UNL A   1      46.784  29.652  32.032  1.00  0.00     0.029 A 
ATOM     54  C   UNL A   1      46.102  28.729  31.257  1.00  0.00     0.049 A 
ATOM     55  H   UNL A   1      44.115  28.799  30.545  1.00  0.00     0.167 HD
ATOM     56  C   UNL A   1      45.836  26.619  29.983  1.00  0.00     0.074 A 
ATOM     57  C   UNL A   1      46.327  25.365  29.449  1.00  0.00     0.031 C 
ATOM     58  C   UNL A   1      46.577  27.475  30.728  1.00  0.00     0.037 A 
BRANCH  45  59
ATOM     59  C   UNL A   1      43.571  32.609  32.395  1.00  0.00     0.064 A 
ATOM     60  C   UNL A   1      43.918  33.784  31.710  1.00  0.00     0.173 A 
ATOM     61  C   UNL A   1      43.230  32.720  33.752  1.00  0.00     0.173 A 
ATOM     62  F   UNL A   1      44.261  33.732  30.414  1.00  0.00    -0.203 F 
ATOM     63  C   UNL A   1      43.951  35.012  32.363  1.00  0.00     0.198 A 
ATOM     64  C   UNL A   1      43.232  33.956  34.393  1.00  0.00     0.198 A 
ATOM     65  F   UNL A   1      42.882  31.631  34.454  1.00  0.00    -0.203 F 
ATOM     66  F   UNL A   1      44.335  36.113  31.699  1.00  0.00    -0.200 F 
ATOM     67  C   UNL A   1      43.601  35.100  33.702  1.00  0.00     0.200 A 
ATOM     68  F   UNL A   1      42.879  34.040  35.684  1.00  0.00    -0.200 F 
ATOM     69  F   UNL A   1      43.625  36.285  34.327  1.00  0.00    -0.200 F 
ENDBRANCH  45  59
BRANCH  46  70
ATOM     70  C   UNL A   1      42.888  23.969  27.448  1.00  0.00     0.064 A 
ATOM     71  C   UNL A   1      43.211  23.921  26.085  1.00  0.00     0.173 A 
ATOM     72  C   UNL A   1      42.476  22.777  28.063  1.00  0.00     0.173 A 
ATOM     73  F   UNL A   1      43.589  25.038  25.446  1.00  0.00    -0.203 F 
ATOM     74  C   UNL A   1      43.103  22.736  25.360  1.00  0.00     0.198 A 
ATOM     75  C   UNL A   1      42.399  21.586  27.344  1.00  0.00     0.198 A 
ATOM     76  F   UNL A   1      42.159  22.768  29.366  1.00  0.00    -0.203 F 
ATOM     77  F   UNL A   1      43.369  22.730  24.046  1.00  0.00    -0.200 F 
ATOM     78  C   UNL A   1      42.703  21.567  25.992  1.00  0.00     0.200 A 
ATOM     79  F   UNL A   1      42.026  20.457  27.962  1.00  0.00    -0.200 F 
ATOM     80  F   UNL A   1      42.602  20.427  25.295  1.00  0.00    -0.200 F 
ENDBRANCH  46  70
BRANCH  58  81
ATOM     81  C   UNL A   1      47.988  27.069  31.048  1.00  0.00     0.064 A 
ATOM     82  C   UNL A   1      48.286  26.216  32.121  1.00  0.00     0.173 A 
ATOM     83  C   UNL A   1      49.052  27.510  30.245  1.00  0.00     0.173 A 
ATOM     84  F   UNL A   1      47.307  25.778  32.928  1.00  0.00    -0.203 F 
ATOM     85  C   UNL A   1      49.598  25.842  32.394  1.00  0.00     0.198 A 
ATOM     86  C   UNL A   1      50.359  27.108  30.502  1.00  0.00     0.198 A 
ATOM     87  F   UNL A   1      48.821  28.321  29.202  1.00  0.00    -0.203 F 
ATOM     88  F   UNL A   1      49.865  25.067  33.455  1.00  0.00    -0.200 F 
ATOM     89  C   UNL A   1      50.633  26.280  31.580  1.00  0.00     0.200 A 
ATOM     90  F   UNL A   1      51.354  27.520  29.705  1.00  0.00    -0.200 F 
ATOM     91  F   UNL A   1      51.895  25.912  31.840  1.00  0.00    -0.200 F 
ENDBRANCH  58  81
ENDBRANCH  32  33
ENDBRANCH  24  27
ENDBRANCH  22  23
ENDBRANCH  21  22
ENDBRANCH  20  21
ENDBRANCH   3  20
TORSDOF 15
ENDMDL
