MODEL 1
REMARK VINA RESULT:     -12.0      0.000      0.000
REMARK SMILES Cc1cc(CNC(=O)C[C@H](C)CC(=O)NCCCNC(=O)c2ccc(-c3c4nc(c(-c5c(F)c(F)c(F)c(F)c5F)c5ccc([nH]5)c(-c5c(F)c(F)c(F)c(F)c5F)c5nc(c(-c6c(F)c(F)c(F)c(F)c6F)c6ccc3[nH]6)C=C5)C=C4)cc2)cc(C)c1F
REMARK SMILES IDX 13 1 14 2 15 3 12 5 10 6 11 7 9 8 7 9 6 10 8 12 5 13 4 14
REMARK SMILES IDX 1 15 2 16 3 17 88 18 86 19 89 20 85 21 87 22 16 23 17 24
REMARK SMILES IDX 18 25 19 26 20 27 21 29 22 30 23 31 84 32 24 33 83 34 25 35
REMARK SMILES IDX 26 36 27 37 77 38 28 39 82 40 76 41 78 42 29 43 81 44 75 45
REMARK SMILES IDX 74 46 30 48 62 49 42 50 61 51 43 52 46 53 60 54 79 55 44 56
REMARK SMILES IDX 45 57 59 59 80 60 47 61 31 62 32 63 40 64 33 65 34 66 38 67
REMARK SMILES IDX 41 68 35 69 36 70 39 71 37 72 63 73 64 74 72 75 65 76 66 77
REMARK SMILES IDX 70 78 73 79 67 80 68 81 71 82 69 83 48 84 49 85 57 86 50 87
REMARK SMILES IDX 51 88 55 89 58 90 52 91 53 92 56 93 54 94
REMARK H PARENT 15 4 6 11 19 28 78 47 46 58
REMARK Flexibility Score: inf
ROOT
ATOM      1  C   UNL A   1      34.043  20.443  24.878  1.00  0.00     0.220 C 
ATOM      2  O   UNL A   1      33.155  19.620  25.109  1.00  0.00    -0.275 OA
ATOM      3  N   UNL A   1      35.322  20.110  25.199  1.00  0.00    -0.356 N 
ATOM      4  H   UNL A   1      35.422  19.219  25.605  1.00  0.00     0.163 HD
ENDROOT
BRANCH   1   5
ATOM      5  C   UNL A   1      33.703  21.803  24.296  1.00  0.00     0.103 C 
BRANCH   5   6
ATOM      6  C   UNL A   1      33.266  22.777  25.402  1.00  0.00     0.004 C 
ATOM      7  C   UNL A   1      34.068  24.078  25.353  1.00  0.00     0.009 C 
BRANCH   6   8
ATOM      8  C   UNL A   1      31.756  23.052  25.366  1.00  0.00     0.103 C 
BRANCH   8   9
ATOM      9  C   UNL A   1      31.226  23.532  26.709  1.00  0.00     0.220 C 
ATOM     10  N   UNL A   1      30.354  24.577  26.771  1.00  0.00    -0.352 N 
ATOM     11  H   UNL A   1      29.899  24.696  27.635  1.00  0.00     0.163 HD
ATOM     12  O   UNL A   1      31.535  22.954  27.752  1.00  0.00    -0.275 OA
BRANCH  10  13
ATOM     13  C   UNL A   1      30.001  25.536  25.746  1.00  0.00     0.151 C 
BRANCH  13  14
ATOM     14  C   UNL A   1      31.144  26.439  25.335  1.00  0.00    -0.028 A 
ATOM     15  C   UNL A   1      33.261  27.236  22.259  1.00  0.00     0.047 C 
ATOM     16  C   UNL A   1      32.765  27.218  23.673  1.00  0.00    -0.015 A 
ATOM     17  C   UNL A   1      31.596  26.518  24.007  1.00  0.00     0.012 A 
ATOM     18  C   UNL A   1      33.439  27.915  24.677  1.00  0.00     0.129 A 
ATOM     19  C   UNL A   1      32.995  27.891  26.001  1.00  0.00    -0.015 A 
ATOM     20  F   UNL A   1      34.542  28.611  24.362  1.00  0.00    -0.206 F 
ATOM     21  C   UNL A   1      31.860  27.133  26.324  1.00  0.00     0.012 A 
ATOM     22  C   UNL A   1      33.728  28.633  27.077  1.00  0.00     0.047 C 
ENDBRANCH  13  14
ENDBRANCH  10  13
ENDBRANCH   8   9
ENDBRANCH   6   8
ENDBRANCH   5   6
ENDBRANCH   1   5
BRANCH   3  23
ATOM     23  C   UNL A   1      36.566  20.847  25.044  1.00  0.00     0.117 C 
BRANCH  23  24
ATOM     24  C   UNL A   1      37.780  19.925  24.942  1.00  0.00     0.042 C 
BRANCH  24  25
ATOM     25  C   UNL A   1      38.985  20.404  25.742  1.00  0.00     0.118 C 
BRANCH  25  26
ATOM     26  N   UNL A   1      39.968  19.348  25.898  1.00  0.00    -0.352 N 
ATOM     27  C   UNL A   1      41.330  19.449  26.046  1.00  0.00     0.251 C 
ATOM     28  H   UNL A   1      39.608  18.431  25.901  1.00  0.00     0.163 HD
ATOM     29  O   UNL A   1      42.036  18.461  25.873  1.00  0.00    -0.269 OA
BRANCH  27  30
ATOM     30  C   UNL A   1      41.956  20.741  26.409  1.00  0.00     0.039 A 
ATOM     31  C   UNL A   1      42.089  21.074  27.761  1.00  0.00     0.014 A 
ATOM     32  C   UNL A   1      42.329  21.663  25.425  1.00  0.00     0.014 A 
ATOM     33  C   UNL A   1      42.615  22.317  28.126  1.00  0.00     0.010 A 
ATOM     34  C   UNL A   1      42.912  22.876  25.789  1.00  0.00     0.010 A 
ATOM     35  C   UNL A   1      43.034  23.225  27.142  1.00  0.00    -0.014 A 
BRANCH  35  36
ATOM     36  C   UNL A   1      43.509  24.584  27.504  1.00  0.00     0.031 A 
ATOM     37  C   UNL A   1      42.504  25.647  27.857  1.00  0.00     0.074 A 
ATOM     38  C   UNL A   1      44.823  24.872  27.497  1.00  0.00     0.049 A 
ATOM     39  N   UNL A   1      42.697  26.908  28.150  1.00  0.00    -0.248 NA
ATOM     40  C   UNL A   1      41.089  25.239  27.870  1.00  0.00     0.031 C 
ATOM     41  C   UNL A   1      45.893  23.930  27.171  1.00  0.00     0.029 A 
ATOM     42  N   UNL A   1      45.482  26.044  27.773  1.00  0.00    -0.354 N 
ATOM     43  C   UNL A   1      41.436  27.438  28.384  1.00  0.00     0.074 A 
ATOM     44  C   UNL A   1      40.478  26.383  28.141  1.00  0.00     0.031 C 
ATOM     45  C   UNL A   1      47.077  24.555  27.287  1.00  0.00     0.029 A 
ATOM     46  C   UNL A   1      46.847  25.948  27.664  1.00  0.00     0.049 A 
ATOM     47  H   UNL A   1      45.019  26.875  28.025  1.00  0.00     0.167 HD
ATOM     48  C   UNL A   1      41.106  28.685  28.795  1.00  0.00     0.037 A 
ATOM     49  C   UNL A   1      47.801  26.880  27.848  1.00  0.00     0.037 A 
ATOM     50  C   UNL A   1      42.057  29.733  29.049  1.00  0.00     0.049 A 
ATOM     51  C   UNL A   1      47.403  28.278  28.244  1.00  0.00     0.074 A 
ATOM     52  C   UNL A   1      41.822  31.026  29.480  1.00  0.00     0.029 A 
ATOM     53  N   UNL A   1      43.430  29.604  28.900  1.00  0.00    -0.354 N 
ATOM     54  N   UNL A   1      46.209  28.760  28.487  1.00  0.00    -0.248 NA
ATOM     55  C   UNL A   1      48.487  29.260  28.390  1.00  0.00     0.031 C 
ATOM     56  C   UNL A   1      43.050  31.690  29.559  1.00  0.00     0.029 A 
ATOM     57  C   UNL A   1      44.053  30.798  29.217  1.00  0.00     0.049 A 
ATOM     58  H   UNL A   1      43.892  28.783  28.611  1.00  0.00     0.167 HD
ATOM     59  C   UNL A   1      46.399  30.089  28.843  1.00  0.00     0.074 A 
ATOM     60  C   UNL A   1      47.825  30.335  28.795  1.00  0.00     0.031 C 
ATOM     61  C   UNL A   1      45.475  31.022  29.177  1.00  0.00     0.037 A 
BRANCH  48  62
ATOM     62  C   UNL A   1      39.653  28.980  29.019  1.00  0.00     0.064 A 
ATOM     63  C   UNL A   1      38.821  29.373  27.959  1.00  0.00     0.173 A 
ATOM     64  C   UNL A   1      39.072  28.815  30.285  1.00  0.00     0.173 A 
ATOM     65  F   UNL A   1      39.332  29.558  26.733  1.00  0.00    -0.203 F 
ATOM     66  C   UNL A   1      37.464  29.606  28.164  1.00  0.00     0.198 A 
ATOM     67  C   UNL A   1      37.710  29.023  30.479  1.00  0.00     0.198 A 
ATOM     68  F   UNL A   1      39.824  28.436  31.330  1.00  0.00    -0.203 F 
ATOM     69  F   UNL A   1      36.696  30.015  27.144  1.00  0.00    -0.200 F 
ATOM     70  C   UNL A   1      36.907  29.422  29.420  1.00  0.00     0.200 A 
ATOM     71  F   UNL A   1      37.171  28.835  31.692  1.00  0.00    -0.200 F 
ATOM     72  F   UNL A   1      35.598  29.634  29.612  1.00  0.00    -0.200 F 
ENDBRANCH  48  62
BRANCH  49  73
ATOM     73  C   UNL A   1      49.234  26.517  27.696  1.00  0.00     0.064 A 
ATOM     74  C   UNL A   1      50.043  26.316  28.824  1.00  0.00     0.173 A 
ATOM     75  C   UNL A   1      49.826  26.372  26.434  1.00  0.00     0.173 A 
ATOM     76  F   UNL A   1      49.527  26.468  30.052  1.00  0.00    -0.203 F 
ATOM     77  C   UNL A   1      51.392  25.996  28.694  1.00  0.00     0.198 A 
ATOM     78  C   UNL A   1      51.171  26.029  26.306  1.00  0.00     0.198 A 
ATOM     79  F   UNL A   1      49.096  26.556  25.324  1.00  0.00    -0.203 F 
ATOM     80  F   UNL A   1      52.152  25.848  29.788  1.00  0.00    -0.200 F 
ATOM     81  C   UNL A   1      51.954  25.847  27.436  1.00  0.00     0.200 A 
ATOM     82  F   UNL A   1      51.708  25.877  25.087  1.00  0.00    -0.200 F 
ATOM     83  F   UNL A   1      53.252  25.537  27.312  1.00  0.00    -0.200 F 
ENDBRANCH  49  73
BRANCH  61  84
ATOM     84  C   UNL A   1      45.969  32.389  29.549  1.00  0.00     0.064 A 
ATOM     85  C   UNL A   1      46.352  32.695  30.862  1.00  0.00     0.173 A 
ATOM     86  C   UNL A   1      46.129  33.378  28.566  1.00  0.00     0.173 A 
ATOM     87  F   UNL A   1      46.206  31.787  31.837  1.00  0.00    -0.203 F 
ATOM     88  C   UNL A   1      46.867  33.949  31.180  1.00  0.00     0.198 A 
ATOM     89  C   UNL A   1      46.669  34.621  28.883  1.00  0.00     0.198 A 
ATOM     90  F   UNL A   1      45.784  33.129  27.294  1.00  0.00    -0.203 F 
ATOM     91  F   UNL A   1      47.199  34.233  32.447  1.00  0.00    -0.200 F 
ATOM     92  C   UNL A   1      47.034  34.907  30.190  1.00  0.00     0.200 A 
ATOM     93  F   UNL A   1      46.844  35.538  27.923  1.00  0.00    -0.200 F 
ATOM     94  F   UNL A   1      47.546  36.106  30.496  1.00  0.00    -0.200 F 
ENDBRANCH  61  84
ENDBRANCH  35  36
ENDBRANCH  27  30
ENDBRANCH  25  26
ENDBRANCH  24  25
ENDBRANCH  23  24
ENDBRANCH   3  23
TORSDOF 15
ENDMDL
MODEL 2
REMARK VINA RESULT:     -11.8      5.747     10.892
REMARK SMILES Cc1cc(CNC(=O)C[C@H](C)CC(=O)NCCCNC(=O)c2ccc(-c3c4nc(c(-c5c(F)c(F)c(F)c(F)c5F)c5ccc([nH]5)c(-c5c(F)c(F)c(F)c(F)c5F)c5nc(c(-c6c(F)c(F)c(F)c(F)c6F)c6ccc3[nH]6)C=C5)C=C4)cc2)cc(C)c1F
REMARK SMILES IDX 13 1 14 2 15 3 12 5 10 6 11 7 9 8 7 9 6 10 8 12 5 13 4 14
REMARK SMILES IDX 1 15 2 16 3 17 88 18 86 19 89 20 85 21 87 22 16 23 17 24
REMARK SMILES IDX 18 25 19 26 20 27 21 29 22 30 23 31 84 32 24 33 83 34 25 35
REMARK SMILES IDX 26 36 27 37 77 38 28 39 82 40 76 41 78 42 29 43 81 44 75 45
REMARK SMILES IDX 74 46 30 48 62 49 42 50 61 51 43 52 46 53 60 54 79 55 44 56
REMARK SMILES IDX 45 57 59 59 80 60 47 61 31 62 32 63 40 64 33 65 34 66 38 67
REMARK SMILES IDX 41 68 35 69 36 70 39 71 37 72 63 73 64 74 72 75 65 76 66 77
REMARK SMILES IDX 70 78 73 79 67 80 68 81 71 82 69 83 48 84 49 85 57 86 50 87
REMARK SMILES IDX 51 88 55 89 58 90 52 91 53 92 56 93 54 94
REMARK H PARENT 15 4 6 11 19 28 78 47 46 58
REMARK Flexibility Score: inf
ROOT
ATOM      1  C   UNL A   1      30.685  29.275  23.977  1.00  0.00     0.220 C 
ATOM      2  O   UNL A   1      29.905  29.306  23.023  1.00  0.00    -0.275 OA
ATOM      3  N   UNL A   1      30.811  30.398  24.735  1.00  0.00    -0.356 N 
ATOM      4  H   UNL A   1      30.257  31.155  24.439  1.00  0.00     0.163 HD
ENDROOT
BRANCH   1   5
ATOM      5  C   UNL A   1      31.510  28.034  24.261  1.00  0.00     0.103 C 
BRANCH   5   6
ATOM      6  C   UNL A   1      32.545  27.800  23.149  1.00  0.00     0.004 C 
ATOM      7  C   UNL A   1      33.622  28.886  23.149  1.00  0.00     0.009 C 
BRANCH   6   8
ATOM      8  C   UNL A   1      33.168  26.399  23.224  1.00  0.00     0.103 C 
BRANCH   8   9
ATOM      9  C   UNL A   1      32.903  25.583  21.967  1.00  0.00     0.220 C 
ATOM     10  N   UNL A   1      32.191  24.424  22.037  1.00  0.00    -0.352 N 
ATOM     11  H   UNL A   1      31.885  24.064  21.174  1.00  0.00     0.163 HD
ATOM     12  O   UNL A   1      33.283  25.982  20.866  1.00  0.00    -0.275 OA
BRANCH  10  13
ATOM     13  C   UNL A   1      31.820  23.646  23.200  1.00  0.00     0.151 C 
BRANCH  13  14
ATOM     14  C   UNL A   1      32.863  22.631  23.614  1.00  0.00    -0.028 A 
ATOM     15  C   UNL A   1      33.083  19.168  25.207  1.00  0.00     0.047 C 
ATOM     16  C   UNL A   1      33.485  20.497  24.641  1.00  0.00    -0.015 A 
ATOM     17  C   UNL A   1      32.520  21.358  24.097  1.00  0.00     0.012 A 
ATOM     18  C   UNL A   1      34.822  20.893  24.624  1.00  0.00     0.129 A 
ATOM     19  C   UNL A   1      35.205  22.136  24.115  1.00  0.00    -0.015 A 
ATOM     20  F   UNL A   1      35.756  20.065  25.117  1.00  0.00    -0.206 F 
ATOM     21  C   UNL A   1      34.217  23.006  23.632  1.00  0.00     0.012 A 
ATOM     22  C   UNL A   1      36.642  22.560  24.106  1.00  0.00     0.047 C 
ENDBRANCH  13  14
ENDBRANCH  10  13
ENDBRANCH   8   9
ENDBRANCH   6   8
ENDBRANCH   5   6
ENDBRANCH   1   5
BRANCH   3  23
ATOM     23  C   UNL A   1      31.625  30.667  25.910  1.00  0.00     0.117 C 
BRANCH  23  24
ATOM     24  C   UNL A   1      31.399  32.073  26.465  1.00  0.00     0.042 C 
BRANCH  24  25
ATOM     25  C   UNL A   1      32.589  32.630  27.234  1.00  0.00     0.118 C 
BRANCH  25  26
ATOM     26  N   UNL A   1      32.431  34.048  27.497  1.00  0.00    -0.352 N 
ATOM     27  C   UNL A   1      32.975  34.807  28.504  1.00  0.00     0.251 C 
ATOM     28  H   UNL A   1      31.854  34.535  26.864  1.00  0.00     0.163 HD
ATOM     29  O   UNL A   1      32.511  35.915  28.750  1.00  0.00    -0.269 OA
BRANCH  27  30
ATOM     30  C   UNL A   1      34.117  34.299  29.300  1.00  0.00     0.039 A 
ATOM     31  C   UNL A   1      35.413  34.448  28.795  1.00  0.00     0.014 A 
ATOM     32  C   UNL A   1      33.909  33.599  30.493  1.00  0.00     0.014 A 
ATOM     33  C   UNL A   1      36.500  33.916  29.497  1.00  0.00     0.010 A 
ATOM     34  C   UNL A   1      34.997  33.124  31.223  1.00  0.00     0.010 A 
ATOM     35  C   UNL A   1      36.299  33.254  30.718  1.00  0.00    -0.014 A 
BRANCH  35  36
ATOM     36  C   UNL A   1      37.425  32.603  31.432  1.00  0.00     0.031 A 
ATOM     37  C   UNL A   1      38.170  31.477  30.765  1.00  0.00     0.074 A 
ATOM     38  C   UNL A   1      37.768  32.998  32.672  1.00  0.00     0.049 A 
ATOM     39  N   UNL A   1      39.146  30.737  31.229  1.00  0.00    -0.248 NA
ATOM     40  C   UNL A   1      37.752  31.129  29.397  1.00  0.00     0.031 C 
ATOM     41  C   UNL A   1      37.123  34.073  33.423  1.00  0.00     0.029 A 
ATOM     42  N   UNL A   1      38.745  32.537  33.519  1.00  0.00    -0.354 N 
ATOM     43  C   UNL A   1      39.457  29.845  30.212  1.00  0.00     0.074 A 
ATOM     44  C   UNL A   1      38.530  30.090  29.130  1.00  0.00     0.031 C 
ATOM     45  C   UNL A   1      37.736  34.205  34.612  1.00  0.00     0.029 A 
ATOM     46  C   UNL A   1      38.795  33.204  34.717  1.00  0.00     0.049 A 
ATOM     47  H   UNL A   1      39.353  31.798  33.287  1.00  0.00     0.167 HD
ATOM     48  C   UNL A   1      40.447  28.923  30.171  1.00  0.00     0.037 A 
ATOM     49  C   UNL A   1      39.604  33.024  35.779  1.00  0.00     0.037 A 
ATOM     50  C   UNL A   1      41.378  28.684  31.240  1.00  0.00     0.049 A 
ATOM     51  C   UNL A   1      40.657  31.948  35.732  1.00  0.00     0.074 A 
ATOM     52  C   UNL A   1      42.424  27.780  31.289  1.00  0.00     0.029 A 
ATOM     53  N   UNL A   1      41.377  29.362  32.450  1.00  0.00    -0.354 N 
ATOM     54  N   UNL A   1      40.958  31.127  34.756  1.00  0.00    -0.248 NA
ATOM     55  C   UNL A   1      41.481  31.774  36.936  1.00  0.00     0.031 C 
ATOM     56  C   UNL A   1      43.035  27.886  32.542  1.00  0.00     0.029 A 
ATOM     57  C   UNL A   1      42.396  28.885  33.257  1.00  0.00     0.049 A 
ATOM     58  H   UNL A   1      40.745  30.075  32.698  1.00  0.00     0.167 HD
ATOM     59  C   UNL A   1      42.023  30.362  35.214  1.00  0.00     0.074 A 
ATOM     60  C   UNL A   1      42.323  30.823  36.553  1.00  0.00     0.031 C 
ATOM     61  C   UNL A   1      42.690  29.366  34.583  1.00  0.00     0.037 A 
BRANCH  48  62
ATOM     62  C   UNL A   1      40.590  28.114  28.916  1.00  0.00     0.064 A 
ATOM     63  C   UNL A   1      39.891  26.910  28.744  1.00  0.00     0.173 A 
ATOM     64  C   UNL A   1      41.385  28.571  27.853  1.00  0.00     0.173 A 
ATOM     65  F   UNL A   1      39.129  26.425  29.737  1.00  0.00    -0.203 F 
ATOM     66  C   UNL A   1      39.995  26.184  27.562  1.00  0.00     0.198 A 
ATOM     67  C   UNL A   1      41.465  27.855  26.662  1.00  0.00     0.198 A 
ATOM     68  F   UNL A   1      42.070  29.719  27.966  1.00  0.00    -0.203 F 
ATOM     69  F   UNL A   1      39.346  25.018  27.434  1.00  0.00    -0.200 F 
ATOM     70  C   UNL A   1      40.774  26.661  26.518  1.00  0.00     0.200 A 
ATOM     71  F   UNL A   1      42.209  28.322  25.650  1.00  0.00    -0.200 F 
ATOM     72  F   UNL A   1      40.863  25.967  25.375  1.00  0.00    -0.200 F 
ENDBRANCH  48  62
BRANCH  49  73
ATOM     73  C   UNL A   1      39.478  33.906  36.968  1.00  0.00     0.064 A 
ATOM     74  C   UNL A   1      40.139  35.142  37.012  1.00  0.00     0.173 A 
ATOM     75  C   UNL A   1      38.709  33.537  38.080  1.00  0.00     0.173 A 
ATOM     76  F   UNL A   1      40.907  35.527  35.983  1.00  0.00    -0.203 F 
ATOM     77  C   UNL A   1      40.046  35.968  38.130  1.00  0.00     0.198 A 
ATOM     78  C   UNL A   1      38.597  34.375  39.187  1.00  0.00     0.198 A 
ATOM     79  F   UNL A   1      38.058  32.364  38.086  1.00  0.00    -0.203 F 
ATOM     80  F   UNL A   1      40.720  37.126  38.163  1.00  0.00    -0.200 F 
ATOM     81  C   UNL A   1      39.270  35.587  39.214  1.00  0.00     0.200 A 
ATOM     82  F   UNL A   1      37.839  34.007  40.229  1.00  0.00    -0.200 F 
ATOM     83  F   UNL A   1      39.179  36.384  40.288  1.00  0.00    -0.200 F 
ENDBRANCH  49  73
BRANCH  61  84
ATOM     84  C   UNL A   1      43.831  28.721  35.313  1.00  0.00     0.064 A 
ATOM     85  C   UNL A   1      43.639  27.589  36.116  1.00  0.00     0.173 A 
ATOM     86  C   UNL A   1      45.141  29.198  35.146  1.00  0.00     0.173 A 
ATOM     87  F   UNL A   1      42.405  27.104  36.315  1.00  0.00    -0.203 F 
ATOM     88  C   UNL A   1      44.717  26.964  36.737  1.00  0.00     0.198 A 
ATOM     89  C   UNL A   1      46.218  28.555  35.747  1.00  0.00     0.198 A 
ATOM     90  F   UNL A   1      45.376  30.275  34.380  1.00  0.00    -0.203 F 
ATOM     91  F   UNL A   1      44.509  25.901  37.526  1.00  0.00    -0.200 F 
ATOM     92  C   UNL A   1      46.006  27.441  36.545  1.00  0.00     0.200 A 
ATOM     93  F   UNL A   1      47.463  29.008  35.547  1.00  0.00    -0.200 F 
ATOM     94  F   UNL A   1      47.042  26.827  37.130  1.00  0.00    -0.200 F 
ENDBRANCH  61  84
ENDBRANCH  35  36
ENDBRANCH  27  30
ENDBRANCH  25  26
ENDBRANCH  24  25
ENDBRANCH  23  24
ENDBRANCH   3  23
TORSDOF 15
ENDMDL
MODEL 3
REMARK VINA RESULT:     -11.6      5.417      9.587
REMARK SMILES Cc1cc(CNC(=O)C[C@H](C)CC(=O)NCCCNC(=O)c2ccc(-c3c4nc(c(-c5c(F)c(F)c(F)c(F)c5F)c5ccc([nH]5)c(-c5c(F)c(F)c(F)c(F)c5F)c5nc(c(-c6c(F)c(F)c(F)c(F)c6F)c6ccc3[nH]6)C=C5)C=C4)cc2)cc(C)c1F
REMARK SMILES IDX 13 1 14 2 15 3 12 5 10 6 11 7 9 8 7 9 6 10 8 12 5 13 4 14
REMARK SMILES IDX 1 15 2 16 3 17 88 18 86 19 89 20 85 21 87 22 16 23 17 24
REMARK SMILES IDX 18 25 19 26 20 27 21 29 22 30 23 31 84 32 24 33 83 34 25 35
REMARK SMILES IDX 26 36 27 37 77 38 28 39 82 40 76 41 78 42 29 43 81 44 75 45
REMARK SMILES IDX 74 46 30 48 62 49 42 50 61 51 43 52 46 53 60 54 79 55 44 56
REMARK SMILES IDX 45 57 59 59 80 60 47 61 31 62 32 63 40 64 33 65 34 66 38 67
REMARK SMILES IDX 41 68 35 69 36 70 39 71 37 72 63 73 64 74 72 75 65 76 66 77
REMARK SMILES IDX 70 78 73 79 67 80 68 81 71 82 69 83 48 84 49 85 57 86 50 87
REMARK SMILES IDX 51 88 55 89 58 90 52 91 53 92 56 93 54 94
REMARK H PARENT 15 4 6 11 19 28 78 47 46 58
REMARK Flexibility Score: inf
ROOT
ATOM      1  C   UNL A   1      30.680  29.323  23.653  1.00  0.00     0.220 C 
ATOM      2  O   UNL A   1      30.049  29.488  22.607  1.00  0.00    -0.275 OA
ATOM      3  N   UNL A   1      30.753  30.364  24.526  1.00  0.00    -0.356 N 
ATOM      4  H   UNL A   1      30.288  31.179  24.230  1.00  0.00     0.163 HD
ENDROOT
BRANCH   1   5
ATOM      5  C   UNL A   1      31.391  28.011  23.929  1.00  0.00     0.103 C 
BRANCH   5   6
ATOM      6  C   UNL A   1      32.581  27.823  22.974  1.00  0.00     0.004 C 
ATOM      7  C   UNL A   1      33.597  28.957  23.116  1.00  0.00     0.009 C 
BRANCH   6   8
ATOM      8  C   UNL A   1      33.249  26.452  23.146  1.00  0.00     0.103 C 
BRANCH   8   9
ATOM      9  C   UNL A   1      32.925  25.506  21.999  1.00  0.00     0.220 C 
ATOM     10  N   UNL A   1      32.193  24.379  22.223  1.00  0.00    -0.352 N 
ATOM     11  H   UNL A   1      31.850  23.931  21.417  1.00  0.00     0.163 HD
ATOM     12  O   UNL A   1      33.274  25.769  20.848  1.00  0.00    -0.275 OA
BRANCH  10  13
ATOM     13  C   UNL A   1      31.847  23.746  23.479  1.00  0.00     0.151 C 
BRANCH  13  14
ATOM     14  C   UNL A   1      32.884  22.760  23.971  1.00  0.00    -0.028 A 
ATOM     15  C   UNL A   1      36.677  22.403  24.214  1.00  0.00     0.047 C 
ATOM     16  C   UNL A   1      35.216  22.075  24.270  1.00  0.00    -0.015 A 
ATOM     17  C   UNL A   1      34.256  23.057  23.981  1.00  0.00     0.012 A 
ATOM     18  C   UNL A   1      34.782  20.800  24.632  1.00  0.00     0.129 A 
ATOM     19  C   UNL A   1      33.423  20.480  24.671  1.00  0.00    -0.015 A 
ATOM     20  F   UNL A   1      35.690  19.862  24.938  1.00  0.00    -0.206 F 
ATOM     21  C   UNL A   1      32.483  21.459  24.319  1.00  0.00     0.012 A 
ATOM     22  C   UNL A   1      32.961  19.106  25.052  1.00  0.00     0.047 C 
ENDBRANCH  13  14
ENDBRANCH  10  13
ENDBRANCH   8   9
ENDBRANCH   6   8
ENDBRANCH   5   6
ENDBRANCH   1   5
BRANCH   3  23
ATOM     23  C   UNL A   1      31.402  30.476  25.823  1.00  0.00     0.117 C 
BRANCH  23  24
ATOM     24  C   UNL A   1      31.306  31.888  26.402  1.00  0.00     0.042 C 
BRANCH  24  25
ATOM     25  C   UNL A   1      32.617  32.406  26.980  1.00  0.00     0.118 C 
BRANCH  25  26
ATOM     26  N   UNL A   1      32.509  33.801  27.363  1.00  0.00    -0.352 N 
ATOM     27  C   UNL A   1      33.109  34.461  28.407  1.00  0.00     0.251 C 
ATOM     28  H   UNL A   1      31.924  34.353  26.794  1.00  0.00     0.163 HD
ATOM     29  O   UNL A   1      32.687  35.556  28.760  1.00  0.00    -0.269 OA
BRANCH  27  30
ATOM     30  C   UNL A   1      34.263  33.859  29.115  1.00  0.00     0.039 A 
ATOM     31  C   UNL A   1      35.558  34.219  28.728  1.00  0.00     0.014 A 
ATOM     32  C   UNL A   1      34.077  32.878  30.095  1.00  0.00     0.014 A 
ATOM     33  C   UNL A   1      36.663  33.614  29.337  1.00  0.00     0.010 A 
ATOM     34  C   UNL A   1      35.176  32.321  30.745  1.00  0.00     0.010 A 
ATOM     35  C   UNL A   1      36.479  32.663  30.352  1.00  0.00    -0.014 A 
BRANCH  35  36
ATOM     36  C   UNL A   1      37.632  31.942  30.946  1.00  0.00     0.031 A 
ATOM     37  C   UNL A   1      38.071  32.280  32.345  1.00  0.00     0.074 A 
ATOM     38  C   UNL A   1      38.293  31.009  30.237  1.00  0.00     0.049 A 
ATOM     39  N   UNL A   1      39.082  31.813  33.034  1.00  0.00    -0.248 NA
ATOM     40  C   UNL A   1      37.274  33.289  33.061  1.00  0.00     0.031 C 
ATOM     41  C   UNL A   1      37.965  30.595  28.874  1.00  0.00     0.029 A 
ATOM     42  N   UNL A   1      39.382  30.241  30.568  1.00  0.00    -0.354 N 
ATOM     43  C   UNL A   1      39.038  32.465  34.258  1.00  0.00     0.074 A 
ATOM     44  C   UNL A   1      37.940  33.406  34.201  1.00  0.00     0.031 C 
ATOM     45  C   UNL A   1      38.821  29.632  28.491  1.00  0.00     0.029 A 
ATOM     46  C   UNL A   1      39.775  29.384  29.570  1.00  0.00     0.049 A 
ATOM     47  H   UNL A   1      39.837  30.299  31.439  1.00  0.00     0.167 HD
ATOM     48  C   UNL A   1      39.821  32.277  35.346  1.00  0.00     0.037 A 
ATOM     49  C   UNL A   1      40.790  28.500  29.534  1.00  0.00     0.037 A 
ATOM     50  C   UNL A   1      40.905  31.334  35.410  1.00  0.00     0.049 A 
ATOM     51  C   UNL A   1      41.688  28.355  30.735  1.00  0.00     0.074 A 
ATOM     52  C   UNL A   1      41.750  31.061  36.472  1.00  0.00     0.029 A 
ATOM     53  N   UNL A   1      41.289  30.504  34.368  1.00  0.00    -0.354 N 
ATOM     54  N   UNL A   1      41.620  28.960  31.896  1.00  0.00    -0.248 NA
ATOM     55  C   UNL A   1      42.802  27.404  30.619  1.00  0.00     0.031 C 
ATOM     56  C   UNL A   1      42.667  30.090  36.060  1.00  0.00     0.029 A 
ATOM     57  C   UNL A   1      42.368  29.729  34.757  1.00  0.00     0.049 A 
ATOM     58  H   UNL A   1      40.859  30.472  33.483  1.00  0.00     0.167 HD
ATOM     59  C   UNL A   1      42.661  28.443  32.657  1.00  0.00     0.074 A 
ATOM     60  C   UNL A   1      43.339  27.467  31.830  1.00  0.00     0.031 C 
ATOM     61  C   UNL A   1      43.022  28.751  33.926  1.00  0.00     0.037 A 
BRANCH  48  62
ATOM     62  C   UNL A   1      39.521  33.093  36.567  1.00  0.00     0.064 A 
ATOM     63  C   UNL A   1      40.153  34.326  36.790  1.00  0.00     0.173 A 
ATOM     64  C   UNL A   1      38.555  32.673  37.493  1.00  0.00     0.173 A 
ATOM     65  F   UNL A   1      41.094  34.764  35.940  1.00  0.00    -0.203 F 
ATOM     66  C   UNL A   1      39.841  35.099  37.904  1.00  0.00     0.198 A 
ATOM     67  C   UNL A   1      38.226  33.462  38.592  1.00  0.00     0.198 A 
ATOM     68  F   UNL A   1      37.918  31.504  37.323  1.00  0.00    -0.203 F 
ATOM     69  F   UNL A   1      40.484  36.256  38.115  1.00  0.00    -0.200 F 
ATOM     70  C   UNL A   1      38.872  34.672  38.799  1.00  0.00     0.200 A 
ATOM     71  F   UNL A   1      37.282  33.053  39.451  1.00  0.00    -0.200 F 
ATOM     72  F   UNL A   1      38.564  35.424  39.864  1.00  0.00    -0.200 F 
ENDBRANCH  48  62
BRANCH  49  73
ATOM     73  C   UNL A   1      40.997  27.653  28.330  1.00  0.00     0.064 A 
ATOM     74  C   UNL A   1      40.387  26.394  28.231  1.00  0.00     0.173 A 
ATOM     75  C   UNL A   1      41.805  28.073  27.265  1.00  0.00     0.173 A 
ATOM     76  F   UNL A   1      39.626  25.939  29.236  1.00  0.00    -0.203 F 
ATOM     77  C   UNL A   1      40.590  25.582  27.118  1.00  0.00     0.198 A 
ATOM     78  C   UNL A   1      41.988  27.270  26.141  1.00  0.00     0.198 A 
ATOM     79  F   UNL A   1      42.411  29.269  27.313  1.00  0.00    -0.203 F 
ATOM     80  F   UNL A   1      40.028  24.367  27.066  1.00  0.00    -0.200 F 
ATOM     81  C   UNL A   1      41.385  26.023  26.071  1.00  0.00     0.200 A 
ATOM     82  F   UNL A   1      42.750  27.703  25.128  1.00  0.00    -0.200 F 
ATOM     83  F   UNL A   1      41.578  25.242  24.998  1.00  0.00    -0.200 F 
ENDBRANCH  49  73
BRANCH  61  84
ATOM     84  C   UNL A   1      44.184  28.010  34.518  1.00  0.00     0.064 A 
ATOM     85  C   UNL A   1      44.014  26.772  35.152  1.00  0.00     0.173 A 
ATOM     86  C   UNL A   1      45.489  28.508  34.383  1.00  0.00     0.173 A 
ATOM     87  F   UNL A   1      42.785  26.260  35.316  1.00  0.00    -0.203 F 
ATOM     88  C   UNL A   1      45.108  26.064  35.643  1.00  0.00     0.198 A 
ATOM     89  C   UNL A   1      46.583  27.786  34.851  1.00  0.00     0.198 A 
ATOM     90  F   UNL A   1      45.704  29.686  33.776  1.00  0.00    -0.203 F 
ATOM     91  F   UNL A   1      44.922  24.897  36.274  1.00  0.00    -0.200 F 
ATOM     92  C   UNL A   1      46.392  26.567  35.483  1.00  0.00     0.200 A 
ATOM     93  F   UNL A   1      47.822  28.266  34.681  1.00  0.00    -0.200 F 
ATOM     94  F   UNL A   1      47.444  25.876  35.940  1.00  0.00    -0.200 F 
ENDBRANCH  61  84
ENDBRANCH  35  36
ENDBRANCH  27  30
ENDBRANCH  25  26
ENDBRANCH  24  25
ENDBRANCH  23  24
ENDBRANCH   3  23
TORSDOF 15
ENDMDL
