MODEL 1
REMARK VINA RESULT:     -13.2      0.000      0.000
REMARK SMILES COc1ccc(-n2ccnc2C[N@@H+]2CCn3nc(C(=O)NCCCNC(=O)c4ccc(-c5c6nc(c(-c7c(F)c(F)c(F)c(F)c7F)c7ccc([nH]7)c(-c7c(F)c(F)c(F)c(F)c7F)c7nc(c(-c8c(F)c(F)c(F)c(F)c8F)c8ccc5[nH]8)C=C7)C=C6)cc4)cc3C2)cc1
REMARK SMILES IDX 22 1 21 2 19 3 20 4 18 6 13 7 14 8 93 9 15 11 92 12 16 13
REMARK SMILES IDX 91 14 17 15 12 16 11 17 7 18 8 19 9 20 10 21 6 22 3 23 4 24
REMARK SMILES IDX 95 25 5 26 94 27 2 28 1 29 23 30 24 31 25 32 26 33 27 35
REMARK SMILES IDX 28 36 29 37 90 38 30 39 89 40 31 41 32 42 33 43 83 44 34 45
REMARK SMILES IDX 88 46 82 47 84 48 35 49 87 50 81 51 80 52 36 54 68 55 48 56
REMARK SMILES IDX 67 57 49 58 52 59 66 60 85 61 50 62 51 63 65 65 86 66 53 67
REMARK SMILES IDX 37 68 38 69 46 70 39 71 40 72 44 73 47 74 41 75 42 76 45 77
REMARK SMILES IDX 43 78 69 79 70 80 78 81 71 82 72 83 76 84 79 85 73 86 74 87
REMARK SMILES IDX 77 88 75 89 54 90 55 91 63 92 56 93 57 94 61 95 64 96 58 97
REMARK SMILES IDX 59 98 62 99 60 100
REMARK H PARENT 21 5 13 10 25 34 84 53 52 64
REMARK Flexibility Score: inf
ROOT
ATOM      1  C   UNL A   1      34.003  28.059  26.499  1.00  0.00     0.118 C 
ENDROOT
BRANCH   1   2
ATOM      2  N   UNL A   1      32.974  27.048  26.675  1.00  0.00    -0.351 N 
ATOM      3  C   UNL A   1      32.037  26.417  25.888  1.00  0.00     0.271 C 
ATOM      4  O   UNL A   1      31.195  25.798  26.554  1.00  0.00    -0.267 OA
ATOM      5  H   UNL A   1      32.937  26.728  27.605  1.00  0.00     0.163 HD
BRANCH   3   6
ATOM      6  C   UNL A   1      31.955  26.363  24.387  1.00  0.00     0.150 A 
ATOM      7  N   UNL A   1      31.833  22.570  23.567  1.00  0.00    -0.322 N 
ATOM      8  C   UNL A   1      32.805  22.630  22.482  1.00  0.00     0.286 C 
ATOM      9  C   UNL A   1      30.653  23.424  23.216  1.00  0.00     0.319 C 
ATOM     10  H   UNL A   1      31.550  21.594  23.657  1.00  0.00     0.348 HD
ATOM     11  C   UNL A   1      33.128  24.051  21.977  1.00  0.00     0.206 C 
ATOM     12  C   UNL A   1      31.070  24.859  23.050  1.00  0.00     0.094 A 
ATOM     13  N   UNL A   1      32.377  25.082  22.697  1.00  0.00    -0.257 N 
ATOM     14  C   UNL A   1      30.718  26.016  23.732  1.00  0.00     0.065 A 
ATOM     15  N   UNL A   1      32.953  25.979  23.554  1.00  0.00    -0.167 NA
BRANCH   7  16
ATOM     16  C   UNL A   1      32.378  22.919  24.907  1.00  0.00     0.339 C 
BRANCH  16  17
ATOM     17  C   UNL A   1      33.758  22.476  25.405  1.00  0.00     0.168 A 
ATOM     18  N   UNL A   1      34.446  21.230  25.376  1.00  0.00    -0.299 N 
ATOM     19  C   UNL A   1      35.783  21.539  25.543  1.00  0.00     0.113 A 
ATOM     20  C   UNL A   1      35.852  22.877  25.801  1.00  0.00     0.132 A 
ATOM     21  N   UNL A   1      34.612  23.427  25.776  1.00  0.00    -0.236 NA
BRANCH  18  22
ATOM     22  C   UNL A   1      34.097  19.881  25.071  1.00  0.00     0.047 A 
ATOM     23  C   UNL A   1      33.528  17.152  24.555  1.00  0.00     0.119 A 
ATOM     24  C   UNL A   1      34.784  17.668  24.309  1.00  0.00     0.048 A 
ATOM     25  C   UNL A   1      32.606  17.945  25.226  1.00  0.00     0.048 A 
ATOM     26  C   UNL A   1      35.077  19.012  24.626  1.00  0.00     0.030 A 
ATOM     27  C   UNL A   1      32.891  19.306  25.496  1.00  0.00     0.030 A 
BRANCH  23  28
ATOM     28  O   UNL A   1      33.277  15.845  24.243  1.00  0.00    -0.497 OA
ATOM     29  C   UNL A   1      32.788  15.117  25.374  1.00  0.00     0.278 C 
ENDBRANCH  23  28
ENDBRANCH  18  22
ENDBRANCH  16  17
ENDBRANCH   7  16
ENDBRANCH   3   6
ENDBRANCH   1   2
BRANCH   1  30
ATOM     30  C   UNL A   1      33.695  29.379  27.186  1.00  0.00     0.042 C 
BRANCH  30  31
ATOM     31  C   UNL A   1      34.918  30.280  27.251  1.00  0.00     0.118 C 
BRANCH  31  32
ATOM     32  N   UNL A   1      34.656  31.552  27.934  1.00  0.00    -0.352 N 
ATOM     33  C   UNL A   1      35.090  31.930  29.197  1.00  0.00     0.251 C 
ATOM     34  H   UNL A   1      34.113  32.210  27.442  1.00  0.00     0.163 HD
ATOM     35  O   UNL A   1      34.501  32.755  29.858  1.00  0.00    -0.269 OA
BRANCH  33  36
ATOM     36  C   UNL A   1      36.309  31.280  29.709  1.00  0.00     0.039 A 
ATOM     37  C   UNL A   1      36.279  29.971  30.187  1.00  0.00     0.014 A 
ATOM     38  C   UNL A   1      37.508  31.980  29.583  1.00  0.00     0.014 A 
ATOM     39  C   UNL A   1      37.490  29.331  30.428  1.00  0.00     0.010 A 
ATOM     40  C   UNL A   1      38.698  31.298  29.675  1.00  0.00     0.010 A 
ATOM     41  C   UNL A   1      38.703  29.980  30.119  1.00  0.00    -0.014 A 
BRANCH  41  42
ATOM     42  C   UNL A   1      39.952  29.218  30.102  1.00  0.00     0.031 A 
ATOM     43  C   UNL A   1      40.537  28.990  31.450  1.00  0.00     0.074 A 
ATOM     44  C   UNL A   1      40.494  28.631  29.011  1.00  0.00     0.049 A 
ATOM     45  N   UNL A   1      41.599  29.548  31.923  1.00  0.00    -0.248 NA
ATOM     46  C   UNL A   1      39.794  28.191  32.440  1.00  0.00     0.031 C 
ATOM     47  C   UNL A   1      39.937  28.507  27.662  1.00  0.00     0.029 A 
ATOM     48  N   UNL A   1      41.662  27.933  28.911  1.00  0.00    -0.354 N 
ATOM     49  C   UNL A   1      41.785  29.017  33.193  1.00  0.00     0.074 A 
ATOM     50  C   UNL A   1      40.562  28.333  33.524  1.00  0.00     0.031 C 
ATOM     51  C   UNL A   1      40.640  27.590  26.961  1.00  0.00     0.029 A 
ATOM     52  C   UNL A   1      41.796  27.192  27.742  1.00  0.00     0.049 A 
ATOM     53  H   UNL A   1      42.355  27.955  29.610  1.00  0.00     0.167 HD
ATOM     54  C   UNL A   1      43.035  28.969  33.732  1.00  0.00     0.037 A 
ATOM     55  C   UNL A   1      42.781  26.310  27.436  1.00  0.00     0.037 A 
ATOM     56  C   UNL A   1      43.928  29.880  33.049  1.00  0.00     0.049 A 
ATOM     57  C   UNL A   1      43.950  26.639  28.288  1.00  0.00     0.074 A 
ATOM     58  C   UNL A   1      43.895  31.235  32.768  1.00  0.00     0.029 A 
ATOM     59  N   UNL A   1      44.852  29.354  32.179  1.00  0.00    -0.354 N 
ATOM     60  N   UNL A   1      44.664  27.720  28.144  1.00  0.00    -0.248 NA
ATOM     61  C   UNL A   1      44.029  26.007  29.595  1.00  0.00     0.031 C 
ATOM     62  C   UNL A   1      44.382  31.345  31.430  1.00  0.00     0.029 A 
ATOM     63  C   UNL A   1      44.772  30.072  31.015  1.00  0.00     0.049 A 
ATOM     64  H   UNL A   1      45.460  28.601  32.360  1.00  0.00     0.167 HD
ATOM     65  C   UNL A   1      44.875  28.164  29.438  1.00  0.00     0.074 A 
ATOM     66  C   UNL A   1      44.545  27.023  30.292  1.00  0.00     0.031 C 
ATOM     67  C   UNL A   1      45.010  29.495  29.714  1.00  0.00     0.037 A 
BRANCH  54  68
ATOM     68  C   UNL A   1      43.550  27.814  34.558  1.00  0.00     0.064 A 
ATOM     69  C   UNL A   1      43.419  26.505  34.049  1.00  0.00     0.173 A 
ATOM     70  C   UNL A   1      43.844  27.904  35.936  1.00  0.00     0.173 A 
ATOM     71  F   UNL A   1      43.128  26.302  32.755  1.00  0.00    -0.203 F 
ATOM     72  C   UNL A   1      43.470  25.383  34.880  1.00  0.00     0.198 A 
ATOM     73  C   UNL A   1      43.946  26.778  36.751  1.00  0.00     0.198 A 
ATOM     74  F   UNL A   1      43.924  29.073  36.579  1.00  0.00    -0.203 F 
ATOM     75  F   UNL A   1      43.190  24.173  34.378  1.00  0.00    -0.200 F 
ATOM     76  C   UNL A   1      43.721  25.522  36.231  1.00  0.00     0.200 A 
ATOM     77  F   UNL A   1      44.171  26.935  38.063  1.00  0.00    -0.200 F 
ATOM     78  F   UNL A   1      43.696  24.456  37.043  1.00  0.00    -0.200 F 
ENDBRANCH  54  68
BRANCH  55  79
ATOM     79  C   UNL A   1      42.704  25.053  26.650  1.00  0.00     0.064 A 
ATOM     80  C   UNL A   1      43.524  24.848  25.526  1.00  0.00     0.173 A 
ATOM     81  C   UNL A   1      42.045  23.915  27.154  1.00  0.00     0.173 A 
ATOM     82  F   UNL A   1      44.222  25.867  25.004  1.00  0.00    -0.203 F 
ATOM     83  C   UNL A   1      43.705  23.577  24.968  1.00  0.00     0.198 A 
ATOM     84  C   UNL A   1      42.220  22.648  26.591  1.00  0.00     0.198 A 
ATOM     85  F   UNL A   1      41.294  23.988  28.262  1.00  0.00    -0.203 F 
ATOM     86  F   UNL A   1      44.552  23.412  23.943  1.00  0.00    -0.200 F 
ATOM     87  C   UNL A   1      43.062  22.477  25.509  1.00  0.00     0.200 A 
ATOM     88  F   UNL A   1      41.620  21.586  27.147  1.00  0.00    -0.200 F 
ATOM     89  F   UNL A   1      43.289  21.250  25.019  1.00  0.00    -0.200 F 
ENDBRANCH  55  79
BRANCH  67  90
ATOM     90  C   UNL A   1      45.214  30.442  28.562  1.00  0.00     0.064 A 
ATOM     91  C   UNL A   1      44.182  30.985  27.775  1.00  0.00     0.173 A 
ATOM     92  C   UNL A   1      46.516  30.900  28.313  1.00  0.00     0.173 A 
ATOM     93  F   UNL A   1      42.898  30.691  28.015  1.00  0.00    -0.203 F 
ATOM     94  C   UNL A   1      44.454  31.888  26.747  1.00  0.00     0.198 A 
ATOM     95  C   UNL A   1      46.779  31.835  27.316  1.00  0.00     0.198 A 
ATOM     96  F   UNL A   1      47.538  30.463  29.066  1.00  0.00    -0.203 F 
ATOM     97  F   UNL A   1      43.455  32.367  25.991  1.00  0.00    -0.200 F 
ATOM     98  C   UNL A   1      45.752  32.316  26.523  1.00  0.00     0.200 A 
ATOM     99  F   UNL A   1      48.030  32.282  27.137  1.00  0.00    -0.200 F 
ATOM    100  F   UNL A   1      46.010  33.206  25.555  1.00  0.00    -0.200 F 
ENDBRANCH  67  90
ENDBRANCH  41  42
ENDBRANCH  33  36
ENDBRANCH  31  32
ENDBRANCH  30  31
ENDBRANCH   1  30
TORSDOF 14
ENDMDL
MODEL 2
REMARK VINA RESULT:     -13.2      1.676      2.598
REMARK SMILES COc1ccc(-n2ccnc2C[N@@H+]2CCn3nc(C(=O)NCCCNC(=O)c4ccc(-c5c6nc(c(-c7c(F)c(F)c(F)c(F)c7F)c7ccc([nH]7)c(-c7c(F)c(F)c(F)c(F)c7F)c7nc(c(-c8c(F)c(F)c(F)c(F)c8F)c8ccc5[nH]8)C=C7)C=C6)cc4)cc3C2)cc1
REMARK SMILES IDX 22 1 21 2 19 3 20 4 18 6 13 7 14 8 93 9 15 11 92 12 16 13
REMARK SMILES IDX 91 14 17 15 12 16 11 17 7 18 8 19 9 20 10 21 6 22 3 23 4 24
REMARK SMILES IDX 95 25 5 26 94 27 2 28 1 29 23 30 24 31 25 32 26 33 27 35
REMARK SMILES IDX 28 36 29 37 90 38 30 39 89 40 31 41 32 42 33 43 83 44 34 45
REMARK SMILES IDX 88 46 82 47 84 48 35 49 87 50 81 51 80 52 36 54 68 55 48 56
REMARK SMILES IDX 67 57 49 58 52 59 66 60 85 61 50 62 51 63 65 65 86 66 53 67
REMARK SMILES IDX 37 68 38 69 46 70 39 71 40 72 44 73 47 74 41 75 42 76 45 77
REMARK SMILES IDX 43 78 69 79 70 80 78 81 71 82 72 83 76 84 79 85 73 86 74 87
REMARK SMILES IDX 77 88 75 89 54 90 55 91 63 92 56 93 57 94 61 95 64 96 58 97
REMARK SMILES IDX 59 98 62 99 60 100
REMARK H PARENT 21 5 13 10 25 34 84 53 52 64
REMARK Flexibility Score: inf
ROOT
ATOM      1  C   UNL A   1      33.963  30.090  27.469  1.00  0.00     0.118 C 
ENDROOT
BRANCH   1   2
ATOM      2  N   UNL A   1      32.966  29.057  27.242  1.00  0.00    -0.351 N 
ATOM      3  C   UNL A   1      32.128  28.673  26.219  1.00  0.00     0.271 C 
ATOM      4  O   UNL A   1      31.258  27.873  26.591  1.00  0.00    -0.267 OA
ATOM      5  H   UNL A   1      32.861  28.476  28.030  1.00  0.00     0.163 HD
BRANCH   3   6
ATOM      6  C   UNL A   1      32.180  29.063  24.767  1.00  0.00     0.150 A 
ATOM      7  N   UNL A   1      32.221  25.679  22.863  1.00  0.00    -0.322 N 
ATOM      8  C   UNL A   1      33.283  26.053  21.937  1.00  0.00     0.286 C 
ATOM      9  C   UNL A   1      31.056  26.603  22.672  1.00  0.00     0.319 C 
ATOM     10  H   UNL A   1      31.954  24.722  22.637  1.00  0.00     0.348 HD
ATOM     11  C   UNL A   1      33.615  27.559  21.902  1.00  0.00     0.206 C 
ATOM     12  C   UNL A   1      31.452  28.022  22.972  1.00  0.00     0.094 A 
ATOM     13  N   UNL A   1      32.780  28.335  22.821  1.00  0.00    -0.257 N 
ATOM     14  C   UNL A   1      31.014  28.929  23.929  1.00  0.00     0.065 A 
ATOM     15  N   UNL A   1      33.257  28.938  23.953  1.00  0.00    -0.167 NA
BRANCH   7  16
ATOM     16  C   UNL A   1      32.637  25.617  24.290  1.00  0.00     0.339 C 
BRANCH  16  17
ATOM     17  C   UNL A   1      32.246  24.480  25.241  1.00  0.00     0.168 A 
ATOM     18  N   UNL A   1      32.994  23.456  25.888  1.00  0.00    -0.299 N 
ATOM     19  C   UNL A   1      32.209  23.034  26.945  1.00  0.00     0.113 A 
ATOM     20  C   UNL A   1      31.010  23.675  26.831  1.00  0.00     0.132 A 
ATOM     21  N   UNL A   1      31.019  24.505  25.757  1.00  0.00    -0.236 NA
BRANCH  18  22
ATOM     22  C   UNL A   1      34.322  22.946  25.786  1.00  0.00     0.047 A 
ATOM     23  C   UNL A   1      36.930  21.895  25.428  1.00  0.00     0.119 A 
ATOM     24  C   UNL A   1      35.818  21.139  25.119  1.00  0.00     0.048 A 
ATOM     25  C   UNL A   1      36.753  23.236  25.744  1.00  0.00     0.048 A 
ATOM     26  C   UNL A   1      34.524  21.691  25.241  1.00  0.00     0.030 A 
ATOM     27  C   UNL A   1      35.450  23.768  25.913  1.00  0.00     0.030 A 
BRANCH  23  28
ATOM     28  O   UNL A   1      38.169  21.334  25.292  1.00  0.00    -0.497 OA
ATOM     29  C   UNL A   1      39.144  22.004  26.099  1.00  0.00     0.278 C 
ENDBRANCH  23  28
ENDBRANCH  18  22
ENDBRANCH  16  17
ENDBRANCH   7  16
ENDBRANCH   3   6
ENDBRANCH   1   2
BRANCH   1  30
ATOM     30  C   UNL A   1      33.382  31.484  27.631  1.00  0.00     0.042 C 
BRANCH  30  31
ATOM     31  C   UNL A   1      34.449  32.501  28.002  1.00  0.00     0.118 C 
BRANCH  31  32
ATOM     32  N   UNL A   1      34.486  32.793  29.440  1.00  0.00    -0.352 N 
ATOM     33  C   UNL A   1      35.201  32.112  30.416  1.00  0.00     0.251 C 
ATOM     34  H   UNL A   1      33.943  33.555  29.746  1.00  0.00     0.163 HD
ATOM     35  O   UNL A   1      34.859  32.108  31.577  1.00  0.00    -0.269 OA
BRANCH  33  36
ATOM     36  C   UNL A   1      36.406  31.386  29.978  1.00  0.00     0.039 A 
ATOM     37  C   UNL A   1      37.595  32.063  29.710  1.00  0.00     0.014 A 
ATOM     38  C   UNL A   1      36.343  29.994  29.963  1.00  0.00     0.014 A 
ATOM     39  C   UNL A   1      38.754  31.313  29.539  1.00  0.00     0.010 A 
ATOM     40  C   UNL A   1      37.510  29.268  29.945  1.00  0.00     0.010 A 
ATOM     41  C   UNL A   1      38.719  29.913  29.712  1.00  0.00    -0.014 A 
BRANCH  41  42
ATOM     42  C   UNL A   1      39.969  29.162  29.813  1.00  0.00     0.031 A 
ATOM     43  C   UNL A   1      40.443  28.966  31.210  1.00  0.00     0.074 A 
ATOM     44  C   UNL A   1      40.603  28.556  28.784  1.00  0.00     0.049 A 
ATOM     45  N   UNL A   1      41.460  29.544  31.756  1.00  0.00    -0.248 NA
ATOM     46  C   UNL A   1      39.627  28.183  32.152  1.00  0.00     0.031 C 
ATOM     47  C   UNL A   1      40.159  28.399  27.397  1.00  0.00     0.029 A 
ATOM     48  N   UNL A   1      41.781  27.867  28.795  1.00  0.00    -0.354 N 
ATOM     49  C   UNL A   1      41.545  29.041  33.048  1.00  0.00     0.074 A 
ATOM     50  C   UNL A   1      40.303  28.353  33.293  1.00  0.00     0.031 C 
ATOM     51  C   UNL A   1      40.924  27.473  26.775  1.00  0.00     0.029 A 
ATOM     52  C   UNL A   1      42.015  27.102  27.657  1.00  0.00     0.049 A 
ATOM     53  H   UNL A   1      42.414  27.908  29.547  1.00  0.00     0.167 HD
ATOM     54  C   UNL A   1      42.747  29.015  33.688  1.00  0.00     0.037 A 
ATOM     55  C   UNL A   1      43.027  26.222  27.451  1.00  0.00     0.037 A 
ATOM     56  C   UNL A   1      43.686  29.919  33.061  1.00  0.00     0.049 A 
ATOM     57  C   UNL A   1      44.121  26.579  28.389  1.00  0.00     0.074 A 
ATOM     58  C   UNL A   1      43.667  31.268  32.749  1.00  0.00     0.029 A 
ATOM     59  N   UNL A   1      44.682  29.382  32.281  1.00  0.00    -0.354 N 
ATOM     60  N   UNL A   1      44.836  27.663  28.280  1.00  0.00    -0.248 NA
ATOM     61  C   UNL A   1      44.096  25.975  29.712  1.00  0.00     0.031 C 
ATOM     62  C   UNL A   1      44.262  31.353  31.453  1.00  0.00     0.029 A 
ATOM     63  C   UNL A   1      44.692  30.076  31.099  1.00  0.00     0.049 A 
ATOM     64  H   UNL A   1      45.278  28.639  32.527  1.00  0.00     0.167 HD
ATOM     65  C   UNL A   1      44.938  28.136  29.578  1.00  0.00     0.074 A 
ATOM     66  C   UNL A   1      44.547  27.010  30.426  1.00  0.00     0.031 C 
ATOM     67  C   UNL A   1      45.040  29.473  29.835  1.00  0.00     0.037 A 
BRANCH  54  68
ATOM     68  C   UNL A   1      43.200  27.881  34.578  1.00  0.00     0.064 A 
ATOM     69  C   UNL A   1      43.671  28.182  35.872  1.00  0.00     0.173 A 
ATOM     70  C   UNL A   1      43.506  26.586  34.105  1.00  0.00     0.173 A 
ATOM     71  F   UNL A   1      43.450  29.389  36.416  1.00  0.00    -0.203 F 
ATOM     72  C   UNL A   1      44.479  27.294  36.587  1.00  0.00     0.198 A 
ATOM     73  C   UNL A   1      44.267  25.684  34.845  1.00  0.00     0.198 A 
ATOM     74  F   UNL A   1      43.192  26.179  32.871  1.00  0.00    -0.203 F 
ATOM     75  F   UNL A   1      45.028  27.683  37.746  1.00  0.00    -0.200 F 
ATOM     76  C   UNL A   1      44.786  26.051  36.068  1.00  0.00     0.200 A 
ATOM     77  F   UNL A   1      44.569  24.490  34.315  1.00  0.00    -0.200 F 
ATOM     78  F   UNL A   1      45.620  25.228  36.716  1.00  0.00    -0.200 F 
ENDBRANCH  54  68
BRANCH  55  79
ATOM     79  C   UNL A   1      43.024  24.948  26.690  1.00  0.00     0.064 A 
ATOM     80  C   UNL A   1      43.766  24.809  25.503  1.00  0.00     0.173 A 
ATOM     81  C   UNL A   1      42.535  23.756  27.259  1.00  0.00     0.173 A 
ATOM     82  F   UNL A   1      44.304  25.887  24.912  1.00  0.00    -0.203 F 
ATOM     83  C   UNL A   1      44.038  23.554  24.946  1.00  0.00     0.198 A 
ATOM     84  C   UNL A   1      42.801  22.505  26.699  1.00  0.00     0.198 A 
ATOM     85  F   UNL A   1      41.875  23.771  28.425  1.00  0.00    -0.203 F 
ATOM     86  F   UNL A   1      44.811  23.460  23.856  1.00  0.00    -0.200 F 
ATOM     87  C   UNL A   1      43.565  22.403  25.552  1.00  0.00     0.200 A 
ATOM     88  F   UNL A   1      42.368  21.396  27.315  1.00  0.00    -0.200 F 
ATOM     89  F   UNL A   1      43.883  21.198  25.059  1.00  0.00    -0.200 F 
ENDBRANCH  55  79
BRANCH  67  90
ATOM     90  C   UNL A   1      45.332  30.397  28.683  1.00  0.00     0.064 A 
ATOM     91  C   UNL A   1      44.357  30.977  27.851  1.00  0.00     0.173 A 
ATOM     92  C   UNL A   1      46.662  30.795  28.482  1.00  0.00     0.173 A 
ATOM     93  F   UNL A   1      43.053  30.742  28.042  1.00  0.00    -0.203 F 
ATOM     94  C   UNL A   1      44.709  31.856  26.826  1.00  0.00     0.198 A 
ATOM     95  C   UNL A   1      47.005  31.706  27.488  1.00  0.00     0.198 A 
ATOM     96  F   UNL A   1      47.633  30.322  29.279  1.00  0.00    -0.203 F 
ATOM     97  F   UNL A   1      43.763  32.370  26.026  1.00  0.00    -0.200 F 
ATOM     98  C   UNL A   1      46.033  32.223  26.650  1.00  0.00     0.200 A 
ATOM     99  F   UNL A   1      48.281  32.096  27.355  1.00  0.00    -0.200 F 
ATOM    100  F   UNL A   1      46.368  33.091  25.685  1.00  0.00    -0.200 F 
ENDBRANCH  67  90
ENDBRANCH  41  42
ENDBRANCH  33  36
ENDBRANCH  31  32
ENDBRANCH  30  31
ENDBRANCH   1  30
TORSDOF 14
ENDMDL
MODEL 3
REMARK VINA RESULT:     -13.1      3.209      9.059
REMARK SMILES COc1ccc(-n2ccnc2C[N@@H+]2CCn3nc(C(=O)NCCCNC(=O)c4ccc(-c5c6nc(c(-c7c(F)c(F)c(F)c(F)c7F)c7ccc([nH]7)c(-c7c(F)c(F)c(F)c(F)c7F)c7nc(c(-c8c(F)c(F)c(F)c(F)c8F)c8ccc5[nH]8)C=C7)C=C6)cc4)cc3C2)cc1
REMARK SMILES IDX 22 1 21 2 19 3 20 4 18 6 13 7 14 8 93 9 15 11 92 12 16 13
REMARK SMILES IDX 91 14 17 15 12 16 11 17 7 18 8 19 9 20 10 21 6 22 3 23 4 24
REMARK SMILES IDX 95 25 5 26 94 27 2 28 1 29 23 30 24 31 25 32 26 33 27 35
REMARK SMILES IDX 28 36 29 37 90 38 30 39 89 40 31 41 32 42 33 43 83 44 34 45
REMARK SMILES IDX 88 46 82 47 84 48 35 49 87 50 81 51 80 52 36 54 68 55 48 56
REMARK SMILES IDX 67 57 49 58 52 59 66 60 85 61 50 62 51 63 65 65 86 66 53 67
REMARK SMILES IDX 37 68 38 69 46 70 39 71 40 72 44 73 47 74 41 75 42 76 45 77
REMARK SMILES IDX 43 78 69 79 70 80 78 81 71 82 72 83 76 84 79 85 73 86 74 87
REMARK SMILES IDX 77 88 75 89 54 90 55 91 63 92 56 93 57 94 61 95 64 96 58 97
REMARK SMILES IDX 59 98 62 99 60 100
REMARK H PARENT 21 5 13 10 25 34 84 53 52 64
REMARK Flexibility Score: inf
ROOT
ATOM      1  C   UNL A   1      38.442  22.992  25.774  1.00  0.00     0.118 C 
ENDROOT
BRANCH   1   2
ATOM      2  N   UNL A   1      37.374  23.002  24.788  1.00  0.00    -0.351 N 
ATOM      3  C   UNL A   1      36.182  22.342  24.589  1.00  0.00     0.271 C 
ATOM      4  O   UNL A   1      35.730  22.512  23.447  1.00  0.00    -0.267 OA
ATOM      5  H   UNL A   1      37.548  23.655  24.073  1.00  0.00     0.163 HD
BRANCH   3   6
ATOM      6  C   UNL A   1      35.389  21.520  25.567  1.00  0.00     0.150 A 
ATOM      7  N   UNL A   1      31.876  23.175  25.590  1.00  0.00    -0.322 N 
ATOM      8  C   UNL A   1      31.727  23.164  27.040  1.00  0.00     0.286 C 
ATOM      9  C   UNL A   1      32.009  21.764  25.100  1.00  0.00     0.319 C 
ATOM     10  H   UNL A   1      31.034  23.604  25.208  1.00  0.00     0.348 HD
ATOM     11  C   UNL A   1      32.744  22.282  27.792  1.00  0.00     0.206 C 
ATOM     12  C   UNL A   1      33.231  21.114  25.685  1.00  0.00     0.094 A 
ATOM     13  N   UNL A   1      33.677  21.610  26.885  1.00  0.00    -0.257 N 
ATOM     14  C   UNL A   1      34.381  20.598  25.103  1.00  0.00     0.065 A 
ATOM     15  N   UNL A   1      35.009  21.914  26.807  1.00  0.00    -0.167 NA
BRANCH   7  16
ATOM     16  C   UNL A   1      32.985  24.031  25.087  1.00  0.00     0.339 C 
BRANCH  16  17
ATOM     17  C   UNL A   1      32.850  24.982  23.894  1.00  0.00     0.168 A 
ATOM     18  N   UNL A   1      32.858  26.401  23.778  1.00  0.00    -0.299 N 
ATOM     19  C   UNL A   1      33.156  26.665  22.454  1.00  0.00     0.113 A 
ATOM     20  C   UNL A   1      33.176  25.466  21.805  1.00  0.00     0.132 A 
ATOM     21  N   UNL A   1      32.928  24.454  22.675  1.00  0.00    -0.236 NA
BRANCH  18  22
ATOM     22  C   UNL A   1      32.797  27.497  24.689  1.00  0.00     0.047 A 
ATOM     23  C   UNL A   1      32.827  29.712  26.458  1.00  0.00     0.119 A 
ATOM     24  C   UNL A   1      33.808  28.744  26.526  1.00  0.00     0.048 A 
ATOM     25  C   UNL A   1      31.933  29.677  25.396  1.00  0.00     0.048 A 
ATOM     26  C   UNL A   1      33.821  27.677  25.601  1.00  0.00     0.030 A 
ATOM     27  C   UNL A   1      31.923  28.576  24.502  1.00  0.00     0.030 A 
BRANCH  23  28
ATOM     28  O   UNL A   1      32.846  30.736  27.363  1.00  0.00    -0.497 OA
ATOM     29  C   UNL A   1      34.181  31.165  27.648  1.00  0.00     0.278 C 
ENDBRANCH  23  28
ENDBRANCH  18  22
ENDBRANCH  16  17
ENDBRANCH   7  16
ENDBRANCH   3   6
ENDBRANCH   1   2
BRANCH   1  30
ATOM     30  C   UNL A   1      39.176  21.666  25.875  1.00  0.00     0.042 C 
BRANCH  30  31
ATOM     31  C   UNL A   1      40.344  21.741  26.845  1.00  0.00     0.118 C 
BRANCH  31  32
ATOM     32  N   UNL A   1      41.620  22.039  26.184  1.00  0.00    -0.352 N 
ATOM     33  C   UNL A   1      42.145  23.293  25.903  1.00  0.00     0.251 C 
ATOM     34  H   UNL A   1      42.163  21.264  25.910  1.00  0.00     0.163 HD
ATOM     35  O   UNL A   1      42.935  23.470  25.003  1.00  0.00    -0.269 OA
BRANCH  33  36
ATOM     36  C   UNL A   1      41.699  24.412  26.751  1.00  0.00     0.039 A 
ATOM     37  C   UNL A   1      42.236  24.609  28.022  1.00  0.00     0.014 A 
ATOM     38  C   UNL A   1      40.814  25.328  26.185  1.00  0.00     0.014 A 
ATOM     39  C   UNL A   1      41.960  25.807  28.673  1.00  0.00     0.010 A 
ATOM     40  C   UNL A   1      40.669  26.567  26.763  1.00  0.00     0.010 A 
ATOM     41  C   UNL A   1      41.217  26.810  28.017  1.00  0.00    -0.014 A 
BRANCH  41  42
ATOM     42  C   UNL A   1      41.167  28.160  28.577  1.00  0.00     0.031 A 
ATOM     43  C   UNL A   1      42.241  29.060  28.077  1.00  0.00     0.074 A 
ATOM     44  C   UNL A   1      40.180  28.643  29.365  1.00  0.00     0.049 A 
ATOM     45  N   UNL A   1      43.257  29.479  28.753  1.00  0.00    -0.248 NA
ATOM     46  C   UNL A   1      42.294  29.407  26.647  1.00  0.00     0.031 C 
ATOM     47  C   UNL A   1      38.913  28.012  29.740  1.00  0.00     0.029 A 
ATOM     48  N   UNL A   1      40.078  29.873  29.946  1.00  0.00    -0.354 N 
ATOM     49  C   UNL A   1      43.971  30.314  27.903  1.00  0.00     0.074 A 
ATOM     50  C   UNL A   1      43.439  30.093  26.583  1.00  0.00     0.031 C 
ATOM     51  C   UNL A   1      38.083  28.937  30.272  1.00  0.00     0.029 A 
ATOM     52  C   UNL A   1      38.814  30.179  30.438  1.00  0.00     0.049 A 
ATOM     53  H   UNL A   1      40.839  30.494  30.013  1.00  0.00     0.167 HD
ATOM     54  C   UNL A   1      44.750  31.305  28.422  1.00  0.00     0.037 A 
ATOM     55  C   UNL A   1      38.392  31.367  30.941  1.00  0.00     0.037 A 
ATOM     56  C   UNL A   1      45.041  31.056  29.816  1.00  0.00     0.049 A 
ATOM     57  C   UNL A   1      39.597  32.119  31.370  1.00  0.00     0.074 A 
ATOM     58  C   UNL A   1      45.594  29.996  30.514  1.00  0.00     0.029 A 
ATOM     59  N   UNL A   1      44.378  31.803  30.761  1.00  0.00    -0.354 N 
ATOM     60  N   UNL A   1      40.335  31.776  32.387  1.00  0.00    -0.248 NA
ATOM     61  C   UNL A   1      40.248  32.966  30.382  1.00  0.00     0.031 C 
ATOM     62  C   UNL A   1      44.802  29.882  31.697  1.00  0.00     0.029 A 
ATOM     63  C   UNL A   1      43.884  30.931  31.697  1.00  0.00     0.049 A 
ATOM     64  H   UNL A   1      44.277  32.782  30.765  1.00  0.00     0.167 HD
ATOM     65  C   UNL A   1      41.635  31.939  31.937  1.00  0.00     0.074 A 
ATOM     66  C   UNL A   1      41.520  32.762  30.733  1.00  0.00     0.031 C 
ATOM     67  C   UNL A   1      42.647  31.153  32.406  1.00  0.00     0.037 A 
BRANCH  54  68
ATOM     68  C   UNL A   1      44.876  32.680  27.810  1.00  0.00     0.064 A 
ATOM     69  C   UNL A   1      46.140  33.104  27.350  1.00  0.00     0.173 A 
ATOM     70  C   UNL A   1      43.912  33.701  27.967  1.00  0.00     0.173 A 
ATOM     71  F   UNL A   1      47.135  32.222  27.179  1.00  0.00    -0.203 F 
ATOM     72  C   UNL A   1      46.442  34.457  27.169  1.00  0.00     0.198 A 
ATOM     73  C   UNL A   1      44.204  35.043  27.733  1.00  0.00     0.198 A 
ATOM     74  F   UNL A   1      42.693  33.467  28.464  1.00  0.00    -0.203 F 
ATOM     75  F   UNL A   1      47.698  34.822  26.879  1.00  0.00    -0.200 F 
ATOM     76  C   UNL A   1      45.478  35.425  27.373  1.00  0.00     0.200 A 
ATOM     77  F   UNL A   1      43.259  35.968  27.954  1.00  0.00    -0.200 F 
ATOM     78  F   UNL A   1      45.784  36.725  27.273  1.00  0.00    -0.200 F 
ENDBRANCH  54  68
BRANCH  55  79
ATOM     79  C   UNL A   1      37.055  32.004  30.848  1.00  0.00     0.064 A 
ATOM     80  C   UNL A   1      36.160  31.976  31.933  1.00  0.00     0.173 A 
ATOM     81  C   UNL A   1      36.743  32.902  29.809  1.00  0.00     0.173 A 
ATOM     82  F   UNL A   1      36.399  31.180  32.986  1.00  0.00    -0.203 F 
ATOM     83  C   UNL A   1      35.047  32.823  31.992  1.00  0.00     0.198 A 
ATOM     84  C   UNL A   1      35.629  33.742  29.866  1.00  0.00     0.198 A 
ATOM     85  F   UNL A   1      37.566  33.056  28.762  1.00  0.00    -0.203 F 
ATOM     86  F   UNL A   1      34.261  32.818  33.077  1.00  0.00    -0.200 F 
ATOM     87  C   UNL A   1      34.790  33.714  30.964  1.00  0.00     0.200 A 
ATOM     88  F   UNL A   1      35.411  34.625  28.880  1.00  0.00    -0.200 F 
ATOM     89  F   UNL A   1      33.766  34.574  31.052  1.00  0.00    -0.200 F 
ENDBRANCH  55  79
BRANCH  67  90
ATOM     90  C   UNL A   1      42.385  30.308  33.623  1.00  0.00     0.064 A 
ATOM     91  C   UNL A   1      42.494  30.757  34.952  1.00  0.00     0.173 A 
ATOM     92  C   UNL A   1      41.899  29.007  33.427  1.00  0.00     0.173 A 
ATOM     93  F   UNL A   1      42.843  32.018  35.233  1.00  0.00    -0.203 F 
ATOM     94  C   UNL A   1      42.196  29.918  36.027  1.00  0.00     0.198 A 
ATOM     95  C   UNL A   1      41.560  28.188  34.499  1.00  0.00     0.198 A 
ATOM     96  F   UNL A   1      41.719  28.538  32.182  1.00  0.00    -0.203 F 
ATOM     97  F   UNL A   1      42.339  30.361  37.285  1.00  0.00    -0.200 F 
ATOM     98  C   UNL A   1      41.725  28.636  35.798  1.00  0.00     0.200 A 
ATOM     99  F   UNL A   1      41.058  26.966  34.270  1.00  0.00    -0.200 F 
ATOM    100  F   UNL A   1      41.410  27.840  36.829  1.00  0.00    -0.200 F 
ENDBRANCH  67  90
ENDBRANCH  41  42
ENDBRANCH  33  36
ENDBRANCH  31  32
ENDBRANCH  30  31
ENDBRANCH   1  30
TORSDOF 14
ENDMDL
