MODEL 1
REMARK VINA RESULT:     -12.1      0.000      0.000
REMARK SMILES CC[C@H](C(=O)NCCCNC(=O)c1ccc(-c2c3nc(c(-c4c(F)c(F)c(F)c(F)c4F)c4ccc([nH]4)c(-c4c(F)c(F)c(F)c(F)c4F)c4nc(c(-c5c(F)c(F)c(F)c(F)c5F)c5ccc2[nH]5)C=C4)C=C3)cc1)N1C(=O)/C(=C\c2cccs2)SC1=S
REMARK SMILES IDX 8 1 7 2 6 3 4 4 5 5 3 7 2 8 1 9 76 10 77 11 87 12 78 13
REMARK SMILES IDX 79 14 86 15 88 16 80 17 81 18 82 19 85 20 83 21 84 22 9 23
REMARK SMILES IDX 10 24 11 25 12 27 13 28 14 29 75 30 15 31 74 32 16 33 17 34
REMARK SMILES IDX 18 35 68 36 19 37 73 38 67 39 69 40 20 41 72 42 66 43 65 44
REMARK SMILES IDX 21 46 53 47 33 48 52 49 34 50 37 51 51 52 70 53 35 54 36 55
REMARK SMILES IDX 50 57 71 58 38 59 22 60 23 61 31 62 24 63 25 64 29 65 32 66
REMARK SMILES IDX 26 67 27 68 30 69 28 70 54 71 55 72 63 73 56 74 57 75 61 76
REMARK SMILES IDX 64 77 58 78 59 79 62 80 60 81 39 82 40 83 48 84 41 85 42 86
REMARK SMILES IDX 46 87 49 88 43 89 44 90 47 91 45 92
REMARK H PARENT 6 6 10 26 69 45 37 56
REMARK Flexibility Score: inf
ROOT
ATOM      1  C   UNL A   1      31.407  32.142  26.758  1.00  0.00     0.042 C 
ENDROOT
BRANCH   1   2
ATOM      2  C   UNL A   1      31.684  30.822  26.056  1.00  0.00     0.117 C 
BRANCH   2   3
ATOM      3  N   UNL A   1      31.403  29.692  26.926  1.00  0.00    -0.354 N 
ATOM      4  C   UNL A   1      31.799  28.389  26.848  1.00  0.00     0.243 C 
ATOM      5  O   UNL A   1      31.252  27.585  27.608  1.00  0.00    -0.273 OA
ATOM      6  H   UNL A   1      30.831  29.902  27.700  1.00  0.00     0.163 HD
BRANCH   4   7
ATOM      7  C   UNL A   1      32.769  27.908  25.748  1.00  0.00     0.181 C 
BRANCH   7   8
ATOM      8  C   UNL A   1      34.121  27.677  26.501  1.00  0.00     0.032 C 
ATOM      9  C   UNL A   1      34.790  28.980  26.924  1.00  0.00     0.006 C 
ENDBRANCH   7   8
BRANCH   7  10
ATOM     10  N   UNL A   1      32.254  26.714  25.013  1.00  0.00    -0.280 N 
ATOM     11  C   UNL A   1      33.133  25.691  24.709  1.00  0.00     0.266 C 
ATOM     12  C   UNL A   1      31.137  26.685  24.197  1.00  0.00     0.149 C 
ATOM     13  O   UNL A   1      34.352  25.768  24.777  1.00  0.00    -0.268 OA
ATOM     14  C   UNL A   1      32.414  24.527  24.122  1.00  0.00     0.081 C 
ATOM     15  S   UNL A   1      30.836  25.026  23.667  1.00  0.00    -0.054 SA
ATOM     16  S   UNL A   1      30.124  27.917  23.708  1.00  0.00    -0.052 S 
ATOM     17  C   UNL A   1      32.892  23.291  23.920  1.00  0.00     0.040 C 
BRANCH  17  18
ATOM     18  C   UNL A   1      34.223  22.940  24.269  1.00  0.00     0.028 A 
ATOM     19  C   UNL A   1      35.369  22.952  23.495  1.00  0.00     0.020 A 
ATOM     20  S   UNL A   1      34.556  22.354  25.850  1.00  0.00    -0.144 S 
ATOM     21  C   UNL A   1      36.489  22.378  24.166  1.00  0.00     0.012 A 
ATOM     22  C   UNL A   1      36.174  21.987  25.447  1.00  0.00     0.065 A 
ENDBRANCH  17  18
ENDBRANCH   7  10
ENDBRANCH   4   7
ENDBRANCH   2   3
ENDBRANCH   1   2
BRANCH   1  23
ATOM     23  C   UNL A   1      32.662  32.797  27.311  1.00  0.00     0.118 C 
BRANCH  23  24
ATOM     24  N   UNL A   1      32.455  34.204  27.626  1.00  0.00    -0.352 N 
ATOM     25  C   UNL A   1      33.010  34.961  28.628  1.00  0.00     0.251 C 
ATOM     26  H   UNL A   1      31.828  34.680  27.036  1.00  0.00     0.163 HD
ATOM     27  O   UNL A   1      32.549  36.066  28.896  1.00  0.00    -0.269 OA
BRANCH  25  28
ATOM     28  C   UNL A   1      34.153  34.428  29.395  1.00  0.00     0.039 A 
ATOM     29  C   UNL A   1      33.923  33.796  30.618  1.00  0.00     0.014 A 
ATOM     30  C   UNL A   1      35.453  34.547  28.895  1.00  0.00     0.014 A 
ATOM     31  C   UNL A   1      34.992  33.226  31.309  1.00  0.00     0.010 A 
ATOM     32  C   UNL A   1      36.497  33.888  29.528  1.00  0.00     0.010 A 
ATOM     33  C   UNL A   1      36.282  33.236  30.751  1.00  0.00    -0.014 A 
BRANCH  33  34
ATOM     34  C   UNL A   1      37.431  32.599  31.438  1.00  0.00     0.031 A 
ATOM     35  C   UNL A   1      38.151  31.455  30.781  1.00  0.00     0.074 A 
ATOM     36  C   UNL A   1      37.769  32.993  32.680  1.00  0.00     0.049 A 
ATOM     37  N   UNL A   1      39.114  30.702  31.250  1.00  0.00    -0.248 NA
ATOM     38  C   UNL A   1      37.699  31.077  29.432  1.00  0.00     0.031 C 
ATOM     39  C   UNL A   1      37.102  34.048  33.445  1.00  0.00     0.029 A 
ATOM     40  N   UNL A   1      38.752  32.541  33.524  1.00  0.00    -0.354 N 
ATOM     41  C   UNL A   1      39.360  29.752  30.267  1.00  0.00     0.074 A 
ATOM     42  C   UNL A   1      38.405  29.981  29.206  1.00  0.00     0.031 C 
ATOM     43  C   UNL A   1      37.711  34.181  34.634  1.00  0.00     0.029 A 
ATOM     44  C   UNL A   1      38.786  33.197  34.730  1.00  0.00     0.049 A 
ATOM     45  H   UNL A   1      39.374  31.816  33.288  1.00  0.00     0.167 HD
ATOM     46  C   UNL A   1      40.315  28.793  30.240  1.00  0.00     0.037 A 
ATOM     47  C   UNL A   1      39.590  33.020  35.794  1.00  0.00     0.037 A 
ATOM     48  C   UNL A   1      41.288  28.599  31.282  1.00  0.00     0.049 A 
ATOM     49  C   UNL A   1      40.664  31.967  35.730  1.00  0.00     0.074 A 
ATOM     50  C   UNL A   1      42.348  27.712  31.320  1.00  0.00     0.029 A 
ATOM     51  N   UNL A   1      41.316  29.309  32.473  1.00  0.00    -0.354 N 
ATOM     52  N   UNL A   1      40.939  31.125  34.764  1.00  0.00    -0.248 NA
ATOM     53  C   UNL A   1      41.544  31.846  36.900  1.00  0.00     0.031 C 
ATOM     54  C   UNL A   1      42.992  27.856  32.553  1.00  0.00     0.029 A 
ATOM     55  C   UNL A   1      42.364  28.867  33.263  1.00  0.00     0.049 A 
ATOM     56  H   UNL A   1      40.684  30.023  32.720  1.00  0.00     0.167 HD
ATOM     57  C   UNL A   1      42.036  30.392  35.196  1.00  0.00     0.074 A 
ATOM     58  C   UNL A   1      42.385  30.900  36.507  1.00  0.00     0.031 C 
ATOM     59  C   UNL A   1      42.696  29.390  34.564  1.00  0.00     0.037 A 
BRANCH  46  60
ATOM     60  C   UNL A   1      40.352  27.888  29.041  1.00  0.00     0.064 A 
ATOM     61  C   UNL A   1      41.103  28.205  27.898  1.00  0.00     0.173 A 
ATOM     62  C   UNL A   1      39.634  26.683  29.038  1.00  0.00     0.173 A 
ATOM     63  F   UNL A   1      41.797  29.352  27.844  1.00  0.00    -0.203 F 
ATOM     64  C   UNL A   1      41.100  27.372  26.783  1.00  0.00     0.198 A 
ATOM     65  C   UNL A   1      39.661  25.835  27.933  1.00  0.00     0.198 A 
ATOM     66  F   UNL A   1      38.903  26.327  30.105  1.00  0.00    -0.203 F 
ATOM     67  F   UNL A   1      41.773  27.730  25.680  1.00  0.00    -0.200 F 
ATOM     68  C   UNL A   1      40.384  26.185  26.803  1.00  0.00     0.200 A 
ATOM     69  F   UNL A   1      38.979  24.682  27.959  1.00  0.00    -0.200 F 
ATOM     70  F   UNL A   1      40.383  25.383  25.729  1.00  0.00    -0.200 F 
ENDBRANCH  46  60
BRANCH  47  71
ATOM     71  C   UNL A   1      39.435  33.887  36.989  1.00  0.00     0.064 A 
ATOM     72  C   UNL A   1      39.998  35.170  37.023  1.00  0.00     0.173 A 
ATOM     73  C   UNL A   1      38.701  33.466  38.108  1.00  0.00     0.173 A 
ATOM     74  F   UNL A   1      40.721  35.611  35.983  1.00  0.00    -0.203 F 
ATOM     75  C   UNL A   1      39.847  35.993  38.137  1.00  0.00     0.198 A 
ATOM     76  C   UNL A   1      38.529  34.301  39.211  1.00  0.00     0.198 A 
ATOM     77  F   UNL A   1      38.135  32.251  38.121  1.00  0.00    -0.203 F 
ATOM     78  F   UNL A   1      40.425  37.202  38.157  1.00  0.00    -0.200 F 
ATOM     79  C   UNL A   1      39.106  35.562  39.226  1.00  0.00     0.200 A 
ATOM     80  F   UNL A   1      37.799  33.886  40.254  1.00  0.00    -0.200 F 
ATOM     81  F   UNL A   1      38.951  36.359  40.292  1.00  0.00    -0.200 F 
ENDBRANCH  47  71
BRANCH  59  82
ATOM     82  C   UNL A   1      43.879  28.796  35.270  1.00  0.00     0.064 A 
ATOM     83  C   UNL A   1      45.174  29.303  35.088  1.00  0.00     0.173 A 
ATOM     84  C   UNL A   1      43.707  27.738  36.175  1.00  0.00     0.173 A 
ATOM     85  F   UNL A   1      45.392  30.305  34.221  1.00  0.00    -0.203 F 
ATOM     86  C   UNL A   1      46.257  28.757  35.770  1.00  0.00     0.198 A 
ATOM     87  C   UNL A   1      44.788  27.215  36.878  1.00  0.00     0.198 A 
ATOM     88  F   UNL A   1      42.487  27.223  36.389  1.00  0.00    -0.203 F 
ATOM     89  F   UNL A   1      47.493  29.226  35.548  1.00  0.00    -0.200 F 
ATOM     90  C   UNL A   1      46.062  27.719  36.669  1.00  0.00     0.200 A 
ATOM     91  F   UNL A   1      44.595  26.221  37.757  1.00  0.00    -0.200 F 
ATOM     92  F   UNL A   1      47.106  27.200  37.332  1.00  0.00    -0.200 F 
ENDBRANCH  59  82
ENDBRANCH  33  34
ENDBRANCH  25  28
ENDBRANCH  23  24
ENDBRANCH   1  23
TORSDOF 13
ENDMDL
MODEL 2
REMARK VINA RESULT:     -12.1      0.062      1.602
REMARK SMILES CC[C@H](C(=O)NCCCNC(=O)c1ccc(-c2c3nc(c(-c4c(F)c(F)c(F)c(F)c4F)c4ccc([nH]4)c(-c4c(F)c(F)c(F)c(F)c4F)c4nc(c(-c5c(F)c(F)c(F)c(F)c5F)c5ccc2[nH]5)C=C4)C=C3)cc1)N1C(=O)/C(=C\c2cccs2)SC1=S
REMARK SMILES IDX 8 1 7 2 6 3 4 4 5 5 3 7 2 8 1 9 76 10 77 11 87 12 78 13
REMARK SMILES IDX 79 14 86 15 88 16 80 17 81 18 82 19 85 20 83 21 84 22 9 23
REMARK SMILES IDX 10 24 11 25 12 27 13 28 14 29 75 30 15 31 74 32 16 33 17 34
REMARK SMILES IDX 18 35 68 36 19 37 73 38 67 39 69 40 20 41 72 42 66 43 65 44
REMARK SMILES IDX 21 46 53 47 33 48 52 49 34 50 37 51 51 52 70 53 35 54 36 55
REMARK SMILES IDX 50 57 71 58 38 59 22 60 23 61 31 62 24 63 25 64 29 65 32 66
REMARK SMILES IDX 26 67 27 68 30 69 28 70 54 71 55 72 63 73 56 74 57 75 61 76
REMARK SMILES IDX 64 77 58 78 59 79 62 80 60 81 39 82 40 83 48 84 41 85 42 86
REMARK SMILES IDX 46 87 49 88 43 89 44 90 47 91 45 92
REMARK H PARENT 6 6 10 26 69 45 37 56
REMARK Flexibility Score: inf
ROOT
ATOM      1  C   UNL A   1      31.403  32.156  26.697  1.00  0.00     0.042 C 
ENDROOT
BRANCH   1   2
ATOM      2  C   UNL A   1      31.700  30.829  26.017  1.00  0.00     0.117 C 
BRANCH   2   3
ATOM      3  N   UNL A   1      31.432  29.710  26.904  1.00  0.00    -0.354 N 
ATOM      4  C   UNL A   1      31.838  28.409  26.842  1.00  0.00     0.243 C 
ATOM      5  O   UNL A   1      31.301  27.612  27.616  1.00  0.00    -0.273 OA
ATOM      6  H   UNL A   1      30.860  29.926  27.676  1.00  0.00     0.163 HD
BRANCH   4   7
ATOM      7  C   UNL A   1      32.809  27.920  25.746  1.00  0.00     0.181 C 
BRANCH   7   8
ATOM      8  C   UNL A   1      34.160  27.694  26.502  1.00  0.00     0.032 C 
ATOM      9  C   UNL A   1      34.782  28.994  26.999  1.00  0.00     0.006 C 
ENDBRANCH   7   8
BRANCH   7  10
ATOM     10  N   UNL A   1      32.293  26.722  25.019  1.00  0.00    -0.280 N 
ATOM     11  C   UNL A   1      33.175  25.701  24.715  1.00  0.00     0.266 C 
ATOM     12  C   UNL A   1      31.172  26.687  24.208  1.00  0.00     0.149 C 
ATOM     13  O   UNL A   1      34.393  25.781  24.777  1.00  0.00    -0.268 OA
ATOM     14  C   UNL A   1      32.456  24.532  24.136  1.00  0.00     0.081 C 
ATOM     15  S   UNL A   1      30.874  25.024  23.687  1.00  0.00    -0.054 SA
ATOM     16  S   UNL A   1      30.154  27.914  23.720  1.00  0.00    -0.052 S 
ATOM     17  C   UNL A   1      32.937  23.296  23.937  1.00  0.00     0.040 C 
BRANCH  17  18
ATOM     18  C   UNL A   1      34.270  22.950  24.281  1.00  0.00     0.028 A 
ATOM     19  C   UNL A   1      35.410  22.951  23.497  1.00  0.00     0.020 A 
ATOM     20  S   UNL A   1      34.615  22.389  25.868  1.00  0.00    -0.144 S 
ATOM     21  C   UNL A   1      36.535  22.387  24.167  1.00  0.00     0.012 A 
ATOM     22  C   UNL A   1      36.231  22.015  25.457  1.00  0.00     0.065 A 
ENDBRANCH  17  18
ENDBRANCH   7  10
ENDBRANCH   4   7
ENDBRANCH   2   3
ENDBRANCH   1   2
BRANCH   1  23
ATOM     23  C   UNL A   1      32.634  32.791  27.324  1.00  0.00     0.118 C 
BRANCH  23  24
ATOM     24  N   UNL A   1      32.431  34.202  27.626  1.00  0.00    -0.352 N 
ATOM     25  C   UNL A   1      32.989  34.967  28.620  1.00  0.00     0.251 C 
ATOM     26  H   UNL A   1      31.805  34.675  27.032  1.00  0.00     0.163 HD
ATOM     27  O   UNL A   1      32.531  36.076  28.878  1.00  0.00    -0.269 OA
BRANCH  25  28
ATOM     28  C   UNL A   1      34.131  34.438  29.392  1.00  0.00     0.039 A 
ATOM     29  C   UNL A   1      33.899  33.817  30.620  1.00  0.00     0.014 A 
ATOM     30  C   UNL A   1      35.431  34.549  28.891  1.00  0.00     0.014 A 
ATOM     31  C   UNL A   1      34.967  33.250  31.316  1.00  0.00     0.010 A 
ATOM     32  C   UNL A   1      36.473  33.894  29.530  1.00  0.00     0.010 A 
ATOM     33  C   UNL A   1      36.256  33.253  30.758  1.00  0.00    -0.014 A 
BRANCH  33  34
ATOM     34  C   UNL A   1      37.404  32.619  31.451  1.00  0.00     0.031 A 
ATOM     35  C   UNL A   1      38.130  31.476  30.797  1.00  0.00     0.074 A 
ATOM     36  C   UNL A   1      37.736  33.014  32.693  1.00  0.00     0.049 A 
ATOM     37  N   UNL A   1      39.093  30.727  31.270  1.00  0.00    -0.248 NA
ATOM     38  C   UNL A   1      37.685  31.097  29.446  1.00  0.00     0.031 C 
ATOM     39  C   UNL A   1      37.063  34.067  33.456  1.00  0.00     0.029 A 
ATOM     40  N   UNL A   1      38.716  32.565  33.542  1.00  0.00    -0.354 N 
ATOM     41  C   UNL A   1      39.346  29.777  30.290  1.00  0.00     0.074 A 
ATOM     42  C   UNL A   1      38.396  30.002  29.224  1.00  0.00     0.031 C 
ATOM     43  C   UNL A   1      37.666  34.202  34.647  1.00  0.00     0.029 A 
ATOM     44  C   UNL A   1      38.743  33.221  34.748  1.00  0.00     0.049 A 
ATOM     45  H   UNL A   1      39.341  31.841  33.309  1.00  0.00     0.167 HD
ATOM     46  C   UNL A   1      40.304  28.819  30.267  1.00  0.00     0.037 A 
ATOM     47  C   UNL A   1      39.543  33.046  35.816  1.00  0.00     0.037 A 
ATOM     48  C   UNL A   1      41.273  28.629  31.313  1.00  0.00     0.049 A 
ATOM     49  C   UNL A   1      40.619  31.997  35.757  1.00  0.00     0.074 A 
ATOM     50  C   UNL A   1      42.334  27.744  31.356  1.00  0.00     0.029 A 
ATOM     51  N   UNL A   1      41.293  29.340  32.504  1.00  0.00    -0.354 N 
ATOM     52  N   UNL A   1      40.901  31.155  34.792  1.00  0.00    -0.248 NA
ATOM     53  C   UNL A   1      41.494  31.879  36.931  1.00  0.00     0.031 C 
ATOM     54  C   UNL A   1      42.972  27.890  32.592  1.00  0.00     0.029 A 
ATOM     55  C   UNL A   1      42.339  28.900  33.299  1.00  0.00     0.049 A 
ATOM     56  H   UNL A   1      40.659  30.052  32.748  1.00  0.00     0.167 HD
ATOM     57  C   UNL A   1      41.998  30.425  35.230  1.00  0.00     0.074 A 
ATOM     58  C   UNL A   1      42.340  30.934  36.542  1.00  0.00     0.031 C 
ATOM     59  C   UNL A   1      42.663  29.424  34.602  1.00  0.00     0.037 A 
BRANCH  46  60
ATOM     60  C   UNL A   1      40.348  27.915  29.068  1.00  0.00     0.064 A 
ATOM     61  C   UNL A   1      41.102  28.234  27.928  1.00  0.00     0.173 A 
ATOM     62  C   UNL A   1      39.634  26.707  29.063  1.00  0.00     0.173 A 
ATOM     63  F   UNL A   1      41.793  29.384  27.876  1.00  0.00    -0.203 F 
ATOM     64  C   UNL A   1      41.106  27.401  26.814  1.00  0.00     0.198 A 
ATOM     65  C   UNL A   1      39.669  25.858  27.958  1.00  0.00     0.198 A 
ATOM     66  F   UNL A   1      38.901  26.348  30.128  1.00  0.00    -0.203 F 
ATOM     67  F   UNL A   1      41.783  27.760  25.713  1.00  0.00    -0.200 F 
ATOM     68  C   UNL A   1      40.395  26.211  26.831  1.00  0.00     0.200 A 
ATOM     69  F   UNL A   1      38.991  24.703  27.982  1.00  0.00    -0.200 F 
ATOM     70  F   UNL A   1      40.401  25.409  25.757  1.00  0.00    -0.200 F 
ENDBRANCH  46  60
BRANCH  47  71
ATOM     71  C   UNL A   1      39.380  33.914  37.010  1.00  0.00     0.064 A 
ATOM     72  C   UNL A   1      38.675  33.463  38.134  1.00  0.00     0.173 A 
ATOM     73  C   UNL A   1      39.944  35.197  37.065  1.00  0.00     0.173 A 
ATOM     74  F   UNL A   1      38.105  32.249  38.123  1.00  0.00    -0.203 F 
ATOM     75  C   UNL A   1      38.527  34.267  39.262  1.00  0.00     0.198 A 
ATOM     76  C   UNL A   1      39.817  35.990  38.204  1.00  0.00     0.198 A 
ATOM     77  F   UNL A   1      40.635  35.671  36.019  1.00  0.00    -0.203 F 
ATOM     78  F   UNL A   1      37.820  33.824  40.310  1.00  0.00    -0.200 F 
ATOM     79  C   UNL A   1      39.105  35.527  39.299  1.00  0.00     0.200 A 
ATOM     80  F   UNL A   1      40.392  37.200  38.241  1.00  0.00    -0.200 F 
ATOM     81  F   UNL A   1      38.973  36.295  40.389  1.00  0.00    -0.200 F 
ENDBRANCH  47  71
BRANCH  59  82
ATOM     82  C   UNL A   1      43.845  28.834  35.312  1.00  0.00     0.064 A 
ATOM     83  C   UNL A   1      43.704  27.774  36.220  1.00  0.00     0.173 A 
ATOM     84  C   UNL A   1      45.140  29.305  35.045  1.00  0.00     0.173 A 
ATOM     85  F   UNL A   1      42.484  27.300  36.519  1.00  0.00    -0.203 F 
ATOM     86  C   UNL A   1      44.814  27.222  36.851  1.00  0.00     0.198 A 
ATOM     87  C   UNL A   1      46.250  28.730  35.656  1.00  0.00     0.198 A 
ATOM     88  F   UNL A   1      45.328  30.312  34.180  1.00  0.00    -0.203 F 
ATOM     89  F   UNL A   1      44.653  26.240  37.749  1.00  0.00    -0.200 F 
ATOM     90  C   UNL A   1      46.086  27.695  36.564  1.00  0.00     0.200 A 
ATOM     91  F   UNL A   1      47.479  29.179  35.366  1.00  0.00    -0.200 F 
ATOM     92  F   UNL A   1      47.155  27.155  37.166  1.00  0.00    -0.200 F 
ENDBRANCH  59  82
ENDBRANCH  33  34
ENDBRANCH  25  28
ENDBRANCH  23  24
ENDBRANCH   1  23
TORSDOF 13
ENDMDL
MODEL 3
REMARK VINA RESULT:     -11.9      0.944      7.601
REMARK SMILES CC[C@H](C(=O)NCCCNC(=O)c1ccc(-c2c3nc(c(-c4c(F)c(F)c(F)c(F)c4F)c4ccc([nH]4)c(-c4c(F)c(F)c(F)c(F)c4F)c4nc(c(-c5c(F)c(F)c(F)c(F)c5F)c5ccc2[nH]5)C=C4)C=C3)cc1)N1C(=O)/C(=C\c2cccs2)SC1=S
REMARK SMILES IDX 8 1 7 2 6 3 4 4 5 5 3 7 2 8 1 9 76 10 77 11 87 12 78 13
REMARK SMILES IDX 79 14 86 15 88 16 80 17 81 18 82 19 85 20 83 21 84 22 9 23
REMARK SMILES IDX 10 24 11 25 12 27 13 28 14 29 75 30 15 31 74 32 16 33 17 34
REMARK SMILES IDX 18 35 68 36 19 37 73 38 67 39 69 40 20 41 72 42 66 43 65 44
REMARK SMILES IDX 21 46 53 47 33 48 52 49 34 50 37 51 51 52 70 53 35 54 36 55
REMARK SMILES IDX 50 57 71 58 38 59 22 60 23 61 31 62 24 63 25 64 29 65 32 66
REMARK SMILES IDX 26 67 27 68 30 69 28 70 54 71 55 72 63 73 56 74 57 75 61 76
REMARK SMILES IDX 64 77 58 78 59 79 62 80 60 81 39 82 40 83 48 84 41 85 42 86
REMARK SMILES IDX 46 87 49 88 43 89 44 90 47 91 45 92
REMARK H PARENT 6 6 10 26 69 45 37 56
REMARK Flexibility Score: inf
ROOT
ATOM      1  C   UNL A   1      31.351  32.348  26.698  1.00  0.00     0.042 C 
ENDROOT
BRANCH   1   2
ATOM      2  C   UNL A   1      31.527  30.971  26.080  1.00  0.00     0.117 C 
BRANCH   2   3
ATOM      3  N   UNL A   1      31.433  29.925  27.084  1.00  0.00    -0.354 N 
ATOM      4  C   UNL A   1      31.832  28.620  27.051  1.00  0.00     0.243 C 
ATOM      5  O   UNL A   1      31.450  27.889  27.968  1.00  0.00    -0.273 OA
ATOM      6  H   UNL A   1      31.010  30.204  27.928  1.00  0.00     0.163 HD
BRANCH   4   7
ATOM      7  C   UNL A   1      32.592  28.042  25.838  1.00  0.00     0.181 C 
BRANCH   7   8
ATOM      8  C   UNL A   1      34.020  27.728  26.393  1.00  0.00     0.032 C 
ATOM      9  C   UNL A   1      34.763  28.976  26.854  1.00  0.00     0.006 C 
ENDBRANCH   7   8
BRANCH   7  10
ATOM     10  N   UNL A   1      31.889  26.875  25.227  1.00  0.00    -0.280 N 
ATOM     11  C   UNL A   1      32.418  25.611  25.411  1.00  0.00     0.266 C 
ATOM     12  C   UNL A   1      31.048  26.920  24.129  1.00  0.00     0.149 C 
ATOM     13  O   UNL A   1      33.541  25.373  25.834  1.00  0.00    -0.268 OA
ATOM     14  C   UNL A   1      31.505  24.567  24.870  1.00  0.00     0.081 C 
ATOM     15  S   UNL A   1      30.337  25.323  23.866  1.00  0.00    -0.054 SA
ATOM     16  S   UNL A   1      30.650  28.191  23.125  1.00  0.00    -0.052 S 
ATOM     17  C   UNL A   1      31.573  23.243  25.068  1.00  0.00     0.040 C 
BRANCH  17  18
ATOM     18  C   UNL A   1      32.589  22.659  25.869  1.00  0.00     0.028 A 
ATOM     19  C   UNL A   1      32.676  22.561  27.247  1.00  0.00     0.020 A 
ATOM     20  S   UNL A   1      33.982  21.992  25.116  1.00  0.00    -0.144 S 
ATOM     21  C   UNL A   1      33.931  22.041  27.679  1.00  0.00     0.012 A 
ATOM     22  C   UNL A   1      34.746  21.717  26.619  1.00  0.00     0.065 A 
ENDBRANCH  17  18
ENDBRANCH   7  10
ENDBRANCH   4   7
ENDBRANCH   2   3
ENDBRANCH   1   2
BRANCH   1  23
ATOM     23  C   UNL A   1      32.655  32.944  27.204  1.00  0.00     0.118 C 
BRANCH  23  24
ATOM     24  N   UNL A   1      32.490  34.316  27.666  1.00  0.00    -0.352 N 
ATOM     25  C   UNL A   1      33.081  34.952  28.729  1.00  0.00     0.251 C 
ATOM     26  H   UNL A   1      31.866  34.866  27.139  1.00  0.00     0.163 HD
ATOM     27  O   UNL A   1      32.654  36.035  29.117  1.00  0.00    -0.269 OA
BRANCH  25  28
ATOM     28  C   UNL A   1      34.223  34.315  29.415  1.00  0.00     0.039 A 
ATOM     29  C   UNL A   1      33.983  33.440  30.475  1.00  0.00     0.014 A 
ATOM     30  C   UNL A   1      35.531  34.581  29.001  1.00  0.00     0.014 A 
ATOM     31  C   UNL A   1      35.054  32.779  31.077  1.00  0.00     0.010 A 
ATOM     32  C   UNL A   1      36.582  33.845  29.527  1.00  0.00     0.010 A 
ATOM     33  C   UNL A   1      36.358  32.950  30.583  1.00  0.00    -0.014 A 
BRANCH  33  34
ATOM     34  C   UNL A   1      37.513  32.228  31.170  1.00  0.00     0.031 A 
ATOM     35  C   UNL A   1      38.008  32.603  32.539  1.00  0.00     0.074 A 
ATOM     36  C   UNL A   1      38.162  31.300  30.443  1.00  0.00     0.049 A 
ATOM     37  N   UNL A   1      39.053  32.164  33.192  1.00  0.00    -0.248 NA
ATOM     38  C   UNL A   1      37.250  33.643  33.254  1.00  0.00     0.031 C 
ATOM     39  C   UNL A   1      37.816  30.899  29.078  1.00  0.00     0.029 A 
ATOM     40  N   UNL A   1      39.261  30.536  30.744  1.00  0.00    -0.354 N 
ATOM     41  C   UNL A   1      39.091  32.892  34.374  1.00  0.00     0.074 A 
ATOM     42  C   UNL A   1      38.004  33.844  34.322  1.00  0.00     0.031 C 
ATOM     43  C   UNL A   1      38.666  29.944  28.671  1.00  0.00     0.029 A 
ATOM     44  C   UNL A   1      39.641  29.693  29.729  1.00  0.00     0.049 A 
ATOM     45  H   UNL A   1      39.733  30.588  31.607  1.00  0.00     0.167 HD
ATOM     46  C   UNL A   1      39.939  32.759  35.422  1.00  0.00     0.037 A 
ATOM     47  C   UNL A   1      40.662  28.820  29.660  1.00  0.00     0.037 A 
ATOM     48  C   UNL A   1      40.991  31.780  35.483  1.00  0.00     0.049 A 
ATOM     49  C   UNL A   1      41.574  28.668  30.847  1.00  0.00     0.074 A 
ATOM     50  C   UNL A   1      41.855  31.506  36.527  1.00  0.00     0.029 A 
ATOM     51  N   UNL A   1      41.321  30.915  34.450  1.00  0.00    -0.354 N 
ATOM     52  N   UNL A   1      41.553  29.306  31.992  1.00  0.00    -0.248 NA
ATOM     53  C   UNL A   1      42.645  27.669  30.736  1.00  0.00     0.031 C 
ATOM     54  C   UNL A   1      42.737  30.503  36.110  1.00  0.00     0.029 A 
ATOM     55  C   UNL A   1      42.390  30.118  34.825  1.00  0.00     0.049 A 
ATOM     56  H   UNL A   1      40.863  30.874  33.580  1.00  0.00     0.167 HD
ATOM     57  C   UNL A   1      42.588  28.771  32.747  1.00  0.00     0.074 A 
ATOM     58  C   UNL A   1      43.208  27.745  31.934  1.00  0.00     0.031 C 
ATOM     59  C   UNL A   1      42.989  29.099  34.000  1.00  0.00     0.037 A 
BRANCH  46  60
ATOM     60  C   UNL A   1      39.752  33.692  36.584  1.00  0.00     0.064 A 
ATOM     61  C   UNL A   1      38.929  33.362  37.673  1.00  0.00     0.173 A 
ATOM     62  C   UNL A   1      40.413  34.930  36.616  1.00  0.00     0.173 A 
ATOM     63  F   UNL A   1      38.264  32.197  37.686  1.00  0.00    -0.203 F 
ATOM     64  C   UNL A   1      38.741  34.252  38.726  1.00  0.00     0.198 A 
ATOM     65  C   UNL A   1      40.249  35.803  37.689  1.00  0.00     0.198 A 
ATOM     66  F   UNL A   1      41.216  35.294  35.605  1.00  0.00    -0.203 F 
ATOM     67  F   UNL A   1      37.899  33.940  39.722  1.00  0.00    -0.200 F 
ATOM     68  C   UNL A   1      39.405  35.469  38.737  1.00  0.00     0.200 A 
ATOM     69  F   UNL A   1      40.902  36.973  37.703  1.00  0.00    -0.200 F 
ATOM     70  F   UNL A   1      39.224  36.324  39.753  1.00  0.00    -0.200 F 
ENDBRANCH  46  60
BRANCH  47  71
ATOM     71  C   UNL A   1      40.847  27.996  28.438  1.00  0.00     0.064 A 
ATOM     72  C   UNL A   1      40.235  26.741  28.319  1.00  0.00     0.173 A 
ATOM     73  C   UNL A   1      41.615  28.454  27.357  1.00  0.00     0.173 A 
ATOM     74  F   UNL A   1      39.504  26.255  29.333  1.00  0.00    -0.203 F 
ATOM     75  C   UNL A   1      40.396  25.968  27.171  1.00  0.00     0.198 A 
ATOM     76  C   UNL A   1      41.753  27.691  26.199  1.00  0.00     0.198 A 
ATOM     77  F   UNL A   1      42.213  29.652  27.418  1.00  0.00    -0.203 F 
ATOM     78  F   UNL A   1      39.827  24.757  27.098  1.00  0.00    -0.200 F 
ATOM     79  C   UNL A   1      41.148  26.446  26.110  1.00  0.00     0.200 A 
ATOM     80  F   UNL A   1      42.467  28.164  25.170  1.00  0.00    -0.200 F 
ATOM     81  F   UNL A   1      41.292  25.707  25.001  1.00  0.00    -0.200 F 
ENDBRANCH  47  71
BRANCH  59  82
ATOM     82  C   UNL A   1      44.133  28.321  34.580  1.00  0.00     0.064 A 
ATOM     83  C   UNL A   1      43.929  27.114  35.266  1.00  0.00     0.173 A 
ATOM     84  C   UNL A   1      45.453  28.764  34.405  1.00  0.00     0.173 A 
ATOM     85  F   UNL A   1      42.685  26.657  35.472  1.00  0.00    -0.203 F 
ATOM     86  C   UNL A   1      45.004  26.392  35.775  1.00  0.00     0.198 A 
ATOM     87  C   UNL A   1      46.526  28.024  34.890  1.00  0.00     0.198 A 
ATOM     88  F   UNL A   1      45.701  29.908  33.750  1.00  0.00    -0.203 F 
ATOM     89  F   UNL A   1      44.785  25.266  36.467  1.00  0.00    -0.200 F 
ATOM     90  C   UNL A   1      46.301  26.843  35.581  1.00  0.00     0.200 A 
ATOM     91  F   UNL A   1      47.780  28.454  34.689  1.00  0.00    -0.200 F 
ATOM     92  F   UNL A   1      47.336  26.141  36.065  1.00  0.00    -0.200 F 
ENDBRANCH  59  82
ENDBRANCH  33  34
ENDBRANCH  25  28
ENDBRANCH  23  24
ENDBRANCH   1  23
TORSDOF 13
ENDMDL
