MODEL 1
REMARK VINA RESULT:     -12.8      0.000      0.000
REMARK SMILES O=C(NCCCNC(=O)c1sccc1S(=O)(=O)N[C@@H]1CONC1=O)c1ccc(-c2c3nc(c(-c4c(F)c(F)c(F)c(F)c4F)c4ccc([nH]4)c(-c4c(F)c(F)c(F)c(F)c4F)c4nc(c(-c5c(F)c(F)c(F)c(F)c5F)c5ccc2[nH]5)C=C4)C=C3)cc1
REMARK SMILES IDX 5 1 4 2 3 3 1 4 2 5 25 7 26 8 87 9 27 10 86 11 28 12 29 13
REMARK SMILES IDX 30 14 80 15 31 16 85 17 79 18 81 19 32 20 84 21 78 22 77 23
REMARK SMILES IDX 33 25 65 26 45 27 64 28 46 29 49 30 63 31 82 32 47 33 48 34
REMARK SMILES IDX 62 36 83 37 50 38 34 39 35 40 43 41 36 42 37 43 41 44 44 45
REMARK SMILES IDX 38 46 39 47 42 48 40 49 66 50 67 51 75 52 68 53 69 54 73 55
REMARK SMILES IDX 76 56 70 57 71 58 74 59 72 60 51 61 52 62 60 63 53 64 54 65
REMARK SMILES IDX 58 66 61 67 55 68 56 69 59 70 57 71 6 72 7 73 8 74 9 76
REMARK SMILES IDX 10 77 11 78 14 79 12 80 13 81 15 82 16 83 17 84 18 85 19 87
REMARK SMILES IDX 20 88 23 89 21 90 22 91 24 92
REMARK H PARENT 3 6 81 24 49 35 7 75 18 86 22 93
REMARK Flexibility Score: inf
ROOT
ATOM      1  C   UNL A   1      31.608  31.967  26.590  1.00  0.00     0.042 C 
ENDROOT
BRANCH   1   2
ATOM      2  C   UNL A   1      32.725  32.728  27.299  1.00  0.00     0.118 C 
BRANCH   2   3
ATOM      3  N   UNL A   1      32.391  34.112  27.625  1.00  0.00    -0.352 N 
ATOM      4  O   UNL A   1      32.406  36.071  28.748  1.00  0.00    -0.269 OA
ATOM      5  C   UNL A   1      32.930  34.979  28.550  1.00  0.00     0.251 C 
ATOM      6  H   UNL A   1      31.656  34.491  27.092  1.00  0.00     0.163 HD
BRANCH   5   7
ATOM      7  C   UNL A   1      34.115  34.578  29.341  1.00  0.00     0.039 A 
ATOM      8  C   UNL A   1      35.398  34.748  28.829  1.00  0.00     0.014 A 
ATOM      9  C   UNL A   1      33.945  33.997  30.601  1.00  0.00     0.014 A 
ATOM     10  C   UNL A   1      36.468  34.107  29.433  1.00  0.00     0.010 A 
ATOM     11  C   UNL A   1      35.051  33.475  31.281  1.00  0.00     0.010 A 
ATOM     12  C   UNL A   1      36.314  33.456  30.668  1.00  0.00    -0.014 A 
BRANCH  12  13
ATOM     13  C   UNL A   1      37.488  32.764  31.269  1.00  0.00     0.031 A 
ATOM     14  C   UNL A   1      37.924  33.053  32.682  1.00  0.00     0.074 A 
ATOM     15  C   UNL A   1      38.115  31.805  30.558  1.00  0.00     0.049 A 
ATOM     16  N   UNL A   1      38.888  32.499  33.378  1.00  0.00    -0.248 NA
ATOM     17  C   UNL A   1      37.198  34.105  33.409  1.00  0.00     0.031 C 
ATOM     18  C   UNL A   1      37.792  31.433  29.179  1.00  0.00     0.029 A 
ATOM     19  N   UNL A   1      39.120  30.938  30.907  1.00  0.00    -0.354 N 
ATOM     20  C   UNL A   1      38.909  33.163  34.600  1.00  0.00     0.074 A 
ATOM     21  C   UNL A   1      37.874  34.171  34.548  1.00  0.00     0.031 C 
ATOM     22  C   UNL A   1      38.520  30.363  28.829  1.00  0.00     0.029 A 
ATOM     23  C   UNL A   1      39.414  30.020  29.928  1.00  0.00     0.049 A 
ATOM     24  H   UNL A   1      39.584  30.970  31.774  1.00  0.00     0.167 HD
ATOM     25  C   UNL A   1      39.715  32.946  35.667  1.00  0.00     0.037 A 
ATOM     26  C   UNL A   1      40.308  29.015  29.910  1.00  0.00     0.037 A 
ATOM     27  C   UNL A   1      40.712  31.908  35.738  1.00  0.00     0.049 A 
ATOM     28  C   UNL A   1      41.172  28.785  31.116  1.00  0.00     0.074 A 
ATOM     29  C   UNL A   1      41.549  31.584  36.793  1.00  0.00     0.029 A 
ATOM     30  N   UNL A   1      40.999  31.019  34.713  1.00  0.00    -0.354 N 
ATOM     31  N   UNL A   1      41.171  29.413  32.265  1.00  0.00    -0.248 NA
ATOM     32  C   UNL A   1      42.168  27.710  31.017  1.00  0.00     0.031 C 
ATOM     33  C   UNL A   1      42.367  30.523  36.393  1.00  0.00     0.029 A 
ATOM     34  C   UNL A   1      42.011  30.156  35.106  1.00  0.00     0.049 A 
ATOM     35  H   UNL A   1      40.551  31.003  33.837  1.00  0.00     0.167 HD
ATOM     36  C   UNL A   1      42.149  28.800  33.034  1.00  0.00     0.074 A 
ATOM     37  C   UNL A   1      42.710  27.737  32.226  1.00  0.00     0.031 C 
ATOM     38  C   UNL A   1      42.551  29.096  34.293  1.00  0.00     0.037 A 
BRANCH  25  39
ATOM     39  C   UNL A   1      39.572  33.865  36.848  1.00  0.00     0.064 A 
ATOM     40  C   UNL A   1      40.193  35.121  36.891  1.00  0.00     0.173 A 
ATOM     41  C   UNL A   1      38.764  33.495  37.934  1.00  0.00     0.173 A 
ATOM     42  F   UNL A   1      40.985  35.518  35.885  1.00  0.00    -0.203 F 
ATOM     43  C   UNL A   1      40.029  35.964  37.990  1.00  0.00     0.198 A 
ATOM     44  C   UNL A   1      38.580  34.350  39.018  1.00  0.00     0.198 A 
ATOM     45  F   UNL A   1      38.141  32.307  37.940  1.00  0.00    -0.203 F 
ATOM     46  F   UNL A   1      40.665  37.142  38.028  1.00  0.00    -0.200 F 
ATOM     47  C   UNL A   1      39.219  35.580  39.048  1.00  0.00     0.200 A 
ATOM     48  F   UNL A   1      37.786  33.983  40.034  1.00  0.00    -0.200 F 
ATOM     49  F   UNL A   1      39.057  36.396  40.100  1.00  0.00    -0.200 F 
ENDBRANCH  25  39
BRANCH  26  50
ATOM     50  C   UNL A   1      40.417  28.145  28.711  1.00  0.00     0.064 A 
ATOM     51  C   UNL A   1      41.221  28.514  27.625  1.00  0.00     0.173 A 
ATOM     52  C   UNL A   1      39.735  26.922  28.635  1.00  0.00     0.173 A 
ATOM     53  F   UNL A   1      41.877  29.684  27.644  1.00  0.00    -0.203 F 
ATOM     54  C   UNL A   1      41.333  27.696  26.502  1.00  0.00     0.198 A 
ATOM     55  C   UNL A   1      39.871  26.091  27.525  1.00  0.00     0.198 A 
ATOM     56  F   UNL A   1      38.957  26.522  29.651  1.00  0.00    -0.203 F 
ATOM     57  F   UNL A   1      42.079  28.088  25.462  1.00  0.00    -0.200 F 
ATOM     58  C   UNL A   1      40.663  26.482  26.457  1.00  0.00     0.200 A 
ATOM     59  F   UNL A   1      39.237  24.911  27.494  1.00  0.00    -0.200 F 
ATOM     60  F   UNL A   1      40.780  25.691  25.383  1.00  0.00    -0.200 F 
ENDBRANCH  26  50
BRANCH  38  61
ATOM     61  C   UNL A   1      43.623  28.232  34.887  1.00  0.00     0.064 A 
ATOM     62  C   UNL A   1      43.316  27.051  35.578  1.00  0.00     0.173 A 
ATOM     63  C   UNL A   1      44.973  28.583  34.749  1.00  0.00     0.173 A 
ATOM     64  F   UNL A   1      42.037  26.683  35.750  1.00  0.00    -0.203 F 
ATOM     65  C   UNL A   1      44.322  26.268  36.136  1.00  0.00     0.198 A 
ATOM     66  C   UNL A   1      45.979  27.783  35.285  1.00  0.00     0.198 A 
ATOM     67  F   UNL A   1      45.318  29.701  34.092  1.00  0.00    -0.203 F 
ATOM     68  F   UNL A   1      44.003  25.170  36.836  1.00  0.00    -0.200 F 
ATOM     69  C   UNL A   1      45.652  26.632  35.984  1.00  0.00     0.200 A 
ATOM     70  F   UNL A   1      47.263  28.132  35.130  1.00  0.00    -0.200 F 
ATOM     71  F   UNL A   1      46.620  25.877  36.523  1.00  0.00    -0.200 F 
ENDBRANCH  38  61
ENDBRANCH  12  13
ENDBRANCH   5   7
ENDBRANCH   2   3
ENDBRANCH   1   2
BRANCH   1  72
ATOM     72  C   UNL A   1      31.858  30.472  26.470  1.00  0.00     0.118 C 
BRANCH  72  73
ATOM     73  N   UNL A   1      32.573  30.127  25.254  1.00  0.00    -0.351 N 
ATOM     74  C   UNL A   1      32.633  28.959  24.550  1.00  0.00     0.262 C 
ATOM     75  H   UNL A   1      33.107  30.861  24.872  1.00  0.00     0.163 HD
ATOM     76  O   UNL A   1      33.386  28.930  23.575  1.00  0.00    -0.268 OA
BRANCH  74  77
ATOM     77  C   UNL A   1      31.828  27.831  24.942  1.00  0.00     0.112 A 
ATOM     78  S   UNL A   1      32.496  26.797  26.143  1.00  0.00    -0.137 S 
ATOM     79  C   UNL A   1      30.627  27.340  24.465  1.00  0.00     0.106 A 
ATOM     80  C   UNL A   1      31.172  25.726  26.062  1.00  0.00     0.067 A 
ATOM     81  C   UNL A   1      30.242  26.131  25.133  1.00  0.00     0.034 A 
BRANCH  79  82
ATOM     82  S   UNL A   1      29.627  28.034  23.230  1.00  0.00     0.243 S 
ATOM     83  O   UNL A   1      30.348  27.828  22.001  1.00  0.00    -0.207 OA
ATOM     84  O   UNL A   1      28.346  27.403  23.474  1.00  0.00    -0.207 OA
BRANCH  82  85
ATOM     85  N   UNL A   1      29.379  29.657  23.427  1.00  0.00    -0.196 NA
ATOM     86  H   UNL A   1      30.244  30.099  23.116  1.00  0.00     0.142 HD
BRANCH  85  87
ATOM     87  C   UNL A   1      28.295  30.445  22.809  1.00  0.00     0.189 C 
ATOM     88  C   UNL A   1      28.028  30.281  21.322  1.00  0.00     0.224 C 
ATOM     89  C   UNL A   1      28.681  31.898  22.898  1.00  0.00     0.264 C 
ATOM     90  O   UNL A   1      27.893  31.589  20.746  1.00  0.00    -0.271 OA
ATOM     91  N   UNL A   1      28.431  32.484  21.692  1.00  0.00    -0.233 N 
ATOM     92  O   UNL A   1      29.170  32.449  23.877  1.00  0.00    -0.271 OA
ATOM     93  H   UNL A   1      28.606  33.434  21.501  1.00  0.00     0.199 HD
ENDBRANCH  85  87
ENDBRANCH  82  85
ENDBRANCH  79  82
ENDBRANCH  74  77
ENDBRANCH  72  73
ENDBRANCH   1  72
TORSDOF 13
ENDMDL
MODEL 2
REMARK VINA RESULT:     -12.7      1.880      3.084
REMARK SMILES O=C(NCCCNC(=O)c1sccc1S(=O)(=O)N[C@@H]1CONC1=O)c1ccc(-c2c3nc(c(-c4c(F)c(F)c(F)c(F)c4F)c4ccc([nH]4)c(-c4c(F)c(F)c(F)c(F)c4F)c4nc(c(-c5c(F)c(F)c(F)c(F)c5F)c5ccc2[nH]5)C=C4)C=C3)cc1
REMARK SMILES IDX 5 1 4 2 3 3 1 4 2 5 25 7 26 8 87 9 27 10 86 11 28 12 29 13
REMARK SMILES IDX 30 14 80 15 31 16 85 17 79 18 81 19 32 20 84 21 78 22 77 23
REMARK SMILES IDX 33 25 65 26 45 27 64 28 46 29 49 30 63 31 82 32 47 33 48 34
REMARK SMILES IDX 62 36 83 37 50 38 34 39 35 40 43 41 36 42 37 43 41 44 44 45
REMARK SMILES IDX 38 46 39 47 42 48 40 49 66 50 67 51 75 52 68 53 69 54 73 55
REMARK SMILES IDX 76 56 70 57 71 58 74 59 72 60 51 61 52 62 60 63 53 64 54 65
REMARK SMILES IDX 58 66 61 67 55 68 56 69 59 70 57 71 6 72 7 73 8 74 9 76
REMARK SMILES IDX 10 77 11 78 14 79 12 80 13 81 15 82 16 83 17 84 18 85 19 87
REMARK SMILES IDX 20 88 23 89 21 90 22 91 24 92
REMARK H PARENT 3 6 81 24 49 35 7 75 18 86 22 93
REMARK Flexibility Score: inf
ROOT
ATOM      1  C   UNL A   1      33.298  29.460  24.995  1.00  0.00     0.042 C 
ENDROOT
BRANCH   1   2
ATOM      2  C   UNL A   1      32.617  29.711  26.338  1.00  0.00     0.118 C 
BRANCH   2   3
ATOM      3  N   UNL A   1      32.450  31.122  26.669  1.00  0.00    -0.352 N 
ATOM      4  O   UNL A   1      32.872  33.121  27.631  1.00  0.00    -0.269 OA
ATOM      5  C   UNL A   1      33.269  31.995  27.351  1.00  0.00     0.251 C 
ATOM      6  H   UNL A   1      31.608  31.519  26.350  1.00  0.00     0.163 HD
BRANCH   5   7
ATOM      7  C   UNL A   1      34.616  31.562  27.787  1.00  0.00     0.039 A 
ATOM      8  C   UNL A   1      34.874  30.222  28.060  1.00  0.00     0.014 A 
ATOM      9  C   UNL A   1      35.630  32.509  27.954  1.00  0.00     0.014 A 
ATOM     10  C   UNL A   1      36.028  29.871  28.745  1.00  0.00     0.010 A 
ATOM     11  C   UNL A   1      36.853  32.127  28.516  1.00  0.00     0.010 A 
ATOM     12  C   UNL A   1      37.036  30.818  28.988  1.00  0.00    -0.014 A 
BRANCH  12  13
ATOM     13  C   UNL A   1      38.248  30.400  29.746  1.00  0.00     0.031 A 
ATOM     14  C   UNL A   1      38.435  30.781  31.191  1.00  0.00     0.074 A 
ATOM     15  C   UNL A   1      39.150  29.597  29.144  1.00  0.00     0.049 A 
ATOM     16  N   UNL A   1      39.403  30.452  32.014  1.00  0.00    -0.248 NA
ATOM     17  C   UNL A   1      37.415  31.653  31.795  1.00  0.00     0.031 C 
ATOM     18  C   UNL A   1      39.087  29.159  27.748  1.00  0.00     0.029 A 
ATOM     19  N   UNL A   1      40.267  28.970  29.636  1.00  0.00    -0.354 N 
ATOM     20  C   UNL A   1      39.130  31.109  33.209  1.00  0.00     0.074 A 
ATOM     21  C   UNL A   1      37.916  31.868  33.004  1.00  0.00     0.031 C 
ATOM     22  C   UNL A   1      40.065  28.272  27.520  1.00  0.00     0.029 A 
ATOM     23  C   UNL A   1      40.871  28.135  28.727  1.00  0.00     0.049 A 
ATOM     24  H   UNL A   1      40.603  29.105  30.551  1.00  0.00     0.167 HD
ATOM     25  C   UNL A   1      39.826  31.076  34.371  1.00  0.00     0.037 A 
ATOM     26  C   UNL A   1      41.955  27.348  28.846  1.00  0.00     0.037 A 
ATOM     27  C   UNL A   1      41.006  30.279  34.592  1.00  0.00     0.049 A 
ATOM     28  C   UNL A   1      42.693  27.315  30.153  1.00  0.00     0.074 A 
ATOM     29  C   UNL A   1      41.757  30.149  35.748  1.00  0.00     0.029 A 
ATOM     30  N   UNL A   1      41.602  29.470  33.636  1.00  0.00    -0.354 N 
ATOM     31  N   UNL A   1      42.415  27.932  31.275  1.00  0.00    -0.248 NA
ATOM     32  C   UNL A   1      43.901  26.482  30.206  1.00  0.00     0.031 C 
ATOM     33  C   UNL A   1      42.827  29.289  35.481  1.00  0.00     0.029 A 
ATOM     34  C   UNL A   1      42.719  28.849  34.172  1.00  0.00     0.049 A 
ATOM     35  H   UNL A   1      41.279  29.355  32.713  1.00  0.00     0.167 HD
ATOM     36  C   UNL A   1      43.400  27.549  32.173  1.00  0.00     0.074 A 
ATOM     37  C   UNL A   1      44.272  26.630  31.470  1.00  0.00     0.031 C 
ATOM     38  C   UNL A   1      43.571  27.930  33.462  1.00  0.00     0.037 A 
BRANCH  25  39
ATOM     39  C   UNL A   1      39.344  31.945  35.498  1.00  0.00     0.064 A 
ATOM     40  C   UNL A   1      38.478  31.465  36.490  1.00  0.00     0.173 A 
ATOM     41  C   UNL A   1      39.795  33.271  35.607  1.00  0.00     0.173 A 
ATOM     42  F   UNL A   1      38.008  30.210  36.426  1.00  0.00    -0.203 F 
ATOM     43  C   UNL A   1      38.060  32.285  37.537  1.00  0.00     0.198 A 
ATOM     44  C   UNL A   1      39.397  34.080  36.669  1.00  0.00     0.198 A 
ATOM     45  F   UNL A   1      40.630  33.779  34.689  1.00  0.00    -0.203 F 
ATOM     46  F   UNL A   1      37.199  31.817  38.450  1.00  0.00    -0.200 F 
ATOM     47  C   UNL A   1      38.525  33.589  37.628  1.00  0.00     0.200 A 
ATOM     48  F   UNL A   1      39.858  35.335  36.763  1.00  0.00    -0.200 F 
ATOM     49  F   UNL A   1      38.128  34.373  38.640  1.00  0.00    -0.200 F 
ENDBRANCH  25  39
BRANCH  26  50
ATOM     50  C   UNL A   1      42.395  26.519  27.695  1.00  0.00     0.064 A 
ATOM     51  C   UNL A   1      43.359  26.991  26.795  1.00  0.00     0.173 A 
ATOM     52  C   UNL A   1      41.875  25.233  27.484  1.00  0.00     0.173 A 
ATOM     53  F   UNL A   1      43.870  28.223  26.945  1.00  0.00    -0.203 F 
ATOM     54  C   UNL A   1      43.780  26.212  25.719  1.00  0.00     0.198 A 
ATOM     55  C   UNL A   1      42.320  24.443  26.426  1.00  0.00     0.198 A 
ATOM     56  F   UNL A   1      40.955  24.735  28.322  1.00  0.00    -0.203 F 
ATOM     57  F   UNL A   1      44.676  26.701  24.852  1.00  0.00    -0.200 F 
ATOM     58  C   UNL A   1      43.266  24.936  25.541  1.00  0.00     0.200 A 
ATOM     59  F   UNL A   1      41.834  23.205  26.269  1.00  0.00    -0.200 F 
ATOM     60  F   UNL A   1      43.680  24.183  24.513  1.00  0.00    -0.200 F 
ENDBRANCH  26  50
BRANCH  38  61
ATOM     61  C   UNL A   1      44.722  27.321  34.204  1.00  0.00     0.064 A 
ATOM     62  C   UNL A   1      45.979  27.941  34.249  1.00  0.00     0.173 A 
ATOM     63  C   UNL A   1      44.560  26.109  34.891  1.00  0.00     0.173 A 
ATOM     64  F   UNL A   1      46.187  29.093  33.593  1.00  0.00    -0.203 F 
ATOM     65  C   UNL A   1      47.041  27.354  34.930  1.00  0.00     0.198 A 
ATOM     66  C   UNL A   1      45.618  25.538  35.594  1.00  0.00     0.198 A 
ATOM     67  F   UNL A   1      43.376  25.479  34.882  1.00  0.00    -0.203 F 
ATOM     68  F   UNL A   1      48.248  27.939  34.917  1.00  0.00    -0.200 F 
ATOM     69  C   UNL A   1      46.858  26.156  35.606  1.00  0.00     0.200 A 
ATOM     70  F   UNL A   1      45.437  24.386  36.254  1.00  0.00    -0.200 F 
ATOM     71  F   UNL A   1      47.883  25.592  36.260  1.00  0.00    -0.200 F 
ENDBRANCH  38  61
ENDBRANCH  12  13
ENDBRANCH   5   7
ENDBRANCH   2   3
ENDBRANCH   1   2
BRANCH   1  72
ATOM     72  C   UNL A   1      33.863  28.057  24.840  1.00  0.00     0.118 C 
BRANCH  72  73
ATOM     73  N   UNL A   1      33.987  27.662  23.449  1.00  0.00    -0.351 N 
ATOM     74  C   UNL A   1      33.114  27.021  22.616  1.00  0.00     0.262 C 
ATOM     75  H   UNL A   1      34.849  27.894  23.034  1.00  0.00     0.163 HD
ATOM     76  O   UNL A   1      33.516  26.748  21.485  1.00  0.00    -0.268 OA
BRANCH  74  77
ATOM     77  C   UNL A   1      31.781  26.706  23.063  1.00  0.00     0.112 A 
ATOM     78  S   UNL A   1      31.492  25.069  23.506  1.00  0.00    -0.137 S 
ATOM     79  C   UNL A   1      30.622  27.457  23.121  1.00  0.00     0.106 A 
ATOM     80  C   UNL A   1      29.843  25.368  23.817  1.00  0.00     0.067 A 
ATOM     81  C   UNL A   1      29.507  26.681  23.579  1.00  0.00     0.034 A 
BRANCH  79  82
ATOM     82  S   UNL A   1      30.440  29.135  22.729  1.00  0.00     0.243 S 
ATOM     83  O   UNL A   1      30.118  29.781  23.975  1.00  0.00    -0.207 OA
ATOM     84  O   UNL A   1      31.668  29.425  22.018  1.00  0.00    -0.207 OA
BRANCH  82  85
ATOM     85  N   UNL A   1      29.215  29.426  21.656  1.00  0.00    -0.196 NA
ATOM     86  H   UNL A   1      28.632  28.590  21.684  1.00  0.00     0.142 HD
BRANCH  85  87
ATOM     87  C   UNL A   1      28.272  30.560  21.710  1.00  0.00     0.189 C 
ATOM     88  C   UNL A   1      28.824  31.961  21.910  1.00  0.00     0.224 C 
ATOM     89  C   UNL A   1      27.417  30.383  22.937  1.00  0.00     0.264 C 
ATOM     90  O   UNL A   1      28.037  32.611  22.919  1.00  0.00    -0.271 OA
ATOM     91  N   UNL A   1      27.331  31.585  23.577  1.00  0.00    -0.233 N 
ATOM     92  O   UNL A   1      26.916  29.331  23.315  1.00  0.00    -0.271 OA
ATOM     93  H   UNL A   1      26.826  31.723  24.411  1.00  0.00     0.199 HD
ENDBRANCH  85  87
ENDBRANCH  82  85
ENDBRANCH  79  82
ENDBRANCH  74  77
ENDBRANCH  72  73
ENDBRANCH   1  72
TORSDOF 13
ENDMDL
MODEL 3
REMARK VINA RESULT:     -12.7      0.473      7.318
REMARK SMILES O=C(NCCCNC(=O)c1sccc1S(=O)(=O)N[C@@H]1CONC1=O)c1ccc(-c2c3nc(c(-c4c(F)c(F)c(F)c(F)c4F)c4ccc([nH]4)c(-c4c(F)c(F)c(F)c(F)c4F)c4nc(c(-c5c(F)c(F)c(F)c(F)c5F)c5ccc2[nH]5)C=C4)C=C3)cc1
REMARK SMILES IDX 5 1 4 2 3 3 1 4 2 5 25 7 26 8 87 9 27 10 86 11 28 12 29 13
REMARK SMILES IDX 30 14 80 15 31 16 85 17 79 18 81 19 32 20 84 21 78 22 77 23
REMARK SMILES IDX 33 25 65 26 45 27 64 28 46 29 49 30 63 31 82 32 47 33 48 34
REMARK SMILES IDX 62 36 83 37 50 38 34 39 35 40 43 41 36 42 37 43 41 44 44 45
REMARK SMILES IDX 38 46 39 47 42 48 40 49 66 50 67 51 75 52 68 53 69 54 73 55
REMARK SMILES IDX 76 56 70 57 71 58 74 59 72 60 51 61 52 62 60 63 53 64 54 65
REMARK SMILES IDX 58 66 61 67 55 68 56 69 59 70 57 71 6 72 7 73 8 74 9 76
REMARK SMILES IDX 10 77 11 78 14 79 12 80 13 81 15 82 16 83 17 84 18 85 19 87
REMARK SMILES IDX 20 88 23 89 21 90 22 91 24 92
REMARK H PARENT 3 6 81 24 49 35 7 75 18 86 22 93
REMARK Flexibility Score: inf
ROOT
ATOM      1  C   UNL A   1      31.535  32.063  26.655  1.00  0.00     0.042 C 
ENDROOT
BRANCH   1   2
ATOM      2  C   UNL A   1      32.693  32.789  27.336  1.00  0.00     0.118 C 
BRANCH   2   3
ATOM      3  N   UNL A   1      32.422  34.190  27.644  1.00  0.00    -0.352 N 
ATOM      4  O   UNL A   1      32.491  36.149  28.764  1.00  0.00    -0.269 OA
ATOM      5  C   UNL A   1      32.962  35.029  28.593  1.00  0.00     0.251 C 
ATOM      6  H   UNL A   1      31.736  34.607  27.075  1.00  0.00     0.163 HD
BRANCH   5   7
ATOM      7  C   UNL A   1      34.083  34.566  29.441  1.00  0.00     0.039 A 
ATOM      8  C   UNL A   1      35.390  34.596  28.964  1.00  0.00     0.014 A 
ATOM      9  C   UNL A   1      33.825  34.068  30.721  1.00  0.00     0.014 A 
ATOM     10  C   UNL A   1      36.381  33.895  29.634  1.00  0.00     0.010 A 
ATOM     11  C   UNL A   1      34.860  33.485  31.462  1.00  0.00     0.010 A 
ATOM     12  C   UNL A   1      36.133  33.324  30.893  1.00  0.00    -0.014 A 
BRANCH  12  13
ATOM     13  C   UNL A   1      37.223  32.563  31.565  1.00  0.00     0.031 A 
ATOM     14  C   UNL A   1      37.985  31.485  30.837  1.00  0.00     0.074 A 
ATOM     15  C   UNL A   1      37.582  32.905  32.819  1.00  0.00     0.049 A 
ATOM     16  N   UNL A   1      38.999  30.766  31.255  1.00  0.00    -0.248 NA
ATOM     17  C   UNL A   1      37.552  31.161  29.470  1.00  0.00     0.031 C 
ATOM     18  C   UNL A   1      36.921  33.927  33.634  1.00  0.00     0.029 A 
ATOM     19  N   UNL A   1      38.613  32.468  33.611  1.00  0.00    -0.354 N 
ATOM     20  C   UNL A   1      39.293  29.882  30.223  1.00  0.00     0.074 A 
ATOM     21  C   UNL A   1      38.342  30.141  29.164  1.00  0.00     0.031 C 
ATOM     22  C   UNL A   1      37.611  34.099  34.770  1.00  0.00     0.029 A 
ATOM     23  C   UNL A   1      38.716  33.148  34.800  1.00  0.00     0.049 A 
ATOM     24  H   UNL A   1      39.221  31.738  33.353  1.00  0.00     0.167 HD
ATOM     25  C   UNL A   1      40.269  28.944  30.163  1.00  0.00     0.037 A 
ATOM     26  C   UNL A   1      39.597  33.022  35.808  1.00  0.00     0.037 A 
ATOM     27  C   UNL A   1      41.249  28.721  31.196  1.00  0.00     0.049 A 
ATOM     28  C   UNL A   1      40.682  31.990  35.705  1.00  0.00     0.074 A 
ATOM     29  C   UNL A   1      42.302  27.822  31.209  1.00  0.00     0.029 A 
ATOM     30  N   UNL A   1      41.299  29.412  32.398  1.00  0.00    -0.354 N 
ATOM     31  N   UNL A   1      40.952  31.171  34.718  1.00  0.00    -0.248 NA
ATOM     32  C   UNL A   1      41.579  31.859  36.860  1.00  0.00     0.031 C 
ATOM     33  C   UNL A   1      42.967  27.944  32.433  1.00  0.00     0.029 A 
ATOM     34  C   UNL A   1      42.357  28.948  33.165  1.00  0.00     0.049 A 
ATOM     35  H   UNL A   1      40.677  30.125  32.666  1.00  0.00     0.167 HD
ATOM     36  C   UNL A   1      42.059  30.441  35.123  1.00  0.00     0.074 A 
ATOM     37  C   UNL A   1      42.423  30.928  36.438  1.00  0.00     0.031 C 
ATOM     38  C   UNL A   1      42.712  29.451  34.467  1.00  0.00     0.037 A 
BRANCH  25  39
ATOM     39  C   UNL A   1      40.319  28.065  28.946  1.00  0.00     0.064 A 
ATOM     40  C   UNL A   1      41.073  28.405  27.814  1.00  0.00     0.173 A 
ATOM     41  C   UNL A   1      39.633  26.840  28.932  1.00  0.00     0.173 A 
ATOM     42  F   UNL A   1      41.737  29.569  27.770  1.00  0.00    -0.203 F 
ATOM     43  C   UNL A   1      41.120  27.563  26.703  1.00  0.00     0.198 A 
ATOM     44  C   UNL A   1      39.703  25.988  27.832  1.00  0.00     0.198 A 
ATOM     45  F   UNL A   1      38.903  26.463  29.992  1.00  0.00    -0.203 F 
ATOM     46  F   UNL A   1      41.813  27.929  25.617  1.00  0.00    -0.200 F 
ATOM     47  C   UNL A   1      40.440  26.354  26.716  1.00  0.00     0.200 A 
ATOM     48  F   UNL A   1      39.056  24.815  27.852  1.00  0.00    -0.200 F 
ATOM     49  F   UNL A   1      40.493  25.543  25.651  1.00  0.00    -0.200 F 
ENDBRANCH  25  39
BRANCH  26  50
ATOM     50  C   UNL A   1      39.493  33.909  36.996  1.00  0.00     0.064 A 
ATOM     51  C   UNL A   1      40.090  35.176  37.002  1.00  0.00     0.173 A 
ATOM     52  C   UNL A   1      38.780  33.515  38.138  1.00  0.00     0.173 A 
ATOM     53  F   UNL A   1      40.798  35.589  35.940  1.00  0.00    -0.203 F 
ATOM     54  C   UNL A   1      39.986  36.014  38.110  1.00  0.00     0.198 A 
ATOM     55  C   UNL A   1      38.651  34.365  39.233  1.00  0.00     0.198 A 
ATOM     56  F   UNL A   1      38.186  32.313  38.178  1.00  0.00    -0.203 F 
ATOM     57  F   UNL A   1      40.596  37.206  38.106  1.00  0.00    -0.200 F 
ATOM     58  C   UNL A   1      39.260  35.610  39.222  1.00  0.00     0.200 A 
ATOM     59  F   UNL A   1      37.934  33.978  40.297  1.00  0.00    -0.200 F 
ATOM     60  F   UNL A   1      39.150  36.421  40.283  1.00  0.00    -0.200 F 
ENDBRANCH  26  50
BRANCH  38  61
ATOM     61  C   UNL A   1      43.910  28.859  35.147  1.00  0.00     0.064 A 
ATOM     62  C   UNL A   1      43.790  27.790  36.048  1.00  0.00     0.173 A 
ATOM     63  C   UNL A   1      45.193  29.358  34.884  1.00  0.00     0.173 A 
ATOM     64  F   UNL A   1      42.581  27.290  36.345  1.00  0.00    -0.203 F 
ATOM     65  C   UNL A   1      44.911  27.262  36.682  1.00  0.00     0.198 A 
ATOM     66  C   UNL A   1      46.315  28.810  35.500  1.00  0.00     0.198 A 
ATOM     67  F   UNL A   1      45.360  30.377  34.026  1.00  0.00    -0.203 F 
ATOM     68  F   UNL A   1      44.768  26.274  37.578  1.00  0.00    -0.200 F 
ATOM     69  C   UNL A   1      46.172  27.769  36.404  1.00  0.00     0.200 A 
ATOM     70  F   UNL A   1      47.533  29.295  35.223  1.00  0.00    -0.200 F 
ATOM     71  F   UNL A   1      47.250  27.260  37.016  1.00  0.00    -0.200 F 
ENDBRANCH  38  61
ENDBRANCH  12  13
ENDBRANCH   5   7
ENDBRANCH   2   3
ENDBRANCH   1   2
BRANCH   1  72
ATOM     72  C   UNL A   1      31.748  30.565  26.505  1.00  0.00     0.118 C 
BRANCH  72  73
ATOM     73  N   UNL A   1      32.503  30.231  25.311  1.00  0.00    -0.351 N 
ATOM     74  C   UNL A   1      32.594  29.067  24.603  1.00  0.00     0.262 C 
ATOM     75  H   UNL A   1      33.044  30.971  24.950  1.00  0.00     0.163 HD
ATOM     76  O   UNL A   1      33.377  29.047  23.653  1.00  0.00    -0.268 OA
BRANCH  74  77
ATOM     77  C   UNL A   1      31.784  27.931  24.964  1.00  0.00     0.112 A 
ATOM     78  S   UNL A   1      32.412  26.905  26.192  1.00  0.00    -0.137 S 
ATOM     79  C   UNL A   1      30.608  27.429  24.439  1.00  0.00     0.106 A 
ATOM     80  C   UNL A   1      31.103  25.821  26.059  1.00  0.00     0.067 A 
ATOM     81  C   UNL A   1      30.208  26.217  25.093  1.00  0.00     0.034 A 
BRANCH  79  82
ATOM     82  S   UNL A   1      29.653  28.112  23.164  1.00  0.00     0.243 S 
ATOM     83  O   UNL A   1      30.411  27.885  21.961  1.00  0.00    -0.207 OA
ATOM     84  O   UNL A   1      28.360  27.494  23.377  1.00  0.00    -0.207 OA
BRANCH  82  85
ATOM     85  N   UNL A   1      29.410  29.740  23.331  1.00  0.00    -0.196 NA
ATOM     86  H   UNL A   1      30.265  30.174  22.985  1.00  0.00     0.142 HD
BRANCH  85  87
ATOM     87  C   UNL A   1      28.308  30.515  22.727  1.00  0.00     0.189 C 
ATOM     88  C   UNL A   1      28.040  30.364  21.239  1.00  0.00     0.224 C 
ATOM     89  C   UNL A   1      28.666  31.973  22.833  1.00  0.00     0.264 C 
ATOM     90  O   UNL A   1      27.877  31.676  20.680  1.00  0.00    -0.271 OA
ATOM     91  N   UNL A   1      28.400  32.569  21.635  1.00  0.00    -0.233 N 
ATOM     92  O   UNL A   1      29.149  32.522  23.817  1.00  0.00    -0.271 OA
ATOM     93  H   UNL A   1      28.556  33.525  21.455  1.00  0.00     0.199 HD
ENDBRANCH  85  87
ENDBRANCH  82  85
ENDBRANCH  79  82
ENDBRANCH  74  77
ENDBRANCH  72  73
ENDBRANCH   1  72
TORSDOF 13
ENDMDL
