MODEL 1
REMARK VINA RESULT:     -15.1      0.000      0.000
REMARK SMILES Cc1ccccc1NC(=S)NN1C(=O)CS[C@H]1c1ccccc1C(=O)NCCCNC(=O)c1ccc(-c2c3nc(c(-c4c(F)c(F)c(F)c(F)c4F)c4ccc([nH]4)c(-c4c(F)c(F)c(F)c(F)c4F)c4nc(c(-c5c(F)c(F)c(F)c(F)c5F)c5ccc2[nH]5)C=C4)C=C3)cc1
REMARK SMILES IDX 24 1 25 2 26 3 23 5 18 6 19 7 20 8 22 9 21 10 17 11 12 12
REMARK SMILES IDX 13 13 14 14 15 15 16 16 11 17 9 19 10 20 8 21 7 23 1 24 2 25
REMARK SMILES IDX 3 26 4 27 6 28 5 29 27 30 28 31 29 32 30 33 31 34 32 36
REMARK SMILES IDX 33 37 34 38 95 39 35 40 94 41 36 42 37 43 38 44 88 45 39 46
REMARK SMILES IDX 93 47 87 48 89 49 40 50 92 51 86 52 85 53 41 55 73 56 53 57
REMARK SMILES IDX 72 58 54 59 57 60 71 61 90 62 55 63 56 64 70 66 91 67 58 68
REMARK SMILES IDX 42 69 43 70 51 71 44 72 45 73 49 74 52 75 46 76 47 77 50 78
REMARK SMILES IDX 48 79 74 80 75 81 83 82 76 83 77 84 81 85 84 86 78 87 79 88
REMARK SMILES IDX 82 89 80 90 59 91 60 92 68 93 61 94 62 95 66 96 69 97 63 98
REMARK SMILES IDX 64 99 67 100 65 101
REMARK H PARENT 26 4 11 18 8 22 30 35 89 54 57 65
REMARK Flexibility Score: inf
ROOT
ATOM      1  C   UNL A   1      33.594  28.705  24.263  1.00  0.00     0.251 C 
ATOM      2  O   UNL A   1      34.481  28.366  23.473  1.00  0.00    -0.269 OA
ATOM      3  N   UNL A   1      34.051  29.626  25.523  1.00  0.00    -0.352 N 
ATOM      4  H   UNL A   1      34.955  30.011  25.471  1.00  0.00     0.163 HD
ENDROOT
BRANCH   1   5
ATOM      5  C   UNL A   1      31.947  28.154  23.932  1.00  0.00     0.046 A 
ATOM      6  C   UNL A   1      31.070  27.303  24.840  1.00  0.00    -0.001 A 
ATOM      7  C   UNL A   1      29.716  27.086  24.570  1.00  0.00     0.007 A 
ATOM      8  C   UNL A   1      29.164  27.640  23.422  1.00  0.00     0.000 A 
ATOM      9  C   UNL A   1      31.330  28.640  22.772  1.00  0.00     0.014 A 
ATOM     10  C   UNL A   1      29.959  28.379  22.529  1.00  0.00     0.001 A 
BRANCH   6  11
ATOM     11  C   UNL A   1      31.750  26.478  25.929  1.00  0.00     0.197 C 
ATOM     12  N   UNL A   1      31.017  25.267  25.577  1.00  0.00    -0.236 N 
ATOM     13  C   UNL A   1      30.873  23.670  26.620  1.00  0.00     0.252 C 
ATOM     14  O   UNL A   1      29.915  22.940  26.801  1.00  0.00    -0.272 OA
ATOM     15  C   UNL A   1      33.017  23.446  26.912  1.00  0.00     0.174 C 
ATOM     16  S   UNL A   1      33.741  25.578  26.057  1.00  0.00    -0.120 SA
BRANCH  12  17
ATOM     17  N   UNL A   1      31.882  25.146  23.832  1.00  0.00    -0.270 N 
ATOM     18  H   UNL A   1      31.763  25.974  23.311  1.00  0.00     0.191 HD
BRANCH  17  19
ATOM     19  C   UNL A   1      32.695  24.107  23.063  1.00  0.00     0.189 C 
ATOM     20  S   UNL A   1      32.821  24.382  21.403  1.00  0.00    -0.039 S 
BRANCH  19  21
ATOM     21  N   UNL A   1      33.131  22.839  23.577  1.00  0.00    -0.331 N 
ATOM     22  H   UNL A   1      32.385  22.245  23.821  1.00  0.00     0.169 HD
BRANCH  21  23
ATOM     23  C   UNL A   1      34.479  22.225  23.823  1.00  0.00     0.043 A 
ATOM     24  C   UNL A   1      34.638  19.730  24.686  1.00  0.00     0.046 C 
ATOM     25  C   UNL A   1      34.733  21.260  24.868  1.00  0.00    -0.028 A 
ATOM     26  C   UNL A   1      35.795  21.445  25.781  1.00  0.00     0.005 A 
ATOM     27  C   UNL A   1      36.865  22.209  25.371  1.00  0.00     0.000 A 
ATOM     28  C   UNL A   1      35.605  22.890  23.372  1.00  0.00     0.026 A 
ATOM     29  C   UNL A   1      36.796  22.855  24.130  1.00  0.00     0.002 A 
ENDBRANCH  21  23
ENDBRANCH  19  21
ENDBRANCH  17  19
ENDBRANCH  12  17
ENDBRANCH   6  11
ENDBRANCH   1   5
BRANCH   3  30
ATOM     30  C   UNL A   1      33.028  30.056  27.114  1.00  0.00     0.118 C 
BRANCH  30  31
ATOM     31  C   UNL A   1      33.975  31.653  28.383  1.00  0.00     0.042 C 
BRANCH  31  32
ATOM     32  C   UNL A   1      35.772  32.046  27.856  1.00  0.00     0.118 C 
BRANCH  32  33
ATOM     33  N   UNL A   1      36.772  30.974  28.231  1.00  0.00    -0.352 N 
ATOM     34  C   UNL A   1      37.043  29.652  27.949  1.00  0.00     0.251 C 
ATOM     35  H   UNL A   1      37.430  31.329  28.871  1.00  0.00     0.163 HD
ATOM     36  O   UNL A   1      36.257  28.740  27.804  1.00  0.00    -0.269 OA
BRANCH  34  37
ATOM     37  C   UNL A   1      38.551  29.526  27.895  1.00  0.00     0.039 A 
ATOM     38  C   UNL A   1      39.351  29.426  26.758  1.00  0.00     0.014 A 
ATOM     39  C   UNL A   1      39.076  29.162  29.144  1.00  0.00     0.014 A 
ATOM     40  C   UNL A   1      40.623  28.842  26.899  1.00  0.00     0.010 A 
ATOM     41  C   UNL A   1      40.163  28.336  29.214  1.00  0.00     0.010 A 
ATOM     42  C   UNL A   1      40.966  28.186  28.094  1.00  0.00    -0.014 A 
BRANCH  42  43
ATOM     43  C   UNL A   1      42.295  27.715  28.471  1.00  0.00     0.031 A 
ATOM     44  C   UNL A   1      43.257  28.834  28.654  1.00  0.00     0.074 A 
ATOM     45  C   UNL A   1      42.547  26.433  28.844  1.00  0.00     0.049 A 
ATOM     46  N   UNL A   1      44.498  28.789  28.313  1.00  0.00    -0.248 NA
ATOM     47  C   UNL A   1      42.838  30.186  29.071  1.00  0.00     0.031 C 
ATOM     48  C   UNL A   1      43.612  25.947  29.715  1.00  0.00     0.029 A 
ATOM     49  N   UNL A   1      41.890  25.242  28.472  1.00  0.00    -0.354 N 
ATOM     50  C   UNL A   1      45.073  29.930  28.847  1.00  0.00     0.074 A 
ATOM     51  C   UNL A   1      43.993  30.852  29.043  1.00  0.00     0.031 C 
ATOM     52  C   UNL A   1      43.710  24.607  29.596  1.00  0.00     0.029 A 
ATOM     53  C   UNL A   1      42.842  24.187  28.506  1.00  0.00     0.049 A 
ATOM     54  H   UNL A   1      40.939  25.156  28.232  1.00  0.00     0.167 HD
ATOM     55  C   UNL A   1      46.332  29.848  29.362  1.00  0.00     0.037 A 
ATOM     56  C   UNL A   1      43.251  23.430  27.424  1.00  0.00     0.037 A 
ATOM     57  C   UNL A   1      46.812  28.479  29.223  1.00  0.00     0.049 A 
ATOM     58  C   UNL A   1      44.701  23.540  27.111  1.00  0.00     0.074 A 
ATOM     59  C   UNL A   1      46.776  27.423  30.117  1.00  0.00     0.029 A 
ATOM     60  N   UNL A   1      47.029  27.939  27.966  1.00  0.00    -0.354 N 
ATOM     61  N   UNL A   1      45.449  24.465  27.611  1.00  0.00    -0.248 NA
ATOM     62  C   UNL A   1      45.306  22.816  25.998  1.00  0.00     0.031 C 
ATOM     63  C   UNL A   1      46.959  26.233  29.382  1.00  0.00     0.029 A 
ATOM     64  C   UNL A   1      47.100  26.561  28.043  1.00  0.00     0.049 A 
ATOM     65  H   UNL A   1      47.119  28.462  27.137  1.00  0.00     0.167 HD
ATOM     66  C   UNL A   1      46.499  24.640  26.764  1.00  0.00     0.074 A 
ATOM     67  C   UNL A   1      46.425  23.532  25.832  1.00  0.00     0.031 C 
ATOM     68  C   UNL A   1      47.264  25.761  26.841  1.00  0.00     0.037 A 
BRANCH  55  69
ATOM     69  C   UNL A   1      46.973  30.825  30.329  1.00  0.00     0.064 A 
ATOM     70  C   UNL A   1      46.643  30.758  31.705  1.00  0.00     0.173 A 
ATOM     71  C   UNL A   1      47.879  31.849  29.998  1.00  0.00     0.173 A 
ATOM     72  F   UNL A   1      45.874  29.779  32.199  1.00  0.00    -0.203 F 
ATOM     73  C   UNL A   1      47.100  31.686  32.640  1.00  0.00     0.198 A 
ATOM     74  C   UNL A   1      48.321  32.794  30.933  1.00  0.00     0.198 A 
ATOM     75  F   UNL A   1      48.420  31.949  28.781  1.00  0.00    -0.203 F 
ATOM     76  F   UNL A   1      46.730  31.568  33.924  1.00  0.00    -0.200 F 
ATOM     77  C   UNL A   1      47.924  32.717  32.253  1.00  0.00     0.200 A 
ATOM     78  F   UNL A   1      49.146  33.777  30.544  1.00  0.00    -0.200 F 
ATOM     79  F   UNL A   1      48.360  33.612  33.149  1.00  0.00    -0.200 F 
ENDBRANCH  55  69
BRANCH  56  80
ATOM     80  C   UNL A   1      42.395  23.253  26.187  1.00  0.00     0.064 A 
ATOM     81  C   UNL A   1      41.621  22.114  26.225  1.00  0.00     0.173 A 
ATOM     82  C   UNL A   1      41.763  24.442  25.814  1.00  0.00     0.173 A 
ATOM     83  F   UNL A   1      42.160  20.898  26.086  1.00  0.00    -0.203 F 
ATOM     84  C   UNL A   1      40.346  22.270  26.684  1.00  0.00     0.198 A 
ATOM     85  C   UNL A   1      40.480  24.625  26.253  1.00  0.00     0.198 A 
ATOM     86  F   UNL A   1      42.463  25.477  25.333  1.00  0.00    -0.203 F 
ATOM     87  F   UNL A   1      39.635  21.193  27.003  1.00  0.00    -0.200 F 
ATOM     88  C   UNL A   1      39.856  23.557  26.875  1.00  0.00     0.200 A 
ATOM     89  F   UNL A   1      39.906  25.827  26.178  1.00  0.00    -0.200 F 
ATOM     90  F   UNL A   1      38.839  23.771  27.719  1.00  0.00    -0.200 F 
ENDBRANCH  56  80
BRANCH  68  91
ATOM     91  C   UNL A   1      48.312  26.067  25.830  1.00  0.00     0.064 A 
ATOM     92  C   UNL A   1      49.673  25.771  26.002  1.00  0.00     0.173 A 
ATOM     93  C   UNL A   1      47.955  26.720  24.639  1.00  0.00     0.173 A 
ATOM     94  F   UNL A   1      50.093  24.956  26.981  1.00  0.00    -0.203 F 
ATOM     95  C   UNL A   1      50.636  26.319  25.163  1.00  0.00     0.198 A 
ATOM     96  C   UNL A   1      48.914  27.184  23.752  1.00  0.00     0.198 A 
ATOM     97  F   UNL A   1      46.672  26.936  24.314  1.00  0.00    -0.203 F 
ATOM     98  F   UNL A   1      51.934  26.162  25.455  1.00  0.00    -0.200 F 
ATOM     99  C   UNL A   1      50.255  27.041  24.049  1.00  0.00     0.200 A 
ATOM    100  F   UNL A   1      48.529  27.796  22.625  1.00  0.00    -0.200 F 
ATOM    101  F   UNL A   1      51.180  27.594  23.254  1.00  0.00    -0.200 F 
ENDBRANCH  68  91
ENDBRANCH  42  43
ENDBRANCH  34  37
ENDBRANCH  32  33
ENDBRANCH  31  32
ENDBRANCH  30  31
ENDBRANCH   3  30
TORSDOF 15
ENDMDL
MODEL 2
REMARK VINA RESULT:     -15.0      5.599     11.670
REMARK SMILES Cc1ccccc1NC(=S)NN1C(=O)CS[C@H]1c1ccccc1C(=O)NCCCNC(=O)c1ccc(-c2c3nc(c(-c4c(F)c(F)c(F)c(F)c4F)c4ccc([nH]4)c(-c4c(F)c(F)c(F)c(F)c4F)c4nc(c(-c5c(F)c(F)c(F)c(F)c5F)c5ccc2[nH]5)C=C4)C=C3)cc1
REMARK SMILES IDX 24 1 25 2 26 3 23 5 18 6 19 7 20 8 22 9 21 10 17 11 12 12
REMARK SMILES IDX 13 13 14 14 15 15 16 16 11 17 9 19 10 20 8 21 7 23 1 24 2 25
REMARK SMILES IDX 3 26 4 27 6 28 5 29 27 30 28 31 29 32 30 33 31 34 32 36
REMARK SMILES IDX 33 37 34 38 95 39 35 40 94 41 36 42 37 43 38 44 88 45 39 46
REMARK SMILES IDX 93 47 87 48 89 49 40 50 92 51 86 52 85 53 41 55 73 56 53 57
REMARK SMILES IDX 72 58 54 59 57 60 71 61 90 62 55 63 56 64 70 66 91 67 58 68
REMARK SMILES IDX 42 69 43 70 51 71 44 72 45 73 49 74 52 75 46 76 47 77 50 78
REMARK SMILES IDX 48 79 74 80 75 81 83 82 76 83 77 84 81 85 84 86 78 87 79 88
REMARK SMILES IDX 82 89 80 90 59 91 60 92 68 93 61 94 62 95 66 96 69 97 63 98
REMARK SMILES IDX 64 99 67 100 65 101
REMARK H PARENT 26 4 11 18 8 22 30 35 89 54 57 65
REMARK Flexibility Score: inf
ROOT
ATOM      1  C   UNL A   1      44.024  29.347  27.633  1.00  0.00     0.251 C 
ATOM      2  O   UNL A   1      44.614  30.273  28.199  1.00  0.00    -0.269 OA
ATOM      3  N   UNL A   1      43.217  29.719  26.271  1.00  0.00    -0.352 N 
ATOM      4  H   UNL A   1      43.407  30.604  25.884  1.00  0.00     0.163 HD
ENDROOT
BRANCH   1   5
ATOM      5  C   UNL A   1      44.127  27.740  28.364  1.00  0.00     0.046 A 
ATOM      6  C   UNL A   1      45.367  26.864  28.468  1.00  0.00    -0.001 A 
ATOM      7  C   UNL A   1      45.386  25.696  29.235  1.00  0.00     0.007 A 
ATOM      8  C   UNL A   1      44.227  25.310  29.897  1.00  0.00     0.000 A 
ATOM      9  C   UNL A   1      42.988  27.262  29.022  1.00  0.00     0.014 A 
ATOM     10  C   UNL A   1      43.047  26.063  29.773  1.00  0.00     0.001 A 
BRANCH   6  11
ATOM     11  C   UNL A   1      46.529  27.144  27.518  1.00  0.00     0.197 C 
ATOM     12  N   UNL A   1      47.035  25.780  27.610  1.00  0.00    -0.236 N 
ATOM     13  C   UNL A   1      48.750  25.153  27.041  1.00  0.00     0.252 C 
ATOM     14  O   UNL A   1      49.502  24.352  27.567  1.00  0.00    -0.272 OA
ATOM     15  C   UNL A   1      48.599  25.990  25.039  1.00  0.00     0.174 C 
ATOM     16  S   UNL A   1      46.625  27.338  25.340  1.00  0.00    -0.120 SA
BRANCH  12  17
ATOM     17  N   UNL A   1      45.455  25.041  26.736  1.00  0.00    -0.270 N 
ATOM     18  H   UNL A   1      44.767  25.731  26.587  1.00  0.00     0.191 HD
BRANCH  17  19
ATOM     19  C   UNL A   1      45.003  23.676  26.221  1.00  0.00     0.189 C 
ATOM     20  S   UNL A   1      44.727  23.593  24.558  1.00  0.00    -0.039 S 
BRANCH  19  21
ATOM     21  N   UNL A   1      44.576  22.574  27.036  1.00  0.00    -0.331 N 
ATOM     22  H   UNL A   1      45.312  22.162  27.544  1.00  0.00     0.169 HD
BRANCH  21  23
ATOM     23  C   UNL A   1      43.248  21.916  27.283  1.00  0.00     0.043 A 
ATOM     24  C   UNL A   1      42.598  19.743  25.923  1.00  0.00     0.046 C 
ATOM     25  C   UNL A   1      42.491  21.248  26.251  1.00  0.00    -0.028 A 
ATOM     26  C   UNL A   1      41.131  21.563  26.033  1.00  0.00     0.005 A 
ATOM     27  C   UNL A   1      40.416  22.076  27.092  1.00  0.00     0.000 A 
ATOM     28  C   UNL A   1      42.500  22.318  28.375  1.00  0.00     0.026 A 
ATOM     29  C   UNL A   1      41.092  22.368  28.283  1.00  0.00     0.002 A 
ENDBRANCH  21  23
ENDBRANCH  19  21
ENDBRANCH  17  19
ENDBRANCH  12  17
ENDBRANCH   6  11
ENDBRANCH   1   5
BRANCH   3  30
ATOM     30  C   UNL A   1      41.925  28.629  25.319  1.00  0.00     0.118 C 
BRANCH  30  31
ATOM     31  C   UNL A   1      42.473  26.449  25.246  1.00  0.00     0.042 C 
BRANCH  31  32
ATOM     32  C   UNL A   1      41.181  25.334  26.110  1.00  0.00     0.118 C 
BRANCH  32  33
ATOM     33  N   UNL A   1      40.133  26.097  26.891  1.00  0.00    -0.352 N 
ATOM     34  C   UNL A   1      39.495  26.043  28.113  1.00  0.00     0.251 C 
ATOM     35  H   UNL A   1      39.809  26.865  26.369  1.00  0.00     0.163 HD
ATOM     36  O   UNL A   1      39.095  25.065  28.708  1.00  0.00    -0.269 OA
BRANCH  34  37
ATOM     37  C   UNL A   1      39.332  27.476  28.574  1.00  0.00     0.039 A 
ATOM     38  C   UNL A   1      39.479  28.632  27.809  1.00  0.00     0.014 A 
ATOM     39  C   UNL A   1      39.354  27.566  29.973  1.00  0.00     0.014 A 
ATOM     40  C   UNL A   1      39.768  29.833  28.482  1.00  0.00     0.010 A 
ATOM     41  C   UNL A   1      39.926  28.650  30.580  1.00  0.00     0.010 A 
ATOM     42  C   UNL A   1      40.118  29.809  29.843  1.00  0.00    -0.014 A 
BRANCH  42  43
ATOM     43  C   UNL A   1      40.244  30.965  30.724  1.00  0.00     0.031 A 
ATOM     44  C   UNL A   1      41.367  30.817  31.688  1.00  0.00     0.074 A 
ATOM     45  C   UNL A   1      39.571  32.127  30.521  1.00  0.00     0.049 A 
ATOM     46  N   UNL A   1      41.334  31.222  32.910  1.00  0.00    -0.248 NA
ATOM     47  C   UNL A   1      42.569  30.014  31.395  1.00  0.00     0.031 C 
ATOM     48  C   UNL A   1      39.955  33.470  30.942  1.00  0.00     0.029 A 
ATOM     49  N   UNL A   1      38.327  32.349  29.894  1.00  0.00    -0.354 N 
ATOM     50  C   UNL A   1      42.629  31.093  33.382  1.00  0.00     0.074 A 
ATOM     51  C   UNL A   1      43.252  30.116  32.536  1.00  0.00     0.031 C 
ATOM     52  C   UNL A   1      38.896  34.296  30.822  1.00  0.00     0.029 A 
ATOM     53  C   UNL A   1      37.729  33.489  30.496  1.00  0.00     0.049 A 
ATOM     54  H   UNL A   1      37.941  31.809  29.167  1.00  0.00     0.167 HD
ATOM     55  C   UNL A   1      43.122  32.052  34.215  1.00  0.00     0.037 A 
ATOM     56  C   UNL A   1      36.543  33.503  31.205  1.00  0.00     0.037 A 
ATOM     57  C   UNL A   1      42.096  33.065  34.428  1.00  0.00     0.049 A 
ATOM     58  C   UNL A   1      36.680  33.924  32.625  1.00  0.00     0.074 A 
ATOM     59  C   UNL A   1      41.874  34.266  33.777  1.00  0.00     0.029 A 
ATOM     60  N   UNL A   1      40.924  32.743  35.094  1.00  0.00    -0.354 N 
ATOM     61  N   UNL A   1      37.824  33.994  33.219  1.00  0.00    -0.248 NA
ATOM     62  C   UNL A   1      35.534  33.991  33.523  1.00  0.00     0.031 C 
ATOM     63  C   UNL A   1      40.547  34.661  34.046  1.00  0.00     0.029 A 
ATOM     64  C   UNL A   1      39.958  33.700  34.852  1.00  0.00     0.049 A 
ATOM     65  H   UNL A   1      40.798  31.946  35.658  1.00  0.00     0.167 HD
ATOM     66  C   UNL A   1      37.597  33.859  34.553  1.00  0.00     0.074 A 
ATOM     67  C   UNL A   1      36.159  33.961  34.707  1.00  0.00     0.031 C 
ATOM     68  C   UNL A   1      38.619  33.553  35.397  1.00  0.00     0.037 A 
BRANCH  55  69
ATOM     69  C   UNL A   1      44.584  32.323  34.509  1.00  0.00     0.064 A 
ATOM     70  C   UNL A   1      45.091  32.072  35.807  1.00  0.00     0.173 A 
ATOM     71  C   UNL A   1      45.531  32.841  33.606  1.00  0.00     0.173 A 
ATOM     72  F   UNL A   1      44.346  31.486  36.753  1.00  0.00    -0.203 F 
ATOM     73  C   UNL A   1      46.392  32.397  36.189  1.00  0.00     0.198 A 
ATOM     74  C   UNL A   1      46.831  33.187  33.996  1.00  0.00     0.198 A 
ATOM     75  F   UNL A   1      45.265  32.979  32.304  1.00  0.00    -0.203 F 
ATOM     76  F   UNL A   1      46.795  32.145  37.443  1.00  0.00    -0.200 F 
ATOM     77  C   UNL A   1      47.259  32.973  35.290  1.00  0.00     0.200 A 
ATOM     78  F   UNL A   1      47.672  33.723  33.099  1.00  0.00    -0.200 F 
ATOM     79  F   UNL A   1      48.507  33.291  35.657  1.00  0.00    -0.200 F 
ENDBRANCH  55  69
BRANCH  56  80
ATOM     80  C   UNL A   1      35.465  32.457  31.005  1.00  0.00     0.064 A 
ATOM     81  C   UNL A   1      34.668  32.707  29.910  1.00  0.00     0.173 A 
ATOM     82  C   UNL A   1      35.963  31.160  31.150  1.00  0.00     0.173 A 
ATOM     83  F   UNL A   1      33.772  33.700  29.909  1.00  0.00    -0.203 F 
ATOM     84  C   UNL A   1      35.027  32.083  28.751  1.00  0.00     0.198 A 
ATOM     85  C   UNL A   1      36.327  30.504  30.004  1.00  0.00     0.198 A 
ATOM     86  F   UNL A   1      36.363  30.700  32.342  1.00  0.00    -0.203 F 
ATOM     87  F   UNL A   1      34.481  32.479  27.605  1.00  0.00    -0.200 F 
ATOM     88  C   UNL A   1      36.013  31.104  28.796  1.00  0.00     0.200 A 
ATOM     89  F   UNL A   1      37.055  29.389  30.067  1.00  0.00    -0.200 F 
ATOM     90  F   UNL A   1      36.709  30.799  27.693  1.00  0.00    -0.200 F 
ENDBRANCH  56  80
BRANCH  68  91
ATOM     91  C   UNL A   1      38.383  33.234  36.831  1.00  0.00     0.064 A 
ATOM     92  C   UNL A   1      37.887  32.003  37.286  1.00  0.00     0.173 A 
ATOM     93  C   UNL A   1      38.630  34.214  37.807  1.00  0.00     0.173 A 
ATOM     94  F   UNL A   1      37.832  30.931  36.481  1.00  0.00    -0.203 F 
ATOM     95  C   UNL A   1      37.429  31.853  38.589  1.00  0.00     0.198 A 
ATOM     96  C   UNL A   1      38.259  34.027  39.129  1.00  0.00     0.198 A 
ATOM     97  F   UNL A   1      39.222  35.377  37.501  1.00  0.00    -0.203 F 
ATOM     98  F   UNL A   1      36.801  30.725  38.945  1.00  0.00    -0.200 F 
ATOM     99  C   UNL A   1      37.598  32.874  39.505  1.00  0.00     0.200 A 
ATOM    100  F   UNL A   1      38.519  34.985  40.029  1.00  0.00    -0.200 F 
ATOM    101  F   UNL A   1      37.133  32.744  40.753  1.00  0.00    -0.200 F 
ENDBRANCH  68  91
ENDBRANCH  42  43
ENDBRANCH  34  37
ENDBRANCH  32  33
ENDBRANCH  31  32
ENDBRANCH  30  31
ENDBRANCH   3  30
TORSDOF 15
ENDMDL
MODEL 3
REMARK VINA RESULT:     -14.7      3.976      8.124
REMARK SMILES Cc1ccccc1NC(=S)NN1C(=O)CS[C@H]1c1ccccc1C(=O)NCCCNC(=O)c1ccc(-c2c3nc(c(-c4c(F)c(F)c(F)c(F)c4F)c4ccc([nH]4)c(-c4c(F)c(F)c(F)c(F)c4F)c4nc(c(-c5c(F)c(F)c(F)c(F)c5F)c5ccc2[nH]5)C=C4)C=C3)cc1
REMARK SMILES IDX 24 1 25 2 26 3 23 5 18 6 19 7 20 8 22 9 21 10 17 11 12 12
REMARK SMILES IDX 13 13 14 14 15 15 16 16 11 17 9 19 10 20 8 21 7 23 1 24 2 25
REMARK SMILES IDX 3 26 4 27 6 28 5 29 27 30 28 31 29 32 30 33 31 34 32 36
REMARK SMILES IDX 33 37 34 38 95 39 35 40 94 41 36 42 37 43 38 44 88 45 39 46
REMARK SMILES IDX 93 47 87 48 89 49 40 50 92 51 86 52 85 53 41 55 73 56 53 57
REMARK SMILES IDX 72 58 54 59 57 60 71 61 90 62 55 63 56 64 70 66 91 67 58 68
REMARK SMILES IDX 42 69 43 70 51 71 44 72 45 73 49 74 52 75 46 76 47 77 50 78
REMARK SMILES IDX 48 79 74 80 75 81 83 82 76 83 77 84 81 85 84 86 78 87 79 88
REMARK SMILES IDX 82 89 80 90 59 91 60 92 68 93 61 94 62 95 66 96 69 97 63 98
REMARK SMILES IDX 64 99 67 100 65 101
REMARK H PARENT 26 4 11 18 8 22 30 35 89 54 57 65
REMARK Flexibility Score: inf
ROOT
ATOM      1  C   UNL A   1      33.569  27.946  23.910  1.00  0.00     0.251 C 
ATOM      2  O   UNL A   1      34.302  27.510  23.017  1.00  0.00    -0.269 OA
ATOM      3  N   UNL A   1      34.282  28.833  25.071  1.00  0.00    -0.352 N 
ATOM      4  H   UNL A   1      35.204  29.125  24.888  1.00  0.00     0.163 HD
ENDROOT
BRANCH   1   5
ATOM      5  C   UNL A   1      31.846  27.559  23.820  1.00  0.00     0.046 A 
ATOM      6  C   UNL A   1      31.020  26.827  24.869  1.00  0.00    -0.001 A 
ATOM      7  C   UNL A   1      29.627  26.744  24.787  1.00  0.00     0.007 A 
ATOM      8  C   UNL A   1      28.983  27.320  23.700  1.00  0.00     0.000 A 
ATOM      9  C   UNL A   1      31.129  28.075  22.733  1.00  0.00     0.014 A 
ATOM     10  C   UNL A   1      29.720  27.950  22.682  1.00  0.00     0.001 A 
BRANCH   6  11
ATOM     11  C   UNL A   1      31.755  25.965  25.892  1.00  0.00     0.197 C 
ATOM     12  N   UNL A   1      30.817  24.858  25.747  1.00  0.00    -0.236 N 
ATOM     13  C   UNL A   1      30.637  23.349  26.909  1.00  0.00     0.252 C 
ATOM     14  O   UNL A   1      29.634  22.775  27.292  1.00  0.00    -0.272 OA
ATOM     15  C   UNL A   1      32.750  22.833  26.872  1.00  0.00     0.174 C 
ATOM     16  S   UNL A   1      33.600  24.795  25.763  1.00  0.00    -0.120 SA
BRANCH  12  17
ATOM     17  N   UNL A   1      31.354  24.530  23.900  1.00  0.00    -0.270 N 
ATOM     18  H   UNL A   1      31.028  25.237  23.296  1.00  0.00     0.191 HD
BRANCH  17  19
ATOM     19  C   UNL A   1      32.147  23.466  23.143  1.00  0.00     0.189 C 
ATOM     20  S   UNL A   1      33.198  24.061  21.964  1.00  0.00    -0.039 S 
BRANCH  19  21
ATOM     21  N   UNL A   1      31.898  22.053  23.182  1.00  0.00    -0.331 N 
ATOM     22  H   UNL A   1      30.961  21.821  22.988  1.00  0.00     0.169 HD
BRANCH  21  23
ATOM     23  C   UNL A   1      32.759  20.852  23.455  1.00  0.00     0.043 A 
ATOM     24  C   UNL A   1      32.213  18.557  22.259  1.00  0.00     0.046 C 
ATOM     25  C   UNL A   1      32.249  19.501  23.481  1.00  0.00    -0.028 A 
ATOM     26  C   UNL A   1      32.508  18.651  24.579  1.00  0.00     0.005 A 
ATOM     27  C   UNL A   1      33.635  18.903  25.330  1.00  0.00     0.000 A 
ATOM     28  C   UNL A   1      33.949  21.029  24.136  1.00  0.00     0.026 A 
ATOM     29  C   UNL A   1      34.394  20.044  25.045  1.00  0.00     0.002 A 
ENDBRANCH  21  23
ENDBRANCH  19  21
ENDBRANCH  17  19
ENDBRANCH  12  17
ENDBRANCH   6  11
ENDBRANCH   1   5
BRANCH   3  30
ATOM     30  C   UNL A   1      33.534  29.386  26.774  1.00  0.00     0.118 C 
BRANCH  30  31
ATOM     31  C   UNL A   1      31.949  30.970  26.585  1.00  0.00     0.042 C 
BRANCH  31  32
ATOM     32  C   UNL A   1      32.380  32.565  27.549  1.00  0.00     0.118 C 
BRANCH  32  33
ATOM     33  N   UNL A   1      33.846  32.693  27.903  1.00  0.00    -0.352 N 
ATOM     34  C   UNL A   1      34.635  33.147  28.939  1.00  0.00     0.251 C 
ATOM     35  H   UNL A   1      34.406  32.347  27.173  1.00  0.00     0.163 HD
ATOM     36  O   UNL A   1      34.476  34.133  29.626  1.00  0.00    -0.269 OA
BRANCH  34  37
ATOM     37  C   UNL A   1      35.802  32.187  29.040  1.00  0.00     0.039 A 
ATOM     38  C   UNL A   1      35.814  30.932  29.645  1.00  0.00     0.014 A 
ATOM     39  C   UNL A   1      37.016  32.831  28.760  1.00  0.00     0.014 A 
ATOM     40  C   UNL A   1      37.055  30.416  30.063  1.00  0.00     0.010 A 
ATOM     41  C   UNL A   1      38.152  32.471  29.429  1.00  0.00     0.010 A 
ATOM     42  C   UNL A   1      38.192  31.242  30.071  1.00  0.00    -0.014 A 
BRANCH  42  43
ATOM     43  C   UNL A   1      39.572  30.812  30.276  1.00  0.00     0.031 A 
ATOM     44  C   UNL A   1      39.880  29.549  29.555  1.00  0.00     0.074 A 
ATOM     45  C   UNL A   1      40.514  31.602  30.854  1.00  0.00     0.049 A 
ATOM     46  N   UNL A   1      40.639  28.615  30.016  1.00  0.00    -0.248 NA
ATOM     47  C   UNL A   1      39.191  29.149  28.314  1.00  0.00     0.031 C 
ATOM     48  C   UNL A   1      41.960  31.560  30.660  1.00  0.00     0.029 A 
ATOM     49  N   UNL A   1      40.364  32.631  31.806  1.00  0.00    -0.354 N 
ATOM     50  C   UNL A   1      40.834  27.738  28.963  1.00  0.00     0.074 A 
ATOM     51  C   UNL A   1      39.732  27.955  28.070  1.00  0.00     0.031 C 
ATOM     52  C   UNL A   1      42.561  32.286  31.624  1.00  0.00     0.029 A 
ATOM     53  C   UNL A   1      41.547  32.677  32.593  1.00  0.00     0.049 A 
ATOM     54  H   UNL A   1      39.579  33.216  31.908  1.00  0.00     0.167 HD
ATOM     55  C   UNL A   1      42.061  27.167  28.805  1.00  0.00     0.037 A 
ATOM     56  C   UNL A   1      41.626  32.437  33.951  1.00  0.00     0.037 A 
ATOM     57  C   UNL A   1      42.947  27.652  29.856  1.00  0.00     0.049 A 
ATOM     58  C   UNL A   1      42.484  31.279  34.321  1.00  0.00     0.074 A 
ATOM     59  C   UNL A   1      43.845  28.705  29.856  1.00  0.00     0.029 A 
ATOM     60  N   UNL A   1      42.698  27.331  31.181  1.00  0.00    -0.354 N 
ATOM     61  N   UNL A   1      42.885  30.409  33.457  1.00  0.00    -0.248 NA
ATOM     62  C   UNL A   1      42.677  30.876  35.710  1.00  0.00     0.031 C 
ATOM     63  C   UNL A   1      44.126  29.028  31.200  1.00  0.00     0.029 A 
ATOM     64  C   UNL A   1      43.397  28.179  32.018  1.00  0.00     0.049 A 
ATOM     65  H   UNL A   1      42.108  26.603  31.483  1.00  0.00     0.167 HD
ATOM     66  C   UNL A   1      43.145  29.257  34.130  1.00  0.00     0.074 A 
ATOM     67  C   UNL A   1      43.101  29.619  35.534  1.00  0.00     0.031 C 
ATOM     68  C   UNL A   1      43.254  28.079  33.460  1.00  0.00     0.037 A 
BRANCH  55  69
ATOM     69  C   UNL A   1      42.599  26.528  27.540  1.00  0.00     0.064 A 
ATOM     70  C   UNL A   1      42.260  25.187  27.240  1.00  0.00     0.173 A 
ATOM     71  C   UNL A   1      43.453  27.135  26.601  1.00  0.00     0.173 A 
ATOM     72  F   UNL A   1      41.377  24.501  27.978  1.00  0.00    -0.203 F 
ATOM     73  C   UNL A   1      42.799  24.492  26.158  1.00  0.00     0.198 A 
ATOM     74  C   UNL A   1      44.012  26.431  25.526  1.00  0.00     0.198 A 
ATOM     75  F   UNL A   1      43.738  28.440  26.643  1.00  0.00    -0.203 F 
ATOM     76  F   UNL A   1      42.444  23.216  25.948  1.00  0.00    -0.200 F 
ATOM     77  C   UNL A   1      43.692  25.106  25.310  1.00  0.00     0.200 A 
ATOM     78  F   UNL A   1      44.859  27.053  24.694  1.00  0.00    -0.200 F 
ATOM     79  F   UNL A   1      44.215  24.438  24.274  1.00  0.00    -0.200 F 
ENDBRANCH  55  69
BRANCH  56  80
ATOM     80  C   UNL A   1      40.439  32.607  34.877  1.00  0.00     0.064 A 
ATOM     81  C   UNL A   1      40.350  33.872  35.414  1.00  0.00     0.173 A 
ATOM     82  C   UNL A   1      39.273  32.060  34.336  1.00  0.00     0.173 A 
ATOM     83  F   UNL A   1      41.205  34.295  36.352  1.00  0.00    -0.203 F 
ATOM     84  C   UNL A   1      39.543  34.750  34.752  1.00  0.00     0.198 A 
ATOM     85  C   UNL A   1      38.437  32.917  33.671  1.00  0.00     0.198 A 
ATOM     86  F   UNL A   1      39.131  30.737  34.193  1.00  0.00    -0.203 F 
ATOM     87  F   UNL A   1      39.615  36.045  35.044  1.00  0.00    -0.200 F 
ATOM     88  C   UNL A   1      38.722  34.270  33.737  1.00  0.00     0.200 A 
ATOM     89  F   UNL A   1      37.457  32.441  32.901  1.00  0.00    -0.200 F 
ATOM     90  F   UNL A   1      38.276  35.098  32.784  1.00  0.00    -0.200 F 
ENDBRANCH  56  80
BRANCH  68  91
ATOM     91  C   UNL A   1      43.371  26.779  34.174  1.00  0.00     0.064 A 
ATOM     92  C   UNL A   1      44.578  26.080  34.332  1.00  0.00     0.173 A 
ATOM     93  C   UNL A   1      42.219  26.173  34.702  1.00  0.00     0.173 A 
ATOM     94  F   UNL A   1      45.760  26.660  34.075  1.00  0.00    -0.203 F 
ATOM     95  C   UNL A   1      44.589  24.757  34.756  1.00  0.00     0.198 A 
ATOM     96  C   UNL A   1      42.248  24.885  35.214  1.00  0.00     0.198 A 
ATOM     97  F   UNL A   1      41.038  26.807  34.721  1.00  0.00    -0.203 F 
ATOM     98  F   UNL A   1      45.735  24.063  34.729  1.00  0.00    -0.200 F 
ATOM     99  C   UNL A   1      43.420  24.155  35.179  1.00  0.00     0.200 A 
ATOM    100  F   UNL A   1      41.128  24.348  35.713  1.00  0.00    -0.200 F 
ATOM    101  F   UNL A   1      43.422  22.872  35.561  1.00  0.00    -0.200 F 
ENDBRANCH  68  91
ENDBRANCH  42  43
ENDBRANCH  34  37
ENDBRANCH  32  33
ENDBRANCH  31  32
ENDBRANCH  30  31
ENDBRANCH   3  30
TORSDOF 15
ENDMDL
