MODEL 1
REMARK VINA RESULT:     -12.3      0.000      0.000
REMARK SMILES O=C(NCCCNC(=O)c1ccc(C2SCCCS2)cc1)c1ccc(-c2c3nc(c(-c4c(F)c(F)c(F)c(F)c4F)c4ccc([nH]4)c(-c4c(F)c(F)c(F)c(F)c4F)c4nc(c(-c5c(F)c(F)c(F)c(F)c5F)c5ccc2[nH]5)C=C4)C=C3)cc1
REMARK SMILES IDX 4 1 3 2 1 3 2 4 22 6 23 7 84 8 24 9 83 10 25 11 26 12 27 13
REMARK SMILES IDX 77 14 28 15 82 16 76 17 78 18 29 19 81 20 75 21 74 22 30 24
REMARK SMILES IDX 62 25 42 26 61 27 43 28 46 29 60 30 79 31 44 32 45 33 59 35
REMARK SMILES IDX 80 36 47 37 31 38 32 39 40 40 33 41 34 42 38 43 41 44 35 45
REMARK SMILES IDX 36 46 39 47 37 48 63 49 64 50 72 51 65 52 66 53 70 54 73 55
REMARK SMILES IDX 67 56 68 57 71 58 69 59 48 60 49 61 57 62 50 63 51 64 55 65
REMARK SMILES IDX 58 66 52 67 53 68 56 69 54 70 5 71 6 72 7 73 8 74 9 76 10 77
REMARK SMILES IDX 11 78 21 79 12 80 20 81 13 82 14 83 15 84 19 85 16 86 18 87
REMARK SMILES IDX 17 88
REMARK H PARENT 3 5 78 23 46 34 7 75
REMARK Flexibility Score: inf
ROOT
ATOM      1  C   UNL A   1      32.712  32.897  27.070  1.00  0.00     0.118 C 
ENDROOT
BRANCH   1   2
ATOM      2  N   UNL A   1      32.446  34.204  27.654  1.00  0.00    -0.352 N 
ATOM      3  O   UNL A   1      32.540  35.856  29.180  1.00  0.00    -0.269 OA
ATOM      4  C   UNL A   1      33.031  34.825  28.729  1.00  0.00     0.251 C 
ATOM      5  H   UNL A   1      31.737  34.722  27.208  1.00  0.00     0.163 HD
BRANCH   4   6
ATOM      6  C   UNL A   1      34.232  34.243  29.362  1.00  0.00     0.039 A 
ATOM      7  C   UNL A   1      35.515  34.577  28.920  1.00  0.00     0.014 A 
ATOM      8  C   UNL A   1      34.069  33.361  30.433  1.00  0.00     0.014 A 
ATOM      9  C   UNL A   1      36.624  33.920  29.443  1.00  0.00     0.010 A 
ATOM     10  C   UNL A   1      35.189  32.772  31.022  1.00  0.00     0.010 A 
ATOM     11  C   UNL A   1      36.473  33.024  30.510  1.00  0.00    -0.014 A 
BRANCH  11  12
ATOM     12  C   UNL A   1      37.662  32.391  31.127  1.00  0.00     0.031 A 
ATOM     13  C   UNL A   1      38.388  31.280  30.428  1.00  0.00     0.074 A 
ATOM     14  C   UNL A   1      38.060  32.801  32.346  1.00  0.00     0.049 A 
ATOM     15  N   UNL A   1      39.373  30.534  30.861  1.00  0.00    -0.248 NA
ATOM     16  C   UNL A   1      37.941  30.956  29.066  1.00  0.00     0.031 C 
ATOM     17  C   UNL A   1      37.432  33.874  33.118  1.00  0.00     0.029 A 
ATOM     18  N   UNL A   1      39.072  32.354  33.156  1.00  0.00    -0.354 N 
ATOM     19  C   UNL A   1      39.645  29.635  29.839  1.00  0.00     0.074 A 
ATOM     20  C   UNL A   1      38.705  29.913  28.773  1.00  0.00     0.031 C 
ATOM     21  C   UNL A   1      38.073  34.006  34.288  1.00  0.00     0.029 A 
ATOM     22  C   UNL A   1      39.110  32.984  34.375  1.00  0.00     0.049 A 
ATOM     23  H   UNL A   1      39.708  31.652  32.889  1.00  0.00     0.167 HD
ATOM     24  C   UNL A   1      40.593  28.668  29.798  1.00  0.00     0.037 A 
ATOM     25  C   UNL A   1      39.865  32.740  35.461  1.00  0.00     0.037 A 
ATOM     26  C   UNL A   1      41.526  28.409  30.866  1.00  0.00     0.049 A 
ATOM     27  C   UNL A   1      40.881  31.636  35.412  1.00  0.00     0.074 A 
ATOM     28  C   UNL A   1      42.552  27.482  30.909  1.00  0.00     0.029 A 
ATOM     29  N   UNL A   1      41.533  29.069  32.087  1.00  0.00    -0.354 N 
ATOM     30  N   UNL A   1      41.154  30.811  34.431  1.00  0.00    -0.248 NA
ATOM     31  C   UNL A   1      41.693  31.427  36.617  1.00  0.00     0.031 C 
ATOM     32  C   UNL A   1      43.141  27.539  32.176  1.00  0.00     0.029 A 
ATOM     33  C   UNL A   1      42.527  28.549  32.902  1.00  0.00     0.049 A 
ATOM     34  H   UNL A   1      40.923  29.800  32.338  1.00  0.00     0.167 HD
ATOM     35  C   UNL A   1      42.187  30.005  34.885  1.00  0.00     0.074 A 
ATOM     36  C   UNL A   1      42.491  30.440  36.233  1.00  0.00     0.031 C 
ATOM     37  C   UNL A   1      42.827  29.001  34.238  1.00  0.00     0.037 A 
BRANCH  24  38
ATOM     38  C   UNL A   1      40.641  27.795  28.576  1.00  0.00     0.064 A 
ATOM     39  C   UNL A   1      39.930  26.588  28.494  1.00  0.00     0.173 A 
ATOM     40  C   UNL A   1      41.405  28.179  27.462  1.00  0.00     0.173 A 
ATOM     41  F   UNL A   1      39.190  26.168  29.531  1.00  0.00    -0.203 F 
ATOM     42  C   UNL A   1      40.016  25.779  27.363  1.00  0.00     0.198 A 
ATOM     43  C   UNL A   1      41.462  27.385  26.320  1.00  0.00     0.198 A 
ATOM     44  F   UNL A   1      42.098  29.328  27.481  1.00  0.00    -0.203 F 
ATOM     45  F   UNL A   1      39.380  24.600  27.334  1.00  0.00    -0.200 F 
ATOM     46  C   UNL A   1      40.779  26.180  26.276  1.00  0.00     0.200 A 
ATOM     47  F   UNL A   1      42.188  27.782  25.265  1.00  0.00    -0.200 F 
ATOM     48  F   UNL A   1      40.864  25.399  25.190  1.00  0.00    -0.200 F 
ENDBRANCH  24  38
BRANCH  25  49
ATOM     49  C   UNL A   1      39.661  33.561  36.681  1.00  0.00     0.064 A 
ATOM     50  C   UNL A   1      40.278  34.809  36.821  1.00  0.00     0.173 A 
ATOM     51  C   UNL A   1      38.791  33.140  37.700  1.00  0.00     0.173 A 
ATOM     52  F   UNL A   1      41.127  35.247  35.880  1.00  0.00    -0.203 F 
ATOM     53  C   UNL A   1      40.035  35.608  37.938  1.00  0.00     0.198 A 
ATOM     54  C   UNL A   1      38.528  33.951  38.800  1.00  0.00     0.198 A 
ATOM     55  F   UNL A   1      38.167  31.957  37.604  1.00  0.00    -0.203 F 
ATOM     56  F   UNL A   1      40.656  36.789  38.061  1.00  0.00    -0.200 F 
ATOM     57  C   UNL A   1      39.152  35.183  38.920  1.00  0.00     0.200 A 
ATOM     58  F   UNL A   1      37.657  33.546  39.735  1.00  0.00    -0.200 F 
ATOM     59  F   UNL A   1      38.904  35.961  39.982  1.00  0.00    -0.200 F 
ENDBRANCH  25  49
BRANCH  37  60
ATOM     60  C   UNL A   1      43.963  28.328  34.953  1.00  0.00     0.064 A 
ATOM     61  C   UNL A   1      45.264  28.850  34.931  1.00  0.00     0.173 A 
ATOM     62  C   UNL A   1      43.723  27.186  35.732  1.00  0.00     0.173 A 
ATOM     63  F   UNL A   1      45.547  29.930  34.188  1.00  0.00    -0.203 F 
ATOM     64  C   UNL A   1      46.286  28.247  35.660  1.00  0.00     0.198 A 
ATOM     65  C   UNL A   1      44.740  26.603  36.482  1.00  0.00     0.198 A 
ATOM     66  F   UNL A   1      42.495  26.650  35.788  1.00  0.00    -0.203 F 
ATOM     67  F   UNL A   1      47.530  28.744  35.603  1.00  0.00    -0.200 F 
ATOM     68  C   UNL A   1      46.022  27.133  36.444  1.00  0.00     0.200 A 
ATOM     69  F   UNL A   1      44.479  25.536  37.249  1.00  0.00    -0.200 F 
ATOM     70  F   UNL A   1      47.003  26.568  37.161  1.00  0.00    -0.200 F 
ENDBRANCH  37  60
ENDBRANCH  11  12
ENDBRANCH   4   6
ENDBRANCH   1   2
BRANCH   1  71
ATOM     71  C   UNL A   1      31.444  32.156  26.684  1.00  0.00     0.042 C 
BRANCH  71  72
ATOM     72  C   UNL A   1      31.675  30.714  26.264  1.00  0.00     0.118 C 
BRANCH  72  73
ATOM     73  N   UNL A   1      31.027  30.392  24.997  1.00  0.00    -0.352 N 
ATOM     74  C   UNL A   1      31.115  29.249  24.241  1.00  0.00     0.251 C 
ATOM     75  H   UNL A   1      30.443  31.096  24.632  1.00  0.00     0.163 HD
ATOM     76  O   UNL A   1      30.661  29.225  23.099  1.00  0.00    -0.269 OA
BRANCH  74  77
ATOM     77  C   UNL A   1      31.756  28.050  24.811  1.00  0.00     0.039 A 
ATOM     78  C   UNL A   1      31.032  27.187  25.631  1.00  0.00     0.014 A 
ATOM     79  C   UNL A   1      33.088  27.776  24.515  1.00  0.00     0.014 A 
ATOM     80  C   UNL A   1      31.624  25.998  26.075  1.00  0.00     0.006 A 
ATOM     81  C   UNL A   1      33.654  26.576  24.927  1.00  0.00     0.006 A 
ATOM     82  C   UNL A   1      32.942  25.656  25.708  1.00  0.00    -0.025 A 
BRANCH  82  83
ATOM     83  C   UNL A   1      33.515  24.309  26.127  1.00  0.00     0.133 C 
ATOM     84  S   UNL A   1      32.267  23.018  26.376  1.00  0.00    -0.143 SA
ATOM     85  S   UNL A   1      34.957  23.721  25.199  1.00  0.00    -0.143 SA
ATOM     86  C   UNL A   1      31.852  22.613  24.664  1.00  0.00     0.072 C 
ATOM     87  C   UNL A   1      34.215  23.086  23.672  1.00  0.00     0.072 C 
ATOM     88  C   UNL A   1      33.029  22.142  23.823  1.00  0.00     0.022 C 
ENDBRANCH  82  83
ENDBRANCH  74  77
ENDBRANCH  72  73
ENDBRANCH  71  72
ENDBRANCH   1  71
TORSDOF 11
ENDMDL
MODEL 2
REMARK VINA RESULT:     -12.3      0.209      1.177
REMARK SMILES O=C(NCCCNC(=O)c1ccc(C2SCCCS2)cc1)c1ccc(-c2c3nc(c(-c4c(F)c(F)c(F)c(F)c4F)c4ccc([nH]4)c(-c4c(F)c(F)c(F)c(F)c4F)c4nc(c(-c5c(F)c(F)c(F)c(F)c5F)c5ccc2[nH]5)C=C4)C=C3)cc1
REMARK SMILES IDX 4 1 3 2 1 3 2 4 22 6 23 7 84 8 24 9 83 10 25 11 26 12 27 13
REMARK SMILES IDX 77 14 28 15 82 16 76 17 78 18 29 19 81 20 75 21 74 22 30 24
REMARK SMILES IDX 62 25 42 26 61 27 43 28 46 29 60 30 79 31 44 32 45 33 59 35
REMARK SMILES IDX 80 36 47 37 31 38 32 39 40 40 33 41 34 42 38 43 41 44 35 45
REMARK SMILES IDX 36 46 39 47 37 48 63 49 64 50 72 51 65 52 66 53 70 54 73 55
REMARK SMILES IDX 67 56 68 57 71 58 69 59 48 60 49 61 57 62 50 63 51 64 55 65
REMARK SMILES IDX 58 66 52 67 53 68 56 69 54 70 5 71 6 72 7 73 8 74 9 76 10 77
REMARK SMILES IDX 11 78 21 79 12 80 20 81 13 82 14 83 15 84 19 85 16 86 18 87
REMARK SMILES IDX 17 88
REMARK H PARENT 3 5 78 23 46 34 7 75
REMARK Flexibility Score: inf
ROOT
ATOM      1  C   UNL A   1      32.637  32.868  27.145  1.00  0.00     0.118 C 
ENDROOT
BRANCH   1   2
ATOM      2  N   UNL A   1      32.401  34.203  27.676  1.00  0.00    -0.352 N 
ATOM      3  O   UNL A   1      32.539  35.915  29.131  1.00  0.00    -0.269 OA
ATOM      4  C   UNL A   1      33.006  34.857  28.720  1.00  0.00     0.251 C 
ATOM      5  H   UNL A   1      31.698  34.716  27.214  1.00  0.00     0.163 HD
BRANCH   4   6
ATOM      6  C   UNL A   1      34.202  34.279  29.367  1.00  0.00     0.039 A 
ATOM      7  C   UNL A   1      35.488  34.578  28.910  1.00  0.00     0.014 A 
ATOM      8  C   UNL A   1      34.029  33.436  30.468  1.00  0.00     0.014 A 
ATOM      9  C   UNL A   1      36.588  33.922  29.450  1.00  0.00     0.010 A 
ATOM     10  C   UNL A   1      35.143  32.851  31.073  1.00  0.00     0.010 A 
ATOM     11  C   UNL A   1      36.428  33.066  30.548  1.00  0.00    -0.014 A 
BRANCH  11  12
ATOM     12  C   UNL A   1      37.611  32.436  31.182  1.00  0.00     0.031 A 
ATOM     13  C   UNL A   1      38.320  31.295  30.515  1.00  0.00     0.074 A 
ATOM     14  C   UNL A   1      38.017  32.877  32.386  1.00  0.00     0.049 A 
ATOM     15  N   UNL A   1      39.296  30.549  30.969  1.00  0.00    -0.248 NA
ATOM     16  C   UNL A   1      37.866  30.936  29.165  1.00  0.00     0.031 C 
ATOM     17  C   UNL A   1      37.405  33.982  33.127  1.00  0.00     0.029 A 
ATOM     18  N   UNL A   1      39.026  32.443  33.207  1.00  0.00    -0.354 N 
ATOM     19  C   UNL A   1      39.554  29.616  29.974  1.00  0.00     0.074 A 
ATOM     20  C   UNL A   1      38.615  29.873  28.902  1.00  0.00     0.031 C 
ATOM     21  C   UNL A   1      38.051  34.141  34.290  1.00  0.00     0.029 A 
ATOM     22  C   UNL A   1      39.075  33.109  34.407  1.00  0.00     0.049 A 
ATOM     23  H   UNL A   1      39.652  31.725  32.961  1.00  0.00     0.167 HD
ATOM     24  C   UNL A   1      40.490  28.635  29.961  1.00  0.00     0.037 A 
ATOM     25  C   UNL A   1      39.830  32.888  35.498  1.00  0.00     0.037 A 
ATOM     26  C   UNL A   1      41.421  28.396  31.034  1.00  0.00     0.049 A 
ATOM     27  C   UNL A   1      40.830  31.770  35.481  1.00  0.00     0.074 A 
ATOM     28  C   UNL A   1      42.435  27.458  31.103  1.00  0.00     0.029 A 
ATOM     29  N   UNL A   1      41.440  29.094  32.234  1.00  0.00    -0.354 N 
ATOM     30  N   UNL A   1      41.090  30.911  34.525  1.00  0.00    -0.248 NA
ATOM     31  C   UNL A   1      41.642  31.587  36.690  1.00  0.00     0.031 C 
ATOM     32  C   UNL A   1      43.028  27.546  32.367  1.00  0.00     0.029 A 
ATOM     33  C   UNL A   1      42.429  28.586  33.062  1.00  0.00     0.049 A 
ATOM     34  H   UNL A   1      40.840  29.840  32.464  1.00  0.00     0.167 HD
ATOM     35  C   UNL A   1      42.113  30.106  35.001  1.00  0.00     0.074 A 
ATOM     36  C   UNL A   1      42.427  30.578  36.335  1.00  0.00     0.031 C 
ATOM     37  C   UNL A   1      42.739  29.074  34.384  1.00  0.00     0.037 A 
BRANCH  24  38
ATOM     38  C   UNL A   1      40.523  27.725  28.766  1.00  0.00     0.064 A 
ATOM     39  C   UNL A   1      41.317  27.999  27.643  1.00  0.00     0.173 A 
ATOM     40  C   UNL A   1      39.754  26.550  28.751  1.00  0.00     0.173 A 
ATOM     41  F   UNL A   1      42.066  29.111  27.599  1.00  0.00    -0.203 F 
ATOM     42  C   UNL A   1      41.306  27.156  26.532  1.00  0.00     0.198 A 
ATOM     43  C   UNL A   1      39.771  25.692  27.654  1.00  0.00     0.198 A 
ATOM     44  F   UNL A   1      38.983  26.232  29.802  1.00  0.00    -0.203 F 
ATOM     45  F   UNL A   1      42.023  27.473  25.446  1.00  0.00    -0.200 F 
ATOM     46  C   UNL A   1      40.537  26.002  26.541  1.00  0.00     0.200 A 
ATOM     47  F   UNL A   1      39.039  24.570  27.670  1.00  0.00    -0.200 F 
ATOM     48  F   UNL A   1      40.525  25.195  25.471  1.00  0.00    -0.200 F 
ENDBRANCH  24  38
BRANCH  25  49
ATOM     49  C   UNL A   1      39.639  33.749  36.693  1.00  0.00     0.064 A 
ATOM     50  C   UNL A   1      40.250  35.005  36.781  1.00  0.00     0.173 A 
ATOM     51  C   UNL A   1      38.789  33.357  37.739  1.00  0.00     0.173 A 
ATOM     52  F   UNL A   1      41.081  35.415  35.812  1.00  0.00    -0.203 F 
ATOM     53  C   UNL A   1      40.019  35.839  37.873  1.00  0.00     0.198 A 
ATOM     54  C   UNL A   1      38.537  34.204  38.815  1.00  0.00     0.198 A 
ATOM     55  F   UNL A   1      38.171  32.168  37.693  1.00  0.00    -0.203 F 
ATOM     56  F   UNL A   1      40.634  37.027  37.947  1.00  0.00    -0.200 F 
ATOM     57  C   UNL A   1      39.156  35.443  38.884  1.00  0.00     0.200 A 
ATOM     58  F   UNL A   1      37.684  33.825  39.778  1.00  0.00    -0.200 F 
ATOM     59  F   UNL A   1      38.919  36.255  39.923  1.00  0.00    -0.200 F 
ENDBRANCH  25  49
BRANCH  37  60
ATOM     60  C   UNL A   1      43.867  28.409  35.116  1.00  0.00     0.064 A 
ATOM     61  C   UNL A   1      45.176  28.909  35.072  1.00  0.00     0.173 A 
ATOM     62  C   UNL A   1      43.613  27.297  35.935  1.00  0.00     0.173 A 
ATOM     63  F   UNL A   1      45.472  29.958  34.291  1.00  0.00    -0.203 F 
ATOM     64  C   UNL A   1      46.192  28.315  35.817  1.00  0.00     0.198 A 
ATOM     65  C   UNL A   1      44.625  26.725  36.700  1.00  0.00     0.198 A 
ATOM     66  F   UNL A   1      42.377  26.783  36.014  1.00  0.00    -0.203 F 
ATOM     67  F   UNL A   1      47.443  28.791  35.738  1.00  0.00    -0.200 F 
ATOM     68  C   UNL A   1      45.914  27.233  36.639  1.00  0.00     0.200 A 
ATOM     69  F   UNL A   1      44.351  25.689  37.504  1.00  0.00    -0.200 F 
ATOM     70  F   UNL A   1      46.890  26.677  37.371  1.00  0.00    -0.200 F 
ENDBRANCH  37  60
ENDBRANCH  11  12
ENDBRANCH   4   6
ENDBRANCH   1   2
BRANCH   1  71
ATOM     71  C   UNL A   1      31.402  32.264  26.501  1.00  0.00     0.042 C 
BRANCH  71  72
ATOM     72  C   UNL A   1      31.538  30.787  26.169  1.00  0.00     0.118 C 
BRANCH  72  73
ATOM     73  N   UNL A   1      30.958  30.452  24.873  1.00  0.00    -0.352 N 
ATOM     74  C   UNL A   1      31.109  29.313  24.122  1.00  0.00     0.251 C 
ATOM     75  H   UNL A   1      30.375  31.142  24.481  1.00  0.00     0.163 HD
ATOM     76  O   UNL A   1      30.710  29.280  22.959  1.00  0.00    -0.269 OA
BRANCH  74  77
ATOM     77  C   UNL A   1      31.752  28.129  24.720  1.00  0.00     0.039 A 
ATOM     78  C   UNL A   1      31.026  27.281  25.556  1.00  0.00     0.014 A 
ATOM     79  C   UNL A   1      33.086  27.852  24.437  1.00  0.00     0.014 A 
ATOM     80  C   UNL A   1      31.620  26.104  26.029  1.00  0.00     0.006 A 
ATOM     81  C   UNL A   1      33.653  26.663  24.878  1.00  0.00     0.006 A 
ATOM     82  C   UNL A   1      32.941  25.758  25.675  1.00  0.00    -0.025 A 
BRANCH  82  83
ATOM     83  C   UNL A   1      33.516  24.423  26.126  1.00  0.00     0.133 C 
ATOM     84  S   UNL A   1      32.272  23.129  26.383  1.00  0.00    -0.143 SA
ATOM     85  S   UNL A   1      34.973  23.826  25.228  1.00  0.00    -0.143 SA
ATOM     86  C   UNL A   1      31.881  22.691  24.674  1.00  0.00     0.072 C 
ATOM     87  C   UNL A   1      34.254  23.159  23.703  1.00  0.00     0.072 C 
ATOM     88  C   UNL A   1      33.072  22.211  23.857  1.00  0.00     0.022 C 
ENDBRANCH  82  83
ENDBRANCH  74  77
ENDBRANCH  72  73
ENDBRANCH  71  72
ENDBRANCH   1  71
TORSDOF 11
ENDMDL
MODEL 3
REMARK VINA RESULT:     -12.3      0.409      1.686
REMARK SMILES O=C(NCCCNC(=O)c1ccc(C2SCCCS2)cc1)c1ccc(-c2c3nc(c(-c4c(F)c(F)c(F)c(F)c4F)c4ccc([nH]4)c(-c4c(F)c(F)c(F)c(F)c4F)c4nc(c(-c5c(F)c(F)c(F)c(F)c5F)c5ccc2[nH]5)C=C4)C=C3)cc1
REMARK SMILES IDX 4 1 3 2 1 3 2 4 22 6 23 7 84 8 24 9 83 10 25 11 26 12 27 13
REMARK SMILES IDX 77 14 28 15 82 16 76 17 78 18 29 19 81 20 75 21 74 22 30 24
REMARK SMILES IDX 62 25 42 26 61 27 43 28 46 29 60 30 79 31 44 32 45 33 59 35
REMARK SMILES IDX 80 36 47 37 31 38 32 39 40 40 33 41 34 42 38 43 41 44 35 45
REMARK SMILES IDX 36 46 39 47 37 48 63 49 64 50 72 51 65 52 66 53 70 54 73 55
REMARK SMILES IDX 67 56 68 57 71 58 69 59 48 60 49 61 57 62 50 63 51 64 55 65
REMARK SMILES IDX 58 66 52 67 53 68 56 69 54 70 5 71 6 72 7 73 8 74 9 76 10 77
REMARK SMILES IDX 11 78 21 79 12 80 20 81 13 82 14 83 15 84 19 85 16 86 18 87
REMARK SMILES IDX 17 88
REMARK H PARENT 3 5 78 23 46 34 7 75
REMARK Flexibility Score: inf
ROOT
ATOM      1  C   UNL A   1      32.633  32.851  27.151  1.00  0.00     0.118 C 
ENDROOT
BRANCH   1   2
ATOM      2  N   UNL A   1      32.399  34.205  27.635  1.00  0.00    -0.352 N 
ATOM      3  O   UNL A   1      32.537  35.964  29.033  1.00  0.00    -0.269 OA
ATOM      4  C   UNL A   1      33.001  34.890  28.661  1.00  0.00     0.251 C 
ATOM      5  H   UNL A   1      31.703  34.705  27.152  1.00  0.00     0.163 HD
BRANCH   4   6
ATOM      6  C   UNL A   1      34.189  34.328  29.335  1.00  0.00     0.039 A 
ATOM      7  C   UNL A   1      35.478  34.571  28.852  1.00  0.00     0.014 A 
ATOM      8  C   UNL A   1      34.008  33.560  30.488  1.00  0.00     0.014 A 
ATOM      9  C   UNL A   1      36.569  33.928  29.425  1.00  0.00     0.010 A 
ATOM     10  C   UNL A   1      35.114  32.990  31.121  1.00  0.00     0.010 A 
ATOM     11  C   UNL A   1      36.400  33.144  30.575  1.00  0.00    -0.014 A 
BRANCH  11  12
ATOM     12  C   UNL A   1      37.573  32.531  31.239  1.00  0.00     0.031 A 
ATOM     13  C   UNL A   1      38.291  31.373  30.611  1.00  0.00     0.074 A 
ATOM     14  C   UNL A   1      37.965  33.003  32.437  1.00  0.00     0.049 A 
ATOM     15  N   UNL A   1      39.260  30.639  31.096  1.00  0.00    -0.248 NA
ATOM     16  C   UNL A   1      37.853  30.979  29.265  1.00  0.00     0.031 C 
ATOM     17  C   UNL A   1      37.345  34.127  33.142  1.00  0.00     0.029 A 
ATOM     18  N   UNL A   1      38.963  32.589  33.282  1.00  0.00    -0.354 N 
ATOM     19  C   UNL A   1      39.529  29.680  30.129  1.00  0.00     0.074 A 
ATOM     20  C   UNL A   1      38.604  29.910  29.039  1.00  0.00     0.031 C 
ATOM     21  C   UNL A   1      37.977  34.315  34.308  1.00  0.00     0.029 A 
ATOM     22  C   UNL A   1      38.999  33.286  34.464  1.00  0.00     0.049 A 
ATOM     23  H   UNL A   1      39.592  31.864  33.062  1.00  0.00     0.167 HD
ATOM     24  C   UNL A   1      40.464  28.699  30.152  1.00  0.00     0.037 A 
ATOM     25  C   UNL A   1      39.740  33.092  35.570  1.00  0.00     0.037 A 
ATOM     26  C   UNL A   1      41.382  28.487  31.243  1.00  0.00     0.049 A 
ATOM     27  C   UNL A   1      40.739  31.973  35.594  1.00  0.00     0.074 A 
ATOM     28  C   UNL A   1      42.395  27.550  31.348  1.00  0.00     0.029 A 
ATOM     29  N   UNL A   1      41.388  29.215  32.424  1.00  0.00    -0.354 N 
ATOM     30  N   UNL A   1      41.010  31.091  34.663  1.00  0.00    -0.248 NA
ATOM     31  C   UNL A   1      41.536  31.821  36.817  1.00  0.00     0.031 C 
ATOM     32  C   UNL A   1      42.973  27.671  32.616  1.00  0.00     0.029 A 
ATOM     33  C   UNL A   1      42.366  28.728  33.277  1.00  0.00     0.049 A 
ATOM     34  H   UNL A   1      40.785  29.967  32.628  1.00  0.00     0.167 HD
ATOM     35  C   UNL A   1      42.027  30.298  35.173  1.00  0.00     0.074 A 
ATOM     36  C   UNL A   1      42.325  30.804  36.497  1.00  0.00     0.031 C 
ATOM     37  C   UNL A   1      42.659  29.250  34.589  1.00  0.00     0.037 A 
BRANCH  24  38
ATOM     38  C   UNL A   1      40.512  27.758  28.981  1.00  0.00     0.064 A 
ATOM     39  C   UNL A   1      41.348  27.984  27.877  1.00  0.00     0.173 A 
ATOM     40  C   UNL A   1      39.714  26.603  28.971  1.00  0.00     0.173 A 
ATOM     41  F   UNL A   1      42.125  29.076  27.831  1.00  0.00    -0.203 F 
ATOM     42  C   UNL A   1      41.350  27.115  26.788  1.00  0.00     0.198 A 
ATOM     43  C   UNL A   1      39.744  25.717  27.896  1.00  0.00     0.198 A 
ATOM     44  F   UNL A   1      38.903  26.330  30.004  1.00  0.00    -0.203 F 
ATOM     45  F   UNL A   1      42.108  27.386  25.717  1.00  0.00    -0.200 F 
ATOM     46  C   UNL A   1      40.551  25.980  26.800  1.00  0.00     0.200 A 
ATOM     47  F   UNL A   1      38.983  24.614  27.916  1.00  0.00    -0.200 F 
ATOM     48  F   UNL A   1      40.552  25.147  25.751  1.00  0.00    -0.200 F 
ENDBRANCH  24  38
BRANCH  25  49
ATOM     49  C   UNL A   1      39.535  33.983  36.740  1.00  0.00     0.064 A 
ATOM     50  C   UNL A   1      38.726  33.589  37.812  1.00  0.00     0.173 A 
ATOM     51  C   UNL A   1      40.197  35.217  36.835  1.00  0.00     0.173 A 
ATOM     52  F   UNL A   1      38.064  32.426  37.760  1.00  0.00    -0.203 F 
ATOM     53  C   UNL A   1      38.586  34.399  38.939  1.00  0.00     0.198 A 
ATOM     54  C   UNL A   1      40.078  36.011  37.973  1.00  0.00     0.198 A 
ATOM     55  F   UNL A   1      40.992  35.632  35.838  1.00  0.00    -0.203 F 
ATOM     56  F   UNL A   1      37.788  34.011  39.943  1.00  0.00    -0.200 F 
ATOM     57  C   UNL A   1      39.270  35.603  39.022  1.00  0.00     0.200 A 
ATOM     58  F   UNL A   1      40.758  37.163  38.058  1.00  0.00    -0.200 F 
ATOM     59  F   UNL A   1      39.150  36.369  40.115  1.00  0.00    -0.200 F 
ENDBRANCH  25  49
BRANCH  37  60
ATOM     60  C   UNL A   1      43.778  28.603  35.353  1.00  0.00     0.064 A 
ATOM     61  C   UNL A   1      45.109  29.023  35.214  1.00  0.00     0.173 A 
ATOM     62  C   UNL A   1      43.498  27.599  36.292  1.00  0.00     0.173 A 
ATOM     63  F   UNL A   1      45.429  29.967  34.317  1.00  0.00    -0.203 F 
ATOM     64  C   UNL A   1      46.120  28.455  35.986  1.00  0.00     0.198 A 
ATOM     65  C   UNL A   1      44.506  27.055  37.082  1.00  0.00     0.198 A 
ATOM     66  F   UNL A   1      42.240  27.165  36.464  1.00  0.00    -0.203 F 
ATOM     67  F   UNL A   1      47.390  28.849  35.817  1.00  0.00    -0.200 F 
ATOM     68  C   UNL A   1      45.816  27.481  36.926  1.00  0.00     0.200 A 
ATOM     69  F   UNL A   1      44.209  26.125  38.000  1.00  0.00    -0.200 F 
ATOM     70  F   UNL A   1      46.788  26.951  37.682  1.00  0.00    -0.200 F 
ENDBRANCH  37  60
ENDBRANCH  11  12
ENDBRANCH   4   6
ENDBRANCH   1   2
BRANCH   1  71
ATOM     71  C   UNL A   1      31.403  32.238  26.505  1.00  0.00     0.042 C 
BRANCH  71  72
ATOM     72  C   UNL A   1      31.553  30.763  26.170  1.00  0.00     0.118 C 
BRANCH  72  73
ATOM     73  N   UNL A   1      30.953  30.421  24.885  1.00  0.00    -0.352 N 
ATOM     74  C   UNL A   1      31.093  29.277  24.137  1.00  0.00     0.251 C 
ATOM     75  H   UNL A   1      30.363  31.108  24.498  1.00  0.00     0.163 HD
ATOM     76  O   UNL A   1      30.676  29.238  22.982  1.00  0.00    -0.269 OA
BRANCH  74  77
ATOM     77  C   UNL A   1      31.746  28.097  24.732  1.00  0.00     0.039 A 
ATOM     78  C   UNL A   1      31.029  27.242  25.567  1.00  0.00     0.014 A 
ATOM     79  C   UNL A   1      33.082  27.831  24.445  1.00  0.00     0.014 A 
ATOM     80  C   UNL A   1      31.633  26.069  26.037  1.00  0.00     0.006 A 
ATOM     81  C   UNL A   1      33.660  26.646  24.883  1.00  0.00     0.006 A 
ATOM     82  C   UNL A   1      32.956  25.734  25.680  1.00  0.00    -0.025 A 
BRANCH  82  83
ATOM     83  C   UNL A   1      33.542  24.403  26.127  1.00  0.00     0.133 C 
ATOM     84  S   UNL A   1      32.310  23.096  26.377  1.00  0.00    -0.143 SA
ATOM     85  S   UNL A   1      35.006  23.822  25.229  1.00  0.00    -0.143 SA
ATOM     86  C   UNL A   1      31.926  22.661  24.665  1.00  0.00     0.072 C 
ATOM     87  C   UNL A   1      34.296  23.154  23.700  1.00  0.00     0.072 C 
ATOM     88  C   UNL A   1      33.122  22.195  23.849  1.00  0.00     0.022 C 
ENDBRANCH  82  83
ENDBRANCH  74  77
ENDBRANCH  72  73
ENDBRANCH  71  72
ENDBRANCH   1  71
TORSDOF 11
ENDMDL
