MODEL 1
REMARK VINA RESULT:     -12.4      0.000      0.000
REMARK SMILES O=C(NCCCNC(=O)c1ccc(S(=O)(=O)Cc2cnoc2)c(F)c1)c1ccc(-c2c3nc(c(-c4c(F)c(F)c(F)c(F)c4F)c4ccc([nH]4)c(-c4c(F)c(F)c(F)c(F)c4F)c4nc(c(-c5c(F)c(F)c(F)c(F)c5F)c5ccc2[nH]5)C=C4)C=C3)cc1
REMARK SMILES IDX 5 1 4 2 3 3 1 4 2 5 26 7 27 8 88 9 28 10 87 11 29 12 30 13
REMARK SMILES IDX 31 14 81 15 32 16 86 17 80 18 82 19 33 20 85 21 79 22 78 23
REMARK SMILES IDX 34 25 66 26 46 27 65 28 47 29 50 30 64 31 83 32 48 33 49 34
REMARK SMILES IDX 63 36 84 37 51 38 35 39 36 40 44 41 37 42 38 43 42 44 45 45
REMARK SMILES IDX 39 46 40 47 43 48 41 49 67 50 68 51 76 52 69 53 70 54 74 55
REMARK SMILES IDX 77 56 71 57 72 58 75 59 73 60 52 61 53 62 61 63 54 64 55 65
REMARK SMILES IDX 59 66 62 67 56 68 57 69 60 70 58 71 6 72 7 73 8 74 9 76
REMARK SMILES IDX 10 77 11 78 25 79 12 80 23 81 13 82 24 83 14 84 15 85 16 86
REMARK SMILES IDX 17 87 18 88 19 89 22 90 20 91 21 92
REMARK H PARENT 3 6 82 24 50 35 7 75
REMARK Flexibility Score: inf
ROOT
ATOM      1  C   UNL A   1      32.996  27.564  25.661  1.00  0.00     0.042 C 
ENDROOT
BRANCH   1   2
ATOM      2  C   UNL A   1      33.634  28.832  25.103  1.00  0.00     0.118 C 
BRANCH   2   3
ATOM      3  N   UNL A   1      33.001  30.046  25.600  1.00  0.00    -0.352 N 
ATOM      4  O   UNL A   1      32.482  31.688  27.041  1.00  0.00    -0.269 OA
ATOM      5  C   UNL A   1      33.276  30.814  26.702  1.00  0.00     0.251 C 
ATOM      6  H   UNL A   1      32.248  30.368  25.053  1.00  0.00     0.163 HD
BRANCH   5   7
ATOM      7  C   UNL A   1      34.504  30.596  27.496  1.00  0.00     0.039 A 
ATOM      8  C   UNL A   1      35.460  31.602  27.652  1.00  0.00     0.014 A 
ATOM      9  C   UNL A   1      34.671  29.371  28.150  1.00  0.00     0.014 A 
ATOM     10  C   UNL A   1      36.643  31.340  28.337  1.00  0.00     0.010 A 
ATOM     11  C   UNL A   1      35.821  29.136  28.908  1.00  0.00     0.010 A 
ATOM     12  C   UNL A   1      36.831  30.107  28.981  1.00  0.00    -0.014 A 
BRANCH  12  13
ATOM     13  C   UNL A   1      38.065  29.857  29.767  1.00  0.00     0.031 A 
ATOM     14  C   UNL A   1      39.156  28.981  29.222  1.00  0.00     0.074 A 
ATOM     15  C   UNL A   1      38.195  30.421  30.982  1.00  0.00     0.049 A 
ATOM     16  N   UNL A   1      40.273  28.603  29.791  1.00  0.00    -0.248 NA
ATOM     17  C   UNL A   1      38.967  28.453  27.862  1.00  0.00     0.031 C 
ATOM     18  C   UNL A   1      37.205  31.296  31.612  1.00  0.00     0.029 A 
ATOM     19  N   UNL A   1      39.209  30.346  31.904  1.00  0.00    -0.354 N 
ATOM     20  C   UNL A   1      40.908  27.779  28.873  1.00  0.00     0.074 A 
ATOM     21  C   UNL A   1      40.041  27.691  27.716  1.00  0.00     0.031 C 
ATOM     22  C   UNL A   1      37.671  31.700  32.802  1.00  0.00     0.029 A 
ATOM     23  C   UNL A   1      38.961  31.063  33.048  1.00  0.00     0.049 A 
ATOM     24  H   UNL A   1      40.033  29.829  31.758  1.00  0.00     0.167 HD
ATOM     25  C   UNL A   1      42.107  27.160  28.985  1.00  0.00     0.037 A 
ATOM     26  C   UNL A   1      39.678  31.175  34.183  1.00  0.00     0.037 A 
ATOM     27  C   UNL A   1      42.970  27.268  30.134  1.00  0.00     0.049 A 
ATOM     28  C   UNL A   1      40.982  30.444  34.303  1.00  0.00     0.074 A 
ATOM     29  C   UNL A   1      44.220  26.709  30.326  1.00  0.00     0.029 A 
ATOM     30  N   UNL A   1      42.668  27.979  31.286  1.00  0.00    -0.354 N 
ATOM     31  N   UNL A   1      41.582  29.681  33.421  1.00  0.00    -0.248 NA
ATOM     32  C   UNL A   1      41.710  30.581  35.571  1.00  0.00     0.031 C 
ATOM     33  C   UNL A   1      44.654  27.038  31.613  1.00  0.00     0.029 A 
ATOM     34  C   UNL A   1      43.699  27.851  32.203  1.00  0.00     0.049 A 
ATOM     35  H   UNL A   1      41.844  28.499  31.431  1.00  0.00     0.167 HD
ATOM     36  C   UNL A   1      42.762  29.263  34.017  1.00  0.00     0.074 A 
ATOM     37  C   UNL A   1      42.799  29.861  35.336  1.00  0.00     0.031 C 
ATOM     38  C   UNL A   1      43.727  28.458  33.511  1.00  0.00     0.037 A 
BRANCH  25  39
ATOM     39  C   UNL A   1      42.560  26.293  27.846  1.00  0.00     0.064 A 
ATOM     40  C   UNL A   1      43.411  26.812  26.856  1.00  0.00     0.173 A 
ATOM     41  C   UNL A   1      42.107  24.975  27.696  1.00  0.00     0.173 A 
ATOM     42  F   UNL A   1      43.867  28.070  26.948  1.00  0.00    -0.203 F 
ATOM     43  C   UNL A   1      43.782  26.044  25.756  1.00  0.00     0.198 A 
ATOM     44  C   UNL A   1      42.504  24.201  26.607  1.00  0.00     0.198 A 
ATOM     45  F   UNL A   1      41.300  24.429  28.618  1.00  0.00    -0.203 F 
ATOM     46  F   UNL A   1      44.572  26.571  24.810  1.00  0.00    -0.200 F 
ATOM     47  C   UNL A   1      43.334  24.738  25.635  1.00  0.00     0.200 A 
ATOM     48  F   UNL A   1      42.088  22.931  26.505  1.00  0.00    -0.200 F 
ATOM     49  F   UNL A   1      43.704  23.996  24.583  1.00  0.00    -0.200 F 
ENDBRANCH  25  39
BRANCH  26  50
ATOM     50  C   UNL A   1      39.157  32.027  35.281  1.00  0.00     0.064 A 
ATOM     51  C   UNL A   1      39.449  33.399  35.339  1.00  0.00     0.173 A 
ATOM     52  C   UNL A   1      38.426  31.468  36.336  1.00  0.00     0.173 A 
ATOM     53  F   UNL A   1      40.154  33.977  34.355  1.00  0.00    -0.203 F 
ATOM     54  C   UNL A   1      39.057  34.172  36.429  1.00  0.00     0.198 A 
ATOM     55  C   UNL A   1      38.012  32.248  37.414  1.00  0.00     0.198 A 
ATOM     56  F   UNL A   1      38.111  30.165  36.316  1.00  0.00    -0.203 F 
ATOM     57  F   UNL A   1      39.391  35.468  36.483  1.00  0.00    -0.200 F 
ATOM     58  C   UNL A   1      38.338  33.596  37.466  1.00  0.00     0.200 A 
ATOM     59  F   UNL A   1      37.303  31.693  38.407  1.00  0.00    -0.200 F 
ATOM     60  F   UNL A   1      37.964  34.339  38.516  1.00  0.00    -0.200 F 
ENDBRANCH  26  50
BRANCH  38  61
ATOM     61  C   UNL A   1      44.932  28.190  34.362  1.00  0.00     0.064 A 
ATOM     62  C   UNL A   1      44.942  27.100  35.248  1.00  0.00     0.173 A 
ATOM     63  C   UNL A   1      46.026  29.066  34.382  1.00  0.00     0.173 A 
ATOM     64  F   UNL A   1      43.914  26.239  35.270  1.00  0.00    -0.203 F 
ATOM     65  C   UNL A   1      45.993  26.912  36.140  1.00  0.00     0.198 A 
ATOM     66  C   UNL A   1      47.088  28.860  35.259  1.00  0.00     0.198 A 
ATOM     67  F   UNL A   1      46.067  30.113  33.546  1.00  0.00    -0.203 F 
ATOM     68  F   UNL A   1      45.962  25.889  37.005  1.00  0.00    -0.200 F 
ATOM     69  C   UNL A   1      47.065  27.791  36.145  1.00  0.00     0.200 A 
ATOM     70  F   UNL A   1      48.133  29.699  35.251  1.00  0.00    -0.200 F 
ATOM     71  F   UNL A   1      48.076  27.612  37.006  1.00  0.00    -0.200 F 
ENDBRANCH  38  61
ENDBRANCH  12  13
ENDBRANCH   5   7
ENDBRANCH   2   3
ENDBRANCH   1   2
BRANCH   1  72
ATOM     72  C   UNL A   1      32.068  26.851  24.683  1.00  0.00     0.118 C 
BRANCH  72  73
ATOM     73  N   UNL A   1      32.580  26.879  23.321  1.00  0.00    -0.352 N 
ATOM     74  C   UNL A   1      33.315  25.939  22.649  1.00  0.00     0.251 C 
ATOM     75  H   UNL A   1      32.368  27.693  22.809  1.00  0.00     0.163 HD
ATOM     76  O   UNL A   1      33.852  26.209  21.580  1.00  0.00    -0.269 OA
BRANCH  74  77
ATOM     77  C   UNL A   1      33.480  24.594  23.226  1.00  0.00     0.042 A 
ATOM     78  C   UNL A   1      32.660  23.538  22.815  1.00  0.00     0.015 A 
ATOM     79  C   UNL A   1      34.482  24.391  24.176  1.00  0.00     0.054 A 
ATOM     80  C   UNL A   1      32.809  22.282  23.402  1.00  0.00     0.024 A 
ATOM     81  C   UNL A   1      34.613  23.139  24.768  1.00  0.00     0.142 A 
ATOM     82  C   UNL A   1      33.785  22.090  24.388  1.00  0.00     0.103 A 
ATOM     83  F   UNL A   1      35.531  22.990  25.730  1.00  0.00    -0.206 F 
BRANCH  82  84
ATOM     84  S   UNL A   1      33.894  20.506  25.161  1.00  0.00     0.185 S 
ATOM     85  O   UNL A   1      35.205  19.994  24.806  1.00  0.00    -0.223 OA
ATOM     86  O   UNL A   1      33.552  20.710  26.560  1.00  0.00    -0.223 OA
BRANCH  84  87
ATOM     87  C   UNL A   1      32.667  19.413  24.470  1.00  0.00     0.183 C 
BRANCH  87  88
ATOM     88  C   UNL A   1      33.127  18.028  24.211  1.00  0.00     0.027 A 
ATOM     89  C   UNL A   1      33.287  16.964  25.128  1.00  0.00     0.162 A 
ATOM     90  C   UNL A   1      33.537  17.477  23.018  1.00  0.00     0.235 A 
ATOM     91  N   UNL A   1      33.739  15.856  24.539  1.00  0.00    -0.088 NA
ATOM     92  O   UNL A   1      33.896  16.186  23.205  1.00  0.00    -0.364 OA
ENDBRANCH  87  88
ENDBRANCH  84  87
ENDBRANCH  82  84
ENDBRANCH  74  77
ENDBRANCH  72  73
ENDBRANCH   1  72
TORSDOF 13
ENDMDL
MODEL 2
REMARK VINA RESULT:     -12.3      4.544      9.998
REMARK SMILES O=C(NCCCNC(=O)c1ccc(S(=O)(=O)Cc2cnoc2)c(F)c1)c1ccc(-c2c3nc(c(-c4c(F)c(F)c(F)c(F)c4F)c4ccc([nH]4)c(-c4c(F)c(F)c(F)c(F)c4F)c4nc(c(-c5c(F)c(F)c(F)c(F)c5F)c5ccc2[nH]5)C=C4)C=C3)cc1
REMARK SMILES IDX 5 1 4 2 3 3 1 4 2 5 26 7 27 8 88 9 28 10 87 11 29 12 30 13
REMARK SMILES IDX 31 14 81 15 32 16 86 17 80 18 82 19 33 20 85 21 79 22 78 23
REMARK SMILES IDX 34 25 66 26 46 27 65 28 47 29 50 30 64 31 83 32 48 33 49 34
REMARK SMILES IDX 63 36 84 37 51 38 35 39 36 40 44 41 37 42 38 43 42 44 45 45
REMARK SMILES IDX 39 46 40 47 43 48 41 49 67 50 68 51 76 52 69 53 70 54 74 55
REMARK SMILES IDX 77 56 71 57 72 58 75 59 73 60 52 61 53 62 61 63 54 64 55 65
REMARK SMILES IDX 59 66 62 67 56 68 57 69 60 70 58 71 6 72 7 73 8 74 9 76
REMARK SMILES IDX 10 77 11 78 25 79 12 80 23 81 13 82 24 83 14 84 15 85 16 86
REMARK SMILES IDX 17 87 18 88 19 89 22 90 20 91 21 92
REMARK H PARENT 3 6 82 24 50 35 7 75
REMARK Flexibility Score: inf
ROOT
ATOM      1  C   UNL A   1      38.075  19.911  24.744  1.00  0.00     0.042 C 
ENDROOT
BRANCH   1   2
ATOM      2  C   UNL A   1      38.954  20.082  25.978  1.00  0.00     0.118 C 
BRANCH   2   3
ATOM      3  N   UNL A   1      40.116  19.203  25.967  1.00  0.00    -0.352 N 
ATOM      4  O   UNL A   1      42.274  18.599  25.820  1.00  0.00    -0.269 OA
ATOM      5  C   UNL A   1      41.455  19.485  26.053  1.00  0.00     0.251 C 
ATOM      6  H   UNL A   1      39.903  18.246  25.882  1.00  0.00     0.163 HD
BRANCH   5   7
ATOM      7  C   UNL A   1      41.928  20.841  26.405  1.00  0.00     0.039 A 
ATOM      8  C   UNL A   1      42.279  21.174  27.714  1.00  0.00     0.014 A 
ATOM      9  C   UNL A   1      42.079  21.785  25.384  1.00  0.00     0.014 A 
ATOM     10  C   UNL A   1      42.643  22.481  28.029  1.00  0.00     0.010 A 
ATOM     11  C   UNL A   1      42.523  23.074  25.686  1.00  0.00     0.010 A 
ATOM     12  C   UNL A   1      42.779  23.441  27.016  1.00  0.00    -0.014 A 
BRANCH  12  13
ATOM     13  C   UNL A   1      43.231  24.815  27.347  1.00  0.00     0.031 A 
ATOM     14  C   UNL A   1      42.284  25.808  27.956  1.00  0.00     0.074 A 
ATOM     15  C   UNL A   1      44.504  25.167  27.090  1.00  0.00     0.049 A 
ATOM     16  N   UNL A   1      42.486  27.067  28.255  1.00  0.00    -0.248 NA
ATOM     17  C   UNL A   1      40.928  25.329  28.266  1.00  0.00     0.031 C 
ATOM     18  C   UNL A   1      45.517  24.287  26.507  1.00  0.00     0.029 A 
ATOM     19  N   UNL A   1      45.166  26.354  27.284  1.00  0.00    -0.354 N 
ATOM     20  C   UNL A   1      41.283  27.535  28.764  1.00  0.00     0.074 A 
ATOM     21  C   UNL A   1      40.346  26.432  28.714  1.00  0.00     0.031 C 
ATOM     22  C   UNL A   1      46.678  24.951  26.417  1.00  0.00     0.029 A 
ATOM     23  C   UNL A   1      46.476  26.323  26.874  1.00  0.00     0.049 A 
ATOM     24  H   UNL A   1      44.742  27.150  27.679  1.00  0.00     0.167 HD
ATOM     25  C   UNL A   1      40.992  28.771  29.237  1.00  0.00     0.037 A 
ATOM     26  C   UNL A   1      47.407  27.295  26.844  1.00  0.00     0.037 A 
ATOM     27  C   UNL A   1      41.938  29.856  29.299  1.00  0.00     0.049 A 
ATOM     28  C   UNL A   1      47.049  28.669  27.331  1.00  0.00     0.074 A 
ATOM     29  C   UNL A   1      41.748  31.134  29.796  1.00  0.00     0.029 A 
ATOM     30  N   UNL A   1      43.247  29.794  28.845  1.00  0.00    -0.354 N 
ATOM     31  N   UNL A   1      45.914  29.096  27.827  1.00  0.00    -0.248 NA
ATOM     32  C   UNL A   1      48.095  29.698  27.251  1.00  0.00     0.031 C 
ATOM     33  C   UNL A   1      42.926  31.860  29.596  1.00  0.00     0.029 A 
ATOM     34  C   UNL A   1      43.869  31.018  29.028  1.00  0.00     0.049 A 
ATOM     35  H   UNL A   1      43.672  28.996  28.453  1.00  0.00     0.167 HD
ATOM     36  C   UNL A   1      46.110  30.434  28.136  1.00  0.00     0.074 A 
ATOM     37  C   UNL A   1      47.478  30.749  27.777  1.00  0.00     0.031 C 
ATOM     38  C   UNL A   1      45.234  31.317  28.673  1.00  0.00     0.037 A 
BRANCH  25  39
ATOM     39  C   UNL A   1      39.592  29.030  29.712  1.00  0.00     0.064 A 
ATOM     40  C   UNL A   1      38.620  29.515  28.822  1.00  0.00     0.173 A 
ATOM     41  C   UNL A   1      39.226  28.860  31.055  1.00  0.00     0.173 A 
ATOM     42  F   UNL A   1      38.921  29.703  27.529  1.00  0.00    -0.203 F 
ATOM     43  C   UNL A   1      37.338  29.829  29.263  1.00  0.00     0.198 A 
ATOM     44  C   UNL A   1      37.932  29.148  31.485  1.00  0.00     0.198 A 
ATOM     45  F   UNL A   1      40.114  28.390  31.943  1.00  0.00    -0.203 F 
ATOM     46  F   UNL A   1      36.435  30.318  28.400  1.00  0.00    -0.200 F 
ATOM     47  C   UNL A   1      36.992  29.640  30.592  1.00  0.00     0.200 A 
ATOM     48  F   UNL A   1      37.594  28.942  32.766  1.00  0.00    -0.200 F 
ATOM     49  F   UNL A   1      35.753  29.929  31.011  1.00  0.00    -0.200 F 
ENDBRANCH  25  39
BRANCH  26  50
ATOM     50  C   UNL A   1      48.764  26.977  26.336  1.00  0.00     0.064 A 
ATOM     51  C   UNL A   1      49.082  27.111  24.975  1.00  0.00     0.173 A 
ATOM     52  C   UNL A   1      49.744  26.455  27.188  1.00  0.00     0.173 A 
ATOM     53  F   UNL A   1      48.172  27.598  24.119  1.00  0.00    -0.203 F 
ATOM     54  C   UNL A   1      50.319  26.703  24.482  1.00  0.00     0.198 A 
ATOM     55  C   UNL A   1      50.991  26.070  26.698  1.00  0.00     0.198 A 
ATOM     56  F   UNL A   1      49.491  26.323  28.498  1.00  0.00    -0.203 F 
ATOM     57  F   UNL A   1      50.578  26.795  23.171  1.00  0.00    -0.200 F 
ATOM     58  C   UNL A   1      51.272  26.183  25.343  1.00  0.00     0.200 A 
ATOM     59  F   UNL A   1      51.917  25.585  27.535  1.00  0.00    -0.200 F 
ATOM     60  F   UNL A   1      52.461  25.787  24.869  1.00  0.00    -0.200 F 
ENDBRANCH  26  50
BRANCH  38  61
ATOM     61  C   UNL A   1      45.720  32.710  28.940  1.00  0.00     0.064 A 
ATOM     62  C   UNL A   1      46.310  33.027  30.174  1.00  0.00     0.173 A 
ATOM     63  C   UNL A   1      45.506  33.750  28.025  1.00  0.00     0.173 A 
ATOM     64  F   UNL A   1      46.529  32.066  31.084  1.00  0.00    -0.203 F 
ATOM     65  C   UNL A   1      46.645  34.339  30.491  1.00  0.00     0.198 A 
ATOM     66  C   UNL A   1      45.866  35.059  28.336  1.00  0.00     0.198 A 
ATOM     67  F   UNL A   1      44.957  33.494  26.829  1.00  0.00    -0.203 F 
ATOM     68  F   UNL A   1      47.168  34.625  31.691  1.00  0.00    -0.200 F 
ATOM     69  C   UNL A   1      46.423  35.354  29.573  1.00  0.00     0.200 A 
ATOM     70  F   UNL A   1      45.668  36.036  27.441  1.00  0.00    -0.200 F 
ATOM     71  F   UNL A   1      46.743  36.619  29.880  1.00  0.00    -0.200 F 
ENDBRANCH  38  61
ENDBRANCH  12  13
ENDBRANCH   5   7
ENDBRANCH   2   3
ENDBRANCH   1   2
BRANCH   1  72
ATOM     72  C   UNL A   1      36.915  20.899  24.664  1.00  0.00     0.118 C 
BRANCH  72  73
ATOM     73  N   UNL A   1      35.963  20.715  25.749  1.00  0.00    -0.352 N 
ATOM     74  C   UNL A   1      34.977  21.556  26.192  1.00  0.00     0.251 C 
ATOM     75  H   UNL A   1      36.038  19.861  26.234  1.00  0.00     0.163 HD
ATOM     76  O   UNL A   1      34.403  21.345  27.255  1.00  0.00    -0.269 OA
BRANCH  74  77
ATOM     77  C   UNL A   1      34.616  22.740  25.394  1.00  0.00     0.042 A 
ATOM     78  C   UNL A   1      35.090  24.008  25.748  1.00  0.00     0.015 A 
ATOM     79  C   UNL A   1      33.808  22.569  24.269  1.00  0.00     0.054 A 
ATOM     80  C   UNL A   1      34.704  25.120  25.000  1.00  0.00     0.024 A 
ATOM     81  C   UNL A   1      33.415  23.686  23.539  1.00  0.00     0.142 A 
ATOM     82  C   UNL A   1      33.856  24.953  23.898  1.00  0.00     0.103 A 
ATOM     83  F   UNL A   1      32.579  23.503  22.510  1.00  0.00    -0.206 F 
BRANCH  82  84
ATOM     84  S   UNL A   1      33.330  26.393  23.021  1.00  0.00     0.185 S 
ATOM     85  O   UNL A   1      34.028  27.500  23.647  1.00  0.00    -0.223 OA
ATOM     86  O   UNL A   1      33.539  26.111  21.610  1.00  0.00    -0.223 OA
BRANCH  84  87
ATOM     87  C   UNL A   1      31.581  26.637  23.259  1.00  0.00     0.183 C 
BRANCH  87  88
ATOM     88  C   UNL A   1      31.094  26.426  24.644  1.00  0.00     0.027 A 
ATOM     89  C   UNL A   1      30.312  25.365  25.154  1.00  0.00     0.162 A 
ATOM     90  C   UNL A   1      31.267  27.242  25.739  1.00  0.00     0.235 A 
ATOM     91  N   UNL A   1      30.048  25.513  26.452  1.00  0.00    -0.088 NA
ATOM     92  O   UNL A   1      30.653  26.702  26.818  1.00  0.00    -0.364 OA
ENDBRANCH  87  88
ENDBRANCH  84  87
ENDBRANCH  82  84
ENDBRANCH  74  77
ENDBRANCH  72  73
ENDBRANCH   1  72
TORSDOF 13
ENDMDL
MODEL 3
REMARK VINA RESULT:     -12.3      2.127      3.403
REMARK SMILES O=C(NCCCNC(=O)c1ccc(S(=O)(=O)Cc2cnoc2)c(F)c1)c1ccc(-c2c3nc(c(-c4c(F)c(F)c(F)c(F)c4F)c4ccc([nH]4)c(-c4c(F)c(F)c(F)c(F)c4F)c4nc(c(-c5c(F)c(F)c(F)c(F)c5F)c5ccc2[nH]5)C=C4)C=C3)cc1
REMARK SMILES IDX 5 1 4 2 3 3 1 4 2 5 26 7 27 8 88 9 28 10 87 11 29 12 30 13
REMARK SMILES IDX 31 14 81 15 32 16 86 17 80 18 82 19 33 20 85 21 79 22 78 23
REMARK SMILES IDX 34 25 66 26 46 27 65 28 47 29 50 30 64 31 83 32 48 33 49 34
REMARK SMILES IDX 63 36 84 37 51 38 35 39 36 40 44 41 37 42 38 43 42 44 45 45
REMARK SMILES IDX 39 46 40 47 43 48 41 49 67 50 68 51 76 52 69 53 70 54 74 55
REMARK SMILES IDX 77 56 71 57 72 58 75 59 73 60 52 61 53 62 61 63 54 64 55 65
REMARK SMILES IDX 59 66 62 67 56 68 57 69 60 70 58 71 6 72 7 73 8 74 9 76
REMARK SMILES IDX 10 77 11 78 25 79 12 80 23 81 13 82 24 83 14 84 15 85 16 86
REMARK SMILES IDX 17 87 18 88 19 89 22 90 20 91 21 92
REMARK H PARENT 3 6 82 24 50 35 7 75
REMARK Flexibility Score: inf
ROOT
ATOM      1  C   UNL A   1      31.407  31.819  26.668  1.00  0.00     0.042 C 
ENDROOT
BRANCH   1   2
ATOM      2  C   UNL A   1      32.700  32.603  26.866  1.00  0.00     0.118 C 
BRANCH   2   3
ATOM      3  N   UNL A   1      32.477  33.911  27.468  1.00  0.00    -0.352 N 
ATOM      4  O   UNL A   1      32.571  35.540  29.011  1.00  0.00    -0.269 OA
ATOM      5  C   UNL A   1      33.057  34.506  28.560  1.00  0.00     0.251 C 
ATOM      6  H   UNL A   1      31.796  34.459  27.016  1.00  0.00     0.163 HD
BRANCH   5   7
ATOM      7  C   UNL A   1      34.244  33.913  29.211  1.00  0.00     0.039 A 
ATOM      8  C   UNL A   1      35.531  34.391  28.955  1.00  0.00     0.014 A 
ATOM      9  C   UNL A   1      34.057  32.890  30.146  1.00  0.00     0.014 A 
ATOM     10  C   UNL A   1      36.635  33.760  29.521  1.00  0.00     0.010 A 
ATOM     11  C   UNL A   1      35.160  32.310  30.777  1.00  0.00     0.010 A 
ATOM     12  C   UNL A   1      36.460  32.720  30.446  1.00  0.00    -0.014 A 
BRANCH  12  13
ATOM     13  C   UNL A   1      37.638  32.095  31.096  1.00  0.00     0.031 A 
ATOM     14  C   UNL A   1      38.427  31.029  30.391  1.00  0.00     0.074 A 
ATOM     15  C   UNL A   1      37.992  32.489  32.333  1.00  0.00     0.049 A 
ATOM     16  N   UNL A   1      39.445  30.330  30.828  1.00  0.00    -0.248 NA
ATOM     17  C   UNL A   1      38.017  30.697  29.018  1.00  0.00     0.031 C 
ATOM     18  C   UNL A   1      37.307  33.520  33.113  1.00  0.00     0.029 A 
ATOM     19  N   UNL A   1      39.013  32.075  33.152  1.00  0.00    -0.354 N 
ATOM     20  C   UNL A   1      39.782  29.464  29.797  1.00  0.00     0.074 A 
ATOM     21  C   UNL A   1      38.846  29.707  28.719  1.00  0.00     0.031 C 
ATOM     22  C   UNL A   1      37.941  33.679  34.284  1.00  0.00     0.029 A 
ATOM     23  C   UNL A   1      39.036  32.718  34.364  1.00  0.00     0.049 A 
ATOM     24  H   UNL A   1      39.664  31.384  32.895  1.00  0.00     0.167 HD
ATOM     25  C   UNL A   1      40.786  28.556  29.754  1.00  0.00     0.037 A 
ATOM     26  C   UNL A   1      39.833  32.539  35.435  1.00  0.00     0.037 A 
ATOM     27  C   UNL A   1      41.724  28.335  30.826  1.00  0.00     0.049 A 
ATOM     28  C   UNL A   1      40.910  31.496  35.382  1.00  0.00     0.074 A 
ATOM     29  C   UNL A   1      42.798  27.464  30.862  1.00  0.00     0.029 A 
ATOM     30  N   UNL A   1      41.695  28.986  32.050  1.00  0.00    -0.354 N 
ATOM     31  N   UNL A   1      41.231  30.694  34.395  1.00  0.00    -0.248 NA
ATOM     32  C   UNL A   1      41.732  31.324  36.587  1.00  0.00     0.031 C 
ATOM     33  C   UNL A   1      43.388  27.549  32.126  1.00  0.00     0.029 A 
ATOM     34  C   UNL A   1      42.717  28.516  32.858  1.00  0.00     0.049 A 
ATOM     35  H   UNL A   1      41.044  29.679  32.307  1.00  0.00     0.167 HD
ATOM     36  C   UNL A   1      42.302  29.938  34.849  1.00  0.00     0.074 A 
ATOM     37  C   UNL A   1      42.581  30.380  36.201  1.00  0.00     0.031 C 
ATOM     38  C   UNL A   1      42.990  28.969  34.200  1.00  0.00     0.037 A 
BRANCH  25  39
ATOM     39  C   UNL A   1      40.922  27.716  28.517  1.00  0.00     0.064 A 
ATOM     40  C   UNL A   1      41.728  28.149  27.452  1.00  0.00     0.173 A 
ATOM     41  C   UNL A   1      40.210  26.519  28.356  1.00  0.00     0.173 A 
ATOM     42  F   UNL A   1      42.423  29.291  27.551  1.00  0.00    -0.203 F 
ATOM     43  C   UNL A   1      41.808  27.418  26.271  1.00  0.00     0.198 A 
ATOM     44  C   UNL A   1      40.316  25.776  27.182  1.00  0.00     0.198 A 
ATOM     45  F   UNL A   1      39.434  26.056  29.348  1.00  0.00    -0.203 F 
ATOM     46  F   UNL A   1      42.562  27.866  25.256  1.00  0.00    -0.200 F 
ATOM     47  C   UNL A   1      41.107  26.230  26.138  1.00  0.00     0.200 A 
ATOM     48  F   UNL A   1      39.655  24.615  27.066  1.00  0.00    -0.200 F 
ATOM     49  F   UNL A   1      41.196  25.520  25.005  1.00  0.00    -0.200 F 
ENDBRANCH  25  39
BRANCH  26  50
ATOM     50  C   UNL A   1      39.625  33.385  36.636  1.00  0.00     0.064 A 
ATOM     51  C   UNL A   1      38.761  32.987  37.668  1.00  0.00     0.173 A 
ATOM     52  C   UNL A   1      40.226  34.646  36.736  1.00  0.00     0.173 A 
ATOM     53  F   UNL A   1      38.156  31.791  37.610  1.00  0.00    -0.203 F 
ATOM     54  C   UNL A   1      38.479  33.833  38.737  1.00  0.00     0.198 A 
ATOM     55  C   UNL A   1      39.964  35.482  37.820  1.00  0.00     0.198 A 
ATOM     56  F   UNL A   1      41.072  35.062  35.783  1.00  0.00    -0.203 F 
ATOM     57  F   UNL A   1      37.611  33.448  39.682  1.00  0.00    -0.200 F 
ATOM     58  C   UNL A   1      39.081  35.080  38.813  1.00  0.00     0.200 A 
ATOM     59  F   UNL A   1      40.560  36.679  37.900  1.00  0.00    -0.200 F 
ATOM     60  F   UNL A   1      38.808  35.895  39.840  1.00  0.00    -0.200 F 
ENDBRANCH  26  50
BRANCH  38  61
ATOM     61  C   UNL A   1      44.140  28.327  34.917  1.00  0.00     0.064 A 
ATOM     62  C   UNL A   1      45.432  28.863  34.801  1.00  0.00     0.173 A 
ATOM     63  C   UNL A   1      43.984  27.128  35.626  1.00  0.00     0.173 A 
ATOM     64  F   UNL A   1      45.631  30.005  34.126  1.00  0.00    -0.203 F 
ATOM     65  C   UNL A   1      46.530  28.208  35.348  1.00  0.00     0.198 A 
ATOM     66  C   UNL A   1      45.082  26.488  36.194  1.00  0.00     0.198 A 
ATOM     67  F   UNL A   1      42.767  26.585  35.775  1.00  0.00    -0.203 F 
ATOM     68  F   UNL A   1      47.760  28.715  35.189  1.00  0.00    -0.200 F 
ATOM     69  C   UNL A   1      46.355  27.021  36.044  1.00  0.00     0.200 A 
ATOM     70  F   UNL A   1      44.911  25.351  36.883  1.00  0.00    -0.200 F 
ATOM     71  F   UNL A   1      47.414  26.388  36.569  1.00  0.00    -0.200 F 
ENDBRANCH  38  61
ENDBRANCH  12  13
ENDBRANCH   5   7
ENDBRANCH   2   3
ENDBRANCH   1   2
BRANCH   1  72
ATOM     72  C   UNL A   1      31.617  30.338  26.368  1.00  0.00     0.118 C 
BRANCH  72  73
ATOM     73  N   UNL A   1      32.221  30.124  25.062  1.00  0.00    -0.352 N 
ATOM     74  C   UNL A   1      32.615  28.955  24.468  1.00  0.00     0.251 C 
ATOM     75  H   UNL A   1      32.369  30.938  24.528  1.00  0.00     0.163 HD
ATOM     76  O   UNL A   1      33.306  28.968  23.454  1.00  0.00    -0.269 OA
BRANCH  74  77
ATOM     77  C   UNL A   1      32.224  27.666  25.064  1.00  0.00     0.042 A 
ATOM     78  C   UNL A   1      33.087  26.993  25.934  1.00  0.00     0.015 A 
ATOM     79  C   UNL A   1      30.968  27.140  24.756  1.00  0.00     0.054 A 
ATOM     80  C   UNL A   1      32.712  25.756  26.457  1.00  0.00     0.024 A 
ATOM     81  C   UNL A   1      30.608  25.898  25.269  1.00  0.00     0.142 A 
ATOM     82  C   UNL A   1      31.470  25.207  26.112  1.00  0.00     0.103 A 
ATOM     83  F   UNL A   1      29.431  25.381  24.899  1.00  0.00    -0.206 F 
BRANCH  82  84
ATOM     84  S   UNL A   1      31.061  23.605  26.733  1.00  0.00     0.185 S 
ATOM     85  O   UNL A   1      32.150  23.250  27.625  1.00  0.00    -0.223 OA
ATOM     86  O   UNL A   1      29.705  23.702  27.250  1.00  0.00    -0.223 OA
BRANCH  84  87
ATOM     87  C   UNL A   1      31.036  22.429  25.395  1.00  0.00     0.183 C 
BRANCH  87  88
ATOM     88  C   UNL A   1      32.340  21.796  25.083  1.00  0.00     0.027 A 
ATOM     89  C   UNL A   1      32.777  20.483  25.372  1.00  0.00     0.162 A 
ATOM     90  C   UNL A   1      33.434  22.363  24.471  1.00  0.00     0.235 A 
ATOM     91  N   UNL A   1      34.024  20.265  24.955  1.00  0.00    -0.088 NA
ATOM     92  O   UNL A   1      34.437  21.457  24.386  1.00  0.00    -0.364 OA
ENDBRANCH  87  88
ENDBRANCH  84  87
ENDBRANCH  82  84
ENDBRANCH  74  77
ENDBRANCH  72  73
ENDBRANCH   1  72
TORSDOF 13
ENDMDL
