MODEL 1
REMARK VINA RESULT:     -12.3      0.000      0.000
REMARK SMILES CCCCNC(=O)c1c(Cl)c(Cl)c(Cl)c(Cl)c1C(=O)NCCCNC(=O)c1ccc(-c2c3nc(c(-c4c(F)c(F)c(F)c(F)c4F)c4ccc([nH]4)c(-c4c(F)c(F)c(F)c(F)c4F)c4nc(c(-c5c(F)c(F)c(F)c(F)c5F)c5ccc2[nH]5)C=C4)C=C3)cc1
REMARK SMILES IDX 21 1 20 2 18 3 19 4 17 6 8 7 9 8 10 9 11 10 15 11 12 12
REMARK SMILES IDX 13 13 16 14 14 15 6 16 5 17 7 19 4 20 3 21 2 22 1 23 22 24
REMARK SMILES IDX 23 25 24 26 25 27 26 29 27 30 28 31 89 32 29 33 88 34 30 35
REMARK SMILES IDX 31 36 32 37 82 38 33 39 87 40 81 41 83 42 34 43 86 44 80 45
REMARK SMILES IDX 79 46 35 48 67 49 47 50 66 51 48 52 51 53 65 54 84 55 49 56
REMARK SMILES IDX 50 57 64 59 85 60 52 61 36 62 37 63 45 64 38 65 39 66 43 67
REMARK SMILES IDX 46 68 40 69 41 70 44 71 42 72 68 73 69 74 77 75 70 76 71 77
REMARK SMILES IDX 75 78 78 79 72 80 73 81 76 82 74 83 53 84 54 85 62 86 55 87
REMARK SMILES IDX 56 88 60 89 63 90 57 91 58 92 61 93 59 94
REMARK H PARENT 20 5 5 18 24 28 83 47 51 58
REMARK Flexibility Score: inf
ROOT
ATOM      1  C   UNL A   1      31.228  30.943  25.942  1.00  0.00     0.118 C 
ENDROOT
BRANCH   1   2
ATOM      2  N   UNL A   1      32.431  30.211  26.242  1.00  0.00    -0.352 N 
ATOM      3  C   UNL A   1      32.910  29.075  25.637  1.00  0.00     0.253 C 
ATOM      4  O   UNL A   1      34.120  28.862  25.711  1.00  0.00    -0.269 OA
ATOM      5  H   UNL A   1      32.981  30.572  26.975  1.00  0.00     0.163 HD
BRANCH   3   6
ATOM      6  C   UNL A   1      32.069  28.032  24.979  1.00  0.00     0.074 A 
ATOM      7  C   UNL A   1      31.995  27.827  23.587  1.00  0.00     0.074 A 
ATOM      8  C   UNL A   1      31.504  26.614  23.059  1.00  0.00     0.074 A 
ATOM      9  Cl  UNL A   1      31.567  26.316  21.339  1.00  0.00    -0.082 Cl
ATOM     10  C   UNL A   1      30.989  25.629  23.917  1.00  0.00     0.080 A 
ATOM     11  C   UNL A   1      31.506  27.049  25.831  1.00  0.00     0.074 A 
ATOM     12  Cl  UNL A   1      30.345  24.151  23.258  1.00  0.00    -0.081 Cl
ATOM     13  C   UNL A   1      30.969  25.856  25.302  1.00  0.00     0.080 A 
ATOM     14  Cl  UNL A   1      31.389  27.336  27.552  1.00  0.00    -0.082 Cl
ATOM     15  Cl  UNL A   1      30.298  24.646  26.364  1.00  0.00    -0.081 Cl
BRANCH   7  16
ATOM     16  C   UNL A   1      32.439  28.849  22.629  1.00  0.00     0.253 C 
ATOM     17  N   UNL A   1      31.498  29.641  21.995  1.00  0.00    -0.352 N 
ATOM     18  H   UNL A   1      31.868  30.351  21.423  1.00  0.00     0.163 HD
ATOM     19  O   UNL A   1      33.640  29.001  22.439  1.00  0.00    -0.269 OA
BRANCH  17  20
ATOM     20  C   UNL A   1      30.037  29.583  22.047  1.00  0.00     0.116 C 
BRANCH  20  21
ATOM     21  C   UNL A   1      29.374  30.639  22.940  1.00  0.00     0.021 C 
BRANCH  21  22
ATOM     22  C   UNL A   1      27.861  30.528  23.122  1.00  0.00    -0.002 C 
ATOM     23  C   UNL A   1      27.343  29.101  23.069  1.00  0.00     0.004 C 
ENDBRANCH  21  22
ENDBRANCH  20  21
ENDBRANCH  17  20
ENDBRANCH   7  16
ENDBRANCH   3   6
ENDBRANCH   1   2
BRANCH   1  24
ATOM     24  C   UNL A   1      31.116  32.352  26.487  1.00  0.00     0.042 C 
BRANCH  24  25
ATOM     25  C   UNL A   1      32.408  32.932  27.037  1.00  0.00     0.118 C 
BRANCH  25  26
ATOM     26  N   UNL A   1      32.283  34.280  27.580  1.00  0.00    -0.352 N 
ATOM     27  C   UNL A   1      32.976  34.971  28.547  1.00  0.00     0.251 C 
ATOM     28  H   UNL A   1      31.556  34.802  27.169  1.00  0.00     0.163 HD
ATOM     29  O   UNL A   1      32.601  36.101  28.856  1.00  0.00    -0.269 OA
BRANCH  27  30
ATOM     30  C   UNL A   1      34.120  34.373  29.274  1.00  0.00     0.039 A 
ATOM     31  C   UNL A   1      33.865  33.571  30.394  1.00  0.00     0.014 A 
ATOM     32  C   UNL A   1      35.439  34.600  28.895  1.00  0.00     0.014 A 
ATOM     33  C   UNL A   1      34.918  32.922  31.050  1.00  0.00     0.010 A 
ATOM     34  C   UNL A   1      36.467  33.848  29.452  1.00  0.00     0.010 A 
ATOM     35  C   UNL A   1      36.224  33.005  30.545  1.00  0.00    -0.014 A 
BRANCH  35  36
ATOM     36  C   UNL A   1      37.358  32.252  31.146  1.00  0.00     0.031 A 
ATOM     37  C   UNL A   1      37.857  32.611  32.522  1.00  0.00     0.074 A 
ATOM     38  C   UNL A   1      38.000  31.312  30.422  1.00  0.00     0.049 A 
ATOM     39  N   UNL A   1      38.914  32.176  33.163  1.00  0.00    -0.248 NA
ATOM     40  C   UNL A   1      37.093  33.631  33.259  1.00  0.00     0.031 C 
ATOM     41  C   UNL A   1      37.656  30.908  29.058  1.00  0.00     0.029 A 
ATOM     42  N   UNL A   1      39.087  30.531  30.731  1.00  0.00    -0.354 N 
ATOM     43  C   UNL A   1      38.953  32.889  34.355  1.00  0.00     0.074 A 
ATOM     44  C   UNL A   1      37.858  33.834  34.319  1.00  0.00     0.031 C 
ATOM     45  C   UNL A   1      38.490  29.934  28.660  1.00  0.00     0.029 A 
ATOM     46  C   UNL A   1      39.459  29.677  29.720  1.00  0.00     0.049 A 
ATOM     47  H   UNL A   1      39.557  30.580  31.595  1.00  0.00     0.167 HD
ATOM     48  C   UNL A   1      39.801  32.749  35.402  1.00  0.00     0.037 A 
ATOM     49  C   UNL A   1      40.472  28.793  29.654  1.00  0.00     0.037 A 
ATOM     50  C   UNL A   1      40.856  31.773  35.456  1.00  0.00     0.049 A 
ATOM     51  C   UNL A   1      41.395  28.646  30.835  1.00  0.00     0.074 A 
ATOM     52  C   UNL A   1      41.727  31.500  36.496  1.00  0.00     0.029 A 
ATOM     53  N   UNL A   1      41.178  30.902  34.425  1.00  0.00    -0.354 N 
ATOM     54  N   UNL A   1      41.381  29.283  31.982  1.00  0.00    -0.248 NA
ATOM     55  C   UNL A   1      42.471  27.654  30.714  1.00  0.00     0.031 C 
ATOM     56  C   UNL A   1      42.603  30.493  36.079  1.00  0.00     0.029 A 
ATOM     57  C   UNL A   1      42.246  30.104  34.798  1.00  0.00     0.049 A 
ATOM     58  H   UNL A   1      40.715  30.858  33.557  1.00  0.00     0.167 HD
ATOM     59  C   UNL A   1      42.423  28.749  32.727  1.00  0.00     0.074 A 
ATOM     60  C   UNL A   1      43.038  27.724  31.911  1.00  0.00     0.031 C 
ATOM     61  C   UNL A   1      42.835  29.078  33.976  1.00  0.00     0.037 A 
BRANCH  48  62
ATOM     62  C   UNL A   1      39.610  33.660  36.581  1.00  0.00     0.064 A 
ATOM     63  C   UNL A   1      38.830  33.281  37.686  1.00  0.00     0.173 A 
ATOM     64  C   UNL A   1      40.239  34.913  36.625  1.00  0.00     0.173 A 
ATOM     65  F   UNL A   1      38.196  32.098  37.690  1.00  0.00    -0.203 F 
ATOM     66  C   UNL A   1      38.659  34.136  38.771  1.00  0.00     0.198 A 
ATOM     67  C   UNL A   1      40.094  35.752  37.728  1.00  0.00     0.198 A 
ATOM     68  F   UNL A   1      41.001  35.324  35.600  1.00  0.00    -0.203 F 
ATOM     69  F   UNL A   1      37.863  33.774  39.787  1.00  0.00    -0.200 F 
ATOM     70  C   UNL A   1      39.297  35.366  38.795  1.00  0.00     0.200 A 
ATOM     71  F   UNL A   1      40.722  36.934  37.757  1.00  0.00    -0.200 F 
ATOM     72  F   UNL A   1      39.138  36.184  39.845  1.00  0.00    -0.200 F 
ENDBRANCH  48  62
BRANCH  49  73
ATOM     73  C   UNL A   1      40.655  27.953  28.440  1.00  0.00     0.064 A 
ATOM     74  C   UNL A   1      40.066  26.683  28.351  1.00  0.00     0.173 A 
ATOM     75  C   UNL A   1      41.428  28.389  27.355  1.00  0.00     0.173 A 
ATOM     76  F   UNL A   1      39.333  26.213  29.371  1.00  0.00    -0.203 F 
ATOM     77  C   UNL A   1      40.265  25.872  27.236  1.00  0.00     0.198 A 
ATOM     78  C   UNL A   1      41.600  27.590  26.226  1.00  0.00     0.198 A 
ATOM     79  F   UNL A   1      42.007  29.599  27.384  1.00  0.00    -0.203 F 
ATOM     80  F   UNL A   1      39.733  24.643  27.200  1.00  0.00    -0.200 F 
ATOM     81  C   UNL A   1      41.028  26.328  26.172  1.00  0.00     0.200 A 
ATOM     82  F   UNL A   1      42.325  28.041  25.193  1.00  0.00    -0.200 F 
ATOM     83  F   UNL A   1      41.218  25.549  25.098  1.00  0.00    -0.200 F 
ENDBRANCH  49  73
BRANCH  61  84
ATOM     84  C   UNL A   1      43.980  28.297  34.551  1.00  0.00     0.064 A 
ATOM     85  C   UNL A   1      45.305  28.740  34.437  1.00  0.00     0.173 A 
ATOM     86  C   UNL A   1      43.742  27.112  35.264  1.00  0.00     0.173 A 
ATOM     87  F   UNL A   1      45.586  29.859  33.753  1.00  0.00    -0.203 F 
ATOM     88  C   UNL A   1      46.353  28.012  34.994  1.00  0.00     0.198 A 
ATOM     89  C   UNL A   1      44.788  26.403  35.846  1.00  0.00     0.198 A 
ATOM     90  F   UNL A   1      42.490  26.650  35.408  1.00  0.00    -0.203 F 
ATOM     91  F   UNL A   1      47.616  28.427  34.831  1.00  0.00    -0.200 F 
ATOM     92  C   UNL A   1      46.092  26.849  35.704  1.00  0.00     0.200 A 
ATOM     93  F   UNL A   1      44.532  25.289  36.545  1.00  0.00    -0.200 F 
ATOM     94  F   UNL A   1      47.101  26.154  36.246  1.00  0.00    -0.200 F 
ENDBRANCH  61  84
ENDBRANCH  35  36
ENDBRANCH  27  30
ENDBRANCH  25  26
ENDBRANCH  24  25
ENDBRANCH   1  24
TORSDOF 14
ENDMDL
MODEL 2
REMARK VINA RESULT:     -12.2      0.584      7.510
REMARK SMILES CCCCNC(=O)c1c(Cl)c(Cl)c(Cl)c(Cl)c1C(=O)NCCCNC(=O)c1ccc(-c2c3nc(c(-c4c(F)c(F)c(F)c(F)c4F)c4ccc([nH]4)c(-c4c(F)c(F)c(F)c(F)c4F)c4nc(c(-c5c(F)c(F)c(F)c(F)c5F)c5ccc2[nH]5)C=C4)C=C3)cc1
REMARK SMILES IDX 21 1 20 2 18 3 19 4 17 6 8 7 9 8 10 9 11 10 15 11 12 12
REMARK SMILES IDX 13 13 16 14 14 15 6 16 5 17 7 19 4 20 3 21 2 22 1 23 22 24
REMARK SMILES IDX 23 25 24 26 25 27 26 29 27 30 28 31 89 32 29 33 88 34 30 35
REMARK SMILES IDX 31 36 32 37 82 38 33 39 87 40 81 41 83 42 34 43 86 44 80 45
REMARK SMILES IDX 79 46 35 48 67 49 47 50 66 51 48 52 51 53 65 54 84 55 49 56
REMARK SMILES IDX 50 57 64 59 85 60 52 61 36 62 37 63 45 64 38 65 39 66 43 67
REMARK SMILES IDX 46 68 40 69 41 70 44 71 42 72 68 73 69 74 77 75 70 76 71 77
REMARK SMILES IDX 75 78 78 79 72 80 73 81 76 82 74 83 53 84 54 85 62 86 55 87
REMARK SMILES IDX 56 88 60 89 63 90 57 91 58 92 61 93 59 94
REMARK H PARENT 20 5 5 18 24 28 83 47 51 58
REMARK Flexibility Score: inf
ROOT
ATOM      1  C   UNL A   1      31.458  30.886  25.849  1.00  0.00     0.118 C 
ENDROOT
BRANCH   1   2
ATOM      2  N   UNL A   1      32.613  30.121  26.241  1.00  0.00    -0.352 N 
ATOM      3  C   UNL A   1      33.075  28.943  25.705  1.00  0.00     0.253 C 
ATOM      4  O   UNL A   1      34.270  28.686  25.851  1.00  0.00    -0.269 OA
ATOM      5  H   UNL A   1      33.139  30.489  26.988  1.00  0.00     0.163 HD
BRANCH   3   6
ATOM      6  C   UNL A   1      32.227  27.908  25.044  1.00  0.00     0.074 A 
ATOM      7  C   UNL A   1      32.178  27.685  23.653  1.00  0.00     0.074 A 
ATOM      8  C   UNL A   1      31.674  26.475  23.132  1.00  0.00     0.074 A 
ATOM      9  Cl  UNL A   1      31.767  26.151  21.418  1.00  0.00    -0.082 Cl
ATOM     10  C   UNL A   1      31.120  25.513  23.992  1.00  0.00     0.080 A 
ATOM     11  C   UNL A   1      31.626  26.949  25.897  1.00  0.00     0.074 A 
ATOM     12  Cl  UNL A   1      30.460  24.039  23.339  1.00  0.00    -0.081 Cl
ATOM     13  C   UNL A   1      31.076  25.760  25.373  1.00  0.00     0.080 A 
ATOM     14  Cl  UNL A   1      31.479  27.263  27.611  1.00  0.00    -0.082 Cl
ATOM     15  Cl  UNL A   1      30.357  24.579  26.437  1.00  0.00    -0.081 Cl
BRANCH   7  16
ATOM     16  C   UNL A   1      32.664  28.684  22.691  1.00  0.00     0.253 C 
ATOM     17  N   UNL A   1      31.753  29.479  22.019  1.00  0.00    -0.352 N 
ATOM     18  H   UNL A   1      32.149  30.174  21.445  1.00  0.00     0.163 HD
ATOM     19  O   UNL A   1      33.872  28.815  22.531  1.00  0.00    -0.269 OA
BRANCH  17  20
ATOM     20  C   UNL A   1      30.290  29.443  22.031  1.00  0.00     0.116 C 
BRANCH  20  21
ATOM     21  C   UNL A   1      29.620  30.513  22.902  1.00  0.00     0.021 C 
BRANCH  21  22
ATOM     22  C   UNL A   1      28.165  30.259  23.298  1.00  0.00    -0.002 C 
ATOM     23  C   UNL A   1      27.420  31.513  23.720  1.00  0.00     0.004 C 
ENDBRANCH  21  22
ENDBRANCH  20  21
ENDBRANCH  17  20
ENDBRANCH   7  16
ENDBRANCH   3   6
ENDBRANCH   1   2
BRANCH   1  24
ATOM     24  C   UNL A   1      31.200  32.183  26.589  1.00  0.00     0.042 C 
BRANCH  24  25
ATOM     25  C   UNL A   1      32.429  32.821  27.214  1.00  0.00     0.118 C 
BRANCH  25  26
ATOM     26  N   UNL A   1      32.248  34.210  27.622  1.00  0.00    -0.352 N 
ATOM     27  C   UNL A   1      32.923  35.026  28.500  1.00  0.00     0.251 C 
ATOM     28  H   UNL A   1      31.490  34.653  27.177  1.00  0.00     0.163 HD
ATOM     29  O   UNL A   1      32.499  36.163  28.702  1.00  0.00    -0.269 OA
BRANCH  27  30
ATOM     30  C   UNL A   1      34.107  34.559  29.258  1.00  0.00     0.039 A 
ATOM     31  C   UNL A   1      33.929  34.079  30.562  1.00  0.00     0.014 A 
ATOM     32  C   UNL A   1      35.392  34.600  28.725  1.00  0.00     0.014 A 
ATOM     33  C   UNL A   1      35.013  33.550  31.272  1.00  0.00     0.010 A 
ATOM     34  C   UNL A   1      36.437  33.948  29.369  1.00  0.00     0.010 A 
ATOM     35  C   UNL A   1      36.268  33.422  30.656  1.00  0.00    -0.014 A 
BRANCH  35  36
ATOM     36  C   UNL A   1      37.422  32.773  31.333  1.00  0.00     0.031 A 
ATOM     37  C   UNL A   1      38.133  31.619  30.673  1.00  0.00     0.074 A 
ATOM     38  C   UNL A   1      37.774  33.155  32.578  1.00  0.00     0.049 A 
ATOM     39  N   UNL A   1      39.063  30.831  31.153  1.00  0.00    -0.248 NA
ATOM     40  C   UNL A   1      37.709  31.274  29.306  1.00  0.00     0.031 C 
ATOM     41  C   UNL A   1      37.133  34.218  33.353  1.00  0.00     0.029 A 
ATOM     42  N   UNL A   1      38.752  32.682  33.417  1.00  0.00    -0.354 N 
ATOM     43  C   UNL A   1      39.307  29.888  30.162  1.00  0.00     0.074 A 
ATOM     44  C   UNL A   1      38.381  30.156  29.084  1.00  0.00     0.031 C 
ATOM     45  C   UNL A   1      37.754  34.340  34.537  1.00  0.00     0.029 A 
ATOM     46  C   UNL A   1      38.806  33.332  34.627  1.00  0.00     0.049 A 
ATOM     47  H   UNL A   1      39.359  31.944  33.176  1.00  0.00     0.167 HD
ATOM     48  C   UNL A   1      40.241  28.907  30.134  1.00  0.00     0.037 A 
ATOM     49  C   UNL A   1      39.607  33.133  35.691  1.00  0.00     0.037 A 
ATOM     50  C   UNL A   1      41.195  28.676  31.185  1.00  0.00     0.049 A 
ATOM     51  C   UNL A   1      40.646  32.044  35.631  1.00  0.00     0.074 A 
ATOM     52  C   UNL A   1      42.228  27.755  31.227  1.00  0.00     0.029 A 
ATOM     53  N   UNL A   1      41.238  29.380  32.379  1.00  0.00    -0.354 N 
ATOM     54  N   UNL A   1      40.907  31.201  34.662  1.00  0.00    -0.248 NA
ATOM     55  C   UNL A   1      41.503  31.883  36.813  1.00  0.00     0.031 C 
ATOM     56  C   UNL A   1      42.869  27.874  32.464  1.00  0.00     0.029 A 
ATOM     57  C   UNL A   1      42.269  28.903  33.172  1.00  0.00     0.049 A 
ATOM     58  H   UNL A   1      40.627  30.112  32.626  1.00  0.00     0.167 HD
ATOM     59  C   UNL A   1      41.975  30.432  35.103  1.00  0.00     0.074 A 
ATOM     60  C   UNL A   1      42.325  30.920  36.421  1.00  0.00     0.031 C 
ATOM     61  C   UNL A   1      42.610  29.412  34.475  1.00  0.00     0.037 A 
BRANCH  48  62
ATOM     62  C   UNL A   1      40.287  28.023  28.920  1.00  0.00     0.064 A 
ATOM     63  C   UNL A   1      41.029  28.375  27.781  1.00  0.00     0.173 A 
ATOM     64  C   UNL A   1      39.612  26.793  28.906  1.00  0.00     0.173 A 
ATOM     65  F   UNL A   1      41.683  29.546  27.737  1.00  0.00    -0.203 F 
ATOM     66  C   UNL A   1      41.061  27.548  26.661  1.00  0.00     0.198 A 
ATOM     67  C   UNL A   1      39.675  25.952  27.797  1.00  0.00     0.198 A 
ATOM     68  F   UNL A   1      38.894  26.403  29.970  1.00  0.00    -0.203 F 
ATOM     69  F   UNL A   1      41.728  27.934  25.565  1.00  0.00    -0.200 F 
ATOM     70  C   UNL A   1      40.392  26.334  26.673  1.00  0.00     0.200 A 
ATOM     71  F   UNL A   1      39.041  24.773  27.816  1.00  0.00    -0.200 F 
ATOM     72  F   UNL A   1      40.432  25.535  25.599  1.00  0.00    -0.200 F 
ENDBRANCH  48  62
BRANCH  49  73
ATOM     73  C   UNL A   1      39.484  33.999  36.894  1.00  0.00     0.064 A 
ATOM     74  C   UNL A   1      40.141  35.236  36.958  1.00  0.00     0.173 A 
ATOM     75  C   UNL A   1      38.723  33.608  38.005  1.00  0.00     0.173 A 
ATOM     76  F   UNL A   1      40.896  35.646  35.928  1.00  0.00    -0.203 F 
ATOM     77  C   UNL A   1      40.065  36.035  38.097  1.00  0.00     0.198 A 
ATOM     78  C   UNL A   1      38.622  34.423  39.132  1.00  0.00     0.198 A 
ATOM     79  F   UNL A   1      38.067  32.438  37.994  1.00  0.00    -0.203 F 
ATOM     80  F   UNL A   1      40.746  37.188  38.150  1.00  0.00    -0.200 F 
ATOM     81  C   UNL A   1      39.302  35.631  39.181  1.00  0.00     0.200 A 
ATOM     82  F   UNL A   1      37.870  34.036  40.171  1.00  0.00    -0.200 F 
ATOM     83  F   UNL A   1      39.227  36.400  40.276  1.00  0.00    -0.200 F 
ENDBRANCH  49  73
BRANCH  61  84
ATOM     84  C   UNL A   1      43.772  28.782  35.186  1.00  0.00     0.064 A 
ATOM     85  C   UNL A   1      43.598  27.712  36.077  1.00  0.00     0.173 A 
ATOM     86  C   UNL A   1      45.080  29.226  34.939  1.00  0.00     0.173 A 
ATOM     87  F   UNL A   1      42.366  27.261  36.358  1.00  0.00    -0.203 F 
ATOM     88  C   UNL A   1      44.690  27.129  36.713  1.00  0.00     0.198 A 
ATOM     89  C   UNL A   1      46.171  28.620  35.552  1.00  0.00     0.198 A 
ATOM     90  F   UNL A   1      45.299  30.241  34.089  1.00  0.00    -0.203 F 
ATOM     91  F   UNL A   1      44.497  26.140  37.597  1.00  0.00    -0.200 F 
ATOM     92  C   UNL A   1      45.974  27.577  36.444  1.00  0.00     0.200 A 
ATOM     93  F   UNL A   1      47.412  29.044  35.280  1.00  0.00    -0.200 F 
ATOM     94  F   UNL A   1      47.025  27.007  37.052  1.00  0.00    -0.200 F 
ENDBRANCH  61  84
ENDBRANCH  35  36
ENDBRANCH  27  30
ENDBRANCH  25  26
ENDBRANCH  24  25
ENDBRANCH   1  24
TORSDOF 14
ENDMDL
MODEL 3
REMARK VINA RESULT:     -12.0      6.217     10.398
REMARK SMILES CCCCNC(=O)c1c(Cl)c(Cl)c(Cl)c(Cl)c1C(=O)NCCCNC(=O)c1ccc(-c2c3nc(c(-c4c(F)c(F)c(F)c(F)c4F)c4ccc([nH]4)c(-c4c(F)c(F)c(F)c(F)c4F)c4nc(c(-c5c(F)c(F)c(F)c(F)c5F)c5ccc2[nH]5)C=C4)C=C3)cc1
REMARK SMILES IDX 21 1 20 2 18 3 19 4 17 6 8 7 9 8 10 9 11 10 15 11 12 12
REMARK SMILES IDX 13 13 16 14 14 15 6 16 5 17 7 19 4 20 3 21 2 22 1 23 22 24
REMARK SMILES IDX 23 25 24 26 25 27 26 29 27 30 28 31 89 32 29 33 88 34 30 35
REMARK SMILES IDX 31 36 32 37 82 38 33 39 87 40 81 41 83 42 34 43 86 44 80 45
REMARK SMILES IDX 79 46 35 48 67 49 47 50 66 51 48 52 51 53 65 54 84 55 49 56
REMARK SMILES IDX 50 57 64 59 85 60 52 61 36 62 37 63 45 64 38 65 39 66 43 67
REMARK SMILES IDX 46 68 40 69 41 70 44 71 42 72 68 73 69 74 77 75 70 76 71 77
REMARK SMILES IDX 75 78 78 79 72 80 73 81 76 82 74 83 53 84 54 85 62 86 55 87
REMARK SMILES IDX 56 88 60 89 63 90 57 91 58 92 61 93 59 94
REMARK H PARENT 20 5 5 18 24 28 83 47 51 58
REMARK Flexibility Score: inf
ROOT
ATOM      1  C   UNL A   1      36.803  20.342  25.010  1.00  0.00     0.118 C 
ENDROOT
BRANCH   1   2
ATOM      2  N   UNL A   1      37.017  21.694  25.457  1.00  0.00    -0.352 N 
ATOM      3  C   UNL A   1      36.078  22.658  25.733  1.00  0.00     0.253 C 
ATOM      4  O   UNL A   1      36.404  23.560  26.505  1.00  0.00    -0.269 OA
ATOM      5  H   UNL A   1      37.957  21.961  25.581  1.00  0.00     0.163 HD
BRANCH   3   6
ATOM      6  C   UNL A   1      34.730  22.751  25.099  1.00  0.00     0.074 A 
ATOM      7  C   UNL A   1      33.535  22.303  25.697  1.00  0.00     0.074 A 
ATOM      8  C   UNL A   1      32.281  22.757  25.235  1.00  0.00     0.074 A 
ATOM      9  Cl  UNL A   1      30.821  22.317  26.086  1.00  0.00    -0.082 Cl
ATOM     10  C   UNL A   1      32.204  23.588  24.106  1.00  0.00     0.080 A 
ATOM     11  C   UNL A   1      34.637  23.554  23.935  1.00  0.00     0.074 A 
ATOM     12  Cl  UNL A   1      30.651  24.111  23.515  1.00  0.00    -0.081 Cl
ATOM     13  C   UNL A   1      33.380  23.968  23.442  1.00  0.00     0.080 A 
ATOM     14  Cl  UNL A   1      36.076  23.975  23.036  1.00  0.00    -0.082 Cl
ATOM     15  Cl  UNL A   1      33.282  24.972  22.019  1.00  0.00    -0.081 Cl
BRANCH   7  16
ATOM     16  C   UNL A   1      33.539  21.368  26.830  1.00  0.00     0.253 C 
ATOM     17  N   UNL A   1      33.277  20.028  26.605  1.00  0.00    -0.352 N 
ATOM     18  H   UNL A   1      33.367  19.447  27.395  1.00  0.00     0.163 HD
ATOM     19  O   UNL A   1      33.809  21.791  27.948  1.00  0.00    -0.269 OA
BRANCH  17  20
ATOM     20  C   UNL A   1      32.887  19.343  25.372  1.00  0.00     0.116 C 
BRANCH  20  21
ATOM     21  C   UNL A   1      33.342  17.882  25.267  1.00  0.00     0.021 C 
BRANCH  21  22
ATOM     22  C   UNL A   1      34.444  17.581  24.251  1.00  0.00    -0.002 C 
ATOM     23  C   UNL A   1      34.033  16.580  23.184  1.00  0.00     0.004 C 
ENDBRANCH  21  22
ENDBRANCH  20  21
ENDBRANCH  17  20
ENDBRANCH   7  16
ENDBRANCH   3   6
ENDBRANCH   1   2
BRANCH   1  24
ATOM     24  C   UNL A   1      38.009  19.426  24.960  1.00  0.00     0.042 C 
BRANCH  24  25
ATOM     25  C   UNL A   1      39.219  19.917  25.736  1.00  0.00     0.118 C 
BRANCH  25  26
ATOM     26  N   UNL A   1      40.310  18.953  25.828  1.00  0.00    -0.352 N 
ATOM     27  C   UNL A   1      41.651  19.075  26.110  1.00  0.00     0.251 C 
ATOM     28  H   UNL A   1      40.029  18.025  25.654  1.00  0.00     0.163 HD
ATOM     29  O   UNL A   1      42.366  18.077  26.051  1.00  0.00    -0.269 OA
BRANCH  27  30
ATOM     30  C   UNL A   1      42.274  20.384  26.421  1.00  0.00     0.039 A 
ATOM     31  C   UNL A   1      42.893  21.100  25.389  1.00  0.00     0.014 A 
ATOM     32  C   UNL A   1      42.281  20.914  27.707  1.00  0.00     0.014 A 
ATOM     33  C   UNL A   1      43.414  22.376  25.631  1.00  0.00     0.010 A 
ATOM     34  C   UNL A   1      42.666  22.233  27.918  1.00  0.00     0.010 A 
ATOM     35  C   UNL A   1      43.248  22.981  26.886  1.00  0.00    -0.014 A 
BRANCH  35  36
ATOM     36  C   UNL A   1      43.692  24.374  27.162  1.00  0.00     0.031 A 
ATOM     37  C   UNL A   1      42.707  25.391  27.681  1.00  0.00     0.074 A 
ATOM     38  C   UNL A   1      44.950  24.752  26.858  1.00  0.00     0.049 A 
ATOM     39  N   UNL A   1      42.856  26.681  27.849  1.00  0.00    -0.248 NA
ATOM     40  C   UNL A   1      41.359  24.900  28.010  1.00  0.00     0.031 C 
ATOM     41  C   UNL A   1      45.986  23.883  26.297  1.00  0.00     0.029 A 
ATOM     42  N   UNL A   1      45.570  25.972  26.968  1.00  0.00    -0.354 N 
ATOM     43  C   UNL A   1      41.619  27.153  28.272  1.00  0.00     0.074 A 
ATOM     44  C   UNL A   1      40.712  26.026  28.266  1.00  0.00     0.031 C 
ATOM     45  C   UNL A   1      47.119  24.586  26.144  1.00  0.00     0.029 A 
ATOM     46  C   UNL A   1      46.880  25.967  26.549  1.00  0.00     0.049 A 
ATOM     47  H   UNL A   1      45.119  26.777  27.314  1.00  0.00     0.167 HD
ATOM     48  C   UNL A   1      41.274  28.403  28.663  1.00  0.00     0.037 A 
ATOM     49  C   UNL A   1      47.781  26.965  26.491  1.00  0.00     0.037 A 
ATOM     50  C   UNL A   1      42.191  29.509  28.718  1.00  0.00     0.049 A 
ATOM     51  C   UNL A   1      47.378  28.344  26.944  1.00  0.00     0.074 A 
ATOM     52  C   UNL A   1      41.962  30.799  29.166  1.00  0.00     0.029 A 
ATOM     53  N   UNL A   1      43.518  29.454  28.319  1.00  0.00    -0.354 N 
ATOM     54  N   UNL A   1      46.222  28.760  27.401  1.00  0.00    -0.248 NA
ATOM     55  C   UNL A   1      48.407  29.390  26.875  1.00  0.00     0.031 C 
ATOM     56  C   UNL A   1      43.139  31.535  28.997  1.00  0.00     0.029 A 
ATOM     57  C   UNL A   1      44.115  30.691  28.493  1.00  0.00     0.049 A 
ATOM     58  H   UNL A   1      43.969  28.653  27.964  1.00  0.00     0.167 HD
ATOM     59  C   UNL A   1      46.393  30.104  27.703  1.00  0.00     0.074 A 
ATOM     60  C   UNL A   1      47.770  30.430  27.393  1.00  0.00     0.031 C 
ATOM     61  C   UNL A   1      45.492  30.991  28.191  1.00  0.00     0.037 A 
BRANCH  48  62
ATOM     62  C   UNL A   1      39.849  28.634  29.082  1.00  0.00     0.064 A 
ATOM     63  C   UNL A   1      39.427  28.424  30.404  1.00  0.00     0.173 A 
ATOM     64  C   UNL A   1      38.902  29.104  28.160  1.00  0.00     0.173 A 
ATOM     65  F   UNL A   1      40.290  27.963  31.323  1.00  0.00    -0.203 F 
ATOM     66  C   UNL A   1      38.103  28.640  30.778  1.00  0.00     0.198 A 
ATOM     67  C   UNL A   1      37.587  29.352  28.545  1.00  0.00     0.198 A 
ATOM     68  F   UNL A   1      39.252  29.329  26.884  1.00  0.00    -0.203 F 
ATOM     69  F   UNL A   1      37.712  28.376  32.032  1.00  0.00    -0.200 F 
ATOM     70  C   UNL A   1      37.186  29.112  29.851  1.00  0.00     0.200 A 
ATOM     71  F   UNL A   1      36.705  29.822  27.653  1.00  0.00    -0.200 F 
ATOM     72  F   UNL A   1      35.915  29.328  30.215  1.00  0.00    -0.200 F 
ENDBRANCH  48  62
BRANCH  49  73
ATOM     73  C   UNL A   1      49.166  26.698  26.015  1.00  0.00     0.064 A 
ATOM     74  C   UNL A   1      49.521  26.930  24.678  1.00  0.00     0.173 A 
ATOM     75  C   UNL A   1      50.153  26.196  26.874  1.00  0.00     0.173 A 
ATOM     76  F   UNL A   1      48.607  27.393  23.814  1.00  0.00    -0.203 F 
ATOM     77  C   UNL A   1      50.803  26.644  24.213  1.00  0.00     0.198 A 
ATOM     78  C   UNL A   1      51.445  25.940  26.414  1.00  0.00     0.198 A 
ATOM     79  F   UNL A   1      49.869  25.963  28.164  1.00  0.00    -0.203 F 
ATOM     80  F   UNL A   1      51.100  26.827  22.920  1.00  0.00    -0.200 F 
ATOM     81  C   UNL A   1      51.765  26.154  25.082  1.00  0.00     0.200 A 
ATOM     82  F   UNL A   1      52.376  25.482  27.262  1.00  0.00    -0.200 F 
ATOM     83  F   UNL A   1      52.999  25.881  24.636  1.00  0.00    -0.200 F 
ENDBRANCH  49  73
BRANCH  61  84
ATOM     84  C   UNL A   1      45.974  32.387  28.459  1.00  0.00     0.064 A 
ATOM     85  C   UNL A   1      46.528  32.750  29.695  1.00  0.00     0.173 A 
ATOM     86  C   UNL A   1      45.921  33.361  27.450  1.00  0.00     0.173 A 
ATOM     87  F   UNL A   1      46.587  31.860  30.696  1.00  0.00    -0.203 F 
ATOM     88  C   UNL A   1      46.987  34.045  29.919  1.00  0.00     0.198 A 
ATOM     89  C   UNL A   1      46.410  34.645  27.667  1.00  0.00     0.198 A 
ATOM     90  F   UNL A   1      45.407  33.060  26.247  1.00  0.00    -0.203 F 
ATOM     91  F   UNL A   1      47.468  34.385  31.123  1.00  0.00    -0.200 F 
ATOM     92  C   UNL A   1      46.935  34.988  28.903  1.00  0.00     0.200 A 
ATOM     93  F   UNL A   1      46.373  35.550  26.679  1.00  0.00    -0.200 F 
ATOM     94  F   UNL A   1      47.386  36.232  29.118  1.00  0.00    -0.200 F 
ENDBRANCH  61  84
ENDBRANCH  35  36
ENDBRANCH  27  30
ENDBRANCH  25  26
ENDBRANCH  24  25
ENDBRANCH   1  24
TORSDOF 14
ENDMDL
