MODEL 1
REMARK VINA RESULT:     -12.9      0.000      0.000
REMARK SMILES O=C(NCCCNC(=O)[C@@H]1[C@H](C(=O)Nc2cccc(Cl)c2F)[C@@H]2C=C[C@H]1C2)c1ccc(-c2c3nc(c(-c4c(F)c(F)c(F)c(F)c4F)c4ccc([nH]4)c(-c4c(F)c(F)c(F)c(F)c4F)c4nc(c(-c5c(F)c(F)c(F)c(F)c5F)c5ccc2[nH]5)C=C4)C=C3)cc1
REMARK SMILES IDX 5 1 4 2 3 3 1 4 2 5 28 7 29 8 90 9 30 10 89 11 31 12 32 13
REMARK SMILES IDX 33 14 83 15 34 16 88 17 82 18 84 19 35 20 87 21 81 22 80 23
REMARK SMILES IDX 36 25 68 26 48 27 67 28 49 29 52 30 66 31 85 32 50 33 51 34
REMARK SMILES IDX 65 36 86 37 53 38 37 39 38 40 46 41 39 42 40 43 44 44 47 45
REMARK SMILES IDX 41 46 42 47 45 48 43 49 69 50 70 51 78 52 71 53 72 54 76 55
REMARK SMILES IDX 79 56 73 57 74 58 77 59 75 60 54 61 55 62 63 63 56 64 57 65
REMARK SMILES IDX 61 66 64 67 58 68 59 69 62 70 60 71 6 72 7 73 8 74 9 76
REMARK SMILES IDX 10 77 11 78 26 79 23 80 25 81 27 82 24 83 12 84 13 85 14 86
REMARK SMILES IDX 15 88 16 89 21 90 17 91 19 92 22 93 18 94 20 95
REMARK H PARENT 3 6 84 24 52 35 7 75 14 87
REMARK Flexibility Score: inf
ROOT
ATOM      1  C   UNL A   1      31.883  31.861  27.196  1.00  0.00     0.042 C 
ENDROOT
BRANCH   1   2
ATOM      2  C   UNL A   1      32.843  32.994  26.872  1.00  0.00     0.118 C 
BRANCH   2   3
ATOM      3  N   UNL A   1      32.544  34.202  27.630  1.00  0.00    -0.352 N 
ATOM      4  O   UNL A   1      32.529  35.603  29.392  1.00  0.00    -0.269 OA
ATOM      5  C   UNL A   1      33.079  34.669  28.801  1.00  0.00     0.251 C 
ATOM      6  H   UNL A   1      31.846  34.775  27.237  1.00  0.00     0.163 HD
BRANCH   5   7
ATOM      7  C   UNL A   1      34.294  34.062  29.384  1.00  0.00     0.039 A 
ATOM      8  C   UNL A   1      35.570  34.476  28.993  1.00  0.00     0.014 A 
ATOM      9  C   UNL A   1      34.152  33.104  30.392  1.00  0.00     0.014 A 
ATOM     10  C   UNL A   1      36.700  33.846  29.515  1.00  0.00     0.010 A 
ATOM     11  C   UNL A   1      35.284  32.526  30.969  1.00  0.00     0.010 A 
ATOM     12  C   UNL A   1      36.568  32.874  30.517  1.00  0.00    -0.014 A 
BRANCH  12  13
ATOM     13  C   UNL A   1      37.769  32.252  31.128  1.00  0.00     0.031 A 
ATOM     14  C   UNL A   1      38.524  31.174  30.406  1.00  0.00     0.074 A 
ATOM     15  C   UNL A   1      38.152  32.631  32.362  1.00  0.00     0.049 A 
ATOM     16  N   UNL A   1      39.521  30.435  30.824  1.00  0.00    -0.248 NA
ATOM     17  C   UNL A   1      38.090  30.878  29.033  1.00  0.00     0.031 C 
ATOM     18  C   UNL A   1      37.499  33.667  33.163  1.00  0.00     0.029 A 
ATOM     19  N   UNL A   1      39.167  32.176  33.167  1.00  0.00    -0.354 N 
ATOM     20  C   UNL A   1      39.817  29.570  29.779  1.00  0.00     0.074 A 
ATOM     21  C   UNL A   1      38.877  29.859  28.716  1.00  0.00     0.031 C 
ATOM     22  C   UNL A   1      38.127  33.770  34.342  1.00  0.00     0.029 A 
ATOM     23  C   UNL A   1      39.183  32.765  34.407  1.00  0.00     0.049 A 
ATOM     24  H   UNL A   1      39.819  31.495  32.882  1.00  0.00     0.167 HD
ATOM     25  C   UNL A   1      40.787  28.626  29.715  1.00  0.00     0.037 A 
ATOM     26  C   UNL A   1      39.934  32.498  35.491  1.00  0.00     0.037 A 
ATOM     27  C   UNL A   1      41.718  28.352  30.781  1.00  0.00     0.049 A 
ATOM     28  C   UNL A   1      40.973  31.416  35.418  1.00  0.00     0.074 A 
ATOM     29  C   UNL A   1      42.765  27.446  30.800  1.00  0.00     0.029 A 
ATOM     30  N   UNL A   1      41.705  28.972  32.023  1.00  0.00    -0.354 N 
ATOM     31  N   UNL A   1      41.271  30.628  34.414  1.00  0.00    -0.248 NA
ATOM     32  C   UNL A   1      41.779  31.186  36.624  1.00  0.00     0.031 C 
ATOM     33  C   UNL A   1      43.342  27.472  32.075  1.00  0.00     0.029 A 
ATOM     34  C   UNL A   1      42.703  28.445  32.827  1.00  0.00     0.049 A 
ATOM     35  H   UNL A   1      41.077  29.682  32.293  1.00  0.00     0.167 HD
ATOM     36  C   UNL A   1      42.318  29.829  34.853  1.00  0.00     0.074 A 
ATOM     37  C   UNL A   1      42.603  30.228  36.217  1.00  0.00     0.031 C 
ATOM     38  C   UNL A   1      42.985  28.859  34.181  1.00  0.00     0.037 A 
BRANCH  25  39
ATOM     39  C   UNL A   1      40.861  27.790  28.467  1.00  0.00     0.064 A 
ATOM     40  C   UNL A   1      40.116  26.612  28.313  1.00  0.00     0.173 A 
ATOM     41  C   UNL A   1      41.686  28.184  27.401  1.00  0.00     0.173 A 
ATOM     42  F   UNL A   1      39.314  26.185  29.302  1.00  0.00    -0.203 F 
ATOM     43  C   UNL A   1      40.230  25.834  27.162  1.00  0.00     0.198 A 
ATOM     44  C   UNL A   1      41.770  27.423  26.237  1.00  0.00     0.198 A 
ATOM     45  F   UNL A   1      42.412  29.308  27.486  1.00  0.00    -0.203 F 
ATOM     46  F   UNL A   1      39.559  24.677  27.069  1.00  0.00    -0.200 F 
ATOM     47  C   UNL A   1      41.053  26.242  26.125  1.00  0.00     0.200 A 
ATOM     48  F   UNL A   1      42.554  27.829  25.228  1.00  0.00    -0.200 F 
ATOM     49  F   UNL A   1      41.164  25.492  25.020  1.00  0.00    -0.200 F 
ENDBRANCH  25  39
BRANCH  26  50
ATOM     50  C   UNL A   1      39.704  33.274  36.736  1.00  0.00     0.064 A 
ATOM     51  C   UNL A   1      40.393  34.469  36.981  1.00  0.00     0.173 A 
ATOM     52  C   UNL A   1      38.745  32.868  37.676  1.00  0.00     0.173 A 
ATOM     53  F   UNL A   1      41.330  34.890  36.119  1.00  0.00    -0.203 F 
ATOM     54  C   UNL A   1      40.132  35.228  38.120  1.00  0.00     0.198 A 
ATOM     55  C   UNL A   1      38.464  33.642  38.799  1.00  0.00     0.198 A 
ATOM     56  F   UNL A   1      38.053  31.736  37.483  1.00  0.00    -0.203 F 
ATOM     57  F   UNL A   1      40.821  36.355  38.343  1.00  0.00    -0.200 F 
ATOM     58  C   UNL A   1      39.161  34.820  39.023  1.00  0.00     0.200 A 
ATOM     59  F   UNL A   1      37.511  33.254  39.658  1.00  0.00    -0.200 F 
ATOM     60  F   UNL A   1      38.896  35.562  40.106  1.00  0.00    -0.200 F 
ENDBRANCH  26  50
BRANCH  38  61
ATOM     61  C   UNL A   1      44.132  28.190  34.880  1.00  0.00     0.064 A 
ATOM     62  C   UNL A   1      43.973  26.987  35.582  1.00  0.00     0.173 A 
ATOM     63  C   UNL A   1      45.427  28.723  34.775  1.00  0.00     0.173 A 
ATOM     64  F   UNL A   1      42.754  26.445  35.726  1.00  0.00    -0.203 F 
ATOM     65  C   UNL A   1      45.067  26.347  36.159  1.00  0.00     0.198 A 
ATOM     66  C   UNL A   1      46.521  28.066  35.327  1.00  0.00     0.198 A 
ATOM     67  F   UNL A   1      45.632  29.871  34.111  1.00  0.00    -0.203 F 
ATOM     68  F   UNL A   1      44.888  25.213  36.852  1.00  0.00    -0.200 F 
ATOM     69  C   UNL A   1      46.340  26.879  36.022  1.00  0.00     0.200 A 
ATOM     70  F   UNL A   1      47.752  28.575  35.180  1.00  0.00    -0.200 F 
ATOM     71  F   UNL A   1      47.394  26.250  36.559  1.00  0.00    -0.200 F 
ENDBRANCH  38  61
ENDBRANCH  12  13
ENDBRANCH   5   7
ENDBRANCH   2   3
ENDBRANCH   1   2
BRANCH   1  72
ATOM     72  C   UNL A   1      32.506  30.471  27.251  1.00  0.00     0.117 C 
BRANCH  72  73
ATOM     73  N   UNL A   1      31.580  29.348  27.152  1.00  0.00    -0.356 N 
ATOM     74  C   UNL A   1      31.810  28.182  26.459  1.00  0.00     0.224 C 
ATOM     75  H   UNL A   1      30.718  29.432  27.622  1.00  0.00     0.163 HD
ATOM     76  O   UNL A   1      31.586  27.105  27.006  1.00  0.00    -0.275 OA
BRANCH  74  77
ATOM     77  C   UNL A   1      32.466  28.289  25.110  1.00  0.00     0.098 C 
ATOM     78  C   UNL A   1      31.608  28.298  23.823  1.00  0.00     0.099 C 
ATOM     79  C   UNL A   1      33.637  27.343  24.733  1.00  0.00     0.025 C 
ATOM     80  C   UNL A   1      32.552  27.621  22.783  1.00  0.00     0.025 C 
ATOM     81  C   UNL A   1      33.217  25.982  24.223  1.00  0.00    -0.027 C 
ATOM     82  C   UNL A   1      33.950  27.952  23.350  1.00  0.00     0.017 C 
ATOM     83  C   UNL A   1      32.613  26.147  23.037  1.00  0.00    -0.027 C 
BRANCH  78  84
ATOM     84  C   UNL A   1      30.111  27.936  23.747  1.00  0.00     0.228 C 
ATOM     85  O   UNL A   1      29.784  26.828  24.214  1.00  0.00    -0.274 OA
ATOM     86  N   UNL A   1      29.036  28.695  23.417  1.00  0.00    -0.323 N 
ATOM     87  H   UNL A   1      28.191  28.255  23.665  1.00  0.00     0.170 HD
BRANCH  86  88
ATOM     88  C   UNL A   1      28.816  29.940  22.813  1.00  0.00     0.078 A 
ATOM     89  C   UNL A   1      28.332  29.933  21.500  1.00  0.00     0.029 A 
ATOM     90  C   UNL A   1      29.146  31.164  23.382  1.00  0.00     0.165 A 
ATOM     91  C   UNL A   1      28.028  31.130  20.843  1.00  0.00     0.004 A 
ATOM     92  C   UNL A   1      28.828  32.366  22.745  1.00  0.00     0.078 A 
ATOM     93  F   UNL A   1      29.901  31.186  24.478  1.00  0.00    -0.203 F 
ATOM     94  C   UNL A   1      28.242  32.350  21.481  1.00  0.00     0.024 A 
ATOM     95  Cl  UNL A   1      29.152  33.880  23.501  1.00  0.00    -0.081 Cl
ENDBRANCH  86  88
ENDBRANCH  78  84
ENDBRANCH  74  77
ENDBRANCH  72  73
ENDBRANCH   1  72
TORSDOF 12
ENDMDL
MODEL 2
REMARK VINA RESULT:     -12.8      0.177      1.672
REMARK SMILES O=C(NCCCNC(=O)[C@@H]1[C@H](C(=O)Nc2cccc(Cl)c2F)[C@@H]2C=C[C@H]1C2)c1ccc(-c2c3nc(c(-c4c(F)c(F)c(F)c(F)c4F)c4ccc([nH]4)c(-c4c(F)c(F)c(F)c(F)c4F)c4nc(c(-c5c(F)c(F)c(F)c(F)c5F)c5ccc2[nH]5)C=C4)C=C3)cc1
REMARK SMILES IDX 5 1 4 2 3 3 1 4 2 5 28 7 29 8 90 9 30 10 89 11 31 12 32 13
REMARK SMILES IDX 33 14 83 15 34 16 88 17 82 18 84 19 35 20 87 21 81 22 80 23
REMARK SMILES IDX 36 25 68 26 48 27 67 28 49 29 52 30 66 31 85 32 50 33 51 34
REMARK SMILES IDX 65 36 86 37 53 38 37 39 38 40 46 41 39 42 40 43 44 44 47 45
REMARK SMILES IDX 41 46 42 47 45 48 43 49 69 50 70 51 78 52 71 53 72 54 76 55
REMARK SMILES IDX 79 56 73 57 74 58 77 59 75 60 54 61 55 62 63 63 56 64 57 65
REMARK SMILES IDX 61 66 64 67 58 68 59 69 62 70 60 71 6 72 7 73 8 74 9 76
REMARK SMILES IDX 10 77 11 78 26 79 23 80 25 81 27 82 24 83 12 84 13 85 14 86
REMARK SMILES IDX 15 88 16 89 21 90 17 91 19 92 22 93 18 94 20 95
REMARK H PARENT 3 6 84 24 52 35 7 75 14 87
REMARK Flexibility Score: inf
ROOT
ATOM      1  C   UNL A   1      31.913  31.846  27.205  1.00  0.00     0.042 C 
ENDROOT
BRANCH   1   2
ATOM      2  C   UNL A   1      32.894  32.964  26.888  1.00  0.00     0.118 C 
BRANCH   2   3
ATOM      3  N   UNL A   1      32.602  34.180  27.635  1.00  0.00    -0.352 N 
ATOM      4  O   UNL A   1      32.575  35.588  29.392  1.00  0.00    -0.269 OA
ATOM      5  C   UNL A   1      33.120  34.640  28.816  1.00  0.00     0.251 C 
ATOM      6  H   UNL A   1      31.925  34.765  27.225  1.00  0.00     0.163 HD
BRANCH   5   7
ATOM      7  C   UNL A   1      34.309  34.012  29.428  1.00  0.00     0.039 A 
ATOM      8  C   UNL A   1      34.188  32.928  30.302  1.00  0.00     0.014 A 
ATOM      9  C   UNL A   1      35.578  34.477  29.069  1.00  0.00     0.014 A 
ATOM     10  C   UNL A   1      35.322  32.393  30.913  1.00  0.00     0.010 A 
ATOM     11  C   UNL A   1      36.718  33.891  29.622  1.00  0.00     0.010 A 
ATOM     12  C   UNL A   1      36.598  32.860  30.569  1.00  0.00    -0.014 A 
BRANCH  12  13
ATOM     13  C   UNL A   1      37.813  32.245  31.160  1.00  0.00     0.031 A 
ATOM     14  C   UNL A   1      38.571  31.184  30.416  1.00  0.00     0.074 A 
ATOM     15  C   UNL A   1      38.205  32.612  32.394  1.00  0.00     0.049 A 
ATOM     16  N   UNL A   1      39.581  30.451  30.814  1.00  0.00    -0.248 NA
ATOM     17  C   UNL A   1      38.126  30.900  29.044  1.00  0.00     0.031 C 
ATOM     18  C   UNL A   1      37.550  33.631  33.215  1.00  0.00     0.029 A 
ATOM     19  N   UNL A   1      39.234  32.159  33.182  1.00  0.00    -0.354 N 
ATOM     20  C   UNL A   1      39.875  29.603  29.755  1.00  0.00     0.074 A 
ATOM     21  C   UNL A   1      38.920  29.894  28.706  1.00  0.00     0.031 C 
ATOM     22  C   UNL A   1      38.190  33.727  34.388  1.00  0.00     0.029 A 
ATOM     23  C   UNL A   1      39.257  32.733  34.429  1.00  0.00     0.049 A 
ATOM     24  H   UNL A   1      39.890  31.489  32.882  1.00  0.00     0.167 HD
ATOM     25  C   UNL A   1      40.855  28.669  29.669  1.00  0.00     0.037 A 
ATOM     26  C   UNL A   1      40.023  32.461  35.502  1.00  0.00     0.037 A 
ATOM     27  C   UNL A   1      41.801  28.393  30.721  1.00  0.00     0.049 A 
ATOM     28  C   UNL A   1      41.073  31.392  35.404  1.00  0.00     0.074 A 
ATOM     29  C   UNL A   1      42.857  27.499  30.718  1.00  0.00     0.029 A 
ATOM     30  N   UNL A   1      41.794  28.998  31.971  1.00  0.00    -0.354 N 
ATOM     31  N   UNL A   1      41.369  30.619  34.387  1.00  0.00    -0.248 NA
ATOM     32  C   UNL A   1      41.894  31.155  36.598  1.00  0.00     0.031 C 
ATOM     33  C   UNL A   1      43.448  27.515  31.986  1.00  0.00     0.029 A 
ATOM     34  C   UNL A   1      42.806  28.472  32.758  1.00  0.00     0.049 A 
ATOM     35  H   UNL A   1      41.161  29.697  32.256  1.00  0.00     0.167 HD
ATOM     36  C   UNL A   1      42.428  29.826  34.804  1.00  0.00     0.074 A 
ATOM     37  C   UNL A   1      42.724  30.212  36.170  1.00  0.00     0.031 C 
ATOM     38  C   UNL A   1      43.098  28.872  34.113  1.00  0.00     0.037 A 
BRANCH  25  39
ATOM     39  C   UNL A   1      40.924  27.850  28.410  1.00  0.00     0.064 A 
ATOM     40  C   UNL A   1      40.242  26.632  28.274  1.00  0.00     0.173 A 
ATOM     41  C   UNL A   1      41.679  28.300  27.315  1.00  0.00     0.173 A 
ATOM     42  F   UNL A   1      39.509  26.151  29.291  1.00  0.00    -0.203 F 
ATOM     43  C   UNL A   1      40.353  25.872  27.111  1.00  0.00     0.198 A 
ATOM     44  C   UNL A   1      41.758  27.556  26.140  1.00  0.00     0.198 A 
ATOM     45  F   UNL A   1      42.341  29.465  27.381  1.00  0.00    -0.203 F 
ATOM     46  F   UNL A   1      39.747  24.678  27.033  1.00  0.00    -0.200 F 
ATOM     47  C   UNL A   1      41.107  26.336  26.045  1.00  0.00     0.200 A 
ATOM     48  F   UNL A   1      42.473  28.015  25.104  1.00  0.00    -0.200 F 
ATOM     49  F   UNL A   1      41.214  25.603  24.929  1.00  0.00    -0.200 F 
ENDBRANCH  25  39
BRANCH  26  50
ATOM     50  C   UNL A   1      39.798  33.219  36.758  1.00  0.00     0.064 A 
ATOM     51  C   UNL A   1      38.861  32.788  37.705  1.00  0.00     0.173 A 
ATOM     52  C   UNL A   1      40.562  34.356  37.064  1.00  0.00     0.173 A 
ATOM     53  F   UNL A   1      38.097  31.716  37.451  1.00  0.00    -0.203 F 
ATOM     54  C   UNL A   1      38.695  33.466  38.912  1.00  0.00     0.198 A 
ATOM     55  C   UNL A   1      40.416  35.016  38.282  1.00  0.00     0.198 A 
ATOM     56  F   UNL A   1      41.479  34.804  36.194  1.00  0.00    -0.203 F 
ATOM     57  F   UNL A   1      37.775  33.048  39.791  1.00  0.00    -0.200 F 
ATOM     58  C   UNL A   1      39.480  34.572  39.204  1.00  0.00     0.200 A 
ATOM     59  F   UNL A   1      41.191  36.071  38.568  1.00  0.00    -0.200 F 
ATOM     60  F   UNL A   1      39.334  35.210  40.373  1.00  0.00    -0.200 F 
ENDBRANCH  26  50
BRANCH  38  61
ATOM     61  C   UNL A   1      44.260  28.207  34.792  1.00  0.00     0.064 A 
ATOM     62  C   UNL A   1      45.541  28.775  34.796  1.00  0.00     0.173 A 
ATOM     63  C   UNL A   1      44.065  27.020  35.517  1.00  0.00     0.173 A 
ATOM     64  F   UNL A   1      45.785  29.899  34.105  1.00  0.00    -0.203 F 
ATOM     65  C   UNL A   1      46.586  28.177  35.497  1.00  0.00     0.198 A 
ATOM     66  C   UNL A   1      45.103  26.442  36.239  1.00  0.00     0.198 A 
ATOM     67  F   UNL A   1      42.856  26.439  35.546  1.00  0.00    -0.203 F 
ATOM     68  F   UNL A   1      47.811  28.720  35.464  1.00  0.00    -0.200 F 
ATOM     69  C   UNL A   1      46.364  27.019  36.227  1.00  0.00     0.200 A 
ATOM     70  F   UNL A   1      44.881  25.331  36.956  1.00  0.00    -0.200 F 
ATOM     71  F   UNL A   1      47.365  26.456  36.918  1.00  0.00    -0.200 F 
ENDBRANCH  38  61
ENDBRANCH  12  13
ENDBRANCH   5   7
ENDBRANCH   2   3
ENDBRANCH   1   2
BRANCH   1  72
ATOM     72  C   UNL A   1      32.505  30.442  27.224  1.00  0.00     0.117 C 
BRANCH  72  73
ATOM     73  N   UNL A   1      31.552  29.342  27.112  1.00  0.00    -0.356 N 
ATOM     74  C   UNL A   1      31.749  28.186  26.393  1.00  0.00     0.224 C 
ATOM     75  H   UNL A   1      30.697  29.436  27.592  1.00  0.00     0.163 HD
ATOM     76  O   UNL A   1      31.506  27.104  26.921  1.00  0.00    -0.275 OA
BRANCH  74  77
ATOM     77  C   UNL A   1      32.394  28.305  25.040  1.00  0.00     0.098 C 
ATOM     78  C   UNL A   1      31.527  28.336  23.760  1.00  0.00     0.099 C 
ATOM     79  C   UNL A   1      33.556  27.355  24.642  1.00  0.00     0.025 C 
ATOM     80  C   UNL A   1      32.457  27.666  22.705  1.00  0.00     0.025 C 
ATOM     81  C   UNL A   1      33.121  26.004  24.119  1.00  0.00    -0.027 C 
ATOM     82  C   UNL A   1      33.862  27.978  23.264  1.00  0.00     0.017 C 
ATOM     83  C   UNL A   1      32.508  26.188  22.939  1.00  0.00    -0.027 C 
BRANCH  78  84
ATOM     84  C   UNL A   1      30.027  27.987  23.693  1.00  0.00     0.228 C 
ATOM     85  O   UNL A   1      29.692  26.883  24.163  1.00  0.00    -0.274 OA
ATOM     86  N   UNL A   1      28.956  28.754  23.366  1.00  0.00    -0.323 N 
ATOM     87  H   UNL A   1      28.109  28.322  23.620  1.00  0.00     0.170 HD
BRANCH  86  88
ATOM     88  C   UNL A   1      28.743  30.000  22.762  1.00  0.00     0.078 A 
ATOM     89  C   UNL A   1      28.221  29.995  21.463  1.00  0.00     0.029 A 
ATOM     90  C   UNL A   1      29.114  31.221  23.314  1.00  0.00     0.165 A 
ATOM     91  C   UNL A   1      27.923  31.195  20.808  1.00  0.00     0.004 A 
ATOM     92  C   UNL A   1      28.801  32.425  22.679  1.00  0.00     0.078 A 
ATOM     93  F   UNL A   1      29.901  31.233  24.388  1.00  0.00    -0.203 F 
ATOM     94  C   UNL A   1      28.179  32.414  21.433  1.00  0.00     0.024 A 
ATOM     95  Cl  UNL A   1      29.178  33.936  23.416  1.00  0.00    -0.081 Cl
ENDBRANCH  86  88
ENDBRANCH  78  84
ENDBRANCH  74  77
ENDBRANCH  72  73
ENDBRANCH   1  72
TORSDOF 12
ENDMDL
MODEL 3
REMARK VINA RESULT:     -12.7      4.241      8.329
REMARK SMILES O=C(NCCCNC(=O)[C@@H]1[C@H](C(=O)Nc2cccc(Cl)c2F)[C@@H]2C=C[C@H]1C2)c1ccc(-c2c3nc(c(-c4c(F)c(F)c(F)c(F)c4F)c4ccc([nH]4)c(-c4c(F)c(F)c(F)c(F)c4F)c4nc(c(-c5c(F)c(F)c(F)c(F)c5F)c5ccc2[nH]5)C=C4)C=C3)cc1
REMARK SMILES IDX 5 1 4 2 3 3 1 4 2 5 28 7 29 8 90 9 30 10 89 11 31 12 32 13
REMARK SMILES IDX 33 14 83 15 34 16 88 17 82 18 84 19 35 20 87 21 81 22 80 23
REMARK SMILES IDX 36 25 68 26 48 27 67 28 49 29 52 30 66 31 85 32 50 33 51 34
REMARK SMILES IDX 65 36 86 37 53 38 37 39 38 40 46 41 39 42 40 43 44 44 47 45
REMARK SMILES IDX 41 46 42 47 45 48 43 49 69 50 70 51 78 52 71 53 72 54 76 55
REMARK SMILES IDX 79 56 73 57 74 58 77 59 75 60 54 61 55 62 63 63 56 64 57 65
REMARK SMILES IDX 61 66 64 67 58 68 59 69 62 70 60 71 6 72 7 73 8 74 9 76
REMARK SMILES IDX 10 77 11 78 26 79 23 80 25 81 27 82 24 83 12 84 13 85 14 86
REMARK SMILES IDX 15 88 16 89 21 90 17 91 19 92 22 93 18 94 20 95
REMARK H PARENT 3 6 84 24 52 35 7 75 14 87
REMARK Flexibility Score: inf
ROOT
ATOM      1  C   UNL A   1      35.525  23.323  24.624  1.00  0.00     0.042 C 
ENDROOT
BRANCH   1   2
ATOM      2  C   UNL A   1      36.524  23.761  25.683  1.00  0.00     0.118 C 
BRANCH   2   3
ATOM      3  N   UNL A   1      37.583  22.780  25.880  1.00  0.00    -0.352 N 
ATOM      4  O   UNL A   1      39.675  22.010  26.194  1.00  0.00    -0.269 OA
ATOM      5  C   UNL A   1      38.873  22.943  26.309  1.00  0.00     0.251 C 
ATOM      6  H   UNL A   1      37.330  21.851  25.674  1.00  0.00     0.163 HD
BRANCH   5   7
ATOM      7  C   UNL A   1      39.332  24.222  26.890  1.00  0.00     0.039 A 
ATOM      8  C   UNL A   1      40.009  25.168  26.116  1.00  0.00     0.014 A 
ATOM      9  C   UNL A   1      39.022  24.508  28.223  1.00  0.00     0.014 A 
ATOM     10  C   UNL A   1      40.484  26.341  26.702  1.00  0.00     0.010 A 
ATOM     11  C   UNL A   1      39.431  25.715  28.791  1.00  0.00     0.010 A 
ATOM     12  C   UNL A   1      40.189  26.631  28.042  1.00  0.00    -0.014 A 
BRANCH  12  13
ATOM     13  C   UNL A   1      40.629  27.911  28.652  1.00  0.00     0.031 A 
ATOM     14  C   UNL A   1      42.038  28.081  29.140  1.00  0.00     0.074 A 
ATOM     15  C   UNL A   1      39.738  28.908  28.807  1.00  0.00     0.049 A 
ATOM     16  N   UNL A   1      42.574  29.076  29.800  1.00  0.00    -0.248 NA
ATOM     17  C   UNL A   1      42.967  26.977  28.858  1.00  0.00     0.031 C 
ATOM     18  C   UNL A   1      38.341  28.862  28.374  1.00  0.00     0.029 A 
ATOM     19  N   UNL A   1      39.866  30.145  29.390  1.00  0.00    -0.354 N 
ATOM     20  C   UNL A   1      43.893  28.709  30.037  1.00  0.00     0.074 A 
ATOM     21  C   UNL A   1      44.068  27.388  29.471  1.00  0.00     0.031 C 
ATOM     22  C   UNL A   1      37.741  30.014  28.703  1.00  0.00     0.029 A 
ATOM     23  C   UNL A   1      38.690  30.852  29.428  1.00  0.00     0.049 A 
ATOM     24  H   UNL A   1      40.717  30.489  29.744  1.00  0.00     0.167 HD
ATOM     25  C   UNL A   1      44.864  29.414  30.667  1.00  0.00     0.037 A 
ATOM     26  C   UNL A   1      38.395  32.025  30.018  1.00  0.00     0.037 A 
ATOM     27  C   UNL A   1      44.675  30.730  31.222  1.00  0.00     0.049 A 
ATOM     28  C   UNL A   1      39.473  32.771  30.751  1.00  0.00     0.074 A 
ATOM     29  C   UNL A   1      45.605  31.547  31.842  1.00  0.00     0.029 A 
ATOM     30  N   UNL A   1      43.468  31.417  31.239  1.00  0.00    -0.354 N 
ATOM     31  N   UNL A   1      40.726  32.434  30.939  1.00  0.00    -0.248 NA
ATOM     32  C   UNL A   1      39.099  34.057  31.354  1.00  0.00     0.031 C 
ATOM     33  C   UNL A   1      44.947  32.697  32.291  1.00  0.00     0.029 A 
ATOM     34  C   UNL A   1      43.622  32.632  31.888  1.00  0.00     0.049 A 
ATOM     35  H   UNL A   1      42.626  31.087  30.849  1.00  0.00     0.167 HD
ATOM     36  C   UNL A   1      41.299  33.476  31.654  1.00  0.00     0.074 A 
ATOM     37  C   UNL A   1      40.255  34.459  31.867  1.00  0.00     0.031 C 
ATOM     38  C   UNL A   1      42.578  33.607  32.084  1.00  0.00     0.037 A 
BRANCH  25  39
ATOM     39  C   UNL A   1      46.207  28.756  30.825  1.00  0.00     0.064 A 
ATOM     40  C   UNL A   1      47.225  28.900  29.871  1.00  0.00     0.173 A 
ATOM     41  C   UNL A   1      46.481  27.973  31.958  1.00  0.00     0.173 A 
ATOM     42  F   UNL A   1      47.016  29.632  28.765  1.00  0.00    -0.203 F 
ATOM     43  C   UNL A   1      48.448  28.248  30.021  1.00  0.00     0.198 A 
ATOM     44  C   UNL A   1      47.718  27.353  32.123  1.00  0.00     0.198 A 
ATOM     45  F   UNL A   1      45.551  27.811  32.910  1.00  0.00    -0.203 F 
ATOM     46  F   UNL A   1      49.379  28.347  29.061  1.00  0.00    -0.200 F 
ATOM     47  C   UNL A   1      48.694  27.479  31.147  1.00  0.00     0.200 A 
ATOM     48  F   UNL A   1      47.960  26.624  33.221  1.00  0.00    -0.200 F 
ATOM     49  F   UNL A   1      49.869  26.851  31.288  1.00  0.00    -0.200 F 
ENDBRANCH  25  39
BRANCH  26  50
ATOM     50  C   UNL A   1      37.006  32.543  29.937  1.00  0.00     0.064 A 
ATOM     51  C   UNL A   1      36.096  32.338  30.982  1.00  0.00     0.173 A 
ATOM     52  C   UNL A   1      36.581  33.308  28.840  1.00  0.00     0.173 A 
ATOM     53  F   UNL A   1      36.451  31.601  32.044  1.00  0.00    -0.203 F 
ATOM     54  C   UNL A   1      34.812  32.877  30.931  1.00  0.00     0.198 A 
ATOM     55  C   UNL A   1      35.308  33.871  28.804  1.00  0.00     0.198 A 
ATOM     56  F   UNL A   1      37.418  33.540  27.818  1.00  0.00    -0.203 F 
ATOM     57  F   UNL A   1      33.952  32.647  31.933  1.00  0.00    -0.200 F 
ATOM     58  C   UNL A   1      34.422  33.652  29.849  1.00  0.00     0.200 A 
ATOM     59  F   UNL A   1      34.943  34.635  27.765  1.00  0.00    -0.200 F 
ATOM     60  F   UNL A   1      33.195  34.188  29.812  1.00  0.00    -0.200 F 
ENDBRANCH  26  50
BRANCH  38  61
ATOM     61  C   UNL A   1      42.949  34.882  32.785  1.00  0.00     0.064 A 
ATOM     62  C   UNL A   1      43.442  35.994  32.089  1.00  0.00     0.173 A 
ATOM     63  C   UNL A   1      42.730  35.014  34.166  1.00  0.00     0.173 A 
ATOM     64  F   UNL A   1      43.685  35.914  30.772  1.00  0.00    -0.203 F 
ATOM     65  C   UNL A   1      43.708  37.190  32.751  1.00  0.00     0.198 A 
ATOM     66  C   UNL A   1      42.969  36.219  34.818  1.00  0.00     0.198 A 
ATOM     67  F   UNL A   1      42.257  33.979  34.876  1.00  0.00    -0.203 F 
ATOM     68  F   UNL A   1      44.208  38.233  32.073  1.00  0.00    -0.200 F 
ATOM     69  C   UNL A   1      43.461  37.306  34.111  1.00  0.00     0.200 A 
ATOM     70  F   UNL A   1      42.715  36.332  36.129  1.00  0.00    -0.200 F 
ATOM     71  F   UNL A   1      43.698  38.464  34.742  1.00  0.00    -0.200 F 
ENDBRANCH  38  61
ENDBRANCH  12  13
ENDBRANCH   5   7
ENDBRANCH   2   3
ENDBRANCH   1   2
BRANCH   1  72
ATOM     72  C   UNL A   1      35.117  24.399  23.625  1.00  0.00     0.117 C 
BRANCH  72  73
ATOM     73  N   UNL A   1      33.686  24.660  23.512  1.00  0.00    -0.356 N 
ATOM     74  C   UNL A   1      33.074  25.871  23.746  1.00  0.00     0.224 C 
ATOM     75  H   UNL A   1      33.110  23.907  23.245  1.00  0.00     0.163 HD
ATOM     76  O   UNL A   1      32.265  26.301  22.928  1.00  0.00    -0.275 OA
BRANCH  74  77
ATOM     77  C   UNL A   1      33.543  26.674  24.927  1.00  0.00     0.098 C 
ATOM     78  C   UNL A   1      32.874  26.494  26.310  1.00  0.00     0.099 C 
ATOM     79  C   UNL A   1      33.688  28.215  24.817  1.00  0.00     0.025 C 
ATOM     80  C   UNL A   1      33.012  27.913  26.940  1.00  0.00     0.025 C 
ATOM     81  C   UNL A   1      32.406  28.991  25.024  1.00  0.00    -0.027 C 
ATOM     82  C   UNL A   1      34.264  28.464  26.226  1.00  0.00     0.017 C 
ATOM     83  C   UNL A   1      32.031  28.848  26.304  1.00  0.00    -0.027 C 
BRANCH  78  84
ATOM     84  C   UNL A   1      31.554  25.739  26.569  1.00  0.00     0.228 C 
ATOM     85  O   UNL A   1      30.530  26.438  26.694  1.00  0.00    -0.274 OA
ATOM     86  N   UNL A   1      31.270  24.414  26.510  1.00  0.00    -0.323 N 
ATOM     87  H   UNL A   1      30.299  24.250  26.514  1.00  0.00     0.170 HD
BRANCH  86  88
ATOM     88  C   UNL A   1      31.998  23.218  26.448  1.00  0.00     0.078 A 
ATOM     89  C   UNL A   1      32.954  23.003  27.448  1.00  0.00     0.029 A 
ATOM     90  C   UNL A   1      31.915  22.295  25.412  1.00  0.00     0.165 A 
ATOM     91  C   UNL A   1      33.684  21.811  27.494  1.00  0.00     0.004 A 
ATOM     92  C   UNL A   1      32.623  21.092  25.459  1.00  0.00     0.078 A 
ATOM     93  F   UNL A   1      31.266  22.629  24.298  1.00  0.00    -0.203 F 
ATOM     94  C   UNL A   1      33.491  20.835  26.517  1.00  0.00     0.024 A 
ATOM     95  Cl  UNL A   1      32.440  19.911  24.218  1.00  0.00    -0.081 Cl
ENDBRANCH  86  88
ENDBRANCH  78  84
ENDBRANCH  74  77
ENDBRANCH  72  73
ENDBRANCH   1  72
TORSDOF 12
ENDMDL
