MODEL 1
REMARK VINA RESULT:     -10.6      0.000      0.000
REMARK SMILES CC[C@H](C)C[C@@H](C)[NH2+]Cc1cc(C(=O)NCCCNC(=O)c2ccc(-c3c4nc(c(-c5c(F)c(F)c(F)c(F)c5F)c5ccc([nH]5)c(-c5c(F)c(F)c(F)c(F)c5F)c5nc(c(-c6c(F)c(F)c(F)c(F)c6F)c6ccc3[nH]6)C=C5)C=C4)cc2)cs1
REMARK SMILES IDX 13 1 14 2 15 3 12 5 10 6 11 7 86 8 85 9 9 10 8 11 6 14 7 15
REMARK SMILES IDX 5 16 3 17 4 18 2 19 1 20 16 21 17 22 18 23 19 24 20 25 21 27
REMARK SMILES IDX 22 28 23 29 84 30 24 31 83 32 25 33 26 34 27 35 77 36 28 37
REMARK SMILES IDX 82 38 76 39 78 40 29 41 81 42 75 43 74 44 30 46 62 47 42 48
REMARK SMILES IDX 61 49 43 50 46 51 60 52 79 53 44 54 45 55 59 57 80 58 47 59
REMARK SMILES IDX 31 60 32 61 40 62 33 63 34 64 38 65 41 66 35 67 36 68 39 69
REMARK SMILES IDX 37 70 63 71 64 72 72 73 65 74 66 75 70 76 73 77 67 78 68 79
REMARK SMILES IDX 71 80 69 81 48 82 49 83 57 84 50 85 51 86 55 87 58 88 52 89
REMARK SMILES IDX 53 90 56 91 54 92
REMARK H PARENT 15 4 8 12 8 13 19 26 78 45 46 56
REMARK Flexibility Score: inf
ROOT
ATOM      1  C   UNL A   1      32.713  28.821  25.251  1.00  0.00     0.252 C 
ATOM      2  O   UNL A   1      33.917  28.563  25.290  1.00  0.00    -0.269 OA
ATOM      3  N   UNL A   1      32.341  30.137  25.423  1.00  0.00    -0.352 N 
ATOM      4  H   UNL A   1      33.099  30.758  25.512  1.00  0.00     0.163 HD
ENDROOT
BRANCH   1   5
ATOM      5  C   UNL A   1      31.709  27.768  25.123  1.00  0.00     0.051 A 
ATOM      6  C   UNL A   1      30.711  25.707  25.506  1.00  0.00     0.059 A 
ATOM      7  C   UNL A   1      31.253  26.829  26.103  1.00  0.00     0.035 A 
ATOM      8  S   UNL A   1      30.140  26.082  23.939  1.00  0.00    -0.142 S 
ATOM      9  C   UNL A   1      31.020  27.555  23.937  1.00  0.00     0.079 A 
BRANCH   6  10
ATOM     10  C   UNL A   1      30.646  24.322  26.073  1.00  0.00     0.308 C 
BRANCH  10  11
ATOM     11  N   UNL A   1      31.684  24.061  27.087  1.00  0.00    -0.340 N 
ATOM     12  H   UNL A   1      32.041  24.962  27.403  1.00  0.00     0.346 HD
ATOM     13  H   UNL A   1      31.223  23.512  27.813  1.00  0.00     0.346 HD
BRANCH  11  14
ATOM     14  C   UNL A   1      32.835  23.248  26.648  1.00  0.00     0.179 C 
ATOM     15  C   UNL A   1      33.367  22.385  27.807  1.00  0.00     0.075 C 
BRANCH  14  16
ATOM     16  C   UNL A   1      33.962  24.209  26.181  1.00  0.00     0.068 C 
BRANCH  16  17
ATOM     17  C   UNL A   1      34.359  24.021  24.690  1.00  0.00    -0.009 C 
ATOM     18  C   UNL A   1      34.026  25.276  23.876  1.00  0.00     0.008 C 
BRANCH  17  19
ATOM     19  C   UNL A   1      35.852  23.649  24.573  1.00  0.00    -0.000 C 
ATOM     20  C   UNL A   1      36.581  23.675  25.911  1.00  0.00     0.004 C 
ENDBRANCH  17  19
ENDBRANCH  16  17
ENDBRANCH  14  16
ENDBRANCH  11  14
ENDBRANCH  10  11
ENDBRANCH   6  10
ENDBRANCH   1   5
BRANCH   3  21
ATOM     21  C   UNL A   1      31.037  30.783  25.500  1.00  0.00     0.118 C 
BRANCH  21  22
ATOM     22  C   UNL A   1      31.040  32.122  26.225  1.00  0.00     0.042 C 
BRANCH  22  23
ATOM     23  C   UNL A   1      32.340  32.479  26.930  1.00  0.00     0.118 C 
BRANCH  23  24
ATOM     24  N   UNL A   1      32.362  33.845  27.431  1.00  0.00    -0.352 N 
ATOM     25  C   UNL A   1      33.143  34.472  28.368  1.00  0.00     0.251 C 
ATOM     26  H   UNL A   1      31.688  34.432  27.017  1.00  0.00     0.163 HD
ATOM     27  O   UNL A   1      32.838  35.613  28.714  1.00  0.00    -0.269 OA
BRANCH  25  28
ATOM     28  C   UNL A   1      34.325  33.824  28.989  1.00  0.00     0.039 A 
ATOM     29  C   UNL A   1      34.106  32.765  29.880  1.00  0.00     0.014 A 
ATOM     30  C   UNL A   1      35.629  34.276  28.781  1.00  0.00     0.014 A 
ATOM     31  C   UNL A   1      35.184  32.137  30.512  1.00  0.00     0.010 A 
ATOM     32  C   UNL A   1      36.710  33.592  29.339  1.00  0.00     0.010 A 
ATOM     33  C   UNL A   1      36.501  32.525  30.223  1.00  0.00    -0.014 A 
BRANCH  33  34
ATOM     34  C   UNL A   1      37.661  31.842  30.855  1.00  0.00     0.031 A 
ATOM     35  C   UNL A   1      38.091  32.204  32.252  1.00  0.00     0.074 A 
ATOM     36  C   UNL A   1      38.366  30.932  30.154  1.00  0.00     0.049 A 
ATOM     37  N   UNL A   1      39.112  31.765  32.947  1.00  0.00    -0.248 NA
ATOM     38  C   UNL A   1      37.285  33.216  32.952  1.00  0.00     0.031 C 
ATOM     39  C   UNL A   1      38.088  30.527  28.775  1.00  0.00     0.029 A 
ATOM     40  N   UNL A   1      39.464  30.186  30.504  1.00  0.00    -0.354 N 
ATOM     41  C   UNL A   1      39.082  32.462  34.147  1.00  0.00     0.074 A 
ATOM     42  C   UNL A   1      37.972  33.388  34.071  1.00  0.00     0.031 C 
ATOM     43  C   UNL A   1      38.973  29.588  28.406  1.00  0.00     0.029 A 
ATOM     44  C   UNL A   1      39.899  29.347  29.509  1.00  0.00     0.049 A 
ATOM     45  H   UNL A   1      39.897  30.247  31.386  1.00  0.00     0.167 HD
ATOM     46  C   UNL A   1      39.893  32.331  35.227  1.00  0.00     0.037 A 
ATOM     47  C   UNL A   1      40.930  28.481  29.487  1.00  0.00     0.037 A 
ATOM     48  C   UNL A   1      40.972  31.383  35.321  1.00  0.00     0.049 A 
ATOM     49  C   UNL A   1      41.790  28.324  30.711  1.00  0.00     0.074 A 
ATOM     50  C   UNL A   1      41.814  31.135  36.392  1.00  0.00     0.029 A 
ATOM     51  N   UNL A   1      41.353  30.518  34.306  1.00  0.00    -0.354 N 
ATOM     52  N   UNL A   1      41.717  28.950  31.860  1.00  0.00    -0.248 NA
ATOM     53  C   UNL A   1      42.871  27.331  30.637  1.00  0.00     0.031 C 
ATOM     54  C   UNL A   1      42.725  30.142  36.015  1.00  0.00     0.029 A 
ATOM     55  C   UNL A   1      42.423  29.742  34.723  1.00  0.00     0.049 A 
ATOM     56  H   UNL A   1      40.927  30.464  33.421  1.00  0.00     0.167 HD
ATOM     57  C   UNL A   1      42.717  28.408  32.655  1.00  0.00     0.074 A 
ATOM     58  C   UNL A   1      43.377  27.393  31.861  1.00  0.00     0.031 C 
ATOM     59  C   UNL A   1      43.059  28.724  33.927  1.00  0.00     0.037 A 
BRANCH  46  60
ATOM     60  C   UNL A   1      39.637  33.231  36.400  1.00  0.00     0.064 A 
ATOM     61  C   UNL A   1      38.778  32.853  37.443  1.00  0.00     0.173 A 
ATOM     62  C   UNL A   1      40.284  34.473  36.500  1.00  0.00     0.173 A 
ATOM     63  F   UNL A   1      38.126  31.681  37.389  1.00  0.00    -0.203 F 
ATOM     64  C   UNL A   1      38.554  33.696  38.528  1.00  0.00     0.198 A 
ATOM     65  C   UNL A   1      40.079  35.301  37.601  1.00  0.00     0.198 A 
ATOM     66  F   UNL A   1      41.120  34.880  35.533  1.00  0.00    -0.203 F 
ATOM     67  F   UNL A   1      37.692  33.334  39.489  1.00  0.00    -0.200 F 
ATOM     68  C   UNL A   1      39.209  34.915  38.609  1.00  0.00     0.200 A 
ATOM     69  F   UNL A   1      40.722  36.473  37.684  1.00  0.00    -0.200 F 
ATOM     70  F   UNL A   1      38.995  35.723  39.658  1.00  0.00    -0.200 F 
ENDBRANCH  46  60
BRANCH  47  71
ATOM     71  C   UNL A   1      41.179  27.659  28.275  1.00  0.00     0.064 A 
ATOM     72  C   UNL A   1      42.051  28.108  27.272  1.00  0.00     0.173 A 
ATOM     73  C   UNL A   1      40.553  26.419  28.090  1.00  0.00     0.173 A 
ATOM     74  F   UNL A   1      42.656  29.299  27.395  1.00  0.00    -0.203 F 
ATOM     75  C   UNL A   1      42.274  27.354  26.123  1.00  0.00     0.198 A 
ATOM     76  C   UNL A   1      40.798  25.654  26.952  1.00  0.00     0.198 A 
ATOM     77  F   UNL A   1      39.715  25.943  29.023  1.00  0.00    -0.203 F 
ATOM     78  F   UNL A   1      43.080  27.825  25.161  1.00  0.00    -0.200 F 
ATOM     79  C   UNL A   1      41.652  26.125  25.966  1.00  0.00     0.200 A 
ATOM     80  F   UNL A   1      40.205  24.460  26.809  1.00  0.00    -0.200 F 
ATOM     81  F   UNL A   1      41.869  25.399  24.861  1.00  0.00    -0.200 F 
ENDBRANCH  47  71
BRANCH  59  82
ATOM     82  C   UNL A   1      44.167  27.932  34.557  1.00  0.00     0.064 A 
ATOM     83  C   UNL A   1      43.920  26.727  35.230  1.00  0.00     0.173 A 
ATOM     84  C   UNL A   1      45.495  28.373  34.462  1.00  0.00     0.173 A 
ATOM     85  F   UNL A   1      42.665  26.271  35.359  1.00  0.00    -0.203 F 
ATOM     86  C   UNL A   1      44.961  26.006  35.810  1.00  0.00     0.198 A 
ATOM     87  C   UNL A   1      46.536  27.637  35.020  1.00  0.00     0.198 A 
ATOM     88  F   UNL A   1      45.783  29.517  33.824  1.00  0.00    -0.203 F 
ATOM     89  F   UNL A   1      44.698  24.882  36.490  1.00  0.00    -0.200 F 
ATOM     90  C   UNL A   1      46.268  26.459  35.701  1.00  0.00     0.200 A 
ATOM     91  F   UNL A   1      47.799  28.071  34.904  1.00  0.00    -0.200 F 
ATOM     92  F   UNL A   1      47.268  25.763  36.258  1.00  0.00    -0.200 F 
ENDBRANCH  59  82
ENDBRANCH  33  34
ENDBRANCH  25  28
ENDBRANCH  23  24
ENDBRANCH  22  23
ENDBRANCH  21  22
ENDBRANCH   3  21
TORSDOF 16
ENDMDL
MODEL 2
REMARK VINA RESULT:     -10.4      1.300      2.264
REMARK SMILES CC[C@H](C)C[C@@H](C)[NH2+]Cc1cc(C(=O)NCCCNC(=O)c2ccc(-c3c4nc(c(-c5c(F)c(F)c(F)c(F)c5F)c5ccc([nH]5)c(-c5c(F)c(F)c(F)c(F)c5F)c5nc(c(-c6c(F)c(F)c(F)c(F)c6F)c6ccc3[nH]6)C=C5)C=C4)cc2)cs1
REMARK SMILES IDX 13 1 14 2 15 3 12 5 10 6 11 7 86 8 85 9 9 10 8 11 6 14 7 15
REMARK SMILES IDX 5 16 3 17 4 18 2 19 1 20 16 21 17 22 18 23 19 24 20 25 21 27
REMARK SMILES IDX 22 28 23 29 84 30 24 31 83 32 25 33 26 34 27 35 77 36 28 37
REMARK SMILES IDX 82 38 76 39 78 40 29 41 81 42 75 43 74 44 30 46 62 47 42 48
REMARK SMILES IDX 61 49 43 50 46 51 60 52 79 53 44 54 45 55 59 57 80 58 47 59
REMARK SMILES IDX 31 60 32 61 40 62 33 63 34 64 38 65 41 66 35 67 36 68 39 69
REMARK SMILES IDX 37 70 63 71 64 72 72 73 65 74 66 75 70 76 73 77 67 78 68 79
REMARK SMILES IDX 71 80 69 81 48 82 49 83 57 84 50 85 51 86 55 87 58 88 52 89
REMARK SMILES IDX 53 90 56 91 54 92
REMARK H PARENT 15 4 8 12 8 13 19 26 78 45 46 56
REMARK Flexibility Score: inf
ROOT
ATOM      1  C   UNL A   1      30.052  29.263  23.278  1.00  0.00     0.252 C 
ATOM      2  O   UNL A   1      29.288  29.524  22.348  1.00  0.00    -0.269 OA
ATOM      3  N   UNL A   1      30.392  30.294  24.127  1.00  0.00    -0.352 N 
ATOM      4  H   UNL A   1      29.936  31.143  23.926  1.00  0.00     0.163 HD
ENDROOT
BRANCH   1   5
ATOM      5  C   UNL A   1      30.655  27.941  23.426  1.00  0.00     0.051 A 
ATOM      6  C   UNL A   1      31.869  26.062  22.803  1.00  0.00     0.059 A 
ATOM      7  C   UNL A   1      31.884  27.441  22.887  1.00  0.00     0.035 A 
ATOM      8  S   UNL A   1      30.779  25.407  23.946  1.00  0.00    -0.142 S 
ATOM      9  C   UNL A   1      30.054  26.944  24.183  1.00  0.00     0.079 A 
BRANCH   6  10
ATOM     10  C   UNL A   1      32.633  25.205  21.841  1.00  0.00     0.308 C 
BRANCH  10  11
ATOM     11  N   UNL A   1      32.293  23.774  21.945  1.00  0.00    -0.340 N 
ATOM     12  H   UNL A   1      31.452  23.695  22.515  1.00  0.00     0.346 HD
ATOM     13  H   UNL A   1      32.182  23.450  20.984  1.00  0.00     0.346 HD
BRANCH  11  14
ATOM     14  C   UNL A   1      33.324  22.900  22.539  1.00  0.00     0.179 C 
ATOM     15  C   UNL A   1      32.733  22.068  23.692  1.00  0.00     0.075 C 
BRANCH  14  16
ATOM     16  C   UNL A   1      34.460  23.796  23.100  1.00  0.00     0.068 C 
BRANCH  16  17
ATOM     17  C   UNL A   1      35.485  23.024  23.978  1.00  0.00    -0.009 C 
ATOM     18  C   UNL A   1      36.795  22.803  23.216  1.00  0.00     0.008 C 
BRANCH  17  19
ATOM     19  C   UNL A   1      35.721  23.766  25.309  1.00  0.00    -0.000 C 
ATOM     20  C   UNL A   1      34.667  24.830  25.596  1.00  0.00     0.004 C 
ENDBRANCH  17  19
ENDBRANCH  16  17
ENDBRANCH  14  16
ENDBRANCH  11  14
ENDBRANCH  10  11
ENDBRANCH   6  10
ENDBRANCH   1   5
BRANCH   3  21
ATOM     21  C   UNL A   1      31.299  30.367  25.265  1.00  0.00     0.118 C 
BRANCH  21  22
ATOM     22  C   UNL A   1      31.118  31.603  26.137  1.00  0.00     0.042 C 
BRANCH  22  23
ATOM     23  C   UNL A   1      32.263  31.896  27.096  1.00  0.00     0.118 C 
BRANCH  23  24
ATOM     24  N   UNL A   1      32.474  33.319  27.314  1.00  0.00    -0.352 N 
ATOM     25  C   UNL A   1      33.410  34.013  28.040  1.00  0.00     0.251 C 
ATOM     26  H   UNL A   1      31.821  33.894  26.853  1.00  0.00     0.163 HD
ATOM     27  O   UNL A   1      33.258  35.227  28.179  1.00  0.00    -0.269 OA
BRANCH  25  28
ATOM     28  C   UNL A   1      34.580  33.357  28.672  1.00  0.00     0.039 A 
ATOM     29  C   UNL A   1      34.358  32.548  29.794  1.00  0.00     0.014 A 
ATOM     30  C   UNL A   1      35.890  33.575  28.243  1.00  0.00     0.014 A 
ATOM     31  C   UNL A   1      35.430  31.927  30.444  1.00  0.00     0.010 A 
ATOM     32  C   UNL A   1      36.950  32.884  28.832  1.00  0.00     0.010 A 
ATOM     33  C   UNL A   1      36.736  32.064  29.948  1.00  0.00    -0.014 A 
BRANCH  33  34
ATOM     34  C   UNL A   1      37.883  31.380  30.602  1.00  0.00     0.031 A 
ATOM     35  C   UNL A   1      38.252  31.700  32.026  1.00  0.00     0.074 A 
ATOM     36  C   UNL A   1      38.631  30.508  29.897  1.00  0.00     0.049 A 
ATOM     37  N   UNL A   1      39.253  31.254  32.745  1.00  0.00    -0.248 NA
ATOM     38  C   UNL A   1      37.401  32.671  32.728  1.00  0.00     0.031 C 
ATOM     39  C   UNL A   1      38.415  30.147  28.496  1.00  0.00     0.029 A 
ATOM     40  N   UNL A   1      39.729  29.769  30.265  1.00  0.00    -0.354 N 
ATOM     41  C   UNL A   1      39.164  31.907  33.967  1.00  0.00     0.074 A 
ATOM     42  C   UNL A   1      38.040  32.815  33.879  1.00  0.00     0.031 C 
ATOM     43  C   UNL A   1      39.331  29.237  28.130  1.00  0.00     0.029 A 
ATOM     44  C   UNL A   1      40.218  28.973  29.259  1.00  0.00     0.049 A 
ATOM     45  H   UNL A   1      40.127  29.806  31.164  1.00  0.00     0.167 HD
ATOM     46  C   UNL A   1      39.934  31.751  35.072  1.00  0.00     0.037 A 
ATOM     47  C   UNL A   1      41.265  28.126  29.247  1.00  0.00     0.037 A 
ATOM     48  C   UNL A   1      41.027  30.819  35.176  1.00  0.00     0.049 A 
ATOM     49  C   UNL A   1      42.080  27.941  30.498  1.00  0.00     0.074 A 
ATOM     50  C   UNL A   1      41.831  30.549  36.269  1.00  0.00     0.029 A 
ATOM     51  N   UNL A   1      41.463  29.998  34.147  1.00  0.00    -0.354 N 
ATOM     52  N   UNL A   1      41.950  28.525  31.664  1.00  0.00    -0.248 NA
ATOM     53  C   UNL A   1      43.181  26.970  30.432  1.00  0.00     0.031 C 
ATOM     54  C   UNL A   1      42.774  29.586  35.894  1.00  0.00     0.029 A 
ATOM     55  C   UNL A   1      42.530  29.226  34.578  1.00  0.00     0.049 A 
ATOM     56  H   UNL A   1      41.073  29.968  33.244  1.00  0.00     0.167 HD
ATOM     57  C   UNL A   1      42.929  27.972  32.479  1.00  0.00     0.074 A 
ATOM     58  C   UNL A   1      43.638  26.997  31.676  1.00  0.00     0.031 C 
ATOM     59  C   UNL A   1      43.216  28.248  33.774  1.00  0.00     0.037 A 
BRANCH  46  60
ATOM     60  C   UNL A   1      39.617  32.605  36.265  1.00  0.00     0.064 A 
ATOM     61  C   UNL A   1      40.289  33.813  36.505  1.00  0.00     0.173 A 
ATOM     62  C   UNL A   1      38.605  32.228  37.162  1.00  0.00     0.173 A 
ATOM     63  F   UNL A   1      41.273  34.212  35.684  1.00  0.00    -0.203 F 
ATOM     64  C   UNL A   1      39.981  34.597  37.613  1.00  0.00     0.198 A 
ATOM     65  C   UNL A   1      38.280  33.030  38.254  1.00  0.00     0.198 A 
ATOM     66  F   UNL A   1      37.927  31.086  36.976  1.00  0.00    -0.203 F 
ATOM     67  F   UNL A   1      40.670  35.723  37.848  1.00  0.00    -0.200 F 
ATOM     68  C   UNL A   1      38.973  34.208  38.482  1.00  0.00     0.200 A 
ATOM     69  F   UNL A   1      37.298  32.659  39.086  1.00  0.00    -0.200 F 
ATOM     70  F   UNL A   1      38.674  34.968  39.545  1.00  0.00    -0.200 F 
ENDBRANCH  46  60
BRANCH  47  71
ATOM     71  C   UNL A   1      41.576  27.353  28.018  1.00  0.00     0.064 A 
ATOM     72  C   UNL A   1      41.000  26.093  27.800  1.00  0.00     0.173 A 
ATOM     73  C   UNL A   1      42.449  27.850  27.041  1.00  0.00     0.173 A 
ATOM     74  F   UNL A   1      40.176  25.566  28.717  1.00  0.00    -0.203 F 
ATOM     75  C   UNL A   1      41.302  25.352  26.659  1.00  0.00     0.198 A 
ATOM     76  C   UNL A   1      42.729  27.120  25.889  1.00  0.00     0.198 A 
ATOM     77  F   UNL A   1      43.019  29.054  27.200  1.00  0.00    -0.203 F 
ATOM     78  F   UNL A   1      40.772  24.132  26.497  1.00  0.00    -0.200 F 
ATOM     79  C   UNL A   1      42.162  25.868  25.702  1.00  0.00     0.200 A 
ATOM     80  F   UNL A   1      43.550  27.628  24.958  1.00  0.00    -0.200 F 
ATOM     81  F   UNL A   1      42.449  25.157  24.604  1.00  0.00    -0.200 F 
ENDBRANCH  47  71
BRANCH  59  82
ATOM     82  C   UNL A   1      44.313  27.454  34.418  1.00  0.00     0.064 A 
ATOM     83  C   UNL A   1      44.065  26.215  35.027  1.00  0.00     0.173 A 
ATOM     84  C   UNL A   1      45.633  27.928  34.403  1.00  0.00     0.173 A 
ATOM     85  F   UNL A   1      42.817  25.727  35.080  1.00  0.00    -0.203 F 
ATOM     86  C   UNL A   1      45.096  25.493  35.623  1.00  0.00     0.198 A 
ATOM     87  C   UNL A   1      46.665  27.190  34.976  1.00  0.00     0.198 A 
ATOM     88  F   UNL A   1      45.922  29.104  33.828  1.00  0.00    -0.203 F 
ATOM     89  F   UNL A   1      44.829  24.334  36.242  1.00  0.00    -0.200 F 
ATOM     90  C   UNL A   1      46.395  25.978  35.592  1.00  0.00     0.200 A 
ATOM     91  F   UNL A   1      47.922  27.656  34.936  1.00  0.00    -0.200 F 
ATOM     92  F   UNL A   1      47.386  25.280  36.165  1.00  0.00    -0.200 F 
ENDBRANCH  59  82
ENDBRANCH  33  34
ENDBRANCH  25  28
ENDBRANCH  23  24
ENDBRANCH  22  23
ENDBRANCH  21  22
ENDBRANCH   3  21
TORSDOF 16
ENDMDL
MODEL 3
REMARK VINA RESULT:     -10.3      2.305      3.072
REMARK SMILES CC[C@H](C)C[C@@H](C)[NH2+]Cc1cc(C(=O)NCCCNC(=O)c2ccc(-c3c4nc(c(-c5c(F)c(F)c(F)c(F)c5F)c5ccc([nH]5)c(-c5c(F)c(F)c(F)c(F)c5F)c5nc(c(-c6c(F)c(F)c(F)c(F)c6F)c6ccc3[nH]6)C=C5)C=C4)cc2)cs1
REMARK SMILES IDX 13 1 14 2 15 3 12 5 10 6 11 7 86 8 85 9 9 10 8 11 6 14 7 15
REMARK SMILES IDX 5 16 3 17 4 18 2 19 1 20 16 21 17 22 18 23 19 24 20 25 21 27
REMARK SMILES IDX 22 28 23 29 84 30 24 31 83 32 25 33 26 34 27 35 77 36 28 37
REMARK SMILES IDX 82 38 76 39 78 40 29 41 81 42 75 43 74 44 30 46 62 47 42 48
REMARK SMILES IDX 61 49 43 50 46 51 60 52 79 53 44 54 45 55 59 57 80 58 47 59
REMARK SMILES IDX 31 60 32 61 40 62 33 63 34 64 38 65 41 66 35 67 36 68 39 69
REMARK SMILES IDX 37 70 63 71 64 72 72 73 65 74 66 75 70 76 73 77 67 78 68 79
REMARK SMILES IDX 71 80 69 81 48 82 49 83 57 84 50 85 51 86 55 87 58 88 52 89
REMARK SMILES IDX 53 90 56 91 54 92
REMARK H PARENT 15 4 8 12 8 13 19 26 78 45 46 56
REMARK Flexibility Score: inf
ROOT
ATOM      1  C   UNL A   1      29.618  26.576  24.192  1.00  0.00     0.252 C 
ATOM      2  O   UNL A   1      28.449  26.356  23.871  1.00  0.00    -0.269 OA
ATOM      3  N   UNL A   1      30.115  27.838  23.949  1.00  0.00    -0.352 N 
ATOM      4  H   UNL A   1      29.451  28.464  23.580  1.00  0.00     0.163 HD
ENDROOT
BRANCH   1   5
ATOM      5  C   UNL A   1      30.479  25.520  24.721  1.00  0.00     0.051 A 
ATOM      6  C   UNL A   1      31.532  23.452  24.785  1.00  0.00     0.059 A 
ATOM      7  C   UNL A   1      31.284  24.571  24.014  1.00  0.00     0.035 A 
ATOM      8  S   UNL A   1      31.425  23.840  26.448  1.00  0.00    -0.142 S 
ATOM      9  C   UNL A   1      30.630  25.316  26.085  1.00  0.00     0.079 A 
BRANCH   6  10
ATOM     10  C   UNL A   1      31.810  22.062  24.303  1.00  0.00     0.308 C 
BRANCH  10  11
ATOM     11  N   UNL A   1      31.886  21.074  25.395  1.00  0.00    -0.340 N 
ATOM     12  H   UNL A   1      32.084  21.580  26.258  1.00  0.00     0.346 HD
ATOM     13  H   UNL A   1      30.989  20.589  25.387  1.00  0.00     0.346 HD
BRANCH  11  14
ATOM     14  C   UNL A   1      32.907  20.017  25.249  1.00  0.00     0.179 C 
ATOM     15  C   UNL A   1      34.324  20.613  25.340  1.00  0.00     0.075 C 
BRANCH  14  16
ATOM     16  C   UNL A   1      32.730  19.356  23.856  1.00  0.00     0.068 C 
BRANCH  16  17
ATOM     17  C   UNL A   1      32.563  17.812  23.918  1.00  0.00    -0.009 C 
ATOM     18  C   UNL A   1      33.672  17.113  23.125  1.00  0.00     0.008 C 
BRANCH  17  19
ATOM     19  C   UNL A   1      32.526  17.333  25.384  1.00  0.00    -0.000 C 
ATOM     20  C   UNL A   1      33.407  16.114  25.637  1.00  0.00     0.004 C 
ENDBRANCH  17  19
ENDBRANCH  16  17
ENDBRANCH  14  16
ENDBRANCH  11  14
ENDBRANCH  10  11
ENDBRANCH   6  10
ENDBRANCH   1   5
BRANCH   3  21
ATOM     21  C   UNL A   1      31.437  28.422  24.133  1.00  0.00     0.118 C 
BRANCH  21  22
ATOM     22  C   UNL A   1      31.725  28.894  25.552  1.00  0.00     0.042 C 
BRANCH  22  23
ATOM     23  C   UNL A   1      33.027  29.660  25.732  1.00  0.00     0.118 C 
BRANCH  23  24
ATOM     24  N   UNL A   1      32.830  31.012  26.233  1.00  0.00    -0.352 N 
ATOM     25  C   UNL A   1      33.440  31.725  27.234  1.00  0.00     0.251 C 
ATOM     26  H   UNL A   1      32.123  31.512  25.762  1.00  0.00     0.163 HD
ATOM     27  O   UNL A   1      32.962  32.813  27.551  1.00  0.00    -0.269 OA
BRANCH  25  28
ATOM     28  C   UNL A   1      34.638  31.227  27.955  1.00  0.00     0.039 A 
ATOM     29  C   UNL A   1      35.724  32.099  28.112  1.00  0.00     0.014 A 
ATOM     30  C   UNL A   1      34.753  29.913  28.409  1.00  0.00     0.014 A 
ATOM     31  C   UNL A   1      36.887  31.672  28.760  1.00  0.00     0.010 A 
ATOM     32  C   UNL A   1      35.876  29.513  29.136  1.00  0.00     0.010 A 
ATOM     33  C   UNL A   1      36.962  30.381  29.308  1.00  0.00    -0.014 A 
BRANCH  33  34
ATOM     34  C   UNL A   1      38.176  29.923  30.035  1.00  0.00     0.031 A 
ATOM     35  C   UNL A   1      38.448  30.394  31.438  1.00  0.00     0.074 A 
ATOM     36  C   UNL A   1      39.065  29.123  29.413  1.00  0.00     0.049 A 
ATOM     37  N   UNL A   1      39.481  30.154  32.209  1.00  0.00    -0.248 NA
ATOM     38  C   UNL A   1      37.442  31.276  32.047  1.00  0.00     0.031 C 
ATOM     39  C   UNL A   1      38.948  28.635  28.039  1.00  0.00     0.029 A 
ATOM     40  N   UNL A   1      40.246  28.583  29.858  1.00  0.00    -0.354 N 
ATOM     41  C   UNL A   1      39.258  30.872  33.376  1.00  0.00     0.074 A 
ATOM     42  C   UNL A   1      38.017  31.595  33.197  1.00  0.00     0.031 C 
ATOM     43  C   UNL A   1      39.999  27.847  27.761  1.00  0.00     0.029 A 
ATOM     44  C   UNL A   1      40.879  27.799  28.925  1.00  0.00     0.049 A 
ATOM     45  H   UNL A   1      40.606  28.742  30.760  1.00  0.00     0.167 HD
ATOM     46  C   UNL A   1      40.008  30.911  34.506  1.00  0.00     0.037 A 
ATOM     47  C   UNL A   1      42.038  27.117  28.999  1.00  0.00     0.037 A 
ATOM     48  C   UNL A   1      41.221  30.161  34.702  1.00  0.00     0.049 A 
ATOM     49  C   UNL A   1      42.831  27.145  30.277  1.00  0.00     0.074 A 
ATOM     50  C   UNL A   1      42.021  30.091  35.830  1.00  0.00     0.029 A 
ATOM     51  N   UNL A   1      41.805  29.343  33.747  1.00  0.00    -0.354 N 
ATOM     52  N   UNL A   1      42.580  27.784  31.393  1.00  0.00    -0.248 NA
ATOM     53  C   UNL A   1      44.064  26.345  30.307  1.00  0.00     0.031 C 
ATOM     54  C   UNL A   1      43.106  29.254  35.547  1.00  0.00     0.029 A 
ATOM     55  C   UNL A   1      42.959  28.770  34.258  1.00  0.00     0.049 A 
ATOM     56  H   UNL A   1      41.452  29.191  32.841  1.00  0.00     0.167 HD
ATOM     57  C   UNL A   1      43.604  27.442  32.267  1.00  0.00     0.074 A 
ATOM     58  C   UNL A   1      44.472  26.528  31.555  1.00  0.00     0.031 C 
ATOM     59  C   UNL A   1      43.805  27.849  33.543  1.00  0.00     0.037 A 
BRANCH  46  60
ATOM     60  C   UNL A   1      39.531  31.791  35.624  1.00  0.00     0.064 A 
ATOM     61  C   UNL A   1      39.993  33.108  35.772  1.00  0.00     0.173 A 
ATOM     62  C   UNL A   1      38.576  31.325  36.541  1.00  0.00     0.173 A 
ATOM     63  F   UNL A   1      40.915  33.597  34.930  1.00  0.00    -0.203 F 
ATOM     64  C   UNL A   1      39.539  33.914  36.812  1.00  0.00     0.198 A 
ATOM     65  C   UNL A   1      38.102  32.144  37.563  1.00  0.00     0.198 A 
ATOM     66  F   UNL A   1      38.096  30.075  36.442  1.00  0.00    -0.203 F 
ATOM     67  F   UNL A   1      40.031  35.152  36.961  1.00  0.00    -0.200 F 
ATOM     68  C   UNL A   1      38.590  33.435  37.701  1.00  0.00     0.200 A 
ATOM     69  F   UNL A   1      37.177  31.684  38.415  1.00  0.00    -0.200 F 
ATOM     70  F   UNL A   1      38.150  34.215  38.698  1.00  0.00    -0.200 F 
ENDBRANCH  46  60
BRANCH  47  71
ATOM     71  C   UNL A   1      42.497  26.313  27.838  1.00  0.00     0.064 A 
ATOM     72  C   UNL A   1      43.451  26.823  26.945  1.00  0.00     0.173 A 
ATOM     73  C   UNL A   1      41.996  25.027  27.594  1.00  0.00     0.173 A 
ATOM     74  F   UNL A   1      43.943  28.058  27.126  1.00  0.00    -0.203 F 
ATOM     75  C   UNL A   1      43.872  26.084  25.842  1.00  0.00     0.198 A 
ATOM     76  C   UNL A   1      42.437  24.279  26.505  1.00  0.00     0.198 A 
ATOM     77  F   UNL A   1      41.087  24.492  28.422  1.00  0.00    -0.203 F 
ATOM     78  F   UNL A   1      44.752  26.613  24.981  1.00  0.00    -0.200 F 
ATOM     79  C   UNL A   1      43.369  24.810  25.626  1.00  0.00     0.200 A 
ATOM     80  F   UNL A   1      41.959  23.042  26.306  1.00  0.00    -0.200 F 
ATOM     81  F   UNL A   1      43.776  24.099  24.567  1.00  0.00    -0.200 F 
ENDBRANCH  47  71
BRANCH  59  82
ATOM     82  C   UNL A   1      44.985  27.274  34.268  1.00  0.00     0.064 A 
ATOM     83  C   UNL A   1      44.893  26.076  34.992  1.00  0.00     0.173 A 
ATOM     84  C   UNL A   1      46.231  27.918  34.216  1.00  0.00     0.173 A 
ATOM     85  F   UNL A   1      43.721  25.431  35.083  1.00  0.00    -0.203 F 
ATOM     86  C   UNL A   1      46.000  25.559  35.661  1.00  0.00     0.198 A 
ATOM     87  C   UNL A   1      47.341  27.383  34.864  1.00  0.00     0.198 A 
ATOM     88  F   UNL A   1      46.372  29.063  33.533  1.00  0.00    -0.203 F 
ATOM     89  F   UNL A   1      45.878  24.438  36.387  1.00  0.00    -0.200 F 
ATOM     90  C   UNL A   1      47.223  26.209  35.593  1.00  0.00     0.200 A 
ATOM     91  F   UNL A   1      48.525  28.008  34.788  1.00  0.00    -0.200 F 
ATOM     92  F   UNL A   1      48.286  25.708  36.236  1.00  0.00    -0.200 F 
ENDBRANCH  59  82
ENDBRANCH  33  34
ENDBRANCH  25  28
ENDBRANCH  23  24
ENDBRANCH  22  23
ENDBRANCH  21  22
ENDBRANCH   3  21
TORSDOF 16
ENDMDL
