MODEL 1
REMARK VINA RESULT:     -12.6      0.000      0.000
REMARK SMILES O=C(NCCCNC(=O)c1cc(=O)[nH]c2c(Br)cccc12)c1ccc(-c2c3nc(c(-c4c(F)c(F)c(F)c(F)c4F)c4ccc([nH]4)c(-c4c(F)c(F)c(F)c(F)c4F)c4nc(c(-c5c(F)c(F)c(F)c(F)c5F)c5ccc2[nH]5)C=C4)C=C3)cc1
REMARK SMILES IDX 4 1 3 2 1 3 2 4 22 6 23 7 84 8 24 9 83 10 25 11 26 12 27 13
REMARK SMILES IDX 77 14 28 15 82 16 76 17 78 18 29 19 81 20 75 21 74 22 30 24
REMARK SMILES IDX 62 25 42 26 61 27 43 28 46 29 60 30 79 31 44 32 45 33 59 35
REMARK SMILES IDX 80 36 47 37 31 38 32 39 40 40 33 41 34 42 38 43 41 44 35 45
REMARK SMILES IDX 36 46 39 47 37 48 63 49 64 50 72 51 65 52 66 53 70 54 73 55
REMARK SMILES IDX 67 56 68 57 71 58 69 59 48 60 49 61 57 62 50 63 51 64 55 65
REMARK SMILES IDX 58 66 52 67 53 68 56 69 54 70 5 71 6 72 7 73 8 74 9 76 10 77
REMARK SMILES IDX 11 78 21 79 12 80 15 81 20 82 13 83 14 84 16 85 19 86 17 88
REMARK SMILES IDX 18 89
REMARK H PARENT 3 5 78 23 46 34 7 75 14 87
REMARK Flexibility Score: inf
ROOT
ATOM      1  C   UNL A   1      32.706  32.217  26.876  1.00  0.00     0.118 C 
ENDROOT
BRANCH   1   2
ATOM      2  N   UNL A   1      32.508  33.582  27.340  1.00  0.00    -0.352 N 
ATOM      3  O   UNL A   1      32.615  35.361  28.701  1.00  0.00    -0.269 OA
ATOM      4  C   UNL A   1      33.081  34.272  28.376  1.00  0.00     0.251 C 
ATOM      5  H   UNL A   1      31.850  34.099  26.819  1.00  0.00     0.163 HD
BRANCH   4   6
ATOM      6  C   UNL A   1      34.249  33.730  29.107  1.00  0.00     0.039 A 
ATOM      7  C   UNL A   1      35.523  34.203  28.778  1.00  0.00     0.014 A 
ATOM      8  C   UNL A   1      34.114  32.709  30.051  1.00  0.00     0.014 A 
ATOM      9  C   UNL A   1      36.649  33.661  29.400  1.00  0.00     0.010 A 
ATOM     10  C   UNL A   1      35.224  32.252  30.752  1.00  0.00     0.010 A 
ATOM     11  C   UNL A   1      36.508  32.683  30.397  1.00  0.00    -0.014 A 
BRANCH  11  12
ATOM     12  C   UNL A   1      37.695  32.020  30.994  1.00  0.00     0.031 A 
ATOM     13  C   UNL A   1      38.140  32.402  32.382  1.00  0.00     0.074 A 
ATOM     14  C   UNL A   1      38.378  31.093  30.297  1.00  0.00     0.049 A 
ATOM     15  N   UNL A   1      39.159  31.962  33.076  1.00  0.00    -0.248 NA
ATOM     16  C   UNL A   1      37.354  33.438  33.073  1.00  0.00     0.031 C 
ATOM     17  C   UNL A   1      38.067  30.664  28.935  1.00  0.00     0.029 A 
ATOM     18  N   UNL A   1      39.473  30.340  30.644  1.00  0.00    -0.354 N 
ATOM     19  C   UNL A   1      39.140  32.678  34.267  1.00  0.00     0.074 A 
ATOM     20  C   UNL A   1      38.060  33.633  34.174  1.00  0.00     0.031 C 
ATOM     21  C   UNL A   1      38.923  29.695  28.575  1.00  0.00     0.029 A 
ATOM     22  C   UNL A   1      39.867  29.462  29.665  1.00  0.00     0.049 A 
ATOM     23  H   UNL A   1      39.931  30.423  31.511  1.00  0.00     0.167 HD
ATOM     24  C   UNL A   1      39.928  32.526  35.356  1.00  0.00     0.037 A 
ATOM     25  C   UNL A   1      40.875  28.568  29.651  1.00  0.00     0.037 A 
ATOM     26  C   UNL A   1      40.968  31.541  35.464  1.00  0.00     0.049 A 
ATOM     27  C   UNL A   1      41.752  28.427  30.866  1.00  0.00     0.074 A 
ATOM     28  C   UNL A   1      41.771  31.255  36.552  1.00  0.00     0.029 A 
ATOM     29  N   UNL A   1      41.347  30.682  34.443  1.00  0.00    -0.354 N 
ATOM     30  N   UNL A   1      41.679  29.058  32.013  1.00  0.00    -0.248 NA
ATOM     31  C   UNL A   1      42.849  27.453  30.788  1.00  0.00     0.031 C 
ATOM     32  C   UNL A   1      42.678  30.263  36.172  1.00  0.00     0.029 A 
ATOM     33  C   UNL A   1      42.403  29.891  34.865  1.00  0.00     0.049 A 
ATOM     34  H   UNL A   1      40.929  30.640  33.553  1.00  0.00     0.167 HD
ATOM     35  C   UNL A   1      42.706  28.552  32.797  1.00  0.00     0.074 A 
ATOM     36  C   UNL A   1      43.379  27.545  32.002  1.00  0.00     0.031 C 
ATOM     37  C   UNL A   1      43.063  28.893  34.059  1.00  0.00     0.037 A 
BRANCH  24  38
ATOM     38  C   UNL A   1      39.686  33.435  36.528  1.00  0.00     0.064 A 
ATOM     39  C   UNL A   1      40.291  34.698  36.620  1.00  0.00     0.173 A 
ATOM     40  C   UNL A   1      38.802  33.058  37.549  1.00  0.00     0.173 A 
ATOM     41  F   UNL A   1      41.155  35.104  35.676  1.00  0.00    -0.203 F 
ATOM     42  C   UNL A   1      40.042  35.536  37.703  1.00  0.00     0.198 A 
ATOM     43  C   UNL A   1      38.528  33.913  38.613  1.00  0.00     0.198 A 
ATOM     44  F   UNL A   1      38.191  31.863  37.509  1.00  0.00    -0.203 F 
ATOM     45  F   UNL A   1      40.672  36.715  37.794  1.00  0.00    -0.200 F 
ATOM     46  C   UNL A   1      39.154  35.147  38.694  1.00  0.00     0.200 A 
ATOM     47  F   UNL A   1      37.656  33.541  39.562  1.00  0.00    -0.200 F 
ATOM     48  F   UNL A   1      38.905  35.960  39.729  1.00  0.00    -0.200 F 
ENDBRANCH  24  38
BRANCH  25  49
ATOM     49  C   UNL A   1      41.075  27.716  28.449  1.00  0.00     0.064 A 
ATOM     50  C   UNL A   1      40.364  26.518  28.291  1.00  0.00     0.173 A 
ATOM     51  C   UNL A   1      41.935  28.106  27.412  1.00  0.00     0.173 A 
ATOM     52  F   UNL A   1      39.544  26.093  29.265  1.00  0.00    -0.203 F 
ATOM     53  C   UNL A   1      40.505  25.744  27.141  1.00  0.00     0.198 A 
ATOM     54  C   UNL A   1      42.053  27.345  26.250  1.00  0.00     0.198 A 
ATOM     55  F   UNL A   1      42.635  29.245  27.513  1.00  0.00    -0.203 F 
ATOM     56  F   UNL A   1      39.830  24.592  27.025  1.00  0.00    -0.200 F 
ATOM     57  C   UNL A   1      41.340  26.164  26.117  1.00  0.00     0.200 A 
ATOM     58  F   UNL A   1      42.849  27.764  25.257  1.00  0.00    -0.200 F 
ATOM     59  F   UNL A   1      41.457  25.431  25.001  1.00  0.00    -0.200 F 
ENDBRANCH  25  49
BRANCH  37  60
ATOM     60  C   UNL A   1      44.235  28.190  34.676  1.00  0.00     0.064 A 
ATOM     61  C   UNL A   1      45.518  28.754  34.647  1.00  0.00     0.173 A 
ATOM     62  C   UNL A   1      44.053  27.007  35.410  1.00  0.00     0.173 A 
ATOM     63  F   UNL A   1      45.745  29.879  33.951  1.00  0.00    -0.203 F 
ATOM     64  C   UNL A   1      46.576  28.162  35.330  1.00  0.00     0.198 A 
ATOM     65  C   UNL A   1      45.106  26.434  36.117  1.00  0.00     0.198 A 
ATOM     66  F   UNL A   1      42.842  26.434  35.478  1.00  0.00    -0.203 F 
ATOM     67  F   UNL A   1      47.798  28.709  35.274  1.00  0.00    -0.200 F 
ATOM     68  C   UNL A   1      46.366  27.011  36.076  1.00  0.00     0.200 A 
ATOM     69  F   UNL A   1      44.896  25.334  36.853  1.00  0.00    -0.200 F 
ATOM     70  F   UNL A   1      47.378  26.460  36.759  1.00  0.00    -0.200 F 
ENDBRANCH  37  60
ENDBRANCH  11  12
ENDBRANCH   4   6
ENDBRANCH   1   2
BRANCH   1  71
ATOM     71  C   UNL A   1      31.403  31.533  26.487  1.00  0.00     0.042 C 
BRANCH  71  72
ATOM     72  C   UNL A   1      31.572  30.094  26.027  1.00  0.00     0.118 C 
BRANCH  72  73
ATOM     73  N   UNL A   1      32.123  29.999  24.682  1.00  0.00    -0.352 N 
ATOM     74  C   UNL A   1      32.134  28.954  23.806  1.00  0.00     0.252 C 
ATOM     75  H   UNL A   1      32.557  30.819  24.354  1.00  0.00     0.163 HD
ATOM     76  O   UNL A   1      32.759  29.054  22.752  1.00  0.00    -0.269 OA
BRANCH  74  77
ATOM     77  C   UNL A   1      31.412  27.706  24.161  1.00  0.00     0.054 A 
ATOM     78  C   UNL A   1      30.129  27.630  23.772  1.00  0.00     0.086 A 
ATOM     79  C   UNL A   1      32.056  26.551  24.814  1.00  0.00     0.012 A 
ATOM     80  C   UNL A   1      29.288  26.478  24.136  1.00  0.00     0.249 A 
ATOM     81  C   UNL A   1      31.268  25.426  25.108  1.00  0.00     0.063 A 
ATOM     82  C   UNL A   1      33.419  26.525  25.148  1.00  0.00     0.011 A 
ATOM     83  O   UNL A   1      28.086  26.482  23.884  1.00  0.00    -0.270 OA
ATOM     84  N   UNL A   1      29.903  25.446  24.777  1.00  0.00    -0.321 N 
ATOM     85  C   UNL A   1      31.837  24.301  25.721  1.00  0.00     0.042 A 
ATOM     86  C   UNL A   1      33.984  25.399  25.751  1.00  0.00     0.002 A 
ATOM     87  H   UNL A   1      29.356  24.666  25.023  1.00  0.00     0.170 HD
ATOM     88  Br  UNL A   1      30.800  22.762  26.126  1.00  0.00    -0.049 Br
ATOM     89  C   UNL A   1      33.195  24.286  26.037  1.00  0.00     0.018 A 
ENDBRANCH  74  77
ENDBRANCH  72  73
ENDBRANCH  71  72
ENDBRANCH   1  71
TORSDOF 10
ENDMDL
MODEL 2
REMARK VINA RESULT:     -12.6      0.157      1.167
REMARK SMILES O=C(NCCCNC(=O)c1cc(=O)[nH]c2c(Br)cccc12)c1ccc(-c2c3nc(c(-c4c(F)c(F)c(F)c(F)c4F)c4ccc([nH]4)c(-c4c(F)c(F)c(F)c(F)c4F)c4nc(c(-c5c(F)c(F)c(F)c(F)c5F)c5ccc2[nH]5)C=C4)C=C3)cc1
REMARK SMILES IDX 4 1 3 2 1 3 2 4 22 6 23 7 84 8 24 9 83 10 25 11 26 12 27 13
REMARK SMILES IDX 77 14 28 15 82 16 76 17 78 18 29 19 81 20 75 21 74 22 30 24
REMARK SMILES IDX 62 25 42 26 61 27 43 28 46 29 60 30 79 31 44 32 45 33 59 35
REMARK SMILES IDX 80 36 47 37 31 38 32 39 40 40 33 41 34 42 38 43 41 44 35 45
REMARK SMILES IDX 36 46 39 47 37 48 63 49 64 50 72 51 65 52 66 53 70 54 73 55
REMARK SMILES IDX 67 56 68 57 71 58 69 59 48 60 49 61 57 62 50 63 51 64 55 65
REMARK SMILES IDX 58 66 52 67 53 68 56 69 54 70 5 71 6 72 7 73 8 74 9 76 10 77
REMARK SMILES IDX 11 78 21 79 12 80 15 81 20 82 13 83 14 84 16 85 19 86 17 88
REMARK SMILES IDX 18 89
REMARK H PARENT 3 5 78 23 46 34 7 75 14 87
REMARK Flexibility Score: inf
ROOT
ATOM      1  C   UNL A   1      32.660  32.236  26.878  1.00  0.00     0.118 C 
ENDROOT
BRANCH   1   2
ATOM      2  N   UNL A   1      32.485  33.605  27.342  1.00  0.00    -0.352 N 
ATOM      3  O   UNL A   1      32.633  35.383  28.699  1.00  0.00    -0.269 OA
ATOM      4  C   UNL A   1      33.081  34.288  28.370  1.00  0.00     0.251 C 
ATOM      5  H   UNL A   1      31.827  34.129  26.829  1.00  0.00     0.163 HD
BRANCH   4   6
ATOM      6  C   UNL A   1      34.251  33.733  29.086  1.00  0.00     0.039 A 
ATOM      7  C   UNL A   1      35.525  34.203  28.753  1.00  0.00     0.014 A 
ATOM      8  C   UNL A   1      34.118  32.703  30.020  1.00  0.00     0.014 A 
ATOM      9  C   UNL A   1      36.653  33.648  29.360  1.00  0.00     0.010 A 
ATOM     10  C   UNL A   1      35.230  32.232  30.708  1.00  0.00     0.010 A 
ATOM     11  C   UNL A   1      36.514  32.660  30.348  1.00  0.00    -0.014 A 
BRANCH  11  12
ATOM     12  C   UNL A   1      37.702  31.985  30.928  1.00  0.00     0.031 A 
ATOM     13  C   UNL A   1      38.156  32.345  32.319  1.00  0.00     0.074 A 
ATOM     14  C   UNL A   1      38.378  31.066  30.215  1.00  0.00     0.049 A 
ATOM     15  N   UNL A   1      39.177  31.892  33.002  1.00  0.00    -0.248 NA
ATOM     16  C   UNL A   1      37.377  33.374  33.029  1.00  0.00     0.031 C 
ATOM     17  C   UNL A   1      38.059  30.657  28.848  1.00  0.00     0.029 A 
ATOM     18  N   UNL A   1      39.472  30.304  30.545  1.00  0.00    -0.354 N 
ATOM     19  C   UNL A   1      39.167  32.591  34.203  1.00  0.00     0.074 A 
ATOM     20  C   UNL A   1      38.090  33.550  34.130  1.00  0.00     0.031 C 
ATOM     21  C   UNL A   1      38.909  29.691  28.470  1.00  0.00     0.029 A 
ATOM     22  C   UNL A   1      39.859  29.439  29.552  1.00  0.00     0.049 A 
ATOM     23  H   UNL A   1      39.935  30.373  31.411  1.00  0.00     0.167 HD
ATOM     24  C   UNL A   1      39.960  32.420  35.286  1.00  0.00     0.037 A 
ATOM     25  C   UNL A   1      40.864  28.542  29.519  1.00  0.00     0.037 A 
ATOM     26  C   UNL A   1      40.997  31.431  35.373  1.00  0.00     0.049 A 
ATOM     27  C   UNL A   1      41.746  28.381  30.727  1.00  0.00     0.074 A 
ATOM     28  C   UNL A   1      41.805  31.125  36.453  1.00  0.00     0.029 A 
ATOM     29  N   UNL A   1      41.368  30.585  34.338  1.00  0.00    -0.354 N 
ATOM     30  N   UNL A   1      41.681  28.996  31.883  1.00  0.00    -0.248 NA
ATOM     31  C   UNL A   1      42.840  27.404  30.629  1.00  0.00     0.031 C 
ATOM     32  C   UNL A   1      42.707  30.137  36.054  1.00  0.00     0.029 A 
ATOM     33  C   UNL A   1      42.423  29.784  34.743  1.00  0.00     0.049 A 
ATOM     34  H   UNL A   1      40.945  30.557  33.450  1.00  0.00     0.167 HD
ATOM     35  C   UNL A   1      42.711  28.474  32.655  1.00  0.00     0.074 A 
ATOM     36  C   UNL A   1      43.377  27.477  31.841  1.00  0.00     0.031 C 
ATOM     37  C   UNL A   1      43.075  28.796  33.919  1.00  0.00     0.037 A 
BRANCH  24  38
ATOM     38  C   UNL A   1      39.727  33.313  36.472  1.00  0.00     0.064 A 
ATOM     39  C   UNL A   1      40.391  34.541  36.613  1.00  0.00     0.173 A 
ATOM     40  C   UNL A   1      38.794  32.957  37.457  1.00  0.00     0.173 A 
ATOM     41  F   UNL A   1      41.303  34.925  35.705  1.00  0.00    -0.203 F 
ATOM     42  C   UNL A   1      40.151  35.365  37.709  1.00  0.00     0.198 A 
ATOM     43  C   UNL A   1      38.531  33.800  38.533  1.00  0.00     0.198 A 
ATOM     44  F   UNL A   1      38.127  31.796  37.369  1.00  0.00    -0.203 F 
ATOM     45  F   UNL A   1      40.835  36.509  37.847  1.00  0.00    -0.200 F 
ATOM     46  C   UNL A   1      39.214  34.999  38.663  1.00  0.00     0.200 A 
ATOM     47  F   UNL A   1      37.612  33.451  39.446  1.00  0.00    -0.200 F 
ATOM     48  F   UNL A   1      38.974  35.799  39.710  1.00  0.00    -0.200 F 
ENDBRANCH  24  38
BRANCH  25  49
ATOM     49  C   UNL A   1      41.054  27.707  28.304  1.00  0.00     0.064 A 
ATOM     50  C   UNL A   1      41.881  28.138  27.257  1.00  0.00     0.173 A 
ATOM     51  C   UNL A   1      40.463  26.440  28.188  1.00  0.00     0.173 A 
ATOM     52  F   UNL A   1      42.454  29.350  27.313  1.00  0.00    -0.203 F 
ATOM     53  C   UNL A   1      42.109  27.334  26.142  1.00  0.00     0.198 A 
ATOM     54  C   UNL A   1      40.714  25.626  27.086  1.00  0.00     0.198 A 
ATOM     55  F   UNL A   1      39.667  25.980  29.164  1.00  0.00    -0.203 F 
ATOM     56  F   UNL A   1      42.886  27.779  25.145  1.00  0.00    -0.200 F 
ATOM     57  C   UNL A   1      41.534  26.074  26.063  1.00  0.00     0.200 A 
ATOM     58  F   UNL A   1      40.170  24.402  27.022  1.00  0.00    -0.200 F 
ATOM     59  F   UNL A   1      41.773  25.292  25.001  1.00  0.00    -0.200 F 
ENDBRANCH  25  49
BRANCH  37  60
ATOM     60  C   UNL A   1      44.249  28.080  34.520  1.00  0.00     0.064 A 
ATOM     61  C   UNL A   1      45.533  28.643  34.495  1.00  0.00     0.173 A 
ATOM     62  C   UNL A   1      44.068  26.886  35.234  1.00  0.00     0.173 A 
ATOM     63  F   UNL A   1      45.759  29.779  33.818  1.00  0.00    -0.203 F 
ATOM     64  C   UNL A   1      46.592  28.036  35.165  1.00  0.00     0.198 A 
ATOM     65  C   UNL A   1      45.121  26.298  35.927  1.00  0.00     0.198 A 
ATOM     66  F   UNL A   1      42.855  26.313  35.297  1.00  0.00    -0.203 F 
ATOM     67  F   UNL A   1      47.815  28.582  35.113  1.00  0.00    -0.200 F 
ATOM     68  C   UNL A   1      46.382  26.873  35.891  1.00  0.00     0.200 A 
ATOM     69  F   UNL A   1      44.913  25.186  36.645  1.00  0.00    -0.200 F 
ATOM     70  F   UNL A   1      47.396  26.309  36.561  1.00  0.00    -0.200 F 
ENDBRANCH  37  60
ENDBRANCH  11  12
ENDBRANCH   4   6
ENDBRANCH   1   2
BRANCH   1  71
ATOM     71  C   UNL A   1      31.363  31.615  26.379  1.00  0.00     0.042 C 
BRANCH  71  72
ATOM     72  C   UNL A   1      31.497  30.162  25.950  1.00  0.00     0.118 C 
BRANCH  72  73
ATOM     73  N   UNL A   1      32.087  30.024  24.626  1.00  0.00    -0.352 N 
ATOM     74  C   UNL A   1      32.114  28.953  23.781  1.00  0.00     0.252 C 
ATOM     75  H   UNL A   1      32.537  30.831  24.287  1.00  0.00     0.163 HD
ATOM     76  O   UNL A   1      32.771  29.018  22.744  1.00  0.00    -0.269 OA
BRANCH  74  77
ATOM     77  C   UNL A   1      31.372  27.722  24.150  1.00  0.00     0.054 A 
ATOM     78  C   UNL A   1      30.089  27.660  23.757  1.00  0.00     0.086 A 
ATOM     79  C   UNL A   1      31.995  26.567  24.823  1.00  0.00     0.012 A 
ATOM     80  C   UNL A   1      29.228  26.527  24.133  1.00  0.00     0.249 A 
ATOM     81  C   UNL A   1      31.188  25.458  25.129  1.00  0.00     0.063 A 
ATOM     82  C   UNL A   1      33.355  26.525  25.163  1.00  0.00     0.011 A 
ATOM     83  O   UNL A   1      28.028  26.546  23.876  1.00  0.00    -0.270 OA
ATOM     84  N   UNL A   1      29.825  25.495  24.792  1.00  0.00    -0.321 N 
ATOM     85  C   UNL A   1      31.736  24.333  25.760  1.00  0.00     0.042 A 
ATOM     86  C   UNL A   1      33.900  25.398  25.785  1.00  0.00     0.002 A 
ATOM     87  H   UNL A   1      29.264  24.727  25.046  1.00  0.00     0.170 HD
ATOM     88  Br  UNL A   1      30.674  22.817  26.183  1.00  0.00    -0.049 Br
ATOM     89  C   UNL A   1      33.093  24.302  26.083  1.00  0.00     0.018 A 
ENDBRANCH  74  77
ENDBRANCH  72  73
ENDBRANCH  71  72
ENDBRANCH   1  71
TORSDOF 10
ENDMDL
MODEL 3
REMARK VINA RESULT:     -12.5      5.716      9.489
REMARK SMILES O=C(NCCCNC(=O)c1cc(=O)[nH]c2c(Br)cccc12)c1ccc(-c2c3nc(c(-c4c(F)c(F)c(F)c(F)c4F)c4ccc([nH]4)c(-c4c(F)c(F)c(F)c(F)c4F)c4nc(c(-c5c(F)c(F)c(F)c(F)c5F)c5ccc2[nH]5)C=C4)C=C3)cc1
REMARK SMILES IDX 4 1 3 2 1 3 2 4 22 6 23 7 84 8 24 9 83 10 25 11 26 12 27 13
REMARK SMILES IDX 77 14 28 15 82 16 76 17 78 18 29 19 81 20 75 21 74 22 30 24
REMARK SMILES IDX 62 25 42 26 61 27 43 28 46 29 60 30 79 31 44 32 45 33 59 35
REMARK SMILES IDX 80 36 47 37 31 38 32 39 40 40 33 41 34 42 38 43 41 44 35 45
REMARK SMILES IDX 36 46 39 47 37 48 63 49 64 50 72 51 65 52 66 53 70 54 73 55
REMARK SMILES IDX 67 56 68 57 71 58 69 59 48 60 49 61 57 62 50 63 51 64 55 65
REMARK SMILES IDX 58 66 52 67 53 68 56 69 54 70 5 71 6 72 7 73 8 74 9 76 10 77
REMARK SMILES IDX 11 78 21 79 12 80 15 81 20 82 13 83 14 84 16 85 19 86 17 88
REMARK SMILES IDX 18 89
REMARK H PARENT 3 5 78 23 46 34 7 75 14 87
REMARK Flexibility Score: inf
ROOT
ATOM      1  C   UNL A   1      38.845  20.420  25.752  1.00  0.00     0.118 C 
ENDROOT
BRANCH   1   2
ATOM      2  N   UNL A   1      39.874  19.405  25.922  1.00  0.00    -0.352 N 
ATOM      3  O   UNL A   1      41.928  18.509  26.016  1.00  0.00    -0.269 OA
ATOM      4  C   UNL A   1      41.230  19.518  26.087  1.00  0.00     0.251 C 
ATOM      5  H   UNL A   1      39.538  18.479  25.919  1.00  0.00     0.163 HD
BRANCH   4   6
ATOM      6  C   UNL A   1      41.867  20.828  26.348  1.00  0.00     0.039 A 
ATOM      7  C   UNL A   1      42.164  21.177  27.669  1.00  0.00     0.014 A 
ATOM      8  C   UNL A   1      42.098  21.748  25.323  1.00  0.00     0.014 A 
ATOM      9  C   UNL A   1      42.699  22.434  27.954  1.00  0.00     0.010 A 
ATOM     10  C   UNL A   1      42.737  22.953  25.593  1.00  0.00     0.010 A 
ATOM     11  C   UNL A   1      42.995  23.332  26.916  1.00  0.00    -0.014 A 
BRANCH  11  12
ATOM     12  C   UNL A   1      43.465  24.710  27.206  1.00  0.00     0.031 A 
ATOM     13  C   UNL A   1      42.506  25.716  27.788  1.00  0.00     0.074 A 
ATOM     14  C   UNL A   1      44.736  25.064  26.942  1.00  0.00     0.049 A 
ATOM     15  N   UNL A   1      42.707  26.973  28.093  1.00  0.00    -0.248 NA
ATOM     16  C   UNL A   1      41.126  25.259  28.030  1.00  0.00     0.031 C 
ATOM     17  C   UNL A   1      45.749  24.192  26.349  1.00  0.00     0.029 A 
ATOM     18  N   UNL A   1      45.395  26.252  27.145  1.00  0.00    -0.354 N 
ATOM     19  C   UNL A   1      41.482  27.451  28.544  1.00  0.00     0.074 A 
ATOM     20  C   UNL A   1      40.525  26.378  28.401  1.00  0.00     0.031 C 
ATOM     21  C   UNL A   1      46.911  24.859  26.274  1.00  0.00     0.029 A 
ATOM     22  C   UNL A   1      46.716  26.217  26.776  1.00  0.00     0.049 A 
ATOM     23  H   UNL A   1      44.960  27.052  27.519  1.00  0.00     0.167 HD
ATOM     24  C   UNL A   1      41.190  28.664  29.066  1.00  0.00     0.037 A 
ATOM     25  C   UNL A   1      47.664  27.172  26.839  1.00  0.00     0.037 A 
ATOM     26  C   UNL A   1      42.155  29.712  29.253  1.00  0.00     0.049 A 
ATOM     27  C   UNL A   1      47.315  28.521  27.407  1.00  0.00     0.074 A 
ATOM     28  C   UNL A   1      41.977  30.949  29.844  1.00  0.00     0.029 A 
ATOM     29  N   UNL A   1      43.480  29.642  28.850  1.00  0.00    -0.354 N 
ATOM     30  N   UNL A   1      46.172  28.938  27.897  1.00  0.00    -0.248 NA
ATOM     31  C   UNL A   1      48.381  29.532  27.432  1.00  0.00     0.031 C 
ATOM     32  C   UNL A   1      43.179  31.653  29.745  1.00  0.00     0.029 A 
ATOM     33  C   UNL A   1      44.123  30.833  29.144  1.00  0.00     0.049 A 
ATOM     34  H   UNL A   1      43.902  28.863  28.420  1.00  0.00     0.167 HD
ATOM     35  C   UNL A   1      46.382  30.250  28.301  1.00  0.00     0.074 A 
ATOM     36  C   UNL A   1      47.769  30.556  28.015  1.00  0.00     0.031 C 
ATOM     37  C   UNL A   1      45.505  31.122  28.852  1.00  0.00     0.037 A 
BRANCH  24  38
ATOM     38  C   UNL A   1      39.771  28.921  29.490  1.00  0.00     0.064 A 
ATOM     39  C   UNL A   1      38.811  29.415  28.593  1.00  0.00     0.173 A 
ATOM     40  C   UNL A   1      39.355  28.627  30.797  1.00  0.00     0.173 A 
ATOM     41  F   UNL A   1      39.158  29.725  27.335  1.00  0.00    -0.203 F 
ATOM     42  C   UNL A   1      37.496  29.630  28.997  1.00  0.00     0.198 A 
ATOM     43  C   UNL A   1      38.032  28.810  31.187  1.00  0.00     0.198 A 
ATOM     44  F   UNL A   1      40.231  28.147  31.694  1.00  0.00    -0.203 F 
ATOM     45  F   UNL A   1      36.610  30.151  28.137  1.00  0.00    -0.200 F 
ATOM     46  C   UNL A   1      37.105  29.319  30.290  1.00  0.00     0.200 A 
ATOM     47  F   UNL A   1      37.652  28.493  32.434  1.00  0.00    -0.200 F 
ATOM     48  F   UNL A   1      35.836  29.514  30.673  1.00  0.00    -0.200 F 
ENDBRANCH  24  38
BRANCH  25  49
ATOM     49  C   UNL A   1      49.044  26.860  26.380  1.00  0.00     0.064 A 
ATOM     50  C   UNL A   1      49.991  26.322  27.263  1.00  0.00     0.173 A 
ATOM     51  C   UNL A   1      49.427  27.038  25.043  1.00  0.00     0.173 A 
ATOM     52  F   UNL A   1      49.678  26.150  28.557  1.00  0.00    -0.203 F 
ATOM     53  C   UNL A   1      51.267  25.974  26.825  1.00  0.00     0.198 A 
ATOM     54  C   UNL A   1      50.695  26.664  24.600  1.00  0.00     0.198 A 
ATOM     55  F   UNL A   1      48.557  27.546  24.157  1.00  0.00    -0.203 F 
ATOM     56  F   UNL A   1      52.160  25.482  27.695  1.00  0.00    -0.200 F 
ATOM     57  C   UNL A   1      51.614  26.135  25.492  1.00  0.00     0.200 A 
ATOM     58  F   UNL A   1      51.019  26.806  23.308  1.00  0.00    -0.200 F 
ATOM     59  F   UNL A   1      52.834  25.777  25.067  1.00  0.00    -0.200 F 
ENDBRANCH  25  49
BRANCH  37  60
ATOM     60  C   UNL A   1      45.995  32.500  29.185  1.00  0.00     0.064 A 
ATOM     61  C   UNL A   1      45.838  33.564  28.286  1.00  0.00     0.173 A 
ATOM     62  C   UNL A   1      46.510  32.786  30.459  1.00  0.00     0.173 A 
ATOM     63  F   UNL A   1      45.358  33.341  27.053  1.00  0.00    -0.203 F 
ATOM     64  C   UNL A   1      46.177  34.865  28.650  1.00  0.00     0.198 A 
ATOM     65  C   UNL A   1      46.820  34.091  30.831  1.00  0.00     0.198 A 
ATOM     66  F   UNL A   1      46.669  31.804  31.360  1.00  0.00    -0.203 F 
ATOM     67  F   UNL A   1      46.035  35.864  27.769  1.00  0.00    -0.200 F 
ATOM     68  C   UNL A   1      46.653  35.129  29.926  1.00  0.00     0.200 A 
ATOM     69  F   UNL A   1      47.260  34.347  32.070  1.00  0.00    -0.200 F 
ATOM     70  F   UNL A   1      46.948  36.385  30.285  1.00  0.00    -0.200 F 
ENDBRANCH  37  60
ENDBRANCH  11  12
ENDBRANCH   4   6
ENDBRANCH   1   2
BRANCH   1  71
ATOM     71  C   UNL A   1      37.716  19.966  24.839  1.00  0.00     0.042 C 
BRANCH  71  72
ATOM     72  C   UNL A   1      36.560  20.950  24.746  1.00  0.00     0.118 C 
BRANCH  72  73
ATOM     73  N   UNL A   1      35.597  20.782  25.826  1.00  0.00    -0.352 N 
ATOM     74  C   UNL A   1      34.301  21.198  25.923  1.00  0.00     0.252 C 
ATOM     75  H   UNL A   1      35.934  20.292  26.609  1.00  0.00     0.163 HD
ATOM     76  O   UNL A   1      33.695  21.047  26.981  1.00  0.00    -0.269 OA
BRANCH  74  77
ATOM     77  C   UNL A   1      33.663  21.853  24.753  1.00  0.00     0.054 A 
ATOM     78  C   UNL A   1      32.955  21.053  23.937  1.00  0.00     0.086 A 
ATOM     79  C   UNL A   1      33.695  23.308  24.516  1.00  0.00     0.012 A 
ATOM     80  C   UNL A   1      32.345  21.571  22.702  1.00  0.00     0.249 A 
ATOM     81  C   UNL A   1      33.060  23.811  23.368  1.00  0.00     0.063 A 
ATOM     82  C   UNL A   1      34.324  24.209  25.388  1.00  0.00     0.011 A 
ATOM     83  O   UNL A   1      31.812  20.805  21.904  1.00  0.00    -0.270 OA
ATOM     84  N   UNL A   1      32.429  22.913  22.491  1.00  0.00    -0.321 N 
ATOM     85  C   UNL A   1      33.055  25.188  23.105  1.00  0.00     0.042 A 
ATOM     86  C   UNL A   1      34.311  25.581  25.127  1.00  0.00     0.002 A 
ATOM     87  H   UNL A   1      32.021  23.277  21.673  1.00  0.00     0.170 HD
ATOM     88  Br  UNL A   1      32.201  25.900  21.566  1.00  0.00    -0.049 Br
ATOM     89  C   UNL A   1      33.676  26.072  23.987  1.00  0.00     0.018 A 
ENDBRANCH  74  77
ENDBRANCH  72  73
ENDBRANCH  71  72
ENDBRANCH   1  71
TORSDOF 10
ENDMDL
