MODEL 1
REMARK VINA RESULT:     -13.4      0.000      0.000
REMARK SMILES Cn1ccc(-c2n[nH]c(=O)n2-c2ccc(C(=O)NCCCNC(=O)c3ccc(-c4c5nc(c(-c6c(F)c(F)c(F)c(F)c6F)c6ccc([nH]6)c(-c6c(F)c(F)c(F)c(F)c6F)c6nc(c(-c7c(F)c(F)c(F)c(F)c7F)c7ccc4[nH]7)C=C6)C=C5)cc3)cc2)n1
REMARK SMILES IDX 20 1 19 2 18 3 16 4 17 5 15 7 12 8 13 9 89 10 14 11 88 12
REMARK SMILES IDX 11 13 6 14 7 15 8 16 9 17 10 19 5 20 1 21 2 22 3 23 90 24
REMARK SMILES IDX 4 25 21 26 22 27 23 28 24 30 25 31 26 32 87 33 27 34 86 35
REMARK SMILES IDX 28 36 29 37 30 38 80 39 31 40 85 41 79 42 81 43 32 44 84 45
REMARK SMILES IDX 78 46 77 47 33 49 65 50 45 51 64 52 46 53 49 54 63 55 82 56
REMARK SMILES IDX 47 57 48 58 62 60 83 61 50 62 34 63 35 64 43 65 36 66 37 67
REMARK SMILES IDX 41 68 44 69 38 70 39 71 42 72 40 73 66 74 67 75 75 76 68 77
REMARK SMILES IDX 69 78 73 79 76 80 70 81 71 82 74 83 72 84 51 85 52 86 60 87
REMARK SMILES IDX 53 88 54 89 58 90 61 91 55 92 56 93 59 94 57 95
REMARK H PARENT 18 6 8 18 22 29 81 48 49 59
REMARK Flexibility Score: inf
ROOT
ATOM      1  C   UNL A   1      37.671  19.558  25.025  1.00  0.00     0.042 C 
ENDROOT
BRANCH   1   2
ATOM      2  C   UNL A   1      36.569  20.621  24.900  1.00  0.00     0.118 C 
BRANCH   2   3
ATOM      3  N   UNL A   1      36.946  21.686  23.983  1.00  0.00    -0.352 N 
ATOM      4  C   UNL A   1      36.302  22.836  23.585  1.00  0.00     0.251 C 
ATOM      5  O   UNL A   1      36.915  23.600  22.840  1.00  0.00    -0.269 OA
ATOM      6  H   UNL A   1      37.829  21.561  23.567  1.00  0.00     0.163 HD
BRANCH   4   7
ATOM      7  C   UNL A   1      34.933  23.210  24.047  1.00  0.00     0.039 A 
ATOM      8  C   UNL A   1      32.390  23.822  25.092  1.00  0.00     0.052 A 
ATOM      9  C   UNL A   1      33.535  24.149  25.817  1.00  0.00     0.028 A 
ATOM     10  C   UNL A   1      32.523  23.276  23.815  1.00  0.00     0.028 A 
ATOM     11  C   UNL A   1      34.800  23.814  25.308  1.00  0.00     0.016 A 
ATOM     12  C   UNL A   1      33.784  23.020  23.285  1.00  0.00     0.016 A 
BRANCH   8  13
ATOM     13  N   UNL A   1      31.105  24.091  25.578  1.00  0.00    -0.242 N 
ATOM     14  C   UNL A   1      30.538  25.306  25.828  1.00  0.00     0.189 A 
ATOM     15  N   UNL A   1      29.508  25.278  26.630  1.00  0.00    -0.150 NA
ATOM     16  N   UNL A   1      29.355  23.945  26.907  1.00  0.00    -0.226 N 
ATOM     17  C   UNL A   1      30.335  23.183  26.266  1.00  0.00     0.348 A 
ATOM     18  H   UNL A   1      28.648  23.572  27.483  1.00  0.00     0.195 HD
ATOM     19  O   UNL A   1      30.488  21.981  26.403  1.00  0.00    -0.246 OA
BRANCH  14  20
ATOM     20  C   UNL A   1      30.993  26.540  25.206  1.00  0.00     0.130 A 
ATOM     21  C   UNL A   1      33.142  29.306  25.189  1.00  0.00     0.173 C 
ATOM     22  N   UNL A   1      32.121  28.322  24.916  1.00  0.00    -0.275 N 
ATOM     23  C   UNL A   1      31.383  28.200  23.777  1.00  0.00     0.109 A 
ATOM     24  N   UNL A   1      31.857  27.369  25.826  1.00  0.00    -0.170 NA
ATOM     25  C   UNL A   1      30.668  27.034  23.917  1.00  0.00     0.054 A 
ENDBRANCH  14  20
ENDBRANCH   8  13
ENDBRANCH   4   7
ENDBRANCH   2   3
ENDBRANCH   1   2
BRANCH   1  26
ATOM     26  C   UNL A   1      38.997  20.148  25.474  1.00  0.00     0.118 C 
BRANCH  26  27
ATOM     27  N   UNL A   1      40.020  19.116  25.657  1.00  0.00    -0.352 N 
ATOM     28  C   UNL A   1      41.347  19.270  25.995  1.00  0.00     0.251 C 
ATOM     29  H   UNL A   1      39.721  18.189  25.520  1.00  0.00     0.163 HD
ATOM     30  O   UNL A   1      42.157  18.371  25.781  1.00  0.00    -0.269 OA
BRANCH  28  31
ATOM     31  C   UNL A   1      41.784  20.533  26.603  1.00  0.00     0.039 A 
ATOM     32  C   UNL A   1      42.329  21.559  25.824  1.00  0.00     0.014 A 
ATOM     33  C   UNL A   1      41.596  20.696  27.971  1.00  0.00     0.014 A 
ATOM     34  C   UNL A   1      42.599  22.787  26.421  1.00  0.00     0.010 A 
ATOM     35  C   UNL A   1      41.705  21.949  28.517  1.00  0.00     0.010 A 
ATOM     36  C   UNL A   1      42.260  22.983  27.766  1.00  0.00    -0.014 A 
BRANCH  36  37
ATOM     37  C   UNL A   1      42.360  24.304  28.385  1.00  0.00     0.031 A 
ATOM     38  C   UNL A   1      41.172  25.188  28.184  1.00  0.00     0.074 A 
ATOM     39  C   UNL A   1      43.322  24.577  29.297  1.00  0.00     0.049 A 
ATOM     40  N   UNL A   1      41.140  26.391  27.711  1.00  0.00    -0.248 NA
ATOM     41  C   UNL A   1      39.835  24.628  28.457  1.00  0.00     0.031 C 
ATOM     42  C   UNL A   1      44.356  23.668  29.810  1.00  0.00     0.029 A 
ATOM     43  N   UNL A   1      43.489  25.678  30.079  1.00  0.00    -0.354 N 
ATOM     44  C   UNL A   1      39.812  26.809  27.796  1.00  0.00     0.074 A 
ATOM     45  C   UNL A   1      39.037  25.637  28.103  1.00  0.00     0.031 C 
ATOM     46  C   UNL A   1      44.838  24.144  30.976  1.00  0.00     0.029 A 
ATOM     47  C   UNL A   1      44.283  25.464  31.201  1.00  0.00     0.049 A 
ATOM     48  H   UNL A   1      43.083  26.550  29.869  1.00  0.00     0.167 HD
ATOM     49  C   UNL A   1      39.489  28.131  27.850  1.00  0.00     0.037 A 
ATOM     50  C   UNL A   1      44.424  26.290  32.267  1.00  0.00     0.037 A 
ATOM     51  C   UNL A   1      40.572  28.950  27.370  1.00  0.00     0.049 A 
ATOM     52  C   UNL A   1      43.967  27.634  31.840  1.00  0.00     0.074 A 
ATOM     53  C   UNL A   1      41.259  29.048  26.176  1.00  0.00     0.029 A 
ATOM     54  N   UNL A   1      41.350  29.597  28.296  1.00  0.00    -0.354 N 
ATOM     55  N   UNL A   1      44.578  28.363  30.946  1.00  0.00    -0.248 NA
ATOM     56  C   UNL A   1      42.576  27.982  32.085  1.00  0.00     0.031 C 
ATOM     57  C   UNL A   1      42.614  29.295  26.551  1.00  0.00     0.029 A 
ATOM     58  C   UNL A   1      42.659  29.401  27.941  1.00  0.00     0.049 A 
ATOM     59  H   UNL A   1      41.028  30.109  29.073  1.00  0.00     0.167 HD
ATOM     60  C   UNL A   1      43.556  28.945  30.212  1.00  0.00     0.074 A 
ATOM     61  C   UNL A   1      42.353  28.755  31.019  1.00  0.00     0.031 C 
ATOM     62  C   UNL A   1      43.731  29.260  28.896  1.00  0.00     0.037 A 
BRANCH  49  63
ATOM     63  C   UNL A   1      38.366  28.703  28.688  1.00  0.00     0.064 A 
ATOM     64  C   UNL A   1      37.553  29.720  28.144  1.00  0.00     0.173 A 
ATOM     65  C   UNL A   1      38.255  28.528  30.085  1.00  0.00     0.173 A 
ATOM     66  F   UNL A   1      37.583  29.988  26.829  1.00  0.00    -0.203 F 
ATOM     67  C   UNL A   1      36.770  30.554  28.948  1.00  0.00     0.198 A 
ATOM     68  C   UNL A   1      37.431  29.325  30.877  1.00  0.00     0.198 A 
ATOM     69  F   UNL A   1      39.020  27.662  30.759  1.00  0.00    -0.203 F 
ATOM     70  F   UNL A   1      36.127  31.594  28.400  1.00  0.00    -0.200 F 
ATOM     71  C   UNL A   1      36.718  30.362  30.315  1.00  0.00     0.200 A 
ATOM     72  F   UNL A   1      37.407  29.132  32.204  1.00  0.00    -0.200 F 
ATOM     73  F   UNL A   1      36.024  31.200  31.096  1.00  0.00    -0.200 F 
ENDBRANCH  49  63
BRANCH  50  74
ATOM     74  C   UNL A   1      44.607  25.927  33.696  1.00  0.00     0.064 A 
ATOM     75  C   UNL A   1      43.503  25.585  34.494  1.00  0.00     0.173 A 
ATOM     76  C   UNL A   1      45.877  25.632  34.231  1.00  0.00     0.173 A 
ATOM     77  F   UNL A   1      42.256  25.796  34.046  1.00  0.00    -0.203 F 
ATOM     78  C   UNL A   1      43.658  24.951  35.732  1.00  0.00     0.198 A 
ATOM     79  C   UNL A   1      46.031  25.009  35.471  1.00  0.00     0.198 A 
ATOM     80  F   UNL A   1      46.994  25.851  33.523  1.00  0.00    -0.203 F 
ATOM     81  F   UNL A   1      42.577  24.574  36.429  1.00  0.00    -0.200 F 
ATOM     82  C   UNL A   1      44.921  24.652  36.214  1.00  0.00     0.200 A 
ATOM     83  F   UNL A   1      47.258  24.699  35.911  1.00  0.00    -0.200 F 
ATOM     84  F   UNL A   1      45.069  23.985  37.367  1.00  0.00    -0.200 F 
ENDBRANCH  50  74
BRANCH  62  85
ATOM     85  C   UNL A   1      45.131  29.226  28.344  1.00  0.00     0.064 A 
ATOM     86  C   UNL A   1      45.731  28.092  27.770  1.00  0.00     0.173 A 
ATOM     87  C   UNL A   1      45.840  30.433  28.268  1.00  0.00     0.173 A 
ATOM     88  F   UNL A   1      45.081  26.924  27.705  1.00  0.00    -0.203 F 
ATOM     89  C   UNL A   1      46.998  28.154  27.193  1.00  0.00     0.198 A 
ATOM     90  C   UNL A   1      47.089  30.501  27.657  1.00  0.00     0.198 A 
ATOM     91  F   UNL A   1      45.296  31.562  28.747  1.00  0.00    -0.203 F 
ATOM     92  F   UNL A   1      47.552  27.052  26.667  1.00  0.00    -0.200 F 
ATOM     93  C   UNL A   1      47.673  29.361  27.131  1.00  0.00     0.200 A 
ATOM     94  F   UNL A   1      47.714  31.682  27.554  1.00  0.00    -0.200 F 
ATOM     95  F   UNL A   1      48.874  29.431  26.540  1.00  0.00    -0.200 F 
ENDBRANCH  62  85
ENDBRANCH  36  37
ENDBRANCH  28  31
ENDBRANCH  26  27
ENDBRANCH   1  26
TORSDOF 12
ENDMDL
MODEL 2
REMARK VINA RESULT:     -13.3      1.272      1.703
REMARK SMILES Cn1ccc(-c2n[nH]c(=O)n2-c2ccc(C(=O)NCCCNC(=O)c3ccc(-c4c5nc(c(-c6c(F)c(F)c(F)c(F)c6F)c6ccc([nH]6)c(-c6c(F)c(F)c(F)c(F)c6F)c6nc(c(-c7c(F)c(F)c(F)c(F)c7F)c7ccc4[nH]7)C=C6)C=C5)cc3)cc2)n1
REMARK SMILES IDX 20 1 19 2 18 3 16 4 17 5 15 7 12 8 13 9 89 10 14 11 88 12
REMARK SMILES IDX 11 13 6 14 7 15 8 16 9 17 10 19 5 20 1 21 2 22 3 23 90 24
REMARK SMILES IDX 4 25 21 26 22 27 23 28 24 30 25 31 26 32 87 33 27 34 86 35
REMARK SMILES IDX 28 36 29 37 30 38 80 39 31 40 85 41 79 42 81 43 32 44 84 45
REMARK SMILES IDX 78 46 77 47 33 49 65 50 45 51 64 52 46 53 49 54 63 55 82 56
REMARK SMILES IDX 47 57 48 58 62 60 83 61 50 62 34 63 35 64 43 65 36 66 37 67
REMARK SMILES IDX 41 68 44 69 38 70 39 71 42 72 40 73 66 74 67 75 75 76 68 77
REMARK SMILES IDX 69 78 73 79 76 80 70 81 71 82 74 83 72 84 51 85 52 86 60 87
REMARK SMILES IDX 53 88 54 89 58 90 61 91 55 92 56 93 59 94 57 95
REMARK H PARENT 18 6 8 18 22 29 81 48 49 59
REMARK Flexibility Score: inf
ROOT
ATOM      1  C   UNL A   1      37.528  19.622  25.030  1.00  0.00     0.042 C 
ENDROOT
BRANCH   1   2
ATOM      2  C   UNL A   1      36.454  20.709  24.873  1.00  0.00     0.118 C 
BRANCH   2   3
ATOM      3  N   UNL A   1      35.778  20.988  26.132  1.00  0.00    -0.352 N 
ATOM      4  C   UNL A   1      34.814  21.906  26.481  1.00  0.00     0.251 C 
ATOM      5  O   UNL A   1      34.369  21.852  27.627  1.00  0.00    -0.269 OA
ATOM      6  H   UNL A   1      36.065  20.411  26.876  1.00  0.00     0.163 HD
BRANCH   4   7
ATOM      7  C   UNL A   1      34.261  22.916  25.531  1.00  0.00     0.039 A 
ATOM      8  C   UNL A   1      33.246  24.962  23.883  1.00  0.00     0.052 A 
ATOM      9  C   UNL A   1      34.493  25.113  24.487  1.00  0.00     0.028 A 
ATOM     10  C   UNL A   1      32.555  23.759  24.033  1.00  0.00     0.028 A 
ATOM     11  C   UNL A   1      34.983  24.105  25.332  1.00  0.00     0.016 A 
ATOM     12  C   UNL A   1      33.085  22.734  24.810  1.00  0.00     0.016 A 
BRANCH   8  13
ATOM     13  N   UNL A   1      32.692  25.959  23.070  1.00  0.00    -0.242 N 
ATOM     14  C   UNL A   1      31.879  26.990  23.441  1.00  0.00     0.189 A 
ATOM     15  N   UNL A   1      31.196  27.528  22.467  1.00  0.00    -0.150 NA
ATOM     16  N   UNL A   1      31.609  26.830  21.362  1.00  0.00    -0.226 N 
ATOM     17  C   UNL A   1      32.540  25.847  21.709  1.00  0.00     0.348 A 
ATOM     18  H   UNL A   1      31.292  26.998  20.445  1.00  0.00     0.195 HD
ATOM     19  O   UNL A   1      33.010  25.026  20.939  1.00  0.00    -0.246 OA
BRANCH  14  20
ATOM     20  C   UNL A   1      31.814  27.505  24.800  1.00  0.00     0.130 A 
ATOM     21  C   UNL A   1      32.167  30.169  27.045  1.00  0.00     0.173 C 
ATOM     22  N   UNL A   1      31.953  28.890  26.409  1.00  0.00    -0.275 N 
ATOM     23  C   UNL A   1      31.391  27.781  26.966  1.00  0.00     0.109 A 
ATOM     24  N   UNL A   1      32.281  28.729  25.115  1.00  0.00    -0.170 NA
ATOM     25  C   UNL A   1      31.253  26.876  25.940  1.00  0.00     0.054 A 
ENDBRANCH  14  20
ENDBRANCH   8  13
ENDBRANCH   4   7
ENDBRANCH   2   3
ENDBRANCH   1   2
BRANCH   1  26
ATOM     26  C   UNL A   1      38.877  20.193  25.430  1.00  0.00     0.118 C 
BRANCH  26  27
ATOM     27  N   UNL A   1      39.882  19.143  25.616  1.00  0.00    -0.352 N 
ATOM     28  C   UNL A   1      41.207  19.273  25.968  1.00  0.00     0.251 C 
ATOM     29  H   UNL A   1      39.568  18.222  25.471  1.00  0.00     0.163 HD
ATOM     30  O   UNL A   1      42.005  18.362  25.757  1.00  0.00    -0.269 OA
BRANCH  28  31
ATOM     31  C   UNL A   1      41.659  20.525  26.588  1.00  0.00     0.039 A 
ATOM     32  C   UNL A   1      42.261  21.532  25.826  1.00  0.00     0.014 A 
ATOM     33  C   UNL A   1      41.428  20.698  27.948  1.00  0.00     0.014 A 
ATOM     34  C   UNL A   1      42.545  22.754  26.429  1.00  0.00     0.010 A 
ATOM     35  C   UNL A   1      41.554  21.949  28.495  1.00  0.00     0.010 A 
ATOM     36  C   UNL A   1      42.165  22.964  27.761  1.00  0.00    -0.014 A 
BRANCH  36  37
ATOM     37  C   UNL A   1      42.282  24.284  28.380  1.00  0.00     0.031 A 
ATOM     38  C   UNL A   1      41.100  25.179  28.189  1.00  0.00     0.074 A 
ATOM     39  C   UNL A   1      43.253  24.548  29.284  1.00  0.00     0.049 A 
ATOM     40  N   UNL A   1      41.076  26.383  27.716  1.00  0.00    -0.248 NA
ATOM     41  C   UNL A   1      39.760  24.630  28.471  1.00  0.00     0.031 C 
ATOM     42  C   UNL A   1      44.282  23.629  29.789  1.00  0.00     0.029 A 
ATOM     43  N   UNL A   1      43.436  25.647  30.065  1.00  0.00    -0.354 N 
ATOM     44  C   UNL A   1      39.752  26.812  27.811  1.00  0.00     0.074 A 
ATOM     45  C   UNL A   1      38.969  25.647  28.124  1.00  0.00     0.031 C 
ATOM     46  C   UNL A   1      44.778  24.101  30.951  1.00  0.00     0.029 A 
ATOM     47  C   UNL A   1      44.236  25.426  31.181  1.00  0.00     0.049 A 
ATOM     48  H   UNL A   1      43.036  26.523  29.859  1.00  0.00     0.167 HD
ATOM     49  C   UNL A   1      39.441  28.137  27.868  1.00  0.00     0.037 A 
ATOM     50  C   UNL A   1      44.393  26.249  32.246  1.00  0.00     0.037 A 
ATOM     51  C   UNL A   1      40.528  28.946  27.380  1.00  0.00     0.049 A 
ATOM     52  C   UNL A   1      43.945  27.598  31.823  1.00  0.00     0.074 A 
ATOM     53  C   UNL A   1      41.207  29.039  26.181  1.00  0.00     0.029 A 
ATOM     54  N   UNL A   1      41.319  29.586  28.300  1.00  0.00    -0.354 N 
ATOM     55  N   UNL A   1      44.555  28.321  30.925  1.00  0.00    -0.248 NA
ATOM     56  C   UNL A   1      42.559  27.958  32.079  1.00  0.00     0.031 C 
ATOM     57  C   UNL A   1      42.567  29.273  26.545  1.00  0.00     0.029 A 
ATOM     58  C   UNL A   1      42.623  29.379  27.935  1.00  0.00     0.049 A 
ATOM     59  H   UNL A   1      41.007  30.101  29.080  1.00  0.00     0.167 HD
ATOM     60  C   UNL A   1      43.533  28.913  30.200  1.00  0.00     0.074 A 
ATOM     61  C   UNL A   1      42.335  28.733  31.015  1.00  0.00     0.031 C 
ATOM     62  C   UNL A   1      43.702  29.227  28.882  1.00  0.00     0.037 A 
BRANCH  49  63
ATOM     63  C   UNL A   1      38.329  28.719  28.714  1.00  0.00     0.064 A 
ATOM     64  C   UNL A   1      37.522  29.743  28.178  1.00  0.00     0.173 A 
ATOM     65  C   UNL A   1      38.228  28.543  30.112  1.00  0.00     0.173 A 
ATOM     66  F   UNL A   1      37.545  30.013  26.863  1.00  0.00    -0.203 F 
ATOM     67  C   UNL A   1      36.753  30.584  28.988  1.00  0.00     0.198 A 
ATOM     68  C   UNL A   1      37.417  29.347  30.912  1.00  0.00     0.198 A 
ATOM     69  F   UNL A   1      38.989  27.669  30.780  1.00  0.00    -0.203 F 
ATOM     70  F   UNL A   1      36.116  31.631  28.446  1.00  0.00    -0.200 F 
ATOM     71  C   UNL A   1      36.709  30.391  30.356  1.00  0.00     0.200 A 
ATOM     72  F   UNL A   1      37.401  29.153  32.238  1.00  0.00    -0.200 F 
ATOM     73  F   UNL A   1      36.029  31.235  31.143  1.00  0.00    -0.200 F 
ENDBRANCH  49  63
BRANCH  50  74
ATOM     74  C   UNL A   1      44.583  25.884  33.674  1.00  0.00     0.064 A 
ATOM     75  C   UNL A   1      43.482  25.557  34.481  1.00  0.00     0.173 A 
ATOM     76  C   UNL A   1      45.855  25.573  34.198  1.00  0.00     0.173 A 
ATOM     77  F   UNL A   1      42.234  25.783  34.044  1.00  0.00    -0.203 F 
ATOM     78  C   UNL A   1      43.640  24.920  35.718  1.00  0.00     0.198 A 
ATOM     79  C   UNL A   1      46.011  24.949  35.437  1.00  0.00     0.198 A 
ATOM     80  F   UNL A   1      46.968  25.778  33.480  1.00  0.00    -0.203 F 
ATOM     81  F   UNL A   1      42.560  24.557  36.424  1.00  0.00    -0.200 F 
ATOM     82  C   UNL A   1      44.903  24.606  36.189  1.00  0.00     0.200 A 
ATOM     83  F   UNL A   1      47.238  24.623  35.867  1.00  0.00    -0.200 F 
ATOM     84  F   UNL A   1      45.052  23.937  37.341  1.00  0.00    -0.200 F 
ENDBRANCH  50  74
BRANCH  62  85
ATOM     85  C   UNL A   1      45.096  29.181  28.319  1.00  0.00     0.064 A 
ATOM     86  C   UNL A   1      45.682  28.041  27.743  1.00  0.00     0.173 A 
ATOM     87  C   UNL A   1      45.814  30.382  28.237  1.00  0.00     0.173 A 
ATOM     88  F   UNL A   1      45.023  26.878  27.684  1.00  0.00    -0.203 F 
ATOM     89  C   UNL A   1      46.946  28.092  27.156  1.00  0.00     0.198 A 
ATOM     90  C   UNL A   1      47.059  30.438  27.616  1.00  0.00     0.198 A 
ATOM     91  F   UNL A   1      45.283  31.516  28.718  1.00  0.00    -0.203 F 
ATOM     92  F   UNL A   1      47.487  26.984  26.627  1.00  0.00    -0.200 F 
ATOM     93  C   UNL A   1      47.630  29.293  27.087  1.00  0.00     0.200 A 
ATOM     94  F   UNL A   1      47.693  31.614  27.506  1.00  0.00    -0.200 F 
ATOM     95  F   UNL A   1      48.827  29.352  26.487  1.00  0.00    -0.200 F 
ENDBRANCH  62  85
ENDBRANCH  36  37
ENDBRANCH  28  31
ENDBRANCH  26  27
ENDBRANCH   1  26
TORSDOF 12
ENDMDL
MODEL 3
REMARK VINA RESULT:     -13.1      4.022      9.350
REMARK SMILES Cn1ccc(-c2n[nH]c(=O)n2-c2ccc(C(=O)NCCCNC(=O)c3ccc(-c4c5nc(c(-c6c(F)c(F)c(F)c(F)c6F)c6ccc([nH]6)c(-c6c(F)c(F)c(F)c(F)c6F)c6nc(c(-c7c(F)c(F)c(F)c(F)c7F)c7ccc4[nH]7)C=C6)C=C5)cc3)cc2)n1
REMARK SMILES IDX 20 1 19 2 18 3 16 4 17 5 15 7 12 8 13 9 89 10 14 11 88 12
REMARK SMILES IDX 11 13 6 14 7 15 8 16 9 17 10 19 5 20 1 21 2 22 3 23 90 24
REMARK SMILES IDX 4 25 21 26 22 27 23 28 24 30 25 31 26 32 87 33 27 34 86 35
REMARK SMILES IDX 28 36 29 37 30 38 80 39 31 40 85 41 79 42 81 43 32 44 84 45
REMARK SMILES IDX 78 46 77 47 33 49 65 50 45 51 64 52 46 53 49 54 63 55 82 56
REMARK SMILES IDX 47 57 48 58 62 60 83 61 50 62 34 63 35 64 43 65 36 66 37 67
REMARK SMILES IDX 41 68 44 69 38 70 39 71 42 72 40 73 66 74 67 75 75 76 68 77
REMARK SMILES IDX 69 78 73 79 76 80 70 81 71 82 74 83 72 84 51 85 52 86 60 87
REMARK SMILES IDX 53 88 54 89 58 90 61 91 55 92 56 93 59 94 57 95
REMARK H PARENT 18 6 8 18 22 29 81 48 49 59
REMARK Flexibility Score: inf
ROOT
ATOM      1  C   UNL A   1      31.429  32.297  26.821  1.00  0.00     0.042 C 
ENDROOT
BRANCH   1   2
ATOM      2  C   UNL A   1      31.655  30.801  26.554  1.00  0.00     0.118 C 
BRANCH   2   3
ATOM      3  N   UNL A   1      32.730  30.262  27.374  1.00  0.00    -0.352 N 
ATOM      4  C   UNL A   1      33.510  29.134  27.252  1.00  0.00     0.251 C 
ATOM      5  O   UNL A   1      34.412  28.978  28.075  1.00  0.00    -0.269 OA
ATOM      6  H   UNL A   1      32.939  30.806  28.167  1.00  0.00     0.163 HD
BRANCH   4   7
ATOM      7  C   UNL A   1      33.342  28.135  26.157  1.00  0.00     0.039 A 
ATOM      8  C   UNL A   1      32.979  26.403  23.965  1.00  0.00     0.052 A 
ATOM      9  C   UNL A   1      33.849  27.487  23.856  1.00  0.00     0.028 A 
ATOM     10  C   UNL A   1      32.367  26.139  25.191  1.00  0.00     0.028 A 
ATOM     11  C   UNL A   1      34.004  28.366  24.939  1.00  0.00     0.016 A 
ATOM     12  C   UNL A   1      32.588  26.972  26.283  1.00  0.00     0.016 A 
BRANCH   8  13
ATOM     13  N   UNL A   1      32.754  25.525  22.898  1.00  0.00    -0.242 N 
ATOM     14  C   UNL A   1      33.466  24.412  22.561  1.00  0.00     0.189 A 
ATOM     15  N   UNL A   1      33.302  24.006  21.330  1.00  0.00    -0.150 NA
ATOM     16  N   UNL A   1      32.388  24.890  20.821  1.00  0.00    -0.226 N 
ATOM     17  C   UNL A   1      32.029  25.846  21.775  1.00  0.00     0.348 A 
ATOM     18  H   UNL A   1      32.030  24.858  19.904  1.00  0.00     0.195 HD
ATOM     19  O   UNL A   1      31.299  26.801  21.569  1.00  0.00    -0.246 OA
BRANCH  14  20
ATOM     20  C   UNL A   1      34.299  23.683  23.505  1.00  0.00     0.130 A 
ATOM     21  C   UNL A   1      37.155  23.527  25.526  1.00  0.00     0.173 C 
ATOM     22  N   UNL A   1      35.931  23.266  24.806  1.00  0.00    -0.275 N 
ATOM     23  C   UNL A   1      35.066  22.232  25.007  1.00  0.00     0.109 A 
ATOM     24  N   UNL A   1      35.524  24.124  23.854  1.00  0.00    -0.170 NA
ATOM     25  C   UNL A   1      33.979  22.492  24.205  1.00  0.00     0.054 A 
ENDBRANCH  14  20
ENDBRANCH   8  13
ENDBRANCH   4   7
ENDBRANCH   2   3
ENDBRANCH   1   2
BRANCH   1  26
ATOM     26  C   UNL A   1      32.709  33.018  27.204  1.00  0.00     0.118 C 
BRANCH  26  27
ATOM     27  N   UNL A   1      32.440  34.279  27.898  1.00  0.00    -0.352 N 
ATOM     28  C   UNL A   1      33.084  34.814  28.992  1.00  0.00     0.251 C 
ATOM     29  H   UNL A   1      31.701  34.817  27.534  1.00  0.00     0.163 HD
ATOM     30  O   UNL A   1      32.549  35.691  29.668  1.00  0.00    -0.269 OA
BRANCH  28  31
ATOM     31  C   UNL A   1      34.417  34.313  29.349  1.00  0.00     0.039 A 
ATOM     32  C   UNL A   1      34.616  33.551  30.505  1.00  0.00     0.014 A 
ATOM     33  C   UNL A   1      35.467  34.578  28.477  1.00  0.00     0.014 A 
ATOM     34  C   UNL A   1      35.865  32.980  30.728  1.00  0.00     0.010 A 
ATOM     35  C   UNL A   1      36.641  33.883  28.612  1.00  0.00     0.010 A 
ATOM     36  C   UNL A   1      36.869  33.131  29.763  1.00  0.00    -0.014 A 
BRANCH  36  37
ATOM     37  C   UNL A   1      38.134  32.405  29.869  1.00  0.00     0.031 A 
ATOM     38  C   UNL A   1      38.121  31.024  29.299  1.00  0.00     0.074 A 
ATOM     39  C   UNL A   1      39.281  33.045  30.193  1.00  0.00     0.049 A 
ATOM     40  N   UNL A   1      38.460  29.916  29.876  1.00  0.00    -0.248 NA
ATOM     41  C   UNL A   1      37.570  30.836  27.943  1.00  0.00     0.031 C 
ATOM     42  C   UNL A   1      39.464  34.478  30.462  1.00  0.00     0.029 A 
ATOM     43  N   UNL A   1      40.561  32.583  30.200  1.00  0.00    -0.354 N 
ATOM     44  C   UNL A   1      38.343  28.920  28.906  1.00  0.00     0.074 A 
ATOM     45  C   UNL A   1      37.641  29.512  27.799  1.00  0.00     0.031 C 
ATOM     46  C   UNL A   1      40.766  34.801  30.327  1.00  0.00     0.029 A 
ATOM     47  C   UNL A   1      41.527  33.582  30.139  1.00  0.00     0.049 A 
ATOM     48  H   UNL A   1      40.784  31.625  30.244  1.00  0.00     0.167 HD
ATOM     49  C   UNL A   1      39.052  27.760  28.996  1.00  0.00     0.037 A 
ATOM     50  C   UNL A   1      42.850  33.420  29.891  1.00  0.00     0.037 A 
ATOM     51  C   UNL A   1      39.517  27.539  30.340  1.00  0.00     0.049 A 
ATOM     52  C   UNL A   1      43.170  31.995  30.149  1.00  0.00     0.074 A 
ATOM     53  C   UNL A   1      38.902  27.393  31.568  1.00  0.00     0.029 A 
ATOM     54  N   UNL A   1      40.835  27.801  30.618  1.00  0.00    -0.354 N 
ATOM     55  N   UNL A   1      43.123  31.438  31.327  1.00  0.00    -0.248 NA
ATOM     56  C   UNL A   1      43.112  31.078  29.021  1.00  0.00     0.031 C 
ATOM     57  C   UNL A   1      39.759  28.066  32.491  1.00  0.00     0.029 A 
ATOM     58  C   UNL A   1      40.873  28.519  31.785  1.00  0.00     0.049 A 
ATOM     59  H   UNL A   1      41.611  27.525  30.079  1.00  0.00     0.167 HD
ATOM     60  C   UNL A   1      42.589  30.180  31.098  1.00  0.00     0.074 A 
ATOM     61  C   UNL A   1      42.696  29.979  29.655  1.00  0.00     0.031 C 
ATOM     62  C   UNL A   1      41.846  29.550  32.055  1.00  0.00     0.037 A 
BRANCH  49  63
ATOM     63  C   UNL A   1      39.653  27.033  27.812  1.00  0.00     0.064 A 
ATOM     64  C   UNL A   1      39.612  25.623  27.781  1.00  0.00     0.173 A 
ATOM     65  C   UNL A   1      40.531  27.630  26.882  1.00  0.00     0.173 A 
ATOM     66  F   UNL A   1      38.824  24.943  28.629  1.00  0.00    -0.203 F 
ATOM     67  C   UNL A   1      40.455  24.875  26.954  1.00  0.00     0.198 A 
ATOM     68  C   UNL A   1      41.331  26.882  26.019  1.00  0.00     0.198 A 
ATOM     69  F   UNL A   1      40.743  28.950  26.844  1.00  0.00    -0.203 F 
ATOM     70  F   UNL A   1      40.480  23.539  27.062  1.00  0.00    -0.200 F 
ATOM     71  C   UNL A   1      41.321  25.505  26.080  1.00  0.00     0.200 A 
ATOM     72  F   UNL A   1      42.174  27.514  25.190  1.00  0.00    -0.200 F 
ATOM     73  F   UNL A   1      42.178  24.794  25.336  1.00  0.00    -0.200 F 
ENDBRANCH  49  63
BRANCH  50  74
ATOM     74  C   UNL A   1      43.764  34.318  29.139  1.00  0.00     0.064 A 
ATOM     75  C   UNL A   1      43.858  34.234  27.740  1.00  0.00     0.173 A 
ATOM     76  C   UNL A   1      44.342  35.458  29.734  1.00  0.00     0.173 A 
ATOM     77  F   UNL A   1      43.302  33.203  27.087  1.00  0.00    -0.203 F 
ATOM     78  C   UNL A   1      44.459  35.246  26.981  1.00  0.00     0.198 A 
ATOM     79  C   UNL A   1      44.951  36.460  28.977  1.00  0.00     0.198 A 
ATOM     80  F   UNL A   1      44.245  35.673  31.054  1.00  0.00    -0.203 F 
ATOM     81  F   UNL A   1      44.463  35.163  25.643  1.00  0.00    -0.200 F 
ATOM     82  C   UNL A   1      44.993  36.364  27.599  1.00  0.00     0.200 A 
ATOM     83  F   UNL A   1      45.436  37.551  29.586  1.00  0.00    -0.200 F 
ATOM     84  F   UNL A   1      45.507  37.363  26.869  1.00  0.00    -0.200 F 
ENDBRANCH  50  74
BRANCH  62  85
ATOM     85  C   UNL A   1      41.861  30.121  33.447  1.00  0.00     0.064 A 
ATOM     86  C   UNL A   1      40.961  31.093  33.916  1.00  0.00     0.173 A 
ATOM     87  C   UNL A   1      42.736  29.553  34.383  1.00  0.00     0.173 A 
ATOM     88  F   UNL A   1      40.023  31.611  33.115  1.00  0.00    -0.203 F 
ATOM     89  C   UNL A   1      40.971  31.511  35.246  1.00  0.00     0.198 A 
ATOM     90  C   UNL A   1      42.718  29.944  35.719  1.00  0.00     0.198 A 
ATOM     91  F   UNL A   1      43.580  28.579  34.009  1.00  0.00    -0.203 F 
ATOM     92  F   UNL A   1      40.112  32.453  35.661  1.00  0.00    -0.200 F 
ATOM     93  C   UNL A   1      41.846  30.930  36.148  1.00  0.00     0.200 A 
ATOM     94  F   UNL A   1      43.531  29.341  36.598  1.00  0.00    -0.200 F 
ATOM     95  F   UNL A   1      41.829  31.301  37.435  1.00  0.00    -0.200 F 
ENDBRANCH  62  85
ENDBRANCH  36  37
ENDBRANCH  28  31
ENDBRANCH  26  27
ENDBRANCH   1  26
TORSDOF 12
ENDMDL
