MODEL 1
REMARK VINA RESULT:     -12.1      0.000      0.000
REMARK SMILES C[C@H](C(=O)NCCCNC(=O)c1ccc(-c2c3nc(c(-c4c(F)c(F)c(F)c(F)c4F)c4ccc([nH]4)c(-c4c(F)c(F)c(F)c(F)c4F)c4nc(c(-c5c(F)c(F)c(F)c(F)c5F)c5ccc2[nH]5)C=C4)C=C3)cc1)N1C(=O)C[C@](C)(c2ccccc2)C1=O
REMARK SMILES IDX 7 1 6 2 5 3 3 4 4 5 2 7 1 8 75 9 76 10 87 11 77 12 78 13
REMARK SMILES IDX 79 14 88 15 80 16 81 17 82 18 86 19 83 20 85 21 84 22 8 23
REMARK SMILES IDX 9 24 10 25 11 27 12 28 13 29 74 30 14 31 73 32 15 33 16 34
REMARK SMILES IDX 17 35 67 36 18 37 72 38 66 39 68 40 19 41 71 42 65 43 64 44
REMARK SMILES IDX 20 46 52 47 32 48 51 49 33 50 36 51 50 52 69 53 34 54 35 55
REMARK SMILES IDX 49 57 70 58 37 59 21 60 22 61 30 62 23 63 24 64 28 65 31 66
REMARK SMILES IDX 25 67 26 68 29 69 27 70 53 71 54 72 62 73 55 74 56 75 60 76
REMARK SMILES IDX 63 77 57 78 58 79 61 80 59 81 38 82 39 83 47 84 40 85 41 86
REMARK SMILES IDX 45 87 48 88 42 89 43 90 46 91 44 92
REMARK H PARENT 5 6 9 26 68 45 36 56
REMARK Flexibility Score: inf
ROOT
ATOM      1  C   UNL A   1      36.582  23.218  23.578  1.00  0.00     0.042 C 
ENDROOT
BRANCH   1   2
ATOM      2  C   UNL A   1      35.101  22.851  23.521  1.00  0.00     0.117 C 
BRANCH   2   3
ATOM      3  N   UNL A   1      34.473  23.030  24.823  1.00  0.00    -0.354 N 
ATOM      4  C   UNL A   1      33.389  23.780  25.186  1.00  0.00     0.243 C 
ATOM      5  O   UNL A   1      33.244  24.009  26.388  1.00  0.00    -0.273 OA
ATOM      6  H   UNL A   1      34.897  22.533  25.559  1.00  0.00     0.163 HD
BRANCH   4   7
ATOM      7  C   UNL A   1      32.420  24.326  24.122  1.00  0.00     0.179 C 
ATOM      8  C   UNL A   1      30.988  23.952  24.513  1.00  0.00     0.042 C 
BRANCH   7   9
ATOM      9  N   UNL A   1      32.613  25.759  23.881  1.00  0.00    -0.269 N 
ATOM     10  C   UNL A   1      33.389  26.334  22.917  1.00  0.00     0.231 C 
ATOM     11  C   UNL A   1      32.033  26.698  24.682  1.00  0.00     0.240 C 
ATOM     12  O   UNL A   1      33.927  25.794  21.967  1.00  0.00    -0.274 OA
ATOM     13  C   UNL A   1      33.591  27.787  23.268  1.00  0.00     0.122 C 
ATOM     14  C   UNL A   1      32.442  28.096  24.234  1.00  0.00     0.081 C 
ATOM     15  O   UNL A   1      31.322  26.463  25.650  1.00  0.00    -0.273 OA
ATOM     16  C   UNL A   1      31.267  28.694  23.434  1.00  0.00     0.027 C 
BRANCH  14  17
ATOM     17  C   UNL A   1      32.865  28.902  25.467  1.00  0.00    -0.032 A 
ATOM     18  C   UNL A   1      34.063  28.665  26.157  1.00  0.00     0.005 A 
ATOM     19  C   UNL A   1      32.100  30.024  25.857  1.00  0.00     0.005 A 
ATOM     20  C   UNL A   1      34.504  29.541  27.155  1.00  0.00     0.000 A 
ATOM     21  C   UNL A   1      32.546  30.904  26.845  1.00  0.00     0.000 A 
ATOM     22  C   UNL A   1      33.755  30.665  27.487  1.00  0.00     0.000 A 
ENDBRANCH  14  17
ENDBRANCH   7   9
ENDBRANCH   4   7
ENDBRANCH   2   3
ENDBRANCH   1   2
BRANCH   1  23
ATOM     23  C   UNL A   1      37.072  23.595  24.967  1.00  0.00     0.118 C 
BRANCH  23  24
ATOM     24  N   UNL A   1      37.976  22.605  25.529  1.00  0.00    -0.352 N 
ATOM     25  C   UNL A   1      39.111  22.768  26.282  1.00  0.00     0.251 C 
ATOM     26  H   UNL A   1      37.735  21.670  25.340  1.00  0.00     0.163 HD
ATOM     27  O   UNL A   1      39.836  21.798  26.492  1.00  0.00    -0.269 OA
BRANCH  25  28
ATOM     28  C   UNL A   1      39.486  24.094  26.826  1.00  0.00     0.039 A 
ATOM     29  C   UNL A   1      39.155  24.387  28.152  1.00  0.00     0.014 A 
ATOM     30  C   UNL A   1      40.118  25.061  26.041  1.00  0.00     0.014 A 
ATOM     31  C   UNL A   1      39.504  25.623  28.700  1.00  0.00     0.010 A 
ATOM     32  C   UNL A   1      40.557  26.252  26.616  1.00  0.00     0.010 A 
ATOM     33  C   UNL A   1      40.241  26.554  27.948  1.00  0.00    -0.014 A 
BRANCH  33  34
ATOM     34  C   UNL A   1      40.666  27.849  28.541  1.00  0.00     0.031 A 
ATOM     35  C   UNL A   1      42.104  28.077  28.923  1.00  0.00     0.074 A 
ATOM     36  C   UNL A   1      39.749  28.810  28.768  1.00  0.00     0.049 A 
ATOM     37  N   UNL A   1      42.658  29.129  29.474  1.00  0.00    -0.248 NA
ATOM     38  C   UNL A   1      43.039  26.967  28.681  1.00  0.00     0.031 C 
ATOM     39  C   UNL A   1      38.317  28.693  28.492  1.00  0.00     0.029 A 
ATOM     40  N   UNL A   1      39.884  30.074  29.285  1.00  0.00    -0.354 N 
ATOM     41  C   UNL A   1      43.998  28.805  29.644  1.00  0.00     0.074 A 
ATOM     42  C   UNL A   1      44.161  27.436  29.206  1.00  0.00     0.031 C 
ATOM     43  C   UNL A   1      37.710  29.846  28.813  1.00  0.00     0.029 A 
ATOM     44  C   UNL A   1      38.701  30.770  29.357  1.00  0.00     0.049 A 
ATOM     45  H   UNL A   1      40.746  30.448  29.576  1.00  0.00     0.167 HD
ATOM     46  C   UNL A   1      45.010  29.587  30.093  1.00  0.00     0.037 A 
ATOM     47  C   UNL A   1      38.443  32.009  29.815  1.00  0.00     0.037 A 
ATOM     48  C   UNL A   1      44.846  30.954  30.519  1.00  0.00     0.049 A 
ATOM     49  C   UNL A   1      39.581  32.853  30.323  1.00  0.00     0.074 A 
ATOM     50  C   UNL A   1      45.812  31.844  30.953  1.00  0.00     0.029 A 
ATOM     51  N   UNL A   1      43.634  31.627  30.565  1.00  0.00    -0.354 N 
ATOM     52  N   UNL A   1      40.855  32.559  30.414  1.00  0.00    -0.248 NA
ATOM     53  C   UNL A   1      39.245  34.207  30.784  1.00  0.00     0.031 C 
ATOM     54  C   UNL A   1      45.179  33.037  31.313  1.00  0.00     0.029 A 
ATOM     55  C   UNL A   1      43.825  32.914  31.042  1.00  0.00     0.049 A 
ATOM     56  H   UNL A   1      42.766  31.247  30.299  1.00  0.00     0.167 HD
ATOM     57  C   UNL A   1      41.476  33.696  30.913  1.00  0.00     0.074 A 
ATOM     58  C   UNL A   1      40.439  34.694  31.084  1.00  0.00     0.031 C 
ATOM     59  C   UNL A   1      42.784  33.898  31.204  1.00  0.00     0.037 A 
BRANCH  46  60
ATOM     60  C   UNL A   1      46.386  28.986  30.140  1.00  0.00     0.064 A 
ATOM     61  C   UNL A   1      46.865  28.335  31.288  1.00  0.00     0.173 A 
ATOM     62  C   UNL A   1      47.224  29.026  29.015  1.00  0.00     0.173 A 
ATOM     63  F   UNL A   1      46.110  28.277  32.396  1.00  0.00    -0.203 F 
ATOM     64  C   UNL A   1      48.141  27.778  31.319  1.00  0.00     0.198 A 
ATOM     65  C   UNL A   1      48.486  28.436  29.038  1.00  0.00     0.198 A 
ATOM     66  F   UNL A   1      46.816  29.629  27.888  1.00  0.00    -0.203 F 
ATOM     67  F   UNL A   1      48.595  27.211  32.445  1.00  0.00    -0.200 F 
ATOM     68  C   UNL A   1      48.946  27.821  30.192  1.00  0.00     0.200 A 
ATOM     69  F   UNL A   1      49.257  28.465  27.942  1.00  0.00    -0.200 F 
ATOM     70  F   UNL A   1      50.171  27.277  30.220  1.00  0.00    -0.200 F 
ENDBRANCH  46  60
BRANCH  47  71
ATOM     71  C   UNL A   1      37.051  32.533  29.799  1.00  0.00     0.064 A 
ATOM     72  C   UNL A   1      36.556  33.242  28.695  1.00  0.00     0.173 A 
ATOM     73  C   UNL A   1      36.192  32.351  30.893  1.00  0.00     0.173 A 
ATOM     74  F   UNL A   1      37.343  33.461  27.632  1.00  0.00    -0.203 F 
ATOM     75  C   UNL A   1      35.267  33.772  28.698  1.00  0.00     0.198 A 
ATOM     76  C   UNL A   1      34.892  32.850  30.881  1.00  0.00     0.198 A 
ATOM     77  F   UNL A   1      36.613  31.674  31.972  1.00  0.00    -0.203 F 
ATOM     78  F   UNL A   1      34.839  34.494  27.653  1.00  0.00    -0.200 F 
ATOM     79  C   UNL A   1      34.433  33.570  29.788  1.00  0.00     0.200 A 
ATOM     80  F   UNL A   1      34.085  32.638  31.929  1.00  0.00    -0.200 F 
ATOM     81  F   UNL A   1      33.194  34.077  29.790  1.00  0.00    -0.200 F 
ENDBRANCH  47  71
BRANCH  59  82
ATOM     82  C   UNL A   1      43.176  35.259  31.704  1.00  0.00     0.064 A 
ATOM     83  C   UNL A   1      43.105  35.599  33.064  1.00  0.00     0.173 A 
ATOM     84  C   UNL A   1      43.653  36.233  30.811  1.00  0.00     0.173 A 
ATOM     85  F   UNL A   1      42.642  34.711  33.958  1.00  0.00    -0.203 F 
ATOM     86  C   UNL A   1      43.460  36.870  33.505  1.00  0.00     0.198 A 
ATOM     87  C   UNL A   1      44.044  37.490  31.260  1.00  0.00     0.198 A 
ATOM     88  F   UNL A   1      43.751  35.959  29.502  1.00  0.00    -0.203 F 
ATOM     89  F   UNL A   1      43.325  37.191  34.799  1.00  0.00    -0.200 F 
ATOM     90  C   UNL A   1      43.936  37.813  32.605  1.00  0.00     0.200 A 
ATOM     91  F   UNL A   1      44.519  38.393  30.391  1.00  0.00    -0.200 F 
ATOM     92  F   UNL A   1      44.283  39.034  33.032  1.00  0.00    -0.200 F 
ENDBRANCH  59  82
ENDBRANCH  33  34
ENDBRANCH  25  28
ENDBRANCH  23  24
ENDBRANCH   1  23
TORSDOF 12
ENDMDL
MODEL 2
REMARK VINA RESULT:     -12.0      4.138     10.178
REMARK SMILES C[C@H](C(=O)NCCCNC(=O)c1ccc(-c2c3nc(c(-c4c(F)c(F)c(F)c(F)c4F)c4ccc([nH]4)c(-c4c(F)c(F)c(F)c(F)c4F)c4nc(c(-c5c(F)c(F)c(F)c(F)c5F)c5ccc2[nH]5)C=C4)C=C3)cc1)N1C(=O)C[C@](C)(c2ccccc2)C1=O
REMARK SMILES IDX 7 1 6 2 5 3 3 4 4 5 2 7 1 8 75 9 76 10 87 11 77 12 78 13
REMARK SMILES IDX 79 14 88 15 80 16 81 17 82 18 86 19 83 20 85 21 84 22 8 23
REMARK SMILES IDX 9 24 10 25 11 27 12 28 13 29 74 30 14 31 73 32 15 33 16 34
REMARK SMILES IDX 17 35 67 36 18 37 72 38 66 39 68 40 19 41 71 42 65 43 64 44
REMARK SMILES IDX 20 46 52 47 32 48 51 49 33 50 36 51 50 52 69 53 34 54 35 55
REMARK SMILES IDX 49 57 70 58 37 59 21 60 22 61 30 62 23 63 24 64 28 65 31 66
REMARK SMILES IDX 25 67 26 68 29 69 27 70 53 71 54 72 62 73 55 74 56 75 60 76
REMARK SMILES IDX 63 77 57 78 58 79 61 80 59 81 38 82 39 83 47 84 40 85 41 86
REMARK SMILES IDX 45 87 48 88 42 89 43 90 46 91 44 92
REMARK H PARENT 5 6 9 26 68 45 36 56
REMARK Flexibility Score: inf
ROOT
ATOM      1  C   UNL A   1      34.108  33.760  29.072  1.00  0.00     0.042 C 
ENDROOT
BRANCH   1   2
ATOM      2  C   UNL A   1      34.568  35.215  29.041  1.00  0.00     0.117 C 
BRANCH   2   3
ATOM      3  N   UNL A   1      33.523  36.101  29.536  1.00  0.00    -0.354 N 
ATOM      4  C   UNL A   1      33.271  36.551  30.802  1.00  0.00     0.243 C 
ATOM      5  O   UNL A   1      32.157  37.035  31.012  1.00  0.00    -0.273 OA
ATOM      6  H   UNL A   1      32.898  36.426  28.849  1.00  0.00     0.163 HD
BRANCH   4   7
ATOM      7  C   UNL A   1      34.335  36.424  31.906  1.00  0.00     0.179 C 
ATOM      8  C   UNL A   1      34.028  37.438  33.012  1.00  0.00     0.042 C 
BRANCH   7   9
ATOM      9  N   UNL A   1      34.472  35.047  32.388  1.00  0.00    -0.269 N 
ATOM     10  C   UNL A   1      33.485  34.248  32.888  1.00  0.00     0.231 C 
ATOM     11  C   UNL A   1      35.684  34.425  32.424  1.00  0.00     0.240 C 
ATOM     12  O   UNL A   1      32.283  34.443  32.873  1.00  0.00    -0.274 OA
ATOM     13  C   UNL A   1      34.126  33.082  33.599  1.00  0.00     0.122 C 
ATOM     14  C   UNL A   1      35.541  33.026  33.013  1.00  0.00     0.081 C 
ATOM     15  O   UNL A   1      36.747  34.923  32.077  1.00  0.00    -0.273 OA
ATOM     16  C   UNL A   1      35.556  32.021  31.844  1.00  0.00     0.027 C 
BRANCH  14  17
ATOM     17  C   UNL A   1      36.641  32.821  34.061  1.00  0.00    -0.032 A 
ATOM     18  C   UNL A   1      36.718  33.575  35.241  1.00  0.00     0.005 A 
ATOM     19  C   UNL A   1      37.539  31.740  33.918  1.00  0.00     0.005 A 
ATOM     20  C   UNL A   1      37.617  33.231  36.256  1.00  0.00     0.000 A 
ATOM     21  C   UNL A   1      38.427  31.391  34.937  1.00  0.00     0.000 A 
ATOM     22  C   UNL A   1      38.459  32.133  36.111  1.00  0.00     0.000 A 
ENDBRANCH  14  17
ENDBRANCH   7   9
ENDBRANCH   4   7
ENDBRANCH   2   3
ENDBRANCH   1   2
BRANCH   1  23
ATOM     23  C   UNL A   1      34.651  32.916  27.930  1.00  0.00     0.118 C 
BRANCH  23  24
ATOM     24  N   UNL A   1      33.848  31.730  27.680  1.00  0.00    -0.352 N 
ATOM     25  C   UNL A   1      34.205  30.406  27.659  1.00  0.00     0.251 C 
ATOM     26  H   UNL A   1      32.897  31.906  27.497  1.00  0.00     0.163 HD
ATOM     27  O   UNL A   1      33.406  29.575  27.234  1.00  0.00    -0.269 OA
BRANCH  25  28
ATOM     28  C   UNL A   1      35.542  29.966  28.120  1.00  0.00     0.039 A 
ATOM     29  C   UNL A   1      36.633  30.142  27.264  1.00  0.00     0.014 A 
ATOM     30  C   UNL A   1      35.730  29.351  29.360  1.00  0.00     0.014 A 
ATOM     31  C   UNL A   1      37.910  29.750  27.671  1.00  0.00     0.010 A 
ATOM     32  C   UNL A   1      37.015  29.055  29.807  1.00  0.00     0.010 A 
ATOM     33  C   UNL A   1      38.119  29.235  28.962  1.00  0.00    -0.014 A 
BRANCH  33  34
ATOM     34  C   UNL A   1      39.482  28.868  29.426  1.00  0.00     0.031 A 
ATOM     35  C   UNL A   1      40.226  29.756  30.386  1.00  0.00     0.074 A 
ATOM     36  C   UNL A   1      40.067  27.748  28.954  1.00  0.00     0.049 A 
ATOM     37  N   UNL A   1      41.431  29.615  30.884  1.00  0.00    -0.248 NA
ATOM     38  C   UNL A   1      39.539  30.981  30.827  1.00  0.00     0.031 C 
ATOM     39  C   UNL A   1      39.473  26.832  27.980  1.00  0.00     0.029 A 
ATOM     40  N   UNL A   1      41.291  27.192  29.229  1.00  0.00    -0.354 N 
ATOM     41  C   UNL A   1      41.641  30.728  31.687  1.00  0.00     0.074 A 
ATOM     42  C   UNL A   1      40.473  31.571  31.557  1.00  0.00     0.031 C 
ATOM     43  C   UNL A   1      40.319  25.814  27.761  1.00  0.00     0.029 A 
ATOM     44  C   UNL A   1      41.531  26.024  28.546  1.00  0.00     0.049 A 
ATOM     45  H   UNL A   1      41.936  27.591  29.857  1.00  0.00     0.167 HD
ATOM     46  C   UNL A   1      42.698  31.008  32.488  1.00  0.00     0.037 A 
ATOM     47  C   UNL A   1      42.610  25.218  28.547  1.00  0.00     0.037 A 
ATOM     48  C   UNL A   1      43.856  30.162  32.624  1.00  0.00     0.049 A 
ATOM     49  C   UNL A   1      43.778  25.559  29.433  1.00  0.00     0.074 A 
ATOM     50  C   UNL A   1      44.961  30.336  33.437  1.00  0.00     0.029 A 
ATOM     51  N   UNL A   1      44.057  28.981  31.924  1.00  0.00    -0.354 N 
ATOM     52  N   UNL A   1      43.935  26.580  30.241  1.00  0.00    -0.248 NA
ATOM     53  C   UNL A   1      44.915  24.630  29.415  1.00  0.00     0.031 C 
ATOM     54  C   UNL A   1      45.856  29.289  33.191  1.00  0.00     0.029 A 
ATOM     55  C   UNL A   1      45.279  28.427  32.271  1.00  0.00     0.049 A 
ATOM     56  H   UNL A   1      43.425  28.593  31.276  1.00  0.00     0.167 HD
ATOM     57  C   UNL A   1      45.171  26.400  30.848  1.00  0.00     0.074 A 
ATOM     58  C   UNL A   1      45.712  25.160  30.329  1.00  0.00     0.031 C 
ATOM     59  C   UNL A   1      45.803  27.190  31.750  1.00  0.00     0.037 A 
BRANCH  46  60
ATOM     60  C   UNL A   1      42.647  32.280  33.286  1.00  0.00     0.064 A 
ATOM     61  C   UNL A   1      42.128  32.310  34.591  1.00  0.00     0.173 A 
ATOM     62  C   UNL A   1      43.154  33.477  32.758  1.00  0.00     0.173 A 
ATOM     63  F   UNL A   1      41.620  31.197  35.141  1.00  0.00    -0.203 F 
ATOM     64  C   UNL A   1      42.089  33.494  35.322  1.00  0.00     0.198 A 
ATOM     65  C   UNL A   1      43.146  34.653  33.507  1.00  0.00     0.198 A 
ATOM     66  F   UNL A   1      43.668  33.507  31.520  1.00  0.00    -0.203 F 
ATOM     67  F   UNL A   1      41.539  33.507  36.543  1.00  0.00    -0.200 F 
ATOM     68  C   UNL A   1      42.606  34.662  34.783  1.00  0.00     0.200 A 
ATOM     69  F   UNL A   1      43.661  35.777  32.990  1.00  0.00    -0.200 F 
ATOM     70  F   UNL A   1      42.576  35.800  35.492  1.00  0.00    -0.200 F 
ENDBRANCH  46  60
BRANCH  47  71
ATOM     71  C   UNL A   1      42.630  24.001  27.692  1.00  0.00     0.064 A 
ATOM     72  C   UNL A   1      42.258  22.750  28.203  1.00  0.00     0.173 A 
ATOM     73  C   UNL A   1      43.036  24.061  26.350  1.00  0.00     0.173 A 
ATOM     74  F   UNL A   1      41.881  22.635  29.485  1.00  0.00    -0.203 F 
ATOM     75  C   UNL A   1      42.319  21.602  27.415  1.00  0.00     0.198 A 
ATOM     76  C   UNL A   1      43.063  22.919  25.553  1.00  0.00     0.198 A 
ATOM     77  F   UNL A   1      43.395  25.235  25.809  1.00  0.00    -0.203 F 
ATOM     78  F   UNL A   1      42.013  20.410  27.946  1.00  0.00    -0.200 F 
ATOM     79  C   UNL A   1      42.716  21.689  26.088  1.00  0.00     0.200 A 
ATOM     80  F   UNL A   1      43.430  23.010  24.268  1.00  0.00    -0.200 F 
ATOM     81  F   UNL A   1      42.773  20.586  25.330  1.00  0.00    -0.200 F 
ENDBRANCH  47  71
BRANCH  59  82
ATOM     82  C   UNL A   1      47.135  26.719  32.263  1.00  0.00     0.064 A 
ATOM     83  C   UNL A   1      48.341  27.117  31.669  1.00  0.00     0.173 A 
ATOM     84  C   UNL A   1      47.204  25.875  33.383  1.00  0.00     0.173 A 
ATOM     85  F   UNL A   1      48.331  27.912  30.587  1.00  0.00    -0.203 F 
ATOM     86  C   UNL A   1      49.564  26.659  32.151  1.00  0.00     0.198 A 
ATOM     87  C   UNL A   1      48.430  25.449  33.887  1.00  0.00     0.198 A 
ATOM     88  F   UNL A   1      46.082  25.471  33.997  1.00  0.00    -0.203 F 
ATOM     89  F   UNL A   1      50.699  27.003  31.529  1.00  0.00    -0.200 F 
ATOM     90  C   UNL A   1      49.608  25.832  33.264  1.00  0.00     0.200 A 
ATOM     91  F   UNL A   1      48.470  24.664  34.972  1.00  0.00    -0.200 F 
ATOM     92  F   UNL A   1      50.786  25.397  33.731  1.00  0.00    -0.200 F 
ENDBRANCH  59  82
ENDBRANCH  33  34
ENDBRANCH  25  28
ENDBRANCH  23  24
ENDBRANCH   1  23
TORSDOF 12
ENDMDL
MODEL 3
REMARK VINA RESULT:     -12.0      0.313      1.632
REMARK SMILES C[C@H](C(=O)NCCCNC(=O)c1ccc(-c2c3nc(c(-c4c(F)c(F)c(F)c(F)c4F)c4ccc([nH]4)c(-c4c(F)c(F)c(F)c(F)c4F)c4nc(c(-c5c(F)c(F)c(F)c(F)c5F)c5ccc2[nH]5)C=C4)C=C3)cc1)N1C(=O)C[C@](C)(c2ccccc2)C1=O
REMARK SMILES IDX 7 1 6 2 5 3 3 4 4 5 2 7 1 8 75 9 76 10 87 11 77 12 78 13
REMARK SMILES IDX 79 14 88 15 80 16 81 17 82 18 86 19 83 20 85 21 84 22 8 23
REMARK SMILES IDX 9 24 10 25 11 27 12 28 13 29 74 30 14 31 73 32 15 33 16 34
REMARK SMILES IDX 17 35 67 36 18 37 72 38 66 39 68 40 19 41 71 42 65 43 64 44
REMARK SMILES IDX 20 46 52 47 32 48 51 49 33 50 36 51 50 52 69 53 34 54 35 55
REMARK SMILES IDX 49 57 70 58 37 59 21 60 22 61 30 62 23 63 24 64 28 65 31 66
REMARK SMILES IDX 25 67 26 68 29 69 27 70 53 71 54 72 62 73 55 74 56 75 60 76
REMARK SMILES IDX 63 77 57 78 58 79 61 80 59 81 38 82 39 83 47 84 40 85 41 86
REMARK SMILES IDX 45 87 48 88 42 89 43 90 46 91 44 92
REMARK H PARENT 5 6 9 26 68 45 36 56
REMARK Flexibility Score: inf
ROOT
ATOM      1  C   UNL A   1      36.107  23.701  24.506  1.00  0.00     0.042 C 
ENDROOT
BRANCH   1   2
ATOM      2  C   UNL A   1      34.827  23.000  24.057  1.00  0.00     0.117 C 
BRANCH   2   3
ATOM      3  N   UNL A   1      33.800  23.086  25.086  1.00  0.00    -0.354 N 
ATOM      4  C   UNL A   1      32.631  23.795  25.112  1.00  0.00     0.243 C 
ATOM      5  O   UNL A   1      32.092  23.944  26.210  1.00  0.00    -0.273 OA
ATOM      6  H   UNL A   1      33.977  22.549  25.892  1.00  0.00     0.163 HD
BRANCH   4   7
ATOM      7  C   UNL A   1      32.047  24.393  23.821  1.00  0.00     0.179 C 
ATOM      8  C   UNL A   1      30.534  24.160  23.803  1.00  0.00     0.042 C 
BRANCH   7   9
ATOM      9  N   UNL A   1      32.432  25.795  23.636  1.00  0.00    -0.269 N 
ATOM     10  C   UNL A   1      33.384  26.283  22.789  1.00  0.00     0.231 C 
ATOM     11  C   UNL A   1      31.867  26.790  24.377  1.00  0.00     0.240 C 
ATOM     12  O   UNL A   1      33.973  25.690  21.903  1.00  0.00    -0.274 OA
ATOM     13  C   UNL A   1      33.706  27.700  23.193  1.00  0.00     0.122 C 
ATOM     14  C   UNL A   1      32.486  28.134  24.014  1.00  0.00     0.081 C 
ATOM     15  O   UNL A   1      31.017  26.633  25.244  1.00  0.00    -0.273 OA
ATOM     16  C   UNL A   1      31.499  28.870  23.087  1.00  0.00     0.027 C 
BRANCH  14  17
ATOM     17  C   UNL A   1      32.840  28.877  25.308  1.00  0.00    -0.032 A 
ATOM     18  C   UNL A   1      33.995  28.599  26.053  1.00  0.00     0.005 A 
ATOM     19  C   UNL A   1      32.058  29.984  25.705  1.00  0.00     0.005 A 
ATOM     20  C   UNL A   1      34.379  29.423  27.117  1.00  0.00     0.000 A 
ATOM     21  C   UNL A   1      32.449  30.812  26.759  1.00  0.00     0.000 A 
ATOM     22  C   UNL A   1      33.617  30.536  27.459  1.00  0.00     0.000 A 
ENDBRANCH  14  17
ENDBRANCH   7   9
ENDBRANCH   4   7
ENDBRANCH   2   3
ENDBRANCH   1   2
BRANCH   1  23
ATOM     23  C   UNL A   1      36.506  23.397  25.941  1.00  0.00     0.118 C 
BRANCH  23  24
ATOM     24  N   UNL A   1      37.662  22.519  26.027  1.00  0.00    -0.352 N 
ATOM     25  C   UNL A   1      38.966  22.798  26.349  1.00  0.00     0.251 C 
ATOM     26  H   UNL A   1      37.479  21.574  25.821  1.00  0.00     0.163 HD
ATOM     27  O   UNL A   1      39.825  21.938  26.172  1.00  0.00    -0.269 OA
BRANCH  25  28
ATOM     28  C   UNL A   1      39.355  24.123  26.885  1.00  0.00     0.039 A 
ATOM     29  C   UNL A   1      39.042  24.422  28.213  1.00  0.00     0.014 A 
ATOM     30  C   UNL A   1      39.984  25.084  26.090  1.00  0.00     0.014 A 
ATOM     31  C   UNL A   1      39.405  25.657  28.754  1.00  0.00     0.010 A 
ATOM     32  C   UNL A   1      40.437  26.274  26.657  1.00  0.00     0.010 A 
ATOM     33  C   UNL A   1      40.138  26.582  27.991  1.00  0.00    -0.014 A 
BRANCH  33  34
ATOM     34  C   UNL A   1      40.579  27.875  28.575  1.00  0.00     0.031 A 
ATOM     35  C   UNL A   1      42.017  28.085  28.967  1.00  0.00     0.074 A 
ATOM     36  C   UNL A   1      39.675  28.853  28.786  1.00  0.00     0.049 A 
ATOM     37  N   UNL A   1      42.584  29.133  29.512  1.00  0.00    -0.248 NA
ATOM     38  C   UNL A   1      42.938  26.959  28.743  1.00  0.00     0.031 C 
ATOM     39  C   UNL A   1      38.243  28.755  28.500  1.00  0.00     0.029 A 
ATOM     40  N   UNL A   1      39.825  30.119  29.292  1.00  0.00    -0.354 N 
ATOM     41  C   UNL A   1      43.917  28.791  29.696  1.00  0.00     0.074 A 
ATOM     42  C   UNL A   1      44.062  27.415  29.272  1.00  0.00     0.031 C 
ATOM     43  C   UNL A   1      37.652  29.920  28.805  1.00  0.00     0.029 A 
ATOM     44  C   UNL A   1      38.653  30.833  29.348  1.00  0.00     0.049 A 
ATOM     45  H   UNL A   1      40.691  30.483  29.587  1.00  0.00     0.167 HD
ATOM     46  C   UNL A   1      44.937  29.562  30.146  1.00  0.00     0.037 A 
ATOM     47  C   UNL A   1      38.411  32.081  29.792  1.00  0.00     0.037 A 
ATOM     48  C   UNL A   1      44.791  30.934  30.558  1.00  0.00     0.049 A 
ATOM     49  C   UNL A   1      39.557  32.912  30.302  1.00  0.00     0.074 A 
ATOM     50  C   UNL A   1      45.767  31.813  30.991  1.00  0.00     0.029 A 
ATOM     51  N   UNL A   1      43.589  31.626  30.588  1.00  0.00    -0.354 N 
ATOM     52  N   UNL A   1      40.826  32.599  30.406  1.00  0.00    -0.248 NA
ATOM     53  C   UNL A   1      39.238  34.275  30.748  1.00  0.00     0.031 C 
ATOM     54  C   UNL A   1      45.149  33.020  31.335  1.00  0.00     0.029 A 
ATOM     55  C   UNL A   1      43.796  32.914  31.055  1.00  0.00     0.049 A 
ATOM     56  H   UNL A   1      42.717  31.257  30.318  1.00  0.00     0.167 HD
ATOM     57  C   UNL A   1      41.460  33.731  30.899  1.00  0.00     0.074 A 
ATOM     58  C   UNL A   1      40.438  34.746  31.053  1.00  0.00     0.031 C 
ATOM     59  C   UNL A   1      42.769  33.916  31.199  1.00  0.00     0.037 A 
BRANCH  46  60
ATOM     60  C   UNL A   1      46.303  28.939  30.209  1.00  0.00     0.064 A 
ATOM     61  C   UNL A   1      46.771  28.311  31.375  1.00  0.00     0.173 A 
ATOM     62  C   UNL A   1      47.142  28.937  29.085  1.00  0.00     0.173 A 
ATOM     63  F   UNL A   1      46.015  28.293  32.483  1.00  0.00    -0.203 F 
ATOM     64  C   UNL A   1      48.038  27.734  31.421  1.00  0.00     0.198 A 
ATOM     65  C   UNL A   1      48.395  28.328  29.124  1.00  0.00     0.198 A 
ATOM     66  F   UNL A   1      46.744  29.517  27.942  1.00  0.00    -0.203 F 
ATOM     67  F   UNL A   1      48.482  27.189  32.561  1.00  0.00    -0.200 F 
ATOM     68  C   UNL A   1      48.844  27.736  30.294  1.00  0.00     0.200 A 
ATOM     69  F   UNL A   1      49.167  28.317  28.029  1.00  0.00    -0.200 F 
ATOM     70  F   UNL A   1      50.061  27.173  30.337  1.00  0.00    -0.200 F 
ENDBRANCH  46  60
BRANCH  47  71
ATOM     71  C   UNL A   1      37.027  32.626  29.761  1.00  0.00     0.064 A 
ATOM     72  C   UNL A   1      36.164  32.478  30.855  1.00  0.00     0.173 A 
ATOM     73  C   UNL A   1      36.533  33.292  28.629  1.00  0.00     0.173 A 
ATOM     74  F   UNL A   1      36.581  31.832  31.954  1.00  0.00    -0.203 F 
ATOM     75  C   UNL A   1      34.853  32.948  30.809  1.00  0.00     0.198 A 
ATOM     76  C   UNL A   1      35.233  33.793  28.597  1.00  0.00     0.198 A 
ATOM     77  F   UNL A   1      37.319  33.467  27.556  1.00  0.00    -0.203 F 
ATOM     78  F   UNL A   1      34.032  32.742  31.849  1.00  0.00    -0.200 F 
ATOM     79  C   UNL A   1      34.391  33.612  29.682  1.00  0.00     0.200 A 
ATOM     80  F   UNL A   1      34.797  34.449  27.513  1.00  0.00    -0.200 F 
ATOM     81  F   UNL A   1      33.131  34.066  29.639  1.00  0.00    -0.200 F 
ENDBRANCH  47  71
BRANCH  59  82
ATOM     82  C   UNL A   1      43.178  35.276  31.690  1.00  0.00     0.064 A 
ATOM     83  C   UNL A   1      43.696  36.251  30.825  1.00  0.00     0.173 A 
ATOM     84  C   UNL A   1      43.025  35.617  33.044  1.00  0.00     0.173 A 
ATOM     85  F   UNL A   1      43.876  35.973  29.524  1.00  0.00    -0.203 F 
ATOM     86  C   UNL A   1      44.080  37.501  31.302  1.00  0.00     0.198 A 
ATOM     87  C   UNL A   1      43.374  36.880  33.510  1.00  0.00     0.198 A 
ATOM     88  F   UNL A   1      42.525  34.725  33.913  1.00  0.00    -0.203 F 
ATOM     89  F   UNL A   1      44.630  38.394  30.468  1.00  0.00    -0.200 F 
ATOM     90  C   UNL A   1      43.913  37.818  32.642  1.00  0.00     0.200 A 
ATOM     91  F   UNL A   1      43.196  37.188  34.802  1.00  0.00    -0.200 F 
ATOM     92  F   UNL A   1      44.278  39.023  33.098  1.00  0.00    -0.200 F 
ENDBRANCH  59  82
ENDBRANCH  33  34
ENDBRANCH  25  28
ENDBRANCH  23  24
ENDBRANCH   1  23
TORSDOF 12
ENDMDL
