MODEL 1
REMARK VINA RESULT:     -12.6      0.000      0.000
REMARK SMILES CC[C@H](C)c1ccccc1Oc1cccc(F)c1C(=O)NCCCNC(=O)c1ccc(-c2c3nc(c(-c4c(F)c(F)c(F)c(F)c4F)c4ccc([nH]4)c(-c4c(F)c(F)c(F)c(F)c4F)c4nc(c(-c5c(F)c(F)c(F)c(F)c5F)c5ccc2[nH]5)C=C4)C=C3)cc1
REMARK SMILES IDX 22 1 21 2 19 3 20 4 18 6 12 7 13 8 14 9 16 10 15 11 17 12
REMARK SMILES IDX 11 13 10 14 5 15 6 16 7 17 9 18 8 19 3 20 4 21 2 22 1 23
REMARK SMILES IDX 23 24 24 25 25 26 26 27 27 29 28 30 29 31 90 32 30 33 89 34
REMARK SMILES IDX 31 35 32 36 33 37 83 38 34 39 88 40 82 41 84 42 35 43 87 44
REMARK SMILES IDX 81 45 80 46 36 48 68 49 48 50 67 51 49 52 52 53 66 54 85 55
REMARK SMILES IDX 50 56 51 57 65 59 86 60 53 61 37 62 38 63 46 64 39 65 40 66
REMARK SMILES IDX 44 67 47 68 41 69 42 70 45 71 43 72 69 73 70 74 78 75 71 76
REMARK SMILES IDX 72 77 76 78 79 79 73 80 74 81 77 82 75 83 54 84 55 85 63 86
REMARK SMILES IDX 56 87 57 88 61 89 64 90 58 91 59 92 62 93 60 94
REMARK H PARENT 21 5 25 28 84 47 52 58
REMARK Flexibility Score: inf
ROOT
ATOM      1  C   UNL A   1      32.363  26.827  26.479  1.00  0.00     0.118 C 
ENDROOT
BRANCH   1   2
ATOM      2  N   UNL A   1      31.481  25.749  26.803  1.00  0.00    -0.352 N 
ATOM      3  C   UNL A   1      31.783  24.412  26.678  1.00  0.00     0.258 C 
ATOM      4  O   UNL A   1      31.227  23.633  27.454  1.00  0.00    -0.269 OA
ATOM      5  H   UNL A   1      30.586  25.982  27.142  1.00  0.00     0.163 HD
BRANCH   3   6
ATOM      6  C   UNL A   1      32.645  23.871  25.587  1.00  0.00     0.118 A 
ATOM      7  C   UNL A   1      32.432  23.845  24.196  1.00  0.00     0.143 A 
ATOM      8  C   UNL A   1      33.384  23.209  23.366  1.00  0.00     0.048 A 
ATOM      9  C   UNL A   1      34.582  22.709  23.863  1.00  0.00     0.007 A 
ATOM     10  C   UNL A   1      33.877  23.370  26.061  1.00  0.00     0.139 A 
ATOM     11  C   UNL A   1      34.838  22.813  25.218  1.00  0.00     0.040 A 
ATOM     12  F   UNL A   1      34.171  23.381  27.373  1.00  0.00    -0.206 F 
BRANCH   7  13
ATOM     13  O   UNL A   1      31.363  24.250  23.436  1.00  0.00    -0.456 OA
BRANCH  13  14
ATOM     14  C   UNL A   1      30.871  25.526  23.300  1.00  0.00     0.130 A 
ATOM     15  C   UNL A   1      31.468  26.662  22.725  1.00  0.00    -0.002 A 
ATOM     16  C   UNL A   1      30.730  27.867  22.789  1.00  0.00     0.008 A 
ATOM     17  C   UNL A   1      29.455  27.940  23.363  1.00  0.00     0.001 A 
ATOM     18  C   UNL A   1      29.544  25.597  23.790  1.00  0.00     0.047 A 
ATOM     19  C   UNL A   1      28.847  26.796  23.848  1.00  0.00     0.004 A 
BRANCH  15  20
ATOM     20  C   UNL A   1      32.829  26.620  22.040  1.00  0.00     0.019 C 
ATOM     21  C   UNL A   1      32.784  25.755  20.768  1.00  0.00     0.013 C 
BRANCH  20  22
ATOM     22  C   UNL A   1      33.496  27.979  21.727  1.00  0.00     0.005 C 
ATOM     23  C   UNL A   1      34.333  28.489  22.895  1.00  0.00     0.004 C 
ENDBRANCH  20  22
ENDBRANCH  15  20
ENDBRANCH  13  14
ENDBRANCH   7  13
ENDBRANCH   3   6
ENDBRANCH   1   2
BRANCH   1  24
ATOM     24  C   UNL A   1      31.790  28.215  26.441  1.00  0.00     0.042 C 
BRANCH  24  25
ATOM     25  C   UNL A   1      32.748  29.282  25.952  1.00  0.00     0.118 C 
BRANCH  25  26
ATOM     26  N   UNL A   1      32.480  30.638  26.438  1.00  0.00    -0.352 N 
ATOM     27  C   UNL A   1      33.241  31.490  27.206  1.00  0.00     0.251 C 
ATOM     28  H   UNL A   1      31.605  31.002  26.171  1.00  0.00     0.163 HD
ATOM     29  O   UNL A   1      32.787  32.580  27.547  1.00  0.00    -0.269 OA
BRANCH  27  30
ATOM     30  C   UNL A   1      34.581  31.075  27.673  1.00  0.00     0.039 A 
ATOM     31  C   UNL A   1      35.570  32.042  27.874  1.00  0.00     0.014 A 
ATOM     32  C   UNL A   1      34.846  29.743  27.979  1.00  0.00     0.014 A 
ATOM     33  C   UNL A   1      36.773  31.681  28.484  1.00  0.00     0.010 A 
ATOM     34  C   UNL A   1      35.958  29.420  28.738  1.00  0.00     0.010 A 
ATOM     35  C   UNL A   1      36.951  30.378  28.978  1.00  0.00    -0.014 A 
BRANCH  35  36
ATOM     36  C   UNL A   1      38.178  29.976  29.708  1.00  0.00     0.031 A 
ATOM     37  C   UNL A   1      38.409  30.473  31.110  1.00  0.00     0.074 A 
ATOM     38  C   UNL A   1      39.113  29.232  29.084  1.00  0.00     0.049 A 
ATOM     39  N   UNL A   1      39.439  30.289  31.897  1.00  0.00    -0.248 NA
ATOM     40  C   UNL A   1      37.369  31.342  31.691  1.00  0.00     0.031 C 
ATOM     41  C   UNL A   1      39.049  28.775  27.694  1.00  0.00     0.029 A 
ATOM     42  N   UNL A   1      40.303  28.728  29.541  1.00  0.00    -0.354 N 
ATOM     43  C   UNL A   1      39.180  31.042  33.036  1.00  0.00     0.074 A 
ATOM     44  C   UNL A   1      37.945  31.752  32.808  1.00  0.00     0.031 C 
ATOM     45  C   UNL A   1      40.123  28.013  27.429  1.00  0.00     0.029 A 
ATOM     46  C   UNL A   1      40.964  27.953  28.620  1.00  0.00     0.049 A 
ATOM     47  H   UNL A   1      40.652  28.904  30.445  1.00  0.00     0.167 HD
ATOM     48  C   UNL A   1      39.885  31.099  34.190  1.00  0.00     0.037 A 
ATOM     49  C   UNL A   1      42.110  27.257  28.734  1.00  0.00     0.037 A 
ATOM     50  C   UNL A   1      41.078  30.337  34.433  1.00  0.00     0.049 A 
ATOM     51  C   UNL A   1      42.833  27.271  30.054  1.00  0.00     0.074 A 
ATOM     52  C   UNL A   1      41.834  30.255  35.587  1.00  0.00     0.029 A 
ATOM     53  N   UNL A   1      41.680  29.507  33.497  1.00  0.00    -0.354 N 
ATOM     54  N   UNL A   1      42.537  27.921  31.154  1.00  0.00    -0.248 NA
ATOM     55  C   UNL A   1      44.040  26.440  30.153  1.00  0.00     0.031 C 
ATOM     56  C   UNL A   1      42.912  29.397  35.341  1.00  0.00     0.029 A 
ATOM     57  C   UNL A   1      42.801  28.911  34.046  1.00  0.00     0.049 A 
ATOM     58  H   UNL A   1      41.357  29.363  32.579  1.00  0.00     0.167 HD
ATOM     59  C   UNL A   1      43.500  27.556  32.084  1.00  0.00     0.074 A 
ATOM     60  C   UNL A   1      44.378  26.612  31.424  1.00  0.00     0.031 C 
ATOM     61  C   UNL A   1      43.650  27.967  33.368  1.00  0.00     0.037 A 
BRANCH  48  62
ATOM     62  C   UNL A   1      39.360  31.993  35.277  1.00  0.00     0.064 A 
ATOM     63  C   UNL A   1      39.708  33.352  35.347  1.00  0.00     0.173 A 
ATOM     64  C   UNL A   1      38.498  31.489  36.262  1.00  0.00     0.173 A 
ATOM     65  F   UNL A   1      40.544  33.882  34.441  1.00  0.00    -0.203 F 
ATOM     66  C   UNL A   1      39.244  34.161  36.380  1.00  0.00     0.198 A 
ATOM     67  C   UNL A   1      38.008  32.310  37.275  1.00  0.00     0.198 A 
ATOM     68  F   UNL A   1      38.131  30.199  36.245  1.00  0.00    -0.203 F 
ATOM     69  F   UNL A   1      39.645  35.438  36.459  1.00  0.00    -0.200 F 
ATOM     70  C   UNL A   1      38.389  33.642  37.339  1.00  0.00     0.200 A 
ATOM     71  F   UNL A   1      37.172  31.810  38.196  1.00  0.00    -0.200 F 
ATOM     72  F   UNL A   1      37.942  34.423  38.332  1.00  0.00    -0.200 F 
ENDBRANCH  48  62
BRANCH  49  73
ATOM     73  C   UNL A   1      42.601  26.435  27.598  1.00  0.00     0.064 A 
ATOM     74  C   UNL A   1      43.577  26.933  26.722  1.00  0.00     0.173 A 
ATOM     75  C   UNL A   1      42.115  25.141  27.362  1.00  0.00     0.173 A 
ATOM     76  F   UNL A   1      44.063  28.171  26.895  1.00  0.00    -0.203 F 
ATOM     77  C   UNL A   1      44.031  26.178  25.642  1.00  0.00     0.198 A 
ATOM     78  C   UNL A   1      42.589  24.376  26.298  1.00  0.00     0.198 A 
ATOM     79  F   UNL A   1      41.189  24.614  28.176  1.00  0.00    -0.203 F 
ATOM     80  F   UNL A   1      44.931  26.697  24.796  1.00  0.00    -0.200 F 
ATOM     81  C   UNL A   1      43.540  24.898  25.433  1.00  0.00     0.200 A 
ATOM     82  F   UNL A   1      42.124  23.134  26.109  1.00  0.00    -0.200 F 
ATOM     83  F   UNL A   1      43.979  24.171  24.397  1.00  0.00    -0.200 F 
ENDBRANCH  49  73
BRANCH  61  84
ATOM     84  C   UNL A   1      44.782  27.366  34.145  1.00  0.00     0.064 A 
ATOM     85  C   UNL A   1      46.045  27.973  34.192  1.00  0.00     0.173 A 
ATOM     86  C   UNL A   1      44.591  26.180  34.871  1.00  0.00     0.173 A 
ATOM     87  F   UNL A   1      46.278  29.100  33.504  1.00  0.00    -0.203 F 
ATOM     88  C   UNL A   1      47.087  27.394  34.910  1.00  0.00     0.198 A 
ATOM     89  C   UNL A   1      45.626  25.622  35.613  1.00  0.00     0.198 A 
ATOM     90  F   UNL A   1      43.397  25.567  34.865  1.00  0.00    -0.203 F 
ATOM     91  F   UNL A   1      48.302  27.960  34.895  1.00  0.00    -0.200 F 
ATOM     92  C   UNL A   1      46.876  26.223  35.623  1.00  0.00     0.200 A 
ATOM     93  F   UNL A   1      45.418  24.499  36.313  1.00  0.00    -0.200 F 
ATOM     94  F   UNL A   1      47.882  25.669  36.314  1.00  0.00    -0.200 F 
ENDBRANCH  61  84
ENDBRANCH  35  36
ENDBRANCH  27  30
ENDBRANCH  25  26
ENDBRANCH  24  25
ENDBRANCH   1  24
TORSDOF 14
ENDMDL
MODEL 2
REMARK VINA RESULT:     -12.6      1.237      3.042
REMARK SMILES CC[C@H](C)c1ccccc1Oc1cccc(F)c1C(=O)NCCCNC(=O)c1ccc(-c2c3nc(c(-c4c(F)c(F)c(F)c(F)c4F)c4ccc([nH]4)c(-c4c(F)c(F)c(F)c(F)c4F)c4nc(c(-c5c(F)c(F)c(F)c(F)c5F)c5ccc2[nH]5)C=C4)C=C3)cc1
REMARK SMILES IDX 22 1 21 2 19 3 20 4 18 6 12 7 13 8 14 9 16 10 15 11 17 12
REMARK SMILES IDX 11 13 10 14 5 15 6 16 7 17 9 18 8 19 3 20 4 21 2 22 1 23
REMARK SMILES IDX 23 24 24 25 25 26 26 27 27 29 28 30 29 31 90 32 30 33 89 34
REMARK SMILES IDX 31 35 32 36 33 37 83 38 34 39 88 40 82 41 84 42 35 43 87 44
REMARK SMILES IDX 81 45 80 46 36 48 68 49 48 50 67 51 49 52 52 53 66 54 85 55
REMARK SMILES IDX 50 56 51 57 65 59 86 60 53 61 37 62 38 63 46 64 39 65 40 66
REMARK SMILES IDX 44 67 47 68 41 69 42 70 45 71 43 72 69 73 70 74 78 75 71 76
REMARK SMILES IDX 72 77 76 78 79 79 73 80 74 81 77 82 75 83 54 84 55 85 63 86
REMARK SMILES IDX 56 87 57 88 61 89 64 90 58 91 59 92 62 93 60 94
REMARK H PARENT 21 5 25 28 84 47 52 58
REMARK Flexibility Score: inf
ROOT
ATOM      1  C   UNL A   1      32.101  27.684  26.872  1.00  0.00     0.118 C 
ENDROOT
BRANCH   1   2
ATOM      2  N   UNL A   1      31.013  26.756  26.839  1.00  0.00    -0.352 N 
ATOM      3  C   UNL A   1      30.978  25.600  26.094  1.00  0.00     0.258 C 
ATOM      4  O   UNL A   1      30.310  24.664  26.534  1.00  0.00    -0.269 OA
ATOM      5  H   UNL A   1      30.226  26.962  27.394  1.00  0.00     0.163 HD
BRANCH   3   6
ATOM      6  C   UNL A   1      31.607  25.482  24.745  1.00  0.00     0.118 A 
ATOM      7  C   UNL A   1      32.757  24.778  24.342  1.00  0.00     0.143 A 
ATOM      8  C   UNL A   1      33.190  24.878  23.000  1.00  0.00     0.048 A 
ATOM      9  C   UNL A   1      32.454  25.554  22.034  1.00  0.00     0.007 A 
ATOM     10  C   UNL A   1      30.872  26.148  23.740  1.00  0.00     0.139 A 
ATOM     11  C   UNL A   1      31.275  26.174  22.405  1.00  0.00     0.040 A 
ATOM     12  F   UNL A   1      29.748  26.823  24.035  1.00  0.00    -0.206 F 
BRANCH   7  13
ATOM     13  O   UNL A   1      33.667  24.044  25.061  1.00  0.00    -0.456 OA
BRANCH  13  14
ATOM     14  C   UNL A   1      33.841  22.680  25.043  1.00  0.00     0.130 A 
ATOM     15  C   UNL A   1      35.013  21.927  24.853  1.00  0.00    -0.002 A 
ATOM     16  C   UNL A   1      34.865  20.521  24.823  1.00  0.00     0.008 A 
ATOM     17  C   UNL A   1      33.628  19.889  25.004  1.00  0.00     0.001 A 
ATOM     18  C   UNL A   1      32.616  22.024  25.319  1.00  0.00     0.047 A 
ATOM     19  C   UNL A   1      32.499  20.641  25.274  1.00  0.00     0.004 A 
BRANCH  15  20
ATOM     20  C   UNL A   1      36.389  22.566  24.708  1.00  0.00     0.019 C 
ATOM     21  C   UNL A   1      36.636  23.030  23.261  1.00  0.00     0.013 C 
BRANCH  20  22
ATOM     22  C   UNL A   1      36.736  23.707  25.692  1.00  0.00     0.005 C 
ATOM     23  C   UNL A   1      38.179  23.626  26.177  1.00  0.00     0.004 C 
ENDBRANCH  20  22
ENDBRANCH  15  20
ENDBRANCH  13  14
ENDBRANCH   7  13
ENDBRANCH   3   6
ENDBRANCH   1   2
BRANCH   1  24
ATOM     24  C   UNL A   1      31.781  29.132  27.113  1.00  0.00     0.042 C 
BRANCH  24  25
ATOM     25  C   UNL A   1      32.649  30.108  26.347  1.00  0.00     0.118 C 
BRANCH  25  26
ATOM     26  N   UNL A   1      32.562  31.504  26.784  1.00  0.00    -0.352 N 
ATOM     27  C   UNL A   1      33.444  32.285  27.495  1.00  0.00     0.251 C 
ATOM     28  H   UNL A   1      31.729  31.962  26.524  1.00  0.00     0.163 HD
ATOM     29  O   UNL A   1      33.136  33.435  27.803  1.00  0.00    -0.269 OA
BRANCH  27  30
ATOM     30  C   UNL A   1      34.738  31.727  27.944  1.00  0.00     0.039 A 
ATOM     31  C   UNL A   1      35.843  32.573  28.074  1.00  0.00     0.014 A 
ATOM     32  C   UNL A   1      34.848  30.386  28.302  1.00  0.00     0.014 A 
ATOM     33  C   UNL A   1      37.012  32.092  28.667  1.00  0.00     0.010 A 
ATOM     34  C   UNL A   1      35.936  29.961  29.044  1.00  0.00     0.010 A 
ATOM     35  C   UNL A   1      37.046  30.798  29.213  1.00  0.00    -0.014 A 
BRANCH  35  36
ATOM     36  C   UNL A   1      38.237  30.278  29.927  1.00  0.00     0.031 A 
ATOM     37  C   UNL A   1      38.494  30.692  31.352  1.00  0.00     0.074 A 
ATOM     38  C   UNL A   1      39.122  29.501  29.272  1.00  0.00     0.049 A 
ATOM     39  N   UNL A   1      39.505  30.401  32.132  1.00  0.00    -0.248 NA
ATOM     40  C   UNL A   1      37.514  31.604  31.969  1.00  0.00     0.031 C 
ATOM     41  C   UNL A   1      39.035  29.114  27.861  1.00  0.00     0.029 A 
ATOM     42  N   UNL A   1      40.272  28.894  29.708  1.00  0.00    -0.354 N 
ATOM     43  C   UNL A   1      39.293  31.117  33.303  1.00  0.00     0.074 A 
ATOM     44  C   UNL A   1      38.111  31.921  33.106  1.00  0.00     0.031 C 
ATOM     45  C   UNL A   1      40.054  28.292  27.565  1.00  0.00     0.029 A 
ATOM     46  C   UNL A   1      40.883  28.118  28.753  1.00  0.00     0.049 A 
ATOM     47  H   UNL A   1      40.627  29.004  30.620  1.00  0.00     0.167 HD
ATOM     48  C   UNL A   1      39.993  31.071  34.461  1.00  0.00     0.037 A 
ATOM     49  C   UNL A   1      41.977  27.340  28.838  1.00  0.00     0.037 A 
ATOM     50  C   UNL A   1      41.129  30.217  34.671  1.00  0.00     0.049 A 
ATOM     51  C   UNL A   1      42.692  27.243  30.159  1.00  0.00     0.074 A 
ATOM     52  C   UNL A   1      41.870  30.030  35.822  1.00  0.00     0.029 A 
ATOM     53  N   UNL A   1      41.677  29.391  33.699  1.00  0.00    -0.354 N 
ATOM     54  N   UNL A   1      42.435  27.859  31.287  1.00  0.00    -0.248 NA
ATOM     55  C   UNL A   1      43.837  26.325  30.222  1.00  0.00     0.031 C 
ATOM     56  C   UNL A   1      42.888  29.111  35.539  1.00  0.00     0.029 A 
ATOM     57  C   UNL A   1      42.751  28.694  34.223  1.00  0.00     0.049 A 
ATOM     58  H   UNL A   1      41.350  29.313  32.774  1.00  0.00     0.167 HD
ATOM     59  C   UNL A   1      43.365  27.386  32.201  1.00  0.00     0.074 A 
ATOM     60  C   UNL A   1      44.179  26.414  31.500  1.00  0.00     0.031 C 
ATOM     61  C   UNL A   1      43.535  27.725  33.503  1.00  0.00     0.037 A 
BRANCH  48  62
ATOM     62  C   UNL A   1      39.525  31.948  35.587  1.00  0.00     0.064 A 
ATOM     63  C   UNL A   1      40.039  33.241  35.777  1.00  0.00     0.173 A 
ATOM     64  C   UNL A   1      38.550  31.494  36.488  1.00  0.00     0.173 A 
ATOM     65  F   UNL A   1      40.987  33.718  34.956  1.00  0.00    -0.203 F 
ATOM     66  C   UNL A   1      39.624  34.030  36.847  1.00  0.00     0.198 A 
ATOM     67  C   UNL A   1      38.112  32.300  37.537  1.00  0.00     0.198 A 
ATOM     68  F   UNL A   1      38.023  30.269  36.355  1.00  0.00    -0.203 F 
ATOM     69  F   UNL A   1      40.180  35.235  37.043  1.00  0.00    -0.200 F 
ATOM     70  C   UNL A   1      38.657  33.562  37.721  1.00  0.00     0.200 A 
ATOM     71  F   UNL A   1      37.168  31.851  38.376  1.00  0.00    -0.200 F 
ATOM     72  F   UNL A   1      38.257  34.324  38.748  1.00  0.00    -0.200 F 
ENDBRANCH  48  62
BRANCH  49  73
ATOM     73  C   UNL A   1      42.416  26.539  27.665  1.00  0.00     0.064 A 
ATOM     74  C   UNL A   1      41.849  25.282  27.405  1.00  0.00     0.173 A 
ATOM     75  C   UNL A   1      43.398  27.006  26.781  1.00  0.00     0.173 A 
ATOM     76  F   UNL A   1      40.917  24.784  28.230  1.00  0.00    -0.203 F 
ATOM     77  C   UNL A   1      42.266  24.514  26.320  1.00  0.00     0.198 A 
ATOM     78  C   UNL A   1      43.795  26.249  25.680  1.00  0.00     0.198 A 
ATOM     79  F   UNL A   1      43.963  28.205  26.979  1.00  0.00    -0.203 F 
ATOM     80  F   UNL A   1      41.740  23.297  26.121  1.00  0.00    -0.200 F 
ATOM     81  C   UNL A   1      43.235  25.000  25.455  1.00  0.00     0.200 A 
ATOM     82  F   UNL A   1      44.720  26.728  24.838  1.00  0.00    -0.200 F 
ATOM     83  F   UNL A   1      43.633  24.263  24.409  1.00  0.00    -0.200 F 
ENDBRANCH  49  73
BRANCH  61  84
ATOM     84  C   UNL A   1      44.618  27.011  34.254  1.00  0.00     0.064 A 
ATOM     85  C   UNL A   1      44.377  25.797  34.914  1.00  0.00     0.173 A 
ATOM     86  C   UNL A   1      45.919  27.537  34.292  1.00  0.00     0.173 A 
ATOM     87  F   UNL A   1      43.147  25.263  34.916  1.00  0.00    -0.203 F 
ATOM     88  C   UNL A   1      45.392  25.154  35.615  1.00  0.00     0.198 A 
ATOM     89  C   UNL A   1      46.938  26.874  34.968  1.00  0.00     0.198 A 
ATOM     90  F   UNL A   1      46.201  28.690  33.667  1.00  0.00    -0.203 F 
ATOM     91  F   UNL A   1      45.127  24.025  36.288  1.00  0.00    -0.200 F 
ATOM     92  C   UNL A   1      46.672  25.689  35.638  1.00  0.00     0.200 A 
ATOM     93  F   UNL A   1      48.176  27.385  34.977  1.00  0.00    -0.200 F 
ATOM     94  F   UNL A   1      47.647  25.067  36.314  1.00  0.00    -0.200 F 
ENDBRANCH  61  84
ENDBRANCH  35  36
ENDBRANCH  27  30
ENDBRANCH  25  26
ENDBRANCH  24  25
ENDBRANCH   1  24
TORSDOF 14
ENDMDL
MODEL 3
REMARK VINA RESULT:     -12.4      1.255      2.725
REMARK SMILES CC[C@H](C)c1ccccc1Oc1cccc(F)c1C(=O)NCCCNC(=O)c1ccc(-c2c3nc(c(-c4c(F)c(F)c(F)c(F)c4F)c4ccc([nH]4)c(-c4c(F)c(F)c(F)c(F)c4F)c4nc(c(-c5c(F)c(F)c(F)c(F)c5F)c5ccc2[nH]5)C=C4)C=C3)cc1
REMARK SMILES IDX 22 1 21 2 19 3 20 4 18 6 12 7 13 8 14 9 16 10 15 11 17 12
REMARK SMILES IDX 11 13 10 14 5 15 6 16 7 17 9 18 8 19 3 20 4 21 2 22 1 23
REMARK SMILES IDX 23 24 24 25 25 26 26 27 27 29 28 30 29 31 90 32 30 33 89 34
REMARK SMILES IDX 31 35 32 36 33 37 83 38 34 39 88 40 82 41 84 42 35 43 87 44
REMARK SMILES IDX 81 45 80 46 36 48 68 49 48 50 67 51 49 52 52 53 66 54 85 55
REMARK SMILES IDX 50 56 51 57 65 59 86 60 53 61 37 62 38 63 46 64 39 65 40 66
REMARK SMILES IDX 44 67 47 68 41 69 42 70 45 71 43 72 69 73 70 74 78 75 71 76
REMARK SMILES IDX 72 77 76 78 79 79 73 80 74 81 77 82 75 83 54 84 55 85 63 86
REMARK SMILES IDX 56 87 57 88 61 89 64 90 58 91 59 92 62 93 60 94
REMARK H PARENT 21 5 25 28 84 47 52 58
REMARK Flexibility Score: inf
ROOT
ATOM      1  C   UNL A   1      33.661  27.972  23.751  1.00  0.00     0.118 C 
ENDROOT
BRANCH   1   2
ATOM      2  N   UNL A   1      33.005  27.414  22.609  1.00  0.00    -0.352 N 
ATOM      3  C   UNL A   1      31.810  26.731  22.635  1.00  0.00     0.258 C 
ATOM      4  O   UNL A   1      31.103  26.789  21.628  1.00  0.00    -0.269 OA
ATOM      5  H   UNL A   1      33.443  27.528  21.734  1.00  0.00     0.163 HD
BRANCH   3   6
ATOM      6  C   UNL A   1      31.404  25.846  23.766  1.00  0.00     0.118 A 
ATOM      7  C   UNL A   1      31.759  24.513  24.043  1.00  0.00     0.143 A 
ATOM      8  C   UNL A   1      31.182  23.864  25.158  1.00  0.00     0.048 A 
ATOM      9  C   UNL A   1      30.365  24.533  26.062  1.00  0.00     0.007 A 
ATOM     10  C   UNL A   1      30.585  26.504  24.709  1.00  0.00     0.139 A 
ATOM     11  C   UNL A   1      30.084  25.870  25.845  1.00  0.00     0.040 A 
ATOM     12  F   UNL A   1      30.220  27.786  24.535  1.00  0.00    -0.206 F 
BRANCH   7  13
ATOM     13  O   UNL A   1      32.527  23.616  23.341  1.00  0.00    -0.456 OA
BRANCH  13  14
ATOM     14  C   UNL A   1      33.223  22.542  23.842  1.00  0.00     0.130 A 
ATOM     15  C   UNL A   1      34.544  22.472  24.320  1.00  0.00    -0.002 A 
ATOM     16  C   UNL A   1      35.007  21.196  24.718  1.00  0.00     0.008 A 
ATOM     17  C   UNL A   1      34.198  20.053  24.676  1.00  0.00     0.001 A 
ATOM     18  C   UNL A   1      32.390  21.398  23.896  1.00  0.00     0.047 A 
ATOM     19  C   UNL A   1      32.875  20.156  24.283  1.00  0.00     0.004 A 
BRANCH  15  20
ATOM     20  C   UNL A   1      35.444  23.696  24.437  1.00  0.00     0.019 C 
ATOM     21  C   UNL A   1      34.933  24.660  25.522  1.00  0.00     0.013 C 
BRANCH  20  22
ATOM     22  C   UNL A   1      36.955  23.435  24.635  1.00  0.00     0.005 C 
ATOM     23  C   UNL A   1      37.409  23.747  26.057  1.00  0.00     0.004 C 
ENDBRANCH  20  22
ENDBRANCH  15  20
ENDBRANCH  13  14
ENDBRANCH   7  13
ENDBRANCH   3   6
ENDBRANCH   1   2
BRANCH   1  24
ATOM     24  C   UNL A   1      33.134  29.267  24.300  1.00  0.00     0.042 C 
BRANCH  24  25
ATOM     25  C   UNL A   1      33.020  29.314  25.809  1.00  0.00     0.118 C 
BRANCH  25  26
ATOM     26  N   UNL A   1      32.705  30.628  26.375  1.00  0.00    -0.352 N 
ATOM     27  C   UNL A   1      33.424  31.447  27.216  1.00  0.00     0.251 C 
ATOM     28  H   UNL A   1      31.827  30.988  26.108  1.00  0.00     0.163 HD
ATOM     29  O   UNL A   1      32.933  32.501  27.616  1.00  0.00    -0.269 OA
BRANCH  27  30
ATOM     30  C   UNL A   1      34.762  31.035  27.691  1.00  0.00     0.039 A 
ATOM     31  C   UNL A   1      35.738  32.007  27.928  1.00  0.00     0.014 A 
ATOM     32  C   UNL A   1      35.038  29.699  27.969  1.00  0.00     0.014 A 
ATOM     33  C   UNL A   1      36.936  31.645  28.545  1.00  0.00     0.010 A 
ATOM     34  C   UNL A   1      36.143  29.370  28.735  1.00  0.00     0.010 A 
ATOM     35  C   UNL A   1      37.122  30.332  29.010  1.00  0.00    -0.014 A 
BRANCH  35  36
ATOM     36  C   UNL A   1      38.344  29.926  29.746  1.00  0.00     0.031 A 
ATOM     37  C   UNL A   1      38.563  30.412  31.155  1.00  0.00     0.074 A 
ATOM     38  C   UNL A   1      39.286  29.189  29.124  1.00  0.00     0.049 A 
ATOM     39  N   UNL A   1      39.587  30.223  31.948  1.00  0.00    -0.248 NA
ATOM     40  C   UNL A   1      37.517  31.274  31.734  1.00  0.00     0.031 C 
ATOM     41  C   UNL A   1      39.233  28.743  27.729  1.00  0.00     0.029 A 
ATOM     42  N   UNL A   1      40.473  28.683  29.586  1.00  0.00    -0.354 N 
ATOM     43  C   UNL A   1      39.319  30.966  33.091  1.00  0.00     0.074 A 
ATOM     44  C   UNL A   1      38.084  31.676  32.859  1.00  0.00     0.031 C 
ATOM     45  C   UNL A   1      40.310  27.986  27.467  1.00  0.00     0.029 A 
ATOM     46  C   UNL A   1      41.142  27.917  28.663  1.00  0.00     0.049 A 
ATOM     47  H   UNL A   1      40.814  28.852  30.494  1.00  0.00     0.167 HD
ATOM     48  C   UNL A   1      40.014  31.015  34.251  1.00  0.00     0.037 A 
ATOM     49  C   UNL A   1      42.289  27.222  28.781  1.00  0.00     0.037 A 
ATOM     50  C   UNL A   1      41.206  30.252  34.497  1.00  0.00     0.049 A 
ATOM     51  C   UNL A   1      43.001  27.226  30.107  1.00  0.00     0.074 A 
ATOM     52  C   UNL A   1      41.953  30.162  35.657  1.00  0.00     0.029 A 
ATOM     53  N   UNL A   1      41.817  29.431  33.559  1.00  0.00    -0.354 N 
ATOM     54  N   UNL A   1      42.695  27.866  31.209  1.00  0.00    -0.248 NA
ATOM     55  C   UNL A   1      44.208  26.396  30.209  1.00  0.00     0.031 C 
ATOM     56  C   UNL A   1      43.035  29.308  35.411  1.00  0.00     0.029 A 
ATOM     57  C   UNL A   1      42.935  28.832  34.112  1.00  0.00     0.049 A 
ATOM     58  H   UNL A   1      41.501  29.295  32.637  1.00  0.00     0.167 HD
ATOM     59  C   UNL A   1      43.651  27.495  32.144  1.00  0.00     0.074 A 
ATOM     60  C   UNL A   1      44.537  26.558  31.483  1.00  0.00     0.031 C 
ATOM     61  C   UNL A   1      43.790  27.895  33.432  1.00  0.00     0.037 A 
BRANCH  48  62
ATOM     62  C   UNL A   1      39.479  31.898  35.342  1.00  0.00     0.064 A 
ATOM     63  C   UNL A   1      39.852  33.248  35.446  1.00  0.00     0.173 A 
ATOM     64  C   UNL A   1      38.581  31.394  36.294  1.00  0.00     0.173 A 
ATOM     65  F   UNL A   1      40.723  33.778  34.573  1.00  0.00    -0.203 F 
ATOM     66  C   UNL A   1      39.378  34.047  36.483  1.00  0.00     0.198 A 
ATOM     67  C   UNL A   1      38.081  32.205  37.309  1.00  0.00     0.198 A 
ATOM     68  F   UNL A   1      38.189  30.113  36.242  1.00  0.00    -0.203 F 
ATOM     69  F   UNL A   1      39.803  35.314  36.598  1.00  0.00    -0.200 F 
ATOM     70  C   UNL A   1      38.488  33.528  37.409  1.00  0.00     0.200 A 
ATOM     71  F   UNL A   1      37.212  31.706  38.199  1.00  0.00    -0.200 F 
ATOM     72  F   UNL A   1      38.031  34.299  38.406  1.00  0.00    -0.200 F 
ENDBRANCH  48  62
BRANCH  49  73
ATOM     73  C   UNL A   1      42.789  26.410  27.641  1.00  0.00     0.064 A 
ATOM     74  C   UNL A   1      43.723  26.942  26.739  1.00  0.00     0.173 A 
ATOM     75  C   UNL A   1      42.356  25.094  27.430  1.00  0.00     0.173 A 
ATOM     76  F   UNL A   1      44.157  28.202  26.889  1.00  0.00    -0.203 F 
ATOM     77  C   UNL A   1      44.185  26.196  25.656  1.00  0.00     0.198 A 
ATOM     78  C   UNL A   1      42.840  24.339  26.363  1.00  0.00     0.198 A 
ATOM     79  F   UNL A   1      41.474  24.535  28.270  1.00  0.00    -0.203 F 
ATOM     80  F   UNL A   1      45.042  26.745  24.784  1.00  0.00    -0.200 F 
ATOM     81  C   UNL A   1      43.747  24.893  25.471  1.00  0.00     0.200 A 
ATOM     82  F   UNL A   1      42.427  23.076  26.196  1.00  0.00    -0.200 F 
ATOM     83  F   UNL A   1      44.194  24.175  24.432  1.00  0.00    -0.200 F 
ENDBRANCH  49  73
BRANCH  61  84
ATOM     84  C   UNL A   1      44.917  27.289  34.213  1.00  0.00     0.064 A 
ATOM     85  C   UNL A   1      46.180  27.897  34.274  1.00  0.00     0.173 A 
ATOM     86  C   UNL A   1      44.722  26.098  34.930  1.00  0.00     0.173 A 
ATOM     87  F   UNL A   1      46.417  29.029  33.595  1.00  0.00    -0.203 F 
ATOM     88  C   UNL A   1      47.217  27.314  34.996  1.00  0.00     0.198 A 
ATOM     89  C   UNL A   1      45.752  25.536  35.675  1.00  0.00     0.198 A 
ATOM     90  F   UNL A   1      43.529  25.485  34.911  1.00  0.00    -0.203 F 
ATOM     91  F   UNL A   1      48.432  27.880  34.993  1.00  0.00    -0.200 F 
ATOM     92  C   UNL A   1      47.002  26.138  35.699  1.00  0.00     0.200 A 
ATOM     93  F   UNL A   1      45.540  24.408  36.365  1.00  0.00    -0.200 F 
ATOM     94  F   UNL A   1      48.003  25.579  36.393  1.00  0.00    -0.200 F 
ENDBRANCH  61  84
ENDBRANCH  35  36
ENDBRANCH  27  30
ENDBRANCH  25  26
ENDBRANCH  24  25
ENDBRANCH   1  24
TORSDOF 14
ENDMDL
