MODEL 1
REMARK VINA RESULT:     -12.4      0.000      0.000
REMARK SMILES CS(=O)(=O)N1CCC[C@@H]1C(=O)N1CCC[C@@H]1C(=O)NCCCNC(=O)c1ccc(-c2c3nc(c(-c4c(F)c(F)c(F)c(F)c4F)c4ccc([nH]4)c(-c4c(F)c(F)c(F)c(F)c4F)c4nc(c(-c5c(F)c(F)c(F)c(F)c5F)c5ccc2[nH]5)C=C4)C=C3)cc1
REMARK SMILES IDX 20 1 19 2 17 3 18 4 16 6 12 7 13 8 14 9 15 10 10 11 11 12
REMARK SMILES IDX 9 13 5 14 6 15 7 16 8 17 2 18 1 19 3 20 4 21 21 22 22 23
REMARK SMILES IDX 23 24 24 25 25 27 26 28 27 29 88 30 28 31 87 32 29 33 30 34
REMARK SMILES IDX 31 35 81 36 32 37 86 38 80 39 82 40 33 41 85 42 79 43 78 44
REMARK SMILES IDX 34 46 66 47 46 48 65 49 47 50 50 51 64 52 83 53 48 54 49 55
REMARK SMILES IDX 63 57 84 58 51 59 35 60 36 61 44 62 37 63 38 64 42 65 45 66
REMARK SMILES IDX 39 67 40 68 43 69 41 70 67 71 68 72 76 73 69 74 70 75 74 76
REMARK SMILES IDX 77 77 71 78 72 79 75 80 73 81 52 82 53 83 61 84 54 85 55 86
REMARK SMILES IDX 59 87 62 88 56 89 57 90 60 91 58 92
REMARK H PARENT 19 5 23 26 82 45 50 56
REMARK Flexibility Score: inf
ROOT
ATOM      1  C   UNL A   1      36.389  20.778  25.288  1.00  0.00     0.117 C 
ENDROOT
BRANCH   1   2
ATOM      2  N   UNL A   1      35.293  19.897  24.983  1.00  0.00    -0.354 N 
ATOM      3  C   UNL A   1      33.953  20.108  25.134  1.00  0.00     0.242 C 
ATOM      4  O   UNL A   1      33.216  19.147  24.883  1.00  0.00    -0.273 OA
ATOM      5  H   UNL A   1      35.544  19.020  24.615  1.00  0.00     0.163 HD
BRANCH   3   6
ATOM      6  C   UNL A   1      33.375  21.399  25.766  1.00  0.00     0.174 C 
ATOM      7  N   UNL A   1      33.806  22.697  25.211  1.00  0.00    -0.329 N 
ATOM      8  C   UNL A   1      34.052  23.633  26.285  1.00  0.00     0.120 C 
ATOM      9  C   UNL A   1      34.432  22.779  27.478  1.00  0.00     0.024 C 
ATOM     10  C   UNL A   1      33.652  21.483  27.276  1.00  0.00     0.037 C 
BRANCH   7  11
ATOM     11  C   UNL A   1      33.338  23.044  23.950  1.00  0.00     0.241 C 
ATOM     12  O   UNL A   1      34.048  22.819  22.961  1.00  0.00    -0.273 OA
BRANCH  11  13
ATOM     13  C   UNL A   1      31.978  23.725  23.719  1.00  0.00     0.162 C 
ATOM     14  N   UNL A   1      31.865  25.136  23.258  1.00  0.00    -0.190 NA
ATOM     15  C   UNL A   1      30.620  25.719  23.785  1.00  0.00     0.103 C 
ATOM     16  C   UNL A   1      30.473  25.005  25.119  1.00  0.00     0.019 C 
ATOM     17  C   UNL A   1      30.858  23.575  24.761  1.00  0.00     0.032 C 
BRANCH  14  18
ATOM     18  S   UNL A   1      33.143  26.156  22.930  1.00  0.00     0.211 S 
ATOM     19  C   UNL A   1      32.299  27.721  22.753  1.00  0.00     0.176 C 
ATOM     20  O   UNL A   1      33.654  25.796  21.625  1.00  0.00    -0.212 OA
ATOM     21  O   UNL A   1      34.025  26.235  24.064  1.00  0.00    -0.212 OA
ENDBRANCH  14  18
ENDBRANCH  11  13
ENDBRANCH   7  11
ENDBRANCH   3   6
ENDBRANCH   1   2
BRANCH   1  22
ATOM     22  C   UNL A   1      37.774  20.310  24.835  1.00  0.00     0.042 C 
BRANCH  22  23
ATOM     23  C   UNL A   1      38.961  20.575  25.765  1.00  0.00     0.118 C 
BRANCH  23  24
ATOM     24  N   UNL A   1      39.933  19.492  25.877  1.00  0.00    -0.352 N 
ATOM     25  C   UNL A   1      41.302  19.493  26.042  1.00  0.00     0.251 C 
ATOM     26  H   UNL A   1      39.536  18.592  25.825  1.00  0.00     0.163 HD
ATOM     27  O   UNL A   1      41.946  18.466  25.844  1.00  0.00    -0.269 OA
BRANCH  25  28
ATOM     28  C   UNL A   1      42.029  20.732  26.389  1.00  0.00     0.039 A 
ATOM     29  C   UNL A   1      42.451  21.601  25.376  1.00  0.00     0.014 A 
ATOM     30  C   UNL A   1      42.323  21.028  27.715  1.00  0.00     0.014 A 
ATOM     31  C   UNL A   1      43.054  22.818  25.708  1.00  0.00     0.010 A 
ATOM     32  C   UNL A   1      42.804  22.283  28.052  1.00  0.00     0.010 A 
ATOM     33  C   UNL A   1      43.168  23.199  27.053  1.00  0.00    -0.014 A 
BRANCH  33  34
ATOM     34  C   UNL A   1      43.628  24.545  27.476  1.00  0.00     0.031 A 
ATOM     35  C   UNL A   1      42.627  25.563  27.946  1.00  0.00     0.074 A 
ATOM     36  C   UNL A   1      44.911  24.901  27.266  1.00  0.00     0.049 A 
ATOM     37  N   UNL A   1      42.774  26.851  28.126  1.00  0.00    -0.248 NA
ATOM     38  C   UNL A   1      41.263  25.073  28.192  1.00  0.00     0.031 C 
ATOM     39  C   UNL A   1      45.960  24.017  26.754  1.00  0.00     0.029 A 
ATOM     40  N   UNL A   1      45.540  26.112  27.412  1.00  0.00    -0.354 N 
ATOM     41  C   UNL A   1      41.515  27.327  28.467  1.00  0.00     0.074 A 
ATOM     42  C   UNL A   1      40.607  26.202  28.412  1.00  0.00     0.031 C 
ATOM     43  C   UNL A   1      47.098  24.712  26.627  1.00  0.00     0.029 A 
ATOM     44  C   UNL A   1      46.847  26.104  26.989  1.00  0.00     0.049 A 
ATOM     45  H   UNL A   1      45.098  26.909  27.784  1.00  0.00     0.167 HD
ATOM     46  C   UNL A   1      41.154  28.587  28.811  1.00  0.00     0.037 A 
ATOM     47  C   UNL A   1      47.734  27.109  26.868  1.00  0.00     0.037 A 
ATOM     48  C   UNL A   1      42.076  29.690  28.884  1.00  0.00     0.049 A 
ATOM     49  C   UNL A   1      47.317  28.501  27.251  1.00  0.00     0.074 A 
ATOM     50  C   UNL A   1      41.844  30.981  29.321  1.00  0.00     0.029 A 
ATOM     51  N   UNL A   1      43.407  29.632  28.492  1.00  0.00    -0.354 N 
ATOM     52  N   UNL A   1      46.149  28.926  27.669  1.00  0.00    -0.248 NA
ATOM     53  C   UNL A   1      48.337  29.552  27.147  1.00  0.00     0.031 C 
ATOM     54  C   UNL A   1      43.015  31.723  29.127  1.00  0.00     0.029 A 
ATOM     55  C   UNL A   1      43.996  30.878  28.629  1.00  0.00     0.049 A 
ATOM     56  H   UNL A   1      43.864  28.824  28.165  1.00  0.00     0.167 HD
ATOM     57  C   UNL A   1      46.292  30.289  27.884  1.00  0.00     0.074 A 
ATOM     58  C   UNL A   1      47.670  30.616  27.574  1.00  0.00     0.031 C 
ATOM     59  C   UNL A   1      45.365  31.189  28.296  1.00  0.00     0.037 A 
BRANCH  46  60
ATOM     60  C   UNL A   1      39.702  28.836  29.112  1.00  0.00     0.064 A 
ATOM     61  C   UNL A   1      38.798  29.262  28.125  1.00  0.00     0.173 A 
ATOM     62  C   UNL A   1      39.204  28.647  30.411  1.00  0.00     0.173 A 
ATOM     63  F   UNL A   1      39.217  29.465  26.867  1.00  0.00    -0.203 F 
ATOM     64  C   UNL A   1      37.470  29.542  28.438  1.00  0.00     0.198 A 
ATOM     65  C   UNL A   1      37.866  28.889  30.712  1.00  0.00     0.198 A 
ATOM     66  F   UNL A   1      40.017  28.231  31.394  1.00  0.00    -0.203 F 
ATOM     67  F   UNL A   1      36.648  30.022  27.495  1.00  0.00    -0.200 F 
ATOM     68  C   UNL A   1      37.004  29.352  29.730  1.00  0.00     0.200 A 
ATOM     69  F   UNL A   1      37.413  28.686  31.958  1.00  0.00    -0.200 F 
ATOM     70  F   UNL A   1      35.726  29.623  30.030  1.00  0.00    -0.200 F 
ENDBRANCH  46  60
BRANCH  47  71
ATOM     71  C   UNL A   1      49.099  26.818  26.354  1.00  0.00     0.064 A 
ATOM     72  C   UNL A   1      50.102  26.338  27.205  1.00  0.00     0.173 A 
ATOM     73  C   UNL A   1      49.410  26.960  24.992  1.00  0.00     0.173 A 
ATOM     74  F   UNL A   1      49.858  26.201  28.516  1.00  0.00    -0.203 F 
ATOM     75  C   UNL A   1      51.366  26.013  26.716  1.00  0.00     0.198 A 
ATOM     76  C   UNL A   1      50.664  26.606  24.499  1.00  0.00     0.198 A 
ATOM     77  F   UNL A   1      48.481  27.404  24.133  1.00  0.00    -0.203 F 
ATOM     78  F   UNL A   1      52.315  25.578  27.556  1.00  0.00    -0.200 F 
ATOM     79  C   UNL A   1      51.643  26.137  25.363  1.00  0.00     0.200 A 
ATOM     80  F   UNL A   1      50.919  26.703  23.188  1.00  0.00    -0.200 F 
ATOM     81  F   UNL A   1      52.850  25.799  24.889  1.00  0.00    -0.200 F 
ENDBRANCH  47  71
BRANCH  59  82
ATOM     82  C   UNL A   1      45.805  32.619  28.431  1.00  0.00     0.064 A 
ATOM     83  C   UNL A   1      45.646  33.534  27.380  1.00  0.00     0.173 A 
ATOM     84  C   UNL A   1      46.328  33.093  29.643  1.00  0.00     0.173 A 
ATOM     85  F   UNL A   1      45.166  33.127  26.195  1.00  0.00    -0.203 F 
ATOM     86  C   UNL A   1      46.009  34.869  27.534  1.00  0.00     0.198 A 
ATOM     87  C   UNL A   1      46.659  34.435  29.804  1.00  0.00     0.198 A 
ATOM     88  F   UNL A   1      46.496  32.259  30.680  1.00  0.00    -0.203 F 
ATOM     89  F   UNL A   1      45.886  35.718  26.504  1.00  0.00    -0.200 F 
ATOM     90  C   UNL A   1      46.503  35.321  28.748  1.00  0.00     0.200 A 
ATOM     91  F   UNL A   1      47.121  34.872  30.983  1.00  0.00    -0.200 F 
ATOM     92  F   UNL A   1      46.835  36.611  28.901  1.00  0.00    -0.200 F 
ENDBRANCH  59  82
ENDBRANCH  33  34
ENDBRANCH  25  28
ENDBRANCH  23  24
ENDBRANCH  22  23
ENDBRANCH   1  22
TORSDOF 13
ENDMDL
MODEL 2
REMARK VINA RESULT:     -12.3      4.851     10.220
REMARK SMILES CS(=O)(=O)N1CCC[C@@H]1C(=O)N1CCC[C@@H]1C(=O)NCCCNC(=O)c1ccc(-c2c3nc(c(-c4c(F)c(F)c(F)c(F)c4F)c4ccc([nH]4)c(-c4c(F)c(F)c(F)c(F)c4F)c4nc(c(-c5c(F)c(F)c(F)c(F)c5F)c5ccc2[nH]5)C=C4)C=C3)cc1
REMARK SMILES IDX 20 1 19 2 17 3 18 4 16 6 12 7 13 8 14 9 15 10 10 11 11 12
REMARK SMILES IDX 9 13 5 14 6 15 7 16 8 17 2 18 1 19 3 20 4 21 21 22 22 23
REMARK SMILES IDX 23 24 24 25 25 27 26 28 27 29 88 30 28 31 87 32 29 33 30 34
REMARK SMILES IDX 31 35 81 36 32 37 86 38 80 39 82 40 33 41 85 42 79 43 78 44
REMARK SMILES IDX 34 46 66 47 46 48 65 49 47 50 50 51 64 52 83 53 48 54 49 55
REMARK SMILES IDX 63 57 84 58 51 59 35 60 36 61 44 62 37 63 38 64 42 65 45 66
REMARK SMILES IDX 39 67 40 68 43 69 41 70 67 71 68 72 76 73 69 74 70 75 74 76
REMARK SMILES IDX 77 77 71 78 72 79 75 80 73 81 52 82 53 83 61 84 54 85 55 86
REMARK SMILES IDX 59 87 62 88 56 89 57 90 60 91 58 92
REMARK H PARENT 19 5 23 26 82 45 50 56
REMARK Flexibility Score: inf
ROOT
ATOM      1  C   UNL A   1      32.028  27.122  26.450  1.00  0.00     0.117 C 
ENDROOT
BRANCH   1   2
ATOM      2  N   UNL A   1      30.949  26.261  26.857  1.00  0.00    -0.354 N 
ATOM      3  C   UNL A   1      30.032  25.610  26.084  1.00  0.00     0.242 C 
ATOM      4  O   UNL A   1      29.141  25.001  26.689  1.00  0.00    -0.273 OA
ATOM      5  H   UNL A   1      30.860  26.123  27.827  1.00  0.00     0.163 HD
BRANCH   3   6
ATOM      6  C   UNL A   1      29.972  25.767  24.544  1.00  0.00     0.174 C 
ATOM      7  N   UNL A   1      31.211  25.547  23.775  1.00  0.00    -0.329 N 
ATOM      8  C   UNL A   1      31.331  26.549  22.740  1.00  0.00     0.120 C 
ATOM      9  C   UNL A   1      30.572  27.753  23.261  1.00  0.00     0.024 C 
ATOM     10  C   UNL A   1      29.462  27.154  24.120  1.00  0.00     0.037 C 
BRANCH   7  11
ATOM     11  C   UNL A   1      31.683  24.245  23.675  1.00  0.00     0.241 C 
ATOM     12  O   UNL A   1      30.895  23.339  23.372  1.00  0.00    -0.273 OA
BRANCH  11  13
ATOM     13  C   UNL A   1      33.148  23.861  23.948  1.00  0.00     0.162 C 
ATOM     14  N   UNL A   1      33.534  22.936  25.049  1.00  0.00    -0.190 NA
ATOM     15  C   UNL A   1      34.881  23.289  25.528  1.00  0.00     0.103 C 
ATOM     16  C   UNL A   1      34.907  24.795  25.325  1.00  0.00     0.019 C 
ATOM     17  C   UNL A   1      34.236  24.948  23.967  1.00  0.00     0.032 C 
BRANCH  14  18
ATOM     18  S   UNL A   1      32.482  22.199  26.112  1.00  0.00     0.211 S 
ATOM     19  C   UNL A   1      33.620  21.315  27.169  1.00  0.00     0.176 C 
ATOM     20  O   UNL A   1      31.738  21.209  25.361  1.00  0.00    -0.212 OA
ATOM     21  O   UNL A   1      31.793  23.185  26.902  1.00  0.00    -0.212 OA
ENDBRANCH  14  18
ENDBRANCH  11  13
ENDBRANCH   7  11
ENDBRANCH   3   6
ENDBRANCH   1   2
BRANCH   1  22
ATOM     22  C   UNL A   1      31.890  28.598  26.831  1.00  0.00     0.042 C 
BRANCH  22  23
ATOM     23  C   UNL A   1      32.797  29.610  26.126  1.00  0.00     0.118 C 
BRANCH  23  24
ATOM     24  N   UNL A   1      32.572  31.010  26.469  1.00  0.00    -0.352 N 
ATOM     25  C   UNL A   1      33.275  31.890  27.265  1.00  0.00     0.251 C 
ATOM     26  H   UNL A   1      31.768  31.399  26.054  1.00  0.00     0.163 HD
ATOM     27  O   UNL A   1      32.756  32.943  27.623  1.00  0.00    -0.269 OA
BRANCH  25  28
ATOM     28  C   UNL A   1      34.628  31.560  27.760  1.00  0.00     0.039 A 
ATOM     29  C   UNL A   1      35.592  32.568  27.884  1.00  0.00     0.014 A 
ATOM     30  C   UNL A   1      34.961  30.249  28.077  1.00  0.00     0.014 A 
ATOM     31  C   UNL A   1      36.840  32.275  28.441  1.00  0.00     0.010 A 
ATOM     32  C   UNL A   1      36.146  29.979  28.743  1.00  0.00     0.010 A 
ATOM     33  C   UNL A   1      37.098  30.991  28.942  1.00  0.00    -0.014 A 
BRANCH  33  34
ATOM     34  C   UNL A   1      38.325  30.653  29.707  1.00  0.00     0.031 A 
ATOM     35  C   UNL A   1      39.283  29.629  29.166  1.00  0.00     0.074 A 
ATOM     36  C   UNL A   1      38.476  31.131  30.957  1.00  0.00     0.049 A 
ATOM     37  N   UNL A   1      40.269  29.014  29.767  1.00  0.00    -0.248 NA
ATOM     38  C   UNL A   1      39.066  29.201  27.775  1.00  0.00     0.031 C 
ATOM     39  C   UNL A   1      37.577  32.081  31.613  1.00  0.00     0.029 A 
ATOM     40  N   UNL A   1      39.415  30.846  31.917  1.00  0.00    -0.354 N 
ATOM     41  C   UNL A   1      40.760  28.102  28.843  1.00  0.00     0.074 A 
ATOM     42  C   UNL A   1      39.929  28.204  27.664  1.00  0.00     0.031 C 
ATOM     43  C   UNL A   1      38.004  32.300  32.865  1.00  0.00     0.029 A 
ATOM     44  C   UNL A   1      39.170  31.460  33.121  1.00  0.00     0.049 A 
ATOM     45  H   UNL A   1      40.190  30.260  31.758  1.00  0.00     0.167 HD
ATOM     46  C   UNL A   1      41.821  27.267  28.964  1.00  0.00     0.037 A 
ATOM     47  C   UNL A   1      39.790  31.336  34.310  1.00  0.00     0.037 A 
ATOM     48  C   UNL A   1      42.652  27.197  30.137  1.00  0.00     0.049 A 
ATOM     49  C   UNL A   1      40.963  30.403  34.427  1.00  0.00     0.074 A 
ATOM     50  C   UNL A   1      43.812  26.468  30.331  1.00  0.00     0.029 A 
ATOM     51  N   UNL A   1      42.400  27.871  31.324  1.00  0.00    -0.354 N 
ATOM     52  N   UNL A   1      41.484  29.616  33.518  1.00  0.00    -0.248 NA
ATOM     53  C   UNL A   1      41.632  30.340  35.733  1.00  0.00     0.031 C 
ATOM     54  C   UNL A   1      44.220  26.646  31.657  1.00  0.00     0.029 A 
ATOM     55  C   UNL A   1      43.353  27.536  32.272  1.00  0.00     0.049 A 
ATOM     56  H   UNL A   1      41.653  28.496  31.470  1.00  0.00     0.167 HD
ATOM     57  C   UNL A   1      42.545  28.968  34.135  1.00  0.00     0.074 A 
ATOM     58  C   UNL A   1      42.608  29.475  35.491  1.00  0.00     0.031 C 
ATOM     59  C   UNL A   1      43.388  28.036  33.624  1.00  0.00     0.037 A 
BRANCH  46  60
ATOM     60  C   UNL A   1      42.123  26.355  27.806  1.00  0.00     0.064 A 
ATOM     61  C   UNL A   1      41.450  25.136  27.622  1.00  0.00     0.173 A 
ATOM     62  C   UNL A   1      43.104  26.705  26.865  1.00  0.00     0.173 A 
ATOM     63  F   UNL A   1      40.507  24.747  28.493  1.00  0.00    -0.203 F 
ATOM     64  C   UNL A   1      41.785  24.280  26.576  1.00  0.00     0.198 A 
ATOM     65  C   UNL A   1      43.408  25.865  25.797  1.00  0.00     0.198 A 
ATOM     66  F   UNL A   1      43.774  27.862  26.982  1.00  0.00    -0.203 F 
ATOM     67  F   UNL A   1      41.181  23.088  26.469  1.00  0.00    -0.200 F 
ATOM     68  C   UNL A   1      42.761  24.646  25.662  1.00  0.00     0.200 A 
ATOM     69  F   UNL A   1      44.339  26.230  24.903  1.00  0.00    -0.200 F 
ATOM     70  F   UNL A   1      43.083  23.821  24.656  1.00  0.00    -0.200 F 
ENDBRANCH  46  60
BRANCH  47  71
ATOM     71  C   UNL A   1      39.295  32.115  35.475  1.00  0.00     0.064 A 
ATOM     72  C   UNL A   1      38.453  31.528  36.428  1.00  0.00     0.173 A 
ATOM     73  C   UNL A   1      39.698  33.443  35.689  1.00  0.00     0.173 A 
ATOM     74  F   UNL A   1      38.027  30.268  36.260  1.00  0.00    -0.203 F 
ATOM     75  C   UNL A   1      38.031  32.239  37.550  1.00  0.00     0.198 A 
ATOM     76  C   UNL A   1      39.300  34.142  36.826  1.00  0.00     0.198 A 
ATOM     77  F   UNL A   1      40.514  34.047  34.813  1.00  0.00    -0.203 F 
ATOM     78  F   UNL A   1      37.206  31.662  38.435  1.00  0.00    -0.200 F 
ATOM     79  C   UNL A   1      38.462  33.541  37.754  1.00  0.00     0.200 A 
ATOM     80  F   UNL A   1      39.741  35.391  37.031  1.00  0.00    -0.200 F 
ATOM     81  F   UNL A   1      38.077  34.216  38.845  1.00  0.00    -0.200 F 
ENDBRANCH  47  71
BRANCH  59  82
ATOM     82  C   UNL A   1      44.449  27.494  34.538  1.00  0.00     0.064 A 
ATOM     83  C   UNL A   1      44.255  26.310  35.264  1.00  0.00     0.173 A 
ATOM     84  C   UNL A   1      45.697  28.129  34.637  1.00  0.00     0.173 A 
ATOM     85  F   UNL A   1      43.073  25.675  35.217  1.00  0.00    -0.203 F 
ATOM     86  C   UNL A   1      45.265  25.789  36.067  1.00  0.00     0.198 A 
ATOM     87  C   UNL A   1      46.716  27.586  35.414  1.00  0.00     0.198 A 
ATOM     88  F   UNL A   1      45.937  29.261  33.959  1.00  0.00    -0.203 F 
ATOM     89  F   UNL A   1      45.043  24.678  36.783  1.00  0.00    -0.200 F 
ATOM     90  C   UNL A   1      46.498  26.420  36.132  1.00  0.00     0.200 A 
ATOM     91  F   UNL A   1      47.912  28.190  35.463  1.00  0.00    -0.200 F 
ATOM     92  F   UNL A   1      47.476  25.907  36.891  1.00  0.00    -0.200 F 
ENDBRANCH  59  82
ENDBRANCH  33  34
ENDBRANCH  25  28
ENDBRANCH  23  24
ENDBRANCH  22  23
ENDBRANCH   1  22
TORSDOF 13
ENDMDL
MODEL 3
REMARK VINA RESULT:     -12.3      0.963      1.710
REMARK SMILES CS(=O)(=O)N1CCC[C@@H]1C(=O)N1CCC[C@@H]1C(=O)NCCCNC(=O)c1ccc(-c2c3nc(c(-c4c(F)c(F)c(F)c(F)c4F)c4ccc([nH]4)c(-c4c(F)c(F)c(F)c(F)c4F)c4nc(c(-c5c(F)c(F)c(F)c(F)c5F)c5ccc2[nH]5)C=C4)C=C3)cc1
REMARK SMILES IDX 20 1 19 2 17 3 18 4 16 6 12 7 13 8 14 9 15 10 10 11 11 12
REMARK SMILES IDX 9 13 5 14 6 15 7 16 8 17 2 18 1 19 3 20 4 21 21 22 22 23
REMARK SMILES IDX 23 24 24 25 25 27 26 28 27 29 88 30 28 31 87 32 29 33 30 34
REMARK SMILES IDX 31 35 81 36 32 37 86 38 80 39 82 40 33 41 85 42 79 43 78 44
REMARK SMILES IDX 34 46 66 47 46 48 65 49 47 50 50 51 64 52 83 53 48 54 49 55
REMARK SMILES IDX 63 57 84 58 51 59 35 60 36 61 44 62 37 63 38 64 42 65 45 66
REMARK SMILES IDX 39 67 40 68 43 69 41 70 67 71 68 72 76 73 69 74 70 75 74 76
REMARK SMILES IDX 77 77 71 78 72 79 75 80 73 81 52 82 53 83 61 84 54 85 55 86
REMARK SMILES IDX 59 87 62 88 56 89 57 90 60 91 58 92
REMARK H PARENT 19 5 23 26 82 45 50 56
REMARK Flexibility Score: inf
ROOT
ATOM      1  C   UNL A   1      37.172  21.685  24.930  1.00  0.00     0.117 C 
ENDROOT
BRANCH   1   2
ATOM      2  N   UNL A   1      36.148  21.699  25.941  1.00  0.00    -0.354 N 
ATOM      3  C   UNL A   1      34.884  21.189  25.891  1.00  0.00     0.242 C 
ATOM      4  O   UNL A   1      34.162  21.418  26.870  1.00  0.00    -0.273 OA
ATOM      5  H   UNL A   1      36.393  22.140  26.786  1.00  0.00     0.163 HD
BRANCH   3   6
ATOM      6  C   UNL A   1      34.298  20.527  24.618  1.00  0.00     0.174 C 
ATOM      7  N   UNL A   1      32.904  20.841  24.251  1.00  0.00    -0.329 N 
ATOM      8  C   UNL A   1      32.228  19.640  23.816  1.00  0.00     0.120 C 
ATOM      9  C   UNL A   1      32.938  18.504  24.526  1.00  0.00     0.024 C 
ATOM     10  C   UNL A   1      34.376  18.993  24.672  1.00  0.00     0.037 C 
BRANCH   7  11
ATOM     11  C   UNL A   1      32.638  22.117  23.772  1.00  0.00     0.241 C 
ATOM     12  O   UNL A   1      33.133  22.473  22.694  1.00  0.00    -0.273 OA
BRANCH  11  13
ATOM     13  C   UNL A   1      31.769  23.134  24.533  1.00  0.00     0.162 C 
ATOM     14  N   UNL A   1      32.252  24.503  24.860  1.00  0.00    -0.190 NA
ATOM     15  C   UNL A   1      31.608  24.959  26.104  1.00  0.00     0.103 C 
ATOM     16  C   UNL A   1      31.448  23.659  26.875  1.00  0.00     0.019 C 
ATOM     17  C   UNL A   1      30.995  22.695  25.787  1.00  0.00     0.032 C 
BRANCH  14  18
ATOM     18  S   UNL A   1      33.747  25.126  24.465  1.00  0.00     0.211 S 
ATOM     19  C   UNL A   1      33.727  26.671  25.363  1.00  0.00     0.176 C 
ATOM     20  O   UNL A   1      33.718  25.450  23.055  1.00  0.00    -0.212 OA
ATOM     21  O   UNL A   1      34.794  24.297  25.003  1.00  0.00    -0.212 OA
ENDBRANCH  14  18
ENDBRANCH  11  13
ENDBRANCH   7  11
ENDBRANCH   3   6
ENDBRANCH   1   2
BRANCH   1  22
ATOM     22  C   UNL A   1      38.163  20.521  24.993  1.00  0.00     0.042 C 
BRANCH  22  23
ATOM     23  C   UNL A   1      39.215  20.533  26.106  1.00  0.00     0.118 C 
BRANCH  23  24
ATOM     24  N   UNL A   1      40.229  19.487  26.031  1.00  0.00    -0.352 N 
ATOM     25  C   UNL A   1      41.607  19.534  26.052  1.00  0.00     0.251 C 
ATOM     26  H   UNL A   1      39.860  18.577  25.952  1.00  0.00     0.163 HD
ATOM     27  O   UNL A   1      42.261  18.553  25.708  1.00  0.00    -0.269 OA
BRANCH  25  28
ATOM     28  C   UNL A   1      42.324  20.773  26.416  1.00  0.00     0.039 A 
ATOM     29  C   UNL A   1      42.762  21.648  25.414  1.00  0.00     0.014 A 
ATOM     30  C   UNL A   1      42.594  21.066  27.748  1.00  0.00     0.014 A 
ATOM     31  C   UNL A   1      43.356  22.866  25.760  1.00  0.00     0.010 A 
ATOM     32  C   UNL A   1      43.066  22.321  28.098  1.00  0.00     0.010 A 
ATOM     33  C   UNL A   1      43.444  23.241  27.108  1.00  0.00    -0.014 A 
BRANCH  33  34
ATOM     34  C   UNL A   1      43.894  24.588  27.545  1.00  0.00     0.031 A 
ATOM     35  C   UNL A   1      42.880  25.607  27.983  1.00  0.00     0.074 A 
ATOM     36  C   UNL A   1      45.182  24.941  27.372  1.00  0.00     0.049 A 
ATOM     37  N   UNL A   1      43.022  26.894  28.167  1.00  0.00    -0.248 NA
ATOM     38  C   UNL A   1      41.508  25.118  28.189  1.00  0.00     0.031 C 
ATOM     39  C   UNL A   1      46.245  24.056  26.893  1.00  0.00     0.029 A 
ATOM     40  N   UNL A   1      45.808  26.152  27.536  1.00  0.00    -0.354 N 
ATOM     41  C   UNL A   1      41.754  27.372  28.470  1.00  0.00     0.074 A 
ATOM     42  C   UNL A   1      40.848  26.248  28.388  1.00  0.00     0.031 C 
ATOM     43  C   UNL A   1      47.388  24.751  26.799  1.00  0.00     0.029 A 
ATOM     44  C   UNL A   1      47.127  26.142  27.152  1.00  0.00     0.049 A 
ATOM     45  H   UNL A   1      45.356  26.950  27.894  1.00  0.00     0.167 HD
ATOM     46  C   UNL A   1      41.385  28.633  28.802  1.00  0.00     0.037 A 
ATOM     47  C   UNL A   1      48.019  27.147  27.058  1.00  0.00     0.037 A 
ATOM     48  C   UNL A   1      42.306  29.735  28.902  1.00  0.00     0.049 A 
ATOM     49  C   UNL A   1      47.592  28.539  27.428  1.00  0.00     0.074 A 
ATOM     50  C   UNL A   1      42.062  31.027  29.331  1.00  0.00     0.029 A 
ATOM     51  N   UNL A   1      43.647  29.675  28.550  1.00  0.00    -0.354 N 
ATOM     52  N   UNL A   1      46.412  28.965  27.810  1.00  0.00    -0.248 NA
ATOM     53  C   UNL A   1      48.615  29.590  27.353  1.00  0.00     0.031 C 
ATOM     54  C   UNL A   1      43.239  31.767  29.171  1.00  0.00     0.029 A 
ATOM     55  C   UNL A   1      44.233  30.921  28.704  1.00  0.00     0.049 A 
ATOM     56  H   UNL A   1      44.114  28.866  28.237  1.00  0.00     0.167 HD
ATOM     57  C   UNL A   1      46.550  30.329  28.028  1.00  0.00     0.074 A 
ATOM     58  C   UNL A   1      47.937  30.654  27.759  1.00  0.00     0.031 C 
ATOM     59  C   UNL A   1      45.612  31.230  28.412  1.00  0.00     0.037 A 
BRANCH  46  60
ATOM     60  C   UNL A   1      39.925  28.883  29.060  1.00  0.00     0.064 A 
ATOM     61  C   UNL A   1      39.355  28.723  30.334  1.00  0.00     0.173 A 
ATOM     62  C   UNL A   1      39.079  29.289  28.016  1.00  0.00     0.173 A 
ATOM     63  F   UNL A   1      40.113  28.332  31.369  1.00  0.00    -0.203 F 
ATOM     64  C   UNL A   1      37.989  28.906  30.539  1.00  0.00     0.198 A 
ATOM     65  C   UNL A   1      37.721  29.510  28.234  1.00  0.00     0.198 A 
ATOM     66  F   UNL A   1      39.568  29.468  26.779  1.00  0.00    -0.203 F 
ATOM     67  F   UNL A   1      37.458  28.671  31.747  1.00  0.00    -0.200 F 
ATOM     68  C   UNL A   1      37.174  29.302  29.490  1.00  0.00     0.200 A 
ATOM     69  F   UNL A   1      36.938  29.911  27.222  1.00  0.00    -0.200 F 
ATOM     70  F   UNL A   1      35.860  29.476  29.689  1.00  0.00    -0.200 F 
ENDBRANCH  46  60
BRANCH  47  71
ATOM     71  C   UNL A   1      49.397  26.854  26.585  1.00  0.00     0.064 A 
ATOM     72  C   UNL A   1      50.381  26.397  27.471  1.00  0.00     0.173 A 
ATOM     73  C   UNL A   1      49.743  26.970  25.229  1.00  0.00     0.173 A 
ATOM     74  F   UNL A   1      50.104  26.284  28.778  1.00  0.00    -0.203 F 
ATOM     75  C   UNL A   1      51.659  26.070  27.021  1.00  0.00     0.198 A 
ATOM     76  C   UNL A   1      51.012  26.615  24.776  1.00  0.00     0.198 A 
ATOM     77  F   UNL A   1      48.834  27.392  24.337  1.00  0.00    -0.203 F 
ATOM     78  F   UNL A   1      52.589  25.657  27.894  1.00  0.00    -0.200 F 
ATOM     79  C   UNL A   1      51.970  26.169  25.673  1.00  0.00     0.200 A 
ATOM     80  F   UNL A   1      51.300  26.687  23.469  1.00  0.00    -0.200 F 
ATOM     81  F   UNL A   1      53.191  25.830  25.238  1.00  0.00    -0.200 F 
ENDBRANCH  47  71
BRANCH  59  82
ATOM     82  C   UNL A   1      46.049  32.659  28.559  1.00  0.00     0.064 A 
ATOM     83  C   UNL A   1      45.934  33.571  27.500  1.00  0.00     0.173 A 
ATOM     84  C   UNL A   1      46.526  33.137  29.789  1.00  0.00     0.173 A 
ATOM     85  F   UNL A   1      45.500  33.161  26.298  1.00  0.00    -0.203 F 
ATOM     86  C   UNL A   1      46.293  34.906  27.663  1.00  0.00     0.198 A 
ATOM     87  C   UNL A   1      46.853  34.478  29.958  1.00  0.00     0.198 A 
ATOM     88  F   UNL A   1      46.651  32.306  30.835  1.00  0.00    -0.203 F 
ATOM     89  F   UNL A   1      46.212  35.752  26.626  1.00  0.00    -0.200 F 
ATOM     90  C   UNL A   1      46.740  35.362  28.894  1.00  0.00     0.200 A 
ATOM     91  F   UNL A   1      47.270  34.919  31.153  1.00  0.00    -0.200 F 
ATOM     92  F   UNL A   1      47.069  36.651  29.055  1.00  0.00    -0.200 F 
ENDBRANCH  59  82
ENDBRANCH  33  34
ENDBRANCH  25  28
ENDBRANCH  23  24
ENDBRANCH  22  23
ENDBRANCH   1  22
TORSDOF 13
ENDMDL
