MODEL 1
REMARK VINA RESULT:     -11.6      0.000      0.000
REMARK SMILES CC(C)[NH2+]CC[C@H](c1ccccc1)c1cc(C(=O)NCCCNC(=O)c2ccc(-c3c4nc(c(-c5c(F)c(F)c(F)c(F)c5F)c5ccc([nH]5)c(-c5c(F)c(F)c(F)c(F)c5F)c5nc(c(-c6c(F)c(F)c(F)c(F)c6F)c6ccc3[nH]6)C=C5)C=C4)cc2)ccc1O
REMARK SMILES IDX 17 1 18 2 19 3 16 5 14 6 15 7 91 8 90 9 89 10 7 11 6 12 5 13
REMARK SMILES IDX 4 14 2 17 1 18 3 19 8 20 9 21 13 22 10 23 12 24 11 25 92 26
REMARK SMILES IDX 20 28 21 29 22 30 23 31 24 32 25 34 26 35 27 36 88 37 28 38
REMARK SMILES IDX 87 39 29 40 30 41 31 42 81 43 32 44 86 45 80 46 82 47 33 48
REMARK SMILES IDX 85 49 79 50 78 51 34 53 66 54 46 55 65 56 47 57 50 58 64 59
REMARK SMILES IDX 83 60 48 61 49 62 63 64 84 65 51 66 35 67 36 68 44 69 37 70
REMARK SMILES IDX 38 71 42 72 45 73 39 74 40 75 43 76 41 77 67 78 68 79 76 80
REMARK SMILES IDX 69 81 70 82 74 83 77 84 71 85 72 86 75 87 73 88 52 89 53 90
REMARK SMILES IDX 61 91 54 92 55 93 59 94 62 95 56 96 57 97 60 98 58 99
REMARK H PARENT 19 4 4 15 4 16 92 27 23 33 82 52 50 63
REMARK Flexibility Score: inf
ROOT
ATOM      1  C   UNL A   1      37.290  23.438  25.803  1.00  0.00     0.251 C 
ATOM      2  O   UNL A   1      37.947  24.417  26.157  1.00  0.00    -0.269 OA
ATOM      3  N   UNL A   1      37.927  22.392  25.192  1.00  0.00    -0.352 N 
ATOM      4  H   UNL A   1      38.909  22.460  25.169  1.00  0.00     0.163 HD
ENDROOT
BRANCH   1   5
ATOM      5  C   UNL A   1      35.826  23.409  26.010  1.00  0.00     0.040 A 
ATOM      6  C   UNL A   1      33.639  24.401  25.472  1.00  0.00     0.002 A 
ATOM      7  C   UNL A   1      35.040  24.351  25.328  1.00  0.00     0.022 A 
ATOM      8  C   UNL A   1      33.087  23.439  26.334  1.00  0.00     0.119 A 
ATOM      9  C   UNL A   1      33.855  22.496  27.020  1.00  0.00     0.047 A 
ATOM     10  C   UNL A   1      35.232  22.513  26.895  1.00  0.00     0.017 A 
BRANCH   6  11
ATOM     11  C   UNL A   1      32.789  25.517  24.827  1.00  0.00     0.059 C 
BRANCH  11  12
ATOM     12  C   UNL A   1      33.128  25.951  23.368  1.00  0.00     0.074 C 
BRANCH  12  13
ATOM     13  C   UNL A   1      32.024  26.417  22.404  1.00  0.00     0.261 C 
BRANCH  13  14
ATOM     14  N   UNL A   1      31.736  27.834  22.295  1.00  0.00    -0.344 N 
ATOM     15  H   UNL A   1      32.498  28.326  22.762  1.00  0.00     0.346 HD
ATOM     16  H   UNL A   1      31.630  27.973  21.290  1.00  0.00     0.346 HD
BRANCH  14  17
ATOM     17  C   UNL A   1      30.498  28.374  22.836  1.00  0.00     0.176 C 
ATOM     18  C   UNL A   1      29.726  27.165  23.388  1.00  0.00     0.075 C 
ATOM     19  C   UNL A   1      30.693  29.396  23.951  1.00  0.00     0.075 C 
ENDBRANCH  14  17
ENDBRANCH  13  14
ENDBRANCH  12  13
ENDBRANCH  11  12
BRANCH  11  20
ATOM     20  C   UNL A   1      32.727  26.802  25.690  1.00  0.00    -0.040 A 
ATOM     21  C   UNL A   1      33.729  27.792  25.616  1.00  0.00     0.004 A 
ATOM     22  C   UNL A   1      31.696  26.973  26.626  1.00  0.00     0.004 A 
ATOM     23  C   UNL A   1      33.730  28.883  26.486  1.00  0.00     0.000 A 
ATOM     24  C   UNL A   1      31.686  28.080  27.480  1.00  0.00     0.000 A 
ATOM     25  C   UNL A   1      32.710  29.025  27.421  1.00  0.00     0.000 A 
ENDBRANCH  11  20
ENDBRANCH   6  11
BRANCH   8  26
ATOM     26  O   UNL A   1      31.763  23.437  26.634  1.00  0.00    -0.508 OA
ATOM     27  H   UNL A   1      31.389  24.156  27.103  1.00  0.00     0.293 HD
ENDBRANCH   8  26
ENDBRANCH   1   5
BRANCH   3  28
ATOM     28  C   UNL A   1      37.380  21.199  24.572  1.00  0.00     0.118 C 
BRANCH  28  29
ATOM     29  C   UNL A   1      38.167  19.947  24.904  1.00  0.00     0.042 C 
BRANCH  29  30
ATOM     30  C   UNL A   1      39.141  20.117  26.055  1.00  0.00     0.118 C 
BRANCH  30  31
ATOM     31  N   UNL A   1      40.276  19.205  25.978  1.00  0.00    -0.352 N 
ATOM     32  C   UNL A   1      41.625  19.447  26.028  1.00  0.00     0.251 C 
ATOM     33  H   UNL A   1      40.034  18.257  25.871  1.00  0.00     0.163 HD
ATOM     34  O   UNL A   1      42.415  18.549  25.733  1.00  0.00    -0.269 OA
BRANCH  32  35
ATOM     35  C   UNL A   1      42.140  20.780  26.403  1.00  0.00     0.039 A 
ATOM     36  C   UNL A   1      42.375  21.726  25.400  1.00  0.00     0.014 A 
ATOM     37  C   UNL A   1      42.401  21.104  27.734  1.00  0.00     0.014 A 
ATOM     38  C   UNL A   1      42.795  23.011  25.746  1.00  0.00     0.010 A 
ATOM     39  C   UNL A   1      42.691  22.415  28.087  1.00  0.00     0.010 A 
ATOM     40  C   UNL A   1      42.911  23.381  27.097  1.00  0.00    -0.014 A 
BRANCH  40  41
ATOM     41  C   UNL A   1      43.278  24.764  27.492  1.00  0.00     0.031 A 
ATOM     42  C   UNL A   1      44.725  25.179  27.533  1.00  0.00     0.074 A 
ATOM     43  C   UNL A   1      42.315  25.624  27.874  1.00  0.00     0.049 A 
ATOM     44  N   UNL A   1      45.249  26.322  27.899  1.00  0.00    -0.248 NA
ATOM     45  C   UNL A   1      45.720  24.165  27.148  1.00  0.00     0.031 C 
ATOM     46  C   UNL A   1      40.885  25.317  27.945  1.00  0.00     0.029 A 
ATOM     47  N   UNL A   1      42.393  26.932  28.281  1.00  0.00    -0.354 N 
ATOM     48  C   UNL A   1      46.625  26.155  27.803  1.00  0.00     0.074 A 
ATOM     49  C   UNL A   1      46.859  24.783  27.415  1.00  0.00     0.031 C 
ATOM     50  C   UNL A   1      40.217  26.416  28.329  1.00  0.00     0.029 A 
ATOM     51  C   UNL A   1      41.173  27.491  28.573  1.00  0.00     0.049 A 
ATOM     52  H   UNL A   1      43.243  27.423  28.356  1.00  0.00     0.167 HD
ATOM     53  C   UNL A   1      47.603  27.072  27.988  1.00  0.00     0.037 A 
ATOM     54  C   UNL A   1      40.862  28.732  28.991  1.00  0.00     0.037 A 
ATOM     55  C   UNL A   1      47.361  28.446  28.343  1.00  0.00     0.049 A 
ATOM     56  C   UNL A   1      41.967  29.736  29.179  1.00  0.00     0.074 A 
ATOM     57  C   UNL A   1      48.275  29.474  28.489  1.00  0.00     0.029 A 
ATOM     58  N   UNL A   1      46.110  28.982  28.610  1.00  0.00    -0.354 N 
ATOM     59  N   UNL A   1      43.258  29.589  29.006  1.00  0.00    -0.248 NA
ATOM     60  C   UNL A   1      41.569  31.082  29.612  1.00  0.00     0.031 C 
ATOM     61  C   UNL A   1      47.583  30.618  28.896  1.00  0.00     0.029 A 
ATOM     62  C   UNL A   1      46.230  30.321  28.945  1.00  0.00     0.049 A 
ATOM     63  H   UNL A   1      45.261  28.484  28.568  1.00  0.00     0.167 HD
ATOM     64  C   UNL A   1      43.824  30.826  29.282  1.00  0.00     0.074 A 
ATOM     65  C   UNL A   1      42.731  31.719  29.611  1.00  0.00     0.031 C 
ATOM     66  C   UNL A   1      45.130  31.193  29.269  1.00  0.00     0.037 A 
BRANCH  53  67
ATOM     67  C   UNL A   1      49.024  26.621  27.799  1.00  0.00     0.064 A 
ATOM     68  C   UNL A   1      49.596  26.493  26.523  1.00  0.00     0.173 A 
ATOM     69  C   UNL A   1      49.836  26.338  28.909  1.00  0.00     0.173 A 
ATOM     70  F   UNL A   1      48.861  26.737  25.427  1.00  0.00    -0.203 F 
ATOM     71  C   UNL A   1      50.911  26.067  26.364  1.00  0.00     0.198 A 
ATOM     72  C   UNL A   1      51.162  25.947  28.748  1.00  0.00     0.198 A 
ATOM     73  F   UNL A   1      49.344  26.447  30.152  1.00  0.00    -0.203 F 
ATOM     74  F   UNL A   1      51.415  25.898  25.134  1.00  0.00    -0.200 F 
ATOM     75  C   UNL A   1      51.696  25.803  27.476  1.00  0.00     0.200 A 
ATOM     76  F   UNL A   1      51.924  25.704  29.824  1.00  0.00    -0.200 F 
ATOM     77  F   UNL A   1      52.966  25.401  27.322  1.00  0.00    -0.200 F 
ENDBRANCH  53  67
BRANCH  54  78
ATOM     78  C   UNL A   1      39.442  29.105  29.227  1.00  0.00     0.064 A 
ATOM     79  C   UNL A   1      38.885  29.046  30.513  1.00  0.00     0.173 A 
ATOM     80  C   UNL A   1      38.610  29.523  28.177  1.00  0.00     0.173 A 
ATOM     81  F   UNL A   1      39.634  28.635  31.547  1.00  0.00    -0.203 F 
ATOM     82  C   UNL A   1      37.547  29.365  30.735  1.00  0.00     0.198 A 
ATOM     83  C   UNL A   1      37.281  29.873  28.406  1.00  0.00     0.198 A 
ATOM     84  F   UNL A   1      39.095  29.607  26.929  1.00  0.00    -0.203 F 
ATOM     85  F   UNL A   1      37.030  29.249  31.966  1.00  0.00    -0.200 F 
ATOM     86  C   UNL A   1      36.748  29.784  29.683  1.00  0.00     0.200 A 
ATOM     87  F   UNL A   1      36.518  30.295  27.389  1.00  0.00    -0.200 F 
ATOM     88  F   UNL A   1      35.463  30.095  29.898  1.00  0.00    -0.200 F 
ENDBRANCH  54  78
BRANCH  66  89
ATOM     89  C   UNL A   1      45.441  32.626  29.591  1.00  0.00     0.064 A 
ATOM     90  C   UNL A   1      45.458  33.618  28.599  1.00  0.00     0.173 A 
ATOM     91  C   UNL A   1      45.702  33.016  30.914  1.00  0.00     0.173 A 
ATOM     92  F   UNL A   1      45.228  33.295  27.317  1.00  0.00    -0.203 F 
ATOM     93  C   UNL A   1      45.765  34.939  28.913  1.00  0.00     0.198 A 
ATOM     94  C   UNL A   1      45.973  34.344  31.229  1.00  0.00     0.198 A 
ATOM     95  F   UNL A   1      45.688  32.109  31.903  1.00  0.00    -0.203 F 
ATOM     96  F   UNL A   1      45.838  35.857  27.939  1.00  0.00    -0.200 F 
ATOM     97  C   UNL A   1      46.015  35.302  30.228  1.00  0.00     0.200 A 
ATOM     98  F   UNL A   1      46.197  34.695  32.503  1.00  0.00    -0.200 F 
ATOM     99  F   UNL A   1      46.308  36.575  30.529  1.00  0.00    -0.200 F 
ENDBRANCH  66  89
ENDBRANCH  40  41
ENDBRANCH  32  35
ENDBRANCH  30  31
ENDBRANCH  29  30
ENDBRANCH  28  29
ENDBRANCH   3  28
TORSDOF 17
ENDMDL
MODEL 2
REMARK VINA RESULT:     -11.6      5.072     10.414
REMARK SMILES CC(C)[NH2+]CC[C@H](c1ccccc1)c1cc(C(=O)NCCCNC(=O)c2ccc(-c3c4nc(c(-c5c(F)c(F)c(F)c(F)c5F)c5ccc([nH]5)c(-c5c(F)c(F)c(F)c(F)c5F)c5nc(c(-c6c(F)c(F)c(F)c(F)c6F)c6ccc3[nH]6)C=C5)C=C4)cc2)ccc1O
REMARK SMILES IDX 17 1 18 2 19 3 16 5 14 6 15 7 91 8 90 9 89 10 7 11 6 12 5 13
REMARK SMILES IDX 4 14 2 17 1 18 3 19 8 20 9 21 13 22 10 23 12 24 11 25 92 26
REMARK SMILES IDX 20 28 21 29 22 30 23 31 24 32 25 34 26 35 27 36 88 37 28 38
REMARK SMILES IDX 87 39 29 40 30 41 31 42 81 43 32 44 86 45 80 46 82 47 33 48
REMARK SMILES IDX 85 49 79 50 78 51 34 53 66 54 46 55 65 56 47 57 50 58 64 59
REMARK SMILES IDX 83 60 48 61 49 62 63 64 84 65 51 66 35 67 36 68 44 69 37 70
REMARK SMILES IDX 38 71 42 72 45 73 39 74 40 75 43 76 41 77 67 78 68 79 76 80
REMARK SMILES IDX 69 81 70 82 74 83 77 84 71 85 72 86 75 87 73 88 52 89 53 90
REMARK SMILES IDX 61 91 54 92 55 93 59 94 62 95 56 96 57 97 60 98 58 99
REMARK H PARENT 19 4 4 15 4 16 92 27 23 33 82 52 50 63
REMARK Flexibility Score: inf
ROOT
ATOM      1  C   UNL A   1      34.052  29.192  26.704  1.00  0.00     0.251 C 
ATOM      2  O   UNL A   1      35.086  28.969  27.331  1.00  0.00    -0.269 OA
ATOM      3  N   UNL A   1      33.151  30.094  27.201  1.00  0.00    -0.352 N 
ATOM      4  H   UNL A   1      33.453  30.587  27.998  1.00  0.00     0.163 HD
ENDROOT
BRANCH   1   5
ATOM      5  C   UNL A   1      33.773  28.469  25.444  1.00  0.00     0.040 A 
ATOM      6  C   UNL A   1      33.274  26.317  24.358  1.00  0.00     0.002 A 
ATOM      7  C   UNL A   1      33.539  27.086  25.509  1.00  0.00     0.022 A 
ATOM      8  C   UNL A   1      33.251  27.031  23.149  1.00  0.00     0.119 A 
ATOM      9  C   UNL A   1      33.484  28.405  23.067  1.00  0.00     0.047 A 
ATOM     10  C   UNL A   1      33.793  29.116  24.212  1.00  0.00     0.017 A 
BRANCH   6  11
ATOM     11  C   UNL A   1      33.147  24.779  24.413  1.00  0.00     0.059 C 
BRANCH  11  12
ATOM     12  C   UNL A   1      32.241  24.154  25.518  1.00  0.00     0.074 C 
BRANCH  12  13
ATOM     13  C   UNL A   1      31.460  22.855  25.260  1.00  0.00     0.261 C 
BRANCH  13  14
ATOM     14  N   UNL A   1      31.906  21.627  25.892  1.00  0.00    -0.344 N 
ATOM     15  H   UNL A   1      32.551  21.897  26.636  1.00  0.00     0.346 HD
ATOM     16  H   UNL A   1      31.033  21.176  26.164  1.00  0.00     0.346 HD
BRANCH  14  17
ATOM     17  C   UNL A   1      32.579  20.602  25.109  1.00  0.00     0.176 C 
ATOM     18  C   UNL A   1      32.357  20.992  23.639  1.00  0.00     0.075 C 
ATOM     19  C   UNL A   1      34.076  20.489  25.377  1.00  0.00     0.075 C 
ENDBRANCH  14  17
ENDBRANCH  13  14
ENDBRANCH  12  13
ENDBRANCH  11  12
BRANCH  11  20
ATOM     20  C   UNL A   1      34.519  24.064  24.478  1.00  0.00    -0.040 A 
ATOM     21  C   UNL A   1      35.289  24.045  25.660  1.00  0.00     0.004 A 
ATOM     22  C   UNL A   1      35.061  23.472  23.326  1.00  0.00     0.004 A 
ATOM     23  C   UNL A   1      36.576  23.507  25.673  1.00  0.00     0.000 A 
ATOM     24  C   UNL A   1      36.341  22.913  23.349  1.00  0.00     0.000 A 
ATOM     25  C   UNL A   1      37.104  22.944  24.516  1.00  0.00     0.000 A 
ENDBRANCH  11  20
ENDBRANCH   6  11
BRANCH   8  26
ATOM     26  O   UNL A   1      33.101  26.397  21.958  1.00  0.00    -0.508 OA
ATOM     27  H   UNL A   1      33.752  25.789  21.667  1.00  0.00     0.293 HD
ENDBRANCH   8  26
ENDBRANCH   1   5
BRANCH   3  28
ATOM     28  C   UNL A   1      31.819  30.438  26.736  1.00  0.00     0.118 C 
BRANCH  28  29
ATOM     29  C   UNL A   1      31.506  31.914  26.878  1.00  0.00     0.042 C 
BRANCH  29  30
ATOM     30  C   UNL A   1      32.733  32.807  26.894  1.00  0.00     0.118 C 
BRANCH  30  31
ATOM     31  N   UNL A   1      32.474  34.119  27.473  1.00  0.00    -0.352 N 
ATOM     32  C   UNL A   1      33.006  34.733  28.578  1.00  0.00     0.251 C 
ATOM     33  H   UNL A   1      31.804  34.655  26.990  1.00  0.00     0.163 HD
ATOM     34  O   UNL A   1      32.489  35.765  29.008  1.00  0.00    -0.269 OA
BRANCH  32  35
ATOM     35  C   UNL A   1      34.172  34.153  29.275  1.00  0.00     0.039 A 
ATOM     36  C   UNL A   1      33.962  33.225  30.299  1.00  0.00     0.014 A 
ATOM     37  C   UNL A   1      35.473  34.523  28.934  1.00  0.00     0.014 A 
ATOM     38  C   UNL A   1      35.055  32.618  30.919  1.00  0.00     0.010 A 
ATOM     39  C   UNL A   1      36.554  33.826  29.457  1.00  0.00     0.010 A 
ATOM     40  C   UNL A   1      36.361  32.879  30.470  1.00  0.00    -0.014 A 
BRANCH  40  41
ATOM     41  C   UNL A   1      37.534  32.186  31.058  1.00  0.00     0.031 A 
ATOM     42  C   UNL A   1      38.031  32.572  32.426  1.00  0.00     0.074 A 
ATOM     43  C   UNL A   1      38.189  31.257  30.335  1.00  0.00     0.049 A 
ATOM     44  N   UNL A   1      39.068  32.121  33.088  1.00  0.00    -0.248 NA
ATOM     45  C   UNL A   1      37.290  33.630  33.130  1.00  0.00     0.031 C 
ATOM     46  C   UNL A   1      37.847  30.849  28.972  1.00  0.00     0.029 A 
ATOM     47  N   UNL A   1      39.284  30.490  30.645  1.00  0.00    -0.354 N 
ATOM     48  C   UNL A   1      39.107  32.850  34.270  1.00  0.00     0.074 A 
ATOM     49  C   UNL A   1      38.039  33.821  34.205  1.00  0.00     0.031 C 
ATOM     50  C   UNL A   1      38.687  29.879  28.578  1.00  0.00     0.029 A 
ATOM     51  C   UNL A   1      39.653  29.627  29.643  1.00  0.00     0.049 A 
ATOM     52  H   UNL A   1      39.760  30.553  31.505  1.00  0.00     0.167 HD
ATOM     53  C   UNL A   1      39.938  32.702  35.329  1.00  0.00     0.037 A 
ATOM     54  C   UNL A   1      40.658  28.733  29.590  1.00  0.00     0.037 A 
ATOM     55  C   UNL A   1      40.979  31.711  35.401  1.00  0.00     0.049 A 
ATOM     56  C   UNL A   1      41.560  28.580  30.783  1.00  0.00     0.074 A 
ATOM     57  C   UNL A   1      41.833  31.431  36.453  1.00  0.00     0.029 A 
ATOM     58  N   UNL A   1      41.310  30.839  34.374  1.00  0.00    -0.354 N 
ATOM     59  N   UNL A   1      41.537  29.220  31.928  1.00  0.00    -0.248 NA
ATOM     60  C   UNL A   1      42.625  27.572  30.681  1.00  0.00     0.031 C 
ATOM     61  C   UNL A   1      42.714  30.425  36.043  1.00  0.00     0.029 A 
ATOM     62  C   UNL A   1      42.372  30.036  34.758  1.00  0.00     0.049 A 
ATOM     63  H   UNL A   1      40.856  30.797  33.500  1.00  0.00     0.167 HD
ATOM     64  C   UNL A   1      42.562  28.676  32.690  1.00  0.00     0.074 A 
ATOM     65  C   UNL A   1      43.172  27.638  31.886  1.00  0.00     0.031 C 
ATOM     66  C   UNL A   1      42.966  29.008  33.942  1.00  0.00     0.037 A 
BRANCH  53  67
ATOM     67  C   UNL A   1      39.745  33.625  36.499  1.00  0.00     0.064 A 
ATOM     68  C   UNL A   1      38.929  33.278  37.588  1.00  0.00     0.173 A 
ATOM     69  C   UNL A   1      40.406  34.862  36.547  1.00  0.00     0.173 A 
ATOM     70  F   UNL A   1      38.263  32.114  37.588  1.00  0.00    -0.203 F 
ATOM     71  C   UNL A   1      38.755  34.147  38.661  1.00  0.00     0.198 A 
ATOM     72  C   UNL A   1      40.259  35.713  37.639  1.00  0.00     0.198 A 
ATOM     73  F   UNL A   1      41.202  35.244  35.536  1.00  0.00    -0.203 F 
ATOM     74  F   UNL A   1      37.926  33.817  39.661  1.00  0.00    -0.200 F 
ATOM     75  C   UNL A   1      39.427  35.360  38.690  1.00  0.00     0.200 A 
ATOM     76  F   UNL A   1      40.918  36.880  37.671  1.00  0.00    -0.200 F 
ATOM     77  F   UNL A   1      39.265  36.192  39.729  1.00  0.00    -0.200 F 
ENDBRANCH  53  67
BRANCH  54  78
ATOM     78  C   UNL A   1      40.842  27.891  28.378  1.00  0.00     0.064 A 
ATOM     79  C   UNL A   1      41.650  28.324  27.316  1.00  0.00     0.173 A 
ATOM     80  C   UNL A   1      40.216  26.642  28.252  1.00  0.00     0.173 A 
ATOM     81  F   UNL A   1      42.256  29.519  27.380  1.00  0.00    -0.203 F 
ATOM     82  C   UNL A   1      41.802  27.553  26.165  1.00  0.00     0.198 A 
ATOM     83  C   UNL A   1      40.396  25.858  27.115  1.00  0.00     0.198 A 
ATOM     84  F   UNL A   1      39.441  26.177  29.243  1.00  0.00    -0.203 F 
ATOM     85  F   UNL A   1      42.539  28.015  25.146  1.00  0.00    -0.200 F 
ATOM     86  C   UNL A   1      41.180  26.318  26.068  1.00  0.00     0.200 A 
ATOM     87  F   UNL A   1      39.808  24.657  27.033  1.00  0.00    -0.200 F 
ATOM     88  F   UNL A   1      41.331  25.575  24.964  1.00  0.00    -0.200 F 
ENDBRANCH  54  78
BRANCH  66  89
ATOM     89  C   UNL A   1      44.102  28.217  34.525  1.00  0.00     0.064 A 
ATOM     90  C   UNL A   1      45.433  28.644  34.409  1.00  0.00     0.173 A 
ATOM     91  C   UNL A   1      43.851  27.029  35.229  1.00  0.00     0.173 A 
ATOM     92  F   UNL A   1      45.727  29.766  33.735  1.00  0.00    -0.203 F 
ATOM     93  C   UNL A   1      46.475  27.889  34.941  1.00  0.00     0.198 A 
ATOM     94  C   UNL A   1      44.893  26.296  35.791  1.00  0.00     0.198 A 
ATOM     95  F   UNL A   1      42.595  26.581  35.377  1.00  0.00    -0.203 F 
ATOM     96  F   UNL A   1      47.744  28.284  34.764  1.00  0.00    -0.200 F 
ATOM     97  C   UNL A   1      46.203  26.721  35.638  1.00  0.00     0.200 A 
ATOM     98  F   UNL A   1      44.627  25.177  36.477  1.00  0.00    -0.200 F 
ATOM     99  F   UNL A   1      47.208  25.997  36.151  1.00  0.00    -0.200 F 
ENDBRANCH  66  89
ENDBRANCH  40  41
ENDBRANCH  32  35
ENDBRANCH  30  31
ENDBRANCH  29  30
ENDBRANCH  28  29
ENDBRANCH   3  28
TORSDOF 17
ENDMDL
MODEL 3
REMARK VINA RESULT:     -11.6      5.269      9.758
REMARK SMILES CC(C)[NH2+]CC[C@H](c1ccccc1)c1cc(C(=O)NCCCNC(=O)c2ccc(-c3c4nc(c(-c5c(F)c(F)c(F)c(F)c5F)c5ccc([nH]5)c(-c5c(F)c(F)c(F)c(F)c5F)c5nc(c(-c6c(F)c(F)c(F)c(F)c6F)c6ccc3[nH]6)C=C5)C=C4)cc2)ccc1O
REMARK SMILES IDX 17 1 18 2 19 3 16 5 14 6 15 7 91 8 90 9 89 10 7 11 6 12 5 13
REMARK SMILES IDX 4 14 2 17 1 18 3 19 8 20 9 21 13 22 10 23 12 24 11 25 92 26
REMARK SMILES IDX 20 28 21 29 22 30 23 31 24 32 25 34 26 35 27 36 88 37 28 38
REMARK SMILES IDX 87 39 29 40 30 41 31 42 81 43 32 44 86 45 80 46 82 47 33 48
REMARK SMILES IDX 85 49 79 50 78 51 34 53 66 54 46 55 65 56 47 57 50 58 64 59
REMARK SMILES IDX 83 60 48 61 49 62 63 64 84 65 51 66 35 67 36 68 44 69 37 70
REMARK SMILES IDX 38 71 42 72 45 73 39 74 40 75 43 76 41 77 67 78 68 79 76 80
REMARK SMILES IDX 69 81 70 82 74 83 77 84 71 85 72 86 75 87 73 88 52 89 53 90
REMARK SMILES IDX 61 91 54 92 55 93 59 94 62 95 56 96 57 97 60 98 58 99
REMARK H PARENT 19 4 4 15 4 16 92 27 23 33 82 52 50 63
REMARK Flexibility Score: inf
ROOT
ATOM      1  C   UNL A   1      33.848  29.225  26.993  1.00  0.00     0.251 C 
ATOM      2  O   UNL A   1      34.799  28.965  27.728  1.00  0.00    -0.269 OA
ATOM      3  N   UNL A   1      32.987  30.229  27.346  1.00  0.00    -0.352 N 
ATOM      4  H   UNL A   1      33.258  30.750  28.136  1.00  0.00     0.163 HD
ENDROOT
BRANCH   1   5
ATOM      5  C   UNL A   1      33.622  28.442  25.759  1.00  0.00     0.040 A 
ATOM      6  C   UNL A   1      33.266  26.225  24.750  1.00  0.00     0.002 A 
ATOM      7  C   UNL A   1      33.476  27.050  25.873  1.00  0.00     0.022 A 
ATOM      8  C   UNL A   1      33.204  26.892  23.516  1.00  0.00     0.119 A 
ATOM      9  C   UNL A   1      33.350  28.275  23.385  1.00  0.00     0.047 A 
ATOM     10  C   UNL A   1      33.608  29.044  24.504  1.00  0.00     0.017 A 
BRANCH   6  11
ATOM     11  C   UNL A   1      33.235  24.685  24.861  1.00  0.00     0.059 C 
BRANCH  11  12
ATOM     12  C   UNL A   1      32.556  24.049  26.112  1.00  0.00     0.074 C 
BRANCH  12  13
ATOM     13  C   UNL A   1      32.772  22.568  26.463  1.00  0.00     0.261 C 
BRANCH  13  14
ATOM     14  N   UNL A   1      32.069  21.553  25.700  1.00  0.00    -0.344 N 
ATOM     15  H   UNL A   1      31.271  21.261  26.264  1.00  0.00     0.346 HD
ATOM     16  H   UNL A   1      31.875  22.022  24.815  1.00  0.00     0.346 HD
BRANCH  14  17
ATOM     17  C   UNL A   1      32.756  20.339  25.287  1.00  0.00     0.176 C 
ATOM     18  C   UNL A   1      32.396  20.143  23.806  1.00  0.00     0.075 C 
ATOM     19  C   UNL A   1      34.273  20.396  25.432  1.00  0.00     0.075 C 
ENDBRANCH  14  17
ENDBRANCH  13  14
ENDBRANCH  12  13
ENDBRANCH  11  12
BRANCH  11  20
ATOM     20  C   UNL A   1      34.638  24.044  24.718  1.00  0.00    -0.040 A 
ATOM     21  C   UNL A   1      35.621  24.184  25.720  1.00  0.00     0.004 A 
ATOM     22  C   UNL A   1      34.985  23.361  23.542  1.00  0.00     0.004 A 
ATOM     23  C   UNL A   1      36.920  23.710  25.527  1.00  0.00     0.000 A 
ATOM     24  C   UNL A   1      36.280  22.866  23.362  1.00  0.00     0.000 A 
ATOM     25  C   UNL A   1      37.249  23.054  24.346  1.00  0.00     0.000 A 
ENDBRANCH  11  20
ENDBRANCH   6  11
BRANCH   8  26
ATOM     26  O   UNL A   1      33.101  26.207  22.349  1.00  0.00    -0.508 OA
ATOM     27  H   UNL A   1      33.401  25.321  22.298  1.00  0.00     0.293 HD
ENDBRANCH   8  26
ENDBRANCH   1   5
BRANCH   3  28
ATOM     28  C   UNL A   1      31.736  30.645  26.736  1.00  0.00     0.118 C 
BRANCH  28  29
ATOM     29  C   UNL A   1      31.499  32.139  26.835  1.00  0.00     0.042 C 
BRANCH  29  30
ATOM     30  C   UNL A   1      32.756  32.948  27.093  1.00  0.00     0.118 C 
BRANCH  30  31
ATOM     31  N   UNL A   1      32.475  34.290  27.590  1.00  0.00    -0.352 N 
ATOM     32  C   UNL A   1      32.980  34.970  28.667  1.00  0.00     0.251 C 
ATOM     33  H   UNL A   1      31.812  34.791  27.063  1.00  0.00     0.163 HD
ATOM     34  O   UNL A   1      32.447  36.022  29.027  1.00  0.00    -0.269 OA
BRANCH  32  35
ATOM     35  C   UNL A   1      34.136  34.442  29.421  1.00  0.00     0.039 A 
ATOM     36  C   UNL A   1      33.915  33.782  30.633  1.00  0.00     0.014 A 
ATOM     37  C   UNL A   1      35.438  34.598  28.946  1.00  0.00     0.014 A 
ATOM     38  C   UNL A   1      34.990  33.217  31.320  1.00  0.00     0.010 A 
ATOM     39  C   UNL A   1      36.487  33.926  29.559  1.00  0.00     0.010 A 
ATOM     40  C   UNL A   1      36.281  33.244  30.764  1.00  0.00    -0.014 A 
BRANCH  40  41
ATOM     41  C   UNL A   1      37.426  32.581  31.436  1.00  0.00     0.031 A 
ATOM     42  C   UNL A   1      38.109  31.409  30.783  1.00  0.00     0.074 A 
ATOM     43  C   UNL A   1      37.809  32.993  32.660  1.00  0.00     0.049 A 
ATOM     44  N   UNL A   1      39.091  30.667  31.232  1.00  0.00    -0.248 NA
ATOM     45  C   UNL A   1      37.600  30.988  29.468  1.00  0.00     0.031 C 
ATOM     46  C   UNL A   1      37.180  34.071  33.425  1.00  0.00     0.029 A 
ATOM     47  N   UNL A   1      38.817  32.551  33.479  1.00  0.00    -0.354 N 
ATOM     48  C   UNL A   1      39.300  29.691  30.265  1.00  0.00     0.074 A 
ATOM     49  C   UNL A   1      38.299  29.888  29.241  1.00  0.00     0.031 C 
ATOM     50  C   UNL A   1      37.840  34.234  34.582  1.00  0.00     0.029 A 
ATOM     51  C   UNL A   1      38.911  33.245  34.660  1.00  0.00     0.049 A 
ATOM     52  H   UNL A   1      39.416  31.806  33.242  1.00  0.00     0.167 HD
ATOM     53  C   UNL A   1      40.260  28.738  30.218  1.00  0.00     0.037 A 
ATOM     54  C   UNL A   1      39.766  33.100  35.690  1.00  0.00     0.037 A 
ATOM     55  C   UNL A   1      41.273  28.567  31.226  1.00  0.00     0.049 A 
ATOM     56  C   UNL A   1      40.831  32.040  35.609  1.00  0.00     0.074 A 
ATOM     57  C   UNL A   1      42.332  27.677  31.243  1.00  0.00     0.029 A 
ATOM     58  N   UNL A   1      41.350  29.304  32.399  1.00  0.00    -0.354 N 
ATOM     59  N   UNL A   1      41.068  31.175  34.651  1.00  0.00    -0.248 NA
ATOM     60  C   UNL A   1      41.752  31.941  36.749  1.00  0.00     0.031 C 
ATOM     61  C   UNL A   1      43.019  27.840  32.451  1.00  0.00     0.029 A 
ATOM     62  C   UNL A   1      42.424  28.871  33.160  1.00  0.00     0.049 A 
ATOM     63  H   UNL A   1      40.732  30.027  32.654  1.00  0.00     0.167 HD
ATOM     64  C   UNL A   1      42.179  30.450  35.059  1.00  0.00     0.074 A 
ATOM     65  C   UNL A   1      42.582  30.992  36.341  1.00  0.00     0.031 C 
ATOM     66  C   UNL A   1      42.809  29.425  34.434  1.00  0.00     0.037 A 
BRANCH  53  67
ATOM     67  C   UNL A   1      40.265  27.813  29.033  1.00  0.00     0.064 A 
ATOM     68  C   UNL A   1      41.022  28.090  27.883  1.00  0.00     0.173 A 
ATOM     69  C   UNL A   1      39.526  26.621  29.057  1.00  0.00     0.173 A 
ATOM     70  F   UNL A   1      41.736  29.223  27.802  1.00  0.00    -0.203 F 
ATOM     71  C   UNL A   1      41.011  27.228  26.791  1.00  0.00     0.198 A 
ATOM     72  C   UNL A   1      39.546  25.743  27.976  1.00  0.00     0.198 A 
ATOM     73  F   UNL A   1      38.787  26.303  30.130  1.00  0.00    -0.203 F 
ATOM     74  F   UNL A   1      41.697  27.543  25.683  1.00  0.00    -0.200 F 
ATOM     75  C   UNL A   1      40.280  26.051  26.841  1.00  0.00     0.200 A 
ATOM     76  F   UNL A   1      38.849  24.599  28.031  1.00  0.00    -0.200 F 
ATOM     77  F   UNL A   1      40.278  25.217  25.792  1.00  0.00    -0.200 F 
ENDBRANCH  53  67
BRANCH  54  78
ATOM     78  C   UNL A   1      39.672  34.001  36.869  1.00  0.00     0.064 A 
ATOM     79  C   UNL A   1      38.921  33.636  37.996  1.00  0.00     0.173 A 
ATOM     80  C   UNL A   1      40.325  35.243  36.895  1.00  0.00     0.173 A 
ATOM     81  F   UNL A   1      38.263  32.468  38.013  1.00  0.00    -0.203 F 
ATOM     82  C   UNL A   1      38.804  34.490  39.092  1.00  0.00     0.198 A 
ATOM     83  C   UNL A   1      40.234  36.080  38.005  1.00  0.00     0.198 A 
ATOM     84  F   UNL A   1      41.064  35.634  35.848  1.00  0.00    -0.203 F 
ATOM     85  F   UNL A   1      38.038  34.137  40.133  1.00  0.00    -0.200 F 
ATOM     86  C   UNL A   1      39.466  35.708  39.098  1.00  0.00     0.200 A 
ATOM     87  F   UNL A   1      40.890  37.249  38.014  1.00  0.00    -0.200 F 
ATOM     88  F   UNL A   1      39.358  36.526  40.153  1.00  0.00    -0.200 F 
ENDBRANCH  54  78
BRANCH  66  89
ATOM     89  C   UNL A   1      44.016  28.846  35.115  1.00  0.00     0.064 A 
ATOM     90  C   UNL A   1      43.912  27.773  36.014  1.00  0.00     0.173 A 
ATOM     91  C   UNL A   1      45.295  29.358  34.847  1.00  0.00     0.173 A 
ATOM     92  F   UNL A   1      42.711  27.257  36.313  1.00  0.00    -0.203 F 
ATOM     93  C   UNL A   1      45.040  27.261  36.648  1.00  0.00     0.198 A 
ATOM     94  C   UNL A   1      46.424  28.818  35.456  1.00  0.00     0.198 A 
ATOM     95  F   UNL A   1      45.451  30.377  33.988  1.00  0.00    -0.203 F 
ATOM     96  F   UNL A   1      44.910  26.279  37.551  1.00  0.00    -0.200 F 
ATOM     97  C   UNL A   1      46.295  27.779  36.364  1.00  0.00     0.200 A 
ATOM     98  F   UNL A   1      47.637  29.310  35.168  1.00  0.00    -0.200 F 
ATOM     99  F   UNL A   1      47.380  27.283  36.975  1.00  0.00    -0.200 F 
ENDBRANCH  66  89
ENDBRANCH  40  41
ENDBRANCH  32  35
ENDBRANCH  30  31
ENDBRANCH  29  30
ENDBRANCH  28  29
ENDBRANCH   3  28
TORSDOF 17
ENDMDL
