MODEL 1
REMARK VINA RESULT:     -11.4      0.000      0.000
REMARK SMILES O=C(COc1csc(C(=O)NCCCNC(=O)c2ccc(-c3c4nc(c(-c5c(F)c(F)c(F)c(F)c5F)c5ccc([nH]5)c(-c5c(F)c(F)c(F)c(F)c5F)c5nc(c(-c6c(F)c(F)c(F)c(F)c6F)c6ccc3[nH]6)C=C5)C=C4)cc2)c1)Nc1nccs1
REMARK SMILES IDX 12 1 11 2 9 3 10 4 8 6 5 7 6 8 81 9 7 10 4 11 3 12 2 13 1 14
REMARK SMILES IDX 82 15 83 17 84 18 87 19 85 20 86 21 13 22 14 23 15 24 16 25
REMARK SMILES IDX 17 27 18 28 19 29 80 30 20 31 79 32 21 33 22 34 23 35 73 36
REMARK SMILES IDX 24 37 78 38 72 39 74 40 25 41 77 42 71 43 70 44 26 46 58 47
REMARK SMILES IDX 38 48 57 49 39 50 42 51 56 52 75 53 40 54 41 55 55 57 76 58
REMARK SMILES IDX 43 59 27 60 28 61 36 62 29 63 30 64 34 65 37 66 31 67 32 68
REMARK SMILES IDX 35 69 33 70 59 71 60 72 68 73 61 74 62 75 66 76 69 77 63 78
REMARK SMILES IDX 64 79 67 80 65 81 44 82 45 83 53 84 46 85 47 86 51 87 54 88
REMARK SMILES IDX 48 89 49 90 52 91 50 92
REMARK H PARENT 11 5 82 16 15 26 74 45 42 56
REMARK Flexibility Score: inf
ROOT
ATOM      1  C   UNL A   1      31.768  30.692  26.719  1.00  0.00     0.118 C 
ENDROOT
BRANCH   1   2
ATOM      2  N   UNL A   1      33.103  30.348  27.160  1.00  0.00    -0.351 N 
ATOM      3  C   UNL A   1      33.981  29.366  26.768  1.00  0.00     0.261 C 
ATOM      4  O   UNL A   1      35.061  29.377  27.364  1.00  0.00    -0.268 OA
ATOM      5  H   UNL A   1      33.447  30.927  27.878  1.00  0.00     0.163 HD
BRANCH   3   6
ATOM      6  C   UNL A   1      33.656  28.420  25.707  1.00  0.00     0.096 A 
ATOM      7  C   UNL A   1      33.213  27.335  23.679  1.00  0.00     0.131 A 
ATOM      8  C   UNL A   1      33.354  26.256  24.518  1.00  0.00     0.112 A 
ATOM      9  C   UNL A   1      33.325  28.571  24.371  1.00  0.00     0.072 A 
ATOM     10  S   UNL A   1      33.654  26.744  26.126  1.00  0.00    -0.135 S 
BRANCH   7  11
ATOM     11  O   UNL A   1      33.103  27.266  22.328  1.00  0.00    -0.483 OA
BRANCH  11  12
ATOM     12  C   UNL A   1      31.827  26.833  21.869  1.00  0.00     0.329 C 
BRANCH  12  13
ATOM     13  C   UNL A   1      30.636  27.634  22.403  1.00  0.00     0.264 C 
ATOM     14  O   UNL A   1      29.791  27.093  23.108  1.00  0.00    -0.271 OA
ATOM     15  N   UNL A   1      30.668  28.952  22.002  1.00  0.00    -0.299 N 
ATOM     16  H   UNL A   1      31.499  29.309  21.612  1.00  0.00     0.172 HD
BRANCH  15  17
ATOM     17  C   UNL A   1      29.591  29.780  22.125  1.00  0.00     0.189 A 
ATOM     18  N   UNL A   1      28.667  30.074  21.250  1.00  0.00    -0.229 NA
ATOM     19  S   UNL A   1      29.524  30.614  23.615  1.00  0.00    -0.105 S 
ATOM     20  C   UNL A   1      27.839  31.047  21.771  1.00  0.00     0.125 A 
ATOM     21  C   UNL A   1      28.158  31.480  23.040  1.00  0.00     0.088 A 
ENDBRANCH  15  17
ENDBRANCH  12  13
ENDBRANCH  11  12
ENDBRANCH   7  11
ENDBRANCH   3   6
ENDBRANCH   1   2
BRANCH   1  22
ATOM     22  C   UNL A   1      31.503  32.189  26.878  1.00  0.00     0.042 C 
BRANCH  22  23
ATOM     23  C   UNL A   1      32.787  33.012  26.985  1.00  0.00     0.118 C 
BRANCH  23  24
ATOM     24  N   UNL A   1      32.546  34.297  27.626  1.00  0.00    -0.352 N 
ATOM     25  C   UNL A   1      33.043  34.823  28.788  1.00  0.00     0.251 C 
ATOM     26  H   UNL A   1      31.922  34.886  27.143  1.00  0.00     0.163 HD
ATOM     27  O   UNL A   1      32.521  35.834  29.252  1.00  0.00    -0.269 OA
BRANCH  25  28
ATOM     28  C   UNL A   1      34.195  34.212  29.487  1.00  0.00     0.039 A 
ATOM     29  C   UNL A   1      35.480  34.486  29.005  1.00  0.00     0.014 A 
ATOM     30  C   UNL A   1      34.028  33.297  30.531  1.00  0.00     0.014 A 
ATOM     31  C   UNL A   1      36.588  33.852  29.565  1.00  0.00     0.010 A 
ATOM     32  C   UNL A   1      35.142  32.716  31.139  1.00  0.00     0.010 A 
ATOM     33  C   UNL A   1      36.429  32.964  30.641  1.00  0.00    -0.014 A 
BRANCH  33  34
ATOM     34  C   UNL A   1      37.600  32.246  31.204  1.00  0.00     0.031 A 
ATOM     35  C   UNL A   1      38.091  32.573  32.588  1.00  0.00     0.074 A 
ATOM     36  C   UNL A   1      38.227  31.312  30.466  1.00  0.00     0.049 A 
ATOM     37  N   UNL A   1      39.101  32.065  33.251  1.00  0.00    -0.248 NA
ATOM     38  C   UNL A   1      37.367  33.627  33.316  1.00  0.00     0.031 C 
ATOM     39  C   UNL A   1      37.875  30.941  29.095  1.00  0.00     0.029 A 
ATOM     40  N   UNL A   1      39.295  30.505  30.766  1.00  0.00    -0.354 N 
ATOM     41  C   UNL A   1      39.136  32.743  34.464  1.00  0.00     0.074 A 
ATOM     42  C   UNL A   1      38.086  33.737  34.423  1.00  0.00     0.031 C 
ATOM     43  C   UNL A   1      38.698  29.966  28.679  1.00  0.00     0.029 A 
ATOM     44  C   UNL A   1      39.648  29.659  29.744  1.00  0.00     0.049 A 
ATOM     45  H   UNL A   1      39.763  30.529  31.632  1.00  0.00     0.167 HD
ATOM     46  C   UNL A   1      39.949  32.535  35.527  1.00  0.00     0.037 A 
ATOM     47  C   UNL A   1      40.627  28.737  29.678  1.00  0.00     0.037 A 
ATOM     48  C   UNL A   1      40.977  31.529  35.576  1.00  0.00     0.049 A 
ATOM     49  C   UNL A   1      41.499  28.506  30.882  1.00  0.00     0.074 A 
ATOM     50  C   UNL A   1      41.835  31.216  36.615  1.00  0.00     0.029 A 
ATOM     51  N   UNL A   1      41.280  30.664  34.533  1.00  0.00    -0.354 N 
ATOM     52  N   UNL A   1      41.487  29.116  32.042  1.00  0.00    -0.248 NA
ATOM     53  C   UNL A   1      42.508  27.444  30.773  1.00  0.00     0.031 C 
ATOM     54  C   UNL A   1      42.678  30.181  36.190  1.00  0.00     0.029 A 
ATOM     55  C   UNL A   1      42.316  29.821  34.903  1.00  0.00     0.049 A 
ATOM     56  H   UNL A   1      40.827  30.653  33.659  1.00  0.00     0.167 HD
ATOM     57  C   UNL A   1      42.469  28.502  32.807  1.00  0.00     0.074 A 
ATOM     58  C   UNL A   1      43.039  27.453  31.988  1.00  0.00     0.031 C 
ATOM     59  C   UNL A   1      42.867  28.782  34.073  1.00  0.00     0.037 A 
BRANCH  46  60
ATOM     60  C   UNL A   1      39.746  33.406  36.734  1.00  0.00     0.064 A 
ATOM     61  C   UNL A   1      40.433  34.621  36.882  1.00  0.00     0.173 A 
ATOM     62  C   UNL A   1      38.839  33.039  37.739  1.00  0.00     0.173 A 
ATOM     63  F   UNL A   1      41.321  35.012  35.955  1.00  0.00    -0.203 F 
ATOM     64  C   UNL A   1      40.243  35.421  38.006  1.00  0.00     0.198 A 
ATOM     65  C   UNL A   1      38.630  33.855  38.849  1.00  0.00     0.198 A 
ATOM     66  F   UNL A   1      38.153  31.891  37.646  1.00  0.00    -0.203 F 
ATOM     67  F   UNL A   1      40.949  36.551  38.149  1.00  0.00    -0.200 F 
ATOM     68  C   UNL A   1      39.336  35.041  38.984  1.00  0.00     0.200 A 
ATOM     69  F   UNL A   1      37.746  33.494  39.788  1.00  0.00    -0.200 F 
ATOM     70  F   UNL A   1      39.151  35.814  40.064  1.00  0.00    -0.200 F 
ENDBRANCH  46  60
BRANCH  47  71
ATOM     71  C   UNL A   1      40.813  27.941  28.437  1.00  0.00     0.064 A 
ATOM     72  C   UNL A   1      40.168  26.708  28.267  1.00  0.00     0.173 A 
ATOM     73  C   UNL A   1      41.644  28.392  27.402  1.00  0.00     0.173 A 
ATOM     74  F   UNL A   1      39.378  26.227  29.238  1.00  0.00    -0.203 F 
ATOM     75  C   UNL A   1      40.366  25.944  27.119  1.00  0.00     0.198 A 
ATOM     76  C   UNL A   1      41.819  27.640  26.242  1.00  0.00     0.198 A 
ATOM     77  F   UNL A   1      42.278  29.568  27.512  1.00  0.00    -0.203 F 
ATOM     78  F   UNL A   1      39.776  24.747  27.003  1.00  0.00    -0.200 F 
ATOM     79  C   UNL A   1      41.188  26.413  26.105  1.00  0.00     0.200 A 
ATOM     80  F   UNL A   1      42.603  28.104  25.258  1.00  0.00    -0.200 F 
ATOM     81  F   UNL A   1      41.378  25.679  25.000  1.00  0.00    -0.200 F 
ENDBRANCH  47  71
BRANCH  59  82
ATOM     82  C   UNL A   1      43.954  27.925  34.650  1.00  0.00     0.064 A 
ATOM     83  C   UNL A   1      45.305  28.294  34.563  1.00  0.00     0.173 A 
ATOM     84  C   UNL A   1      43.641  26.728  35.311  1.00  0.00     0.173 A 
ATOM     85  F   UNL A   1      45.657  29.421  33.928  1.00  0.00    -0.203 F 
ATOM     86  C   UNL A   1      46.304  27.478  35.088  1.00  0.00     0.198 A 
ATOM     87  C   UNL A   1      44.639  25.930  35.860  1.00  0.00     0.198 A 
ATOM     88  F   UNL A   1      42.363  26.334  35.427  1.00  0.00    -0.203 F 
ATOM     89  F   UNL A   1      47.591  27.823  34.944  1.00  0.00    -0.200 F 
ATOM     90  C   UNL A   1      45.970  26.301  35.740  1.00  0.00     0.200 A 
ATOM     91  F   UNL A   1      44.315  24.798  36.500  1.00  0.00    -0.200 F 
ATOM     92  F   UNL A   1      46.934  25.517  36.242  1.00  0.00    -0.200 F 
ENDBRANCH  59  82
ENDBRANCH  33  34
ENDBRANCH  25  28
ENDBRANCH  23  24
ENDBRANCH  22  23
ENDBRANCH   1  22
TORSDOF 14
ENDMDL
MODEL 2
REMARK VINA RESULT:     -11.4      0.789      7.427
REMARK SMILES O=C(COc1csc(C(=O)NCCCNC(=O)c2ccc(-c3c4nc(c(-c5c(F)c(F)c(F)c(F)c5F)c5ccc([nH]5)c(-c5c(F)c(F)c(F)c(F)c5F)c5nc(c(-c6c(F)c(F)c(F)c(F)c6F)c6ccc3[nH]6)C=C5)C=C4)cc2)c1)Nc1nccs1
REMARK SMILES IDX 12 1 11 2 9 3 10 4 8 6 5 7 6 8 81 9 7 10 4 11 3 12 2 13 1 14
REMARK SMILES IDX 82 15 83 17 84 18 87 19 85 20 86 21 13 22 14 23 15 24 16 25
REMARK SMILES IDX 17 27 18 28 19 29 80 30 20 31 79 32 21 33 22 34 23 35 73 36
REMARK SMILES IDX 24 37 78 38 72 39 74 40 25 41 77 42 71 43 70 44 26 46 58 47
REMARK SMILES IDX 38 48 57 49 39 50 42 51 56 52 75 53 40 54 41 55 55 57 76 58
REMARK SMILES IDX 43 59 27 60 28 61 36 62 29 63 30 64 34 65 37 66 31 67 32 68
REMARK SMILES IDX 35 69 33 70 59 71 60 72 68 73 61 74 62 75 66 76 69 77 63 78
REMARK SMILES IDX 64 79 67 80 65 81 44 82 45 83 53 84 46 85 47 86 51 87 54 88
REMARK SMILES IDX 48 89 49 90 52 91 50 92
REMARK H PARENT 11 5 82 16 15 26 74 45 42 56
REMARK Flexibility Score: inf
ROOT
ATOM      1  C   UNL A   1      31.784  30.755  26.788  1.00  0.00     0.118 C 
ENDROOT
BRANCH   1   2
ATOM      2  N   UNL A   1      33.115  30.397  27.231  1.00  0.00    -0.351 N 
ATOM      3  C   UNL A   1      33.984  29.406  26.841  1.00  0.00     0.261 C 
ATOM      4  O   UNL A   1      35.064  29.408  27.437  1.00  0.00    -0.268 OA
ATOM      5  H   UNL A   1      33.464  30.974  27.948  1.00  0.00     0.163 HD
BRANCH   3   6
ATOM      6  C   UNL A   1      33.650  28.462  25.781  1.00  0.00     0.096 A 
ATOM      7  C   UNL A   1      33.255  27.362  23.751  1.00  0.00     0.131 A 
ATOM      8  C   UNL A   1      33.242  26.300  24.622  1.00  0.00     0.112 A 
ATOM      9  C   UNL A   1      33.427  28.603  24.422  1.00  0.00     0.072 A 
ATOM     10  S   UNL A   1      33.472  26.805  26.236  1.00  0.00    -0.135 S 
BRANCH   7  11
ATOM     11  O   UNL A   1      33.231  27.265  22.398  1.00  0.00    -0.483 OA
BRANCH  11  12
ATOM     12  C   UNL A   1      31.990  26.815  21.867  1.00  0.00     0.329 C 
BRANCH  12  13
ATOM     13  C   UNL A   1      30.755  27.568  22.370  1.00  0.00     0.264 C 
ATOM     14  O   UNL A   1      29.888  26.981  23.010  1.00  0.00    -0.271 OA
ATOM     15  N   UNL A   1      30.775  28.902  22.022  1.00  0.00    -0.299 N 
ATOM     16  H   UNL A   1      31.616  29.292  21.689  1.00  0.00     0.172 HD
BRANCH  15  17
ATOM     17  C   UNL A   1      29.675  29.699  22.123  1.00  0.00     0.189 A 
ATOM     18  N   UNL A   1      28.748  29.949  21.236  1.00  0.00    -0.229 NA
ATOM     19  S   UNL A   1      29.573  30.561  23.595  1.00  0.00    -0.105 S 
ATOM     20  C   UNL A   1      27.888  30.908  21.732  1.00  0.00     0.125 A 
ATOM     21  C   UNL A   1      28.186  31.376  22.995  1.00  0.00     0.088 A 
ENDBRANCH  15  17
ENDBRANCH  12  13
ENDBRANCH  11  12
ENDBRANCH   7  11
ENDBRANCH   3   6
ENDBRANCH   1   2
BRANCH   1  22
ATOM     22  C   UNL A   1      31.556  32.262  26.885  1.00  0.00     0.042 C 
BRANCH  22  23
ATOM     23  C   UNL A   1      32.847  33.046  27.122  1.00  0.00     0.118 C 
BRANCH  23  24
ATOM     24  N   UNL A   1      32.578  34.374  27.651  1.00  0.00    -0.352 N 
ATOM     25  C   UNL A   1      33.026  34.992  28.788  1.00  0.00     0.251 C 
ATOM     26  H   UNL A   1      31.972  34.920  27.100  1.00  0.00     0.163 HD
ATOM     27  O   UNL A   1      32.483  36.032  29.151  1.00  0.00    -0.269 OA
BRANCH  25  28
ATOM     28  C   UNL A   1      34.150  34.442  29.578  1.00  0.00     0.039 A 
ATOM     29  C   UNL A   1      35.434  34.500  29.025  1.00  0.00     0.014 A 
ATOM     30  C   UNL A   1      33.949  33.781  30.793  1.00  0.00     0.014 A 
ATOM     31  C   UNL A   1      36.509  33.904  29.685  1.00  0.00     0.010 A 
ATOM     32  C   UNL A   1      35.035  33.246  31.488  1.00  0.00     0.010 A 
ATOM     33  C   UNL A   1      36.319  33.276  30.925  1.00  0.00    -0.014 A 
BRANCH  33  34
ATOM     34  C   UNL A   1      37.448  32.592  31.604  1.00  0.00     0.031 A 
ATOM     35  C   UNL A   1      38.143  31.437  30.934  1.00  0.00     0.074 A 
ATOM     36  C   UNL A   1      37.839  33.002  32.824  1.00  0.00     0.049 A 
ATOM     37  N   UNL A   1      39.140  30.706  31.366  1.00  0.00    -0.248 NA
ATOM     38  C   UNL A   1      37.635  31.035  29.613  1.00  0.00     0.031 C 
ATOM     39  C   UNL A   1      37.215  34.077  33.595  1.00  0.00     0.029 A 
ATOM     40  N   UNL A   1      38.856  32.559  33.633  1.00  0.00    -0.354 N 
ATOM     41  C   UNL A   1      39.369  29.757  30.378  1.00  0.00     0.074 A 
ATOM     42  C   UNL A   1      38.372  29.966  29.351  1.00  0.00     0.031 C 
ATOM     43  C   UNL A   1      37.872  34.224  34.756  1.00  0.00     0.029 A 
ATOM     44  C   UNL A   1      38.950  33.241  34.821  1.00  0.00     0.049 A 
ATOM     45  H   UNL A   1      39.461  31.822  33.384  1.00  0.00     0.167 HD
ATOM     46  C   UNL A   1      40.342  28.816  30.316  1.00  0.00     0.037 A 
ATOM     47  C   UNL A   1      39.812  33.091  35.843  1.00  0.00     0.037 A 
ATOM     48  C   UNL A   1      41.349  28.625  31.327  1.00  0.00     0.049 A 
ATOM     49  C   UNL A   1      40.901  32.057  35.738  1.00  0.00     0.074 A 
ATOM     50  C   UNL A   1      42.396  27.722  31.347  1.00  0.00     0.029 A 
ATOM     51  N   UNL A   1      41.435  29.362  32.500  1.00  0.00    -0.354 N 
ATOM     52  N   UNL A   1      41.140  31.202  34.773  1.00  0.00    -0.248 NA
ATOM     53  C   UNL A   1      41.850  31.982  36.856  1.00  0.00     0.031 C 
ATOM     54  C   UNL A   1      43.099  27.892  32.546  1.00  0.00     0.029 A 
ATOM     55  C   UNL A   1      42.515  28.930  33.253  1.00  0.00     0.049 A 
ATOM     56  H   UNL A   1      40.818  30.085  32.759  1.00  0.00     0.167 HD
ATOM     57  C   UNL A   1      42.275  30.502  35.157  1.00  0.00     0.074 A 
ATOM     58  C   UNL A   1      42.692  31.051  36.431  1.00  0.00     0.031 C 
ATOM     59  C   UNL A   1      42.914  29.492  34.516  1.00  0.00     0.037 A 
BRANCH  46  60
ATOM     60  C   UNL A   1      40.372  27.931  29.104  1.00  0.00     0.064 A 
ATOM     61  C   UNL A   1      41.158  28.249  27.985  1.00  0.00     0.173 A 
ATOM     62  C   UNL A   1      39.629  26.741  29.065  1.00  0.00     0.173 A 
ATOM     63  F   UNL A   1      41.877  29.381  27.965  1.00  0.00    -0.203 F 
ATOM     64  C   UNL A   1      41.177  27.424  26.862  1.00  0.00     0.198 A 
ATOM     65  C   UNL A   1      39.672  25.904  27.953  1.00  0.00     0.198 A 
ATOM     66  F   UNL A   1      38.864  26.387  30.108  1.00  0.00    -0.203 F 
ATOM     67  F   UNL A   1      41.896  27.775  25.788  1.00  0.00    -0.200 F 
ATOM     68  C   UNL A   1      40.440  26.249  26.851  1.00  0.00     0.200 A 
ATOM     69  F   UNL A   1      38.969  24.764  27.946  1.00  0.00    -0.200 F 
ATOM     70  F   UNL A   1      40.462  25.455  25.771  1.00  0.00    -0.200 F 
ENDBRANCH  46  60
BRANCH  47  71
ATOM     71  C   UNL A   1      39.701  33.963  37.040  1.00  0.00     0.064 A 
ATOM     72  C   UNL A   1      38.934  33.574  38.148  1.00  0.00     0.173 A 
ATOM     73  C   UNL A   1      40.350  35.204  37.099  1.00  0.00     0.173 A 
ATOM     74  F   UNL A   1      38.280  32.403  38.131  1.00  0.00    -0.203 F 
ATOM     75  C   UNL A   1      38.801  34.404  39.259  1.00  0.00     0.198 A 
ATOM     76  C   UNL A   1      40.239  36.022  38.222  1.00  0.00     0.198 A 
ATOM     77  F   UNL A   1      41.101  35.619  36.069  1.00  0.00    -0.203 F 
ATOM     78  F   UNL A   1      38.023  34.029  40.283  1.00  0.00    -0.200 F 
ATOM     79  C   UNL A   1      39.457  35.626  39.297  1.00  0.00     0.200 A 
ATOM     80  F   UNL A   1      40.886  37.195  38.261  1.00  0.00    -0.200 F 
ATOM     81  F   UNL A   1      39.330  36.424  40.365  1.00  0.00    -0.200 F 
ENDBRANCH  47  71
BRANCH  59  82
ATOM     82  C   UNL A   1      44.142  28.937  35.175  1.00  0.00     0.064 A 
ATOM     83  C   UNL A   1      44.070  27.868  36.081  1.00  0.00     0.173 A 
ATOM     84  C   UNL A   1      45.407  29.470  34.886  1.00  0.00     0.173 A 
ATOM     85  F   UNL A   1      42.883  27.334  36.402  1.00  0.00    -0.203 F 
ATOM     86  C   UNL A   1      45.217  27.376  36.698  1.00  0.00     0.198 A 
ATOM     87  C   UNL A   1      46.555  28.956  35.482  1.00  0.00     0.198 A 
ATOM     88  F   UNL A   1      45.530  30.488  34.021  1.00  0.00    -0.203 F 
ATOM     89  F   UNL A   1      45.119  26.391  37.602  1.00  0.00    -0.200 F 
ATOM     90  C   UNL A   1      46.458  27.916  36.395  1.00  0.00     0.200 A 
ATOM     91  F   UNL A   1      47.754  29.472  35.180  1.00  0.00    -0.200 F 
ATOM     92  F   UNL A   1      47.560  27.442  36.992  1.00  0.00    -0.200 F 
ENDBRANCH  59  82
ENDBRANCH  33  34
ENDBRANCH  25  28
ENDBRANCH  23  24
ENDBRANCH  22  23
ENDBRANCH   1  22
TORSDOF 14
ENDMDL
MODEL 3
REMARK VINA RESULT:     -11.3      4.162      7.795
REMARK SMILES O=C(COc1csc(C(=O)NCCCNC(=O)c2ccc(-c3c4nc(c(-c5c(F)c(F)c(F)c(F)c5F)c5ccc([nH]5)c(-c5c(F)c(F)c(F)c(F)c5F)c5nc(c(-c6c(F)c(F)c(F)c(F)c6F)c6ccc3[nH]6)C=C5)C=C4)cc2)c1)Nc1nccs1
REMARK SMILES IDX 12 1 11 2 9 3 10 4 8 6 5 7 6 8 81 9 7 10 4 11 3 12 2 13 1 14
REMARK SMILES IDX 82 15 83 17 84 18 87 19 85 20 86 21 13 22 14 23 15 24 16 25
REMARK SMILES IDX 17 27 18 28 19 29 80 30 20 31 79 32 21 33 22 34 23 35 73 36
REMARK SMILES IDX 24 37 78 38 72 39 74 40 25 41 77 42 71 43 70 44 26 46 58 47
REMARK SMILES IDX 38 48 57 49 39 50 42 51 56 52 75 53 40 54 41 55 55 57 76 58
REMARK SMILES IDX 43 59 27 60 28 61 36 62 29 63 30 64 34 65 37 66 31 67 32 68
REMARK SMILES IDX 35 69 33 70 59 71 60 72 68 73 61 74 62 75 66 76 69 77 63 78
REMARK SMILES IDX 64 79 67 80 65 81 44 82 45 83 53 84 46 85 47 86 51 87 54 88
REMARK SMILES IDX 48 89 49 90 52 91 50 92
REMARK H PARENT 11 5 82 16 15 26 74 45 42 56
REMARK Flexibility Score: inf
ROOT
ATOM      1  C   UNL A   1      35.829  33.965  30.682  1.00  0.00     0.118 C 
ENDROOT
BRANCH   1   2
ATOM      2  N   UNL A   1      35.427  34.782  31.807  1.00  0.00    -0.351 N 
ATOM      3  C   UNL A   1      35.807  34.789  33.128  1.00  0.00     0.261 C 
ATOM      4  O   UNL A   1      35.257  35.652  33.815  1.00  0.00    -0.268 OA
ATOM      5  H   UNL A   1      34.752  35.463  31.583  1.00  0.00     0.163 HD
BRANCH   3   6
ATOM      6  C   UNL A   1      36.808  33.863  33.645  1.00  0.00     0.096 A 
ATOM      7  C   UNL A   1      38.028  32.004  34.383  1.00  0.00     0.131 A 
ATOM      8  C   UNL A   1      39.030  32.937  34.274  1.00  0.00     0.112 A 
ATOM      9  C   UNL A   1      36.751  32.551  34.082  1.00  0.00     0.072 A 
ATOM     10  S   UNL A   1      38.426  34.455  33.777  1.00  0.00    -0.135 S 
BRANCH   7  11
ATOM     11  O   UNL A   1      38.213  30.682  34.625  1.00  0.00    -0.483 OA
BRANCH  11  12
ATOM     12  C   UNL A   1      38.106  29.857  33.470  1.00  0.00     0.329 C 
BRANCH  12  13
ATOM     13  C   UNL A   1      39.249  28.856  33.277  1.00  0.00     0.264 C 
ATOM     14  O   UNL A   1      39.072  27.831  32.627  1.00  0.00    -0.271 OA
ATOM     15  N   UNL A   1      40.413  29.263  33.893  1.00  0.00    -0.299 N 
ATOM     16  H   UNL A   1      40.483  30.194  34.206  1.00  0.00     0.172 HD
BRANCH  15  17
ATOM     17  C   UNL A   1      41.470  28.423  34.085  1.00  0.00     0.189 A 
ATOM     18  N   UNL A   1      42.233  27.838  33.201  1.00  0.00    -0.229 NA
ATOM     19  S   UNL A   1      41.747  28.017  35.722  1.00  0.00    -0.105 S 
ATOM     20  C   UNL A   1      43.104  26.983  33.846  1.00  0.00     0.125 A 
ATOM     21  C   UNL A   1      42.977  26.931  35.218  1.00  0.00     0.088 A 
ENDBRANCH  15  17
ENDBRANCH  12  13
ENDBRANCH  11  12
ENDBRANCH   7  11
ENDBRANCH   3   6
ENDBRANCH   1   2
BRANCH   1  22
ATOM     22  C   UNL A   1      34.683  33.072  30.210  1.00  0.00     0.042 C 
BRANCH  22  23
ATOM     23  C   UNL A   1      34.620  32.938  28.689  1.00  0.00     0.118 C 
BRANCH  23  24
ATOM     24  N   UNL A   1      33.866  31.760  28.286  1.00  0.00    -0.352 N 
ATOM     25  C   UNL A   1      34.287  30.503  27.946  1.00  0.00     0.251 C 
ATOM     26  H   UNL A   1      32.890  31.888  28.254  1.00  0.00     0.163 HD
ATOM     27  O   UNL A   1      33.488  29.733  27.416  1.00  0.00    -0.269 OA
BRANCH  25  28
ATOM     28  C   UNL A   1      35.670  30.049  28.210  1.00  0.00     0.039 A 
ATOM     29  C   UNL A   1      35.968  29.549  29.483  1.00  0.00     0.014 A 
ATOM     30  C   UNL A   1      36.694  30.206  27.272  1.00  0.00     0.014 A 
ATOM     31  C   UNL A   1      37.278  29.206  29.813  1.00  0.00     0.010 A 
ATOM     32  C   UNL A   1      37.993  29.797  27.577  1.00  0.00     0.010 A 
ATOM     33  C   UNL A   1      38.303  29.322  28.860  1.00  0.00    -0.014 A 
BRANCH  33  34
ATOM     34  C   UNL A   1      39.708  29.011  29.223  1.00  0.00     0.031 A 
ATOM     35  C   UNL A   1      40.494  29.965  30.080  1.00  0.00     0.074 A 
ATOM     36  C   UNL A   1      40.278  27.879  28.771  1.00  0.00     0.049 A 
ATOM     37  N   UNL A   1      41.733  29.877  30.497  1.00  0.00    -0.248 NA
ATOM     38  C   UNL A   1      39.805  31.193  30.509  1.00  0.00     0.031 C 
ATOM     39  C   UNL A   1      39.635  26.900  27.895  1.00  0.00     0.029 A 
ATOM     40  N   UNL A   1      41.530  27.362  28.986  1.00  0.00    -0.354 N 
ATOM     41  C   UNL A   1      41.971  31.037  31.223  1.00  0.00     0.074 A 
ATOM     42  C   UNL A   1      40.771  31.840  31.143  1.00  0.00     0.031 C 
ATOM     43  C   UNL A   1      40.489  25.891  27.662  1.00  0.00     0.029 A 
ATOM     44  C   UNL A   1      41.746  26.162  28.354  1.00  0.00     0.049 A 
ATOM     45  H   UNL A   1      42.211  27.808  29.541  1.00  0.00     0.167 HD
ATOM     46  C   UNL A   1      43.078  31.388  31.921  1.00  0.00     0.037 A 
ATOM     47  C   UNL A   1      42.834  25.370  28.339  1.00  0.00     0.037 A 
ATOM     48  C   UNL A   1      44.263  30.577  32.020  1.00  0.00     0.049 A 
ATOM     49  C   UNL A   1      44.041  25.769  29.144  1.00  0.00     0.074 A 
ATOM     50  C   UNL A   1      45.428  30.826  32.725  1.00  0.00     0.029 A 
ATOM     51  N   UNL A   1      44.429  29.348  31.396  1.00  0.00    -0.354 N 
ATOM     52  N   UNL A   1      44.234  26.843  29.871  1.00  0.00    -0.248 NA
ATOM     53  C   UNL A   1      45.175  24.835  29.141  1.00  0.00     0.031 C 
ATOM     54  C   UNL A   1      46.310  29.761  32.503  1.00  0.00     0.029 A 
ATOM     55  C   UNL A   1      45.679  28.830  31.696  1.00  0.00     0.049 A 
ATOM     56  H   UNL A   1      43.758  28.910  30.824  1.00  0.00     0.167 HD
ATOM     57  C   UNL A   1      45.498  26.706  30.427  1.00  0.00     0.074 A 
ATOM     58  C   UNL A   1      46.016  25.431  29.973  1.00  0.00     0.031 C 
ATOM     59  C   UNL A   1      46.174  27.558  31.236  1.00  0.00     0.037 A 
BRANCH  46  60
ATOM     60  C   UNL A   1      43.052  32.703  32.645  1.00  0.00     0.064 A 
ATOM     61  C   UNL A   1      43.370  33.904  31.992  1.00  0.00     0.173 A 
ATOM     62  C   UNL A   1      42.682  32.771  33.997  1.00  0.00     0.173 A 
ATOM     63  F   UNL A   1      43.743  33.893  30.703  1.00  0.00    -0.203 F 
ATOM     64  C   UNL A   1      43.347  35.120  32.672  1.00  0.00     0.198 A 
ATOM     65  C   UNL A   1      42.632  33.991  34.666  1.00  0.00     0.198 A 
ATOM     66  F   UNL A   1      42.364  31.654  34.668  1.00  0.00    -0.203 F 
ATOM     67  F   UNL A   1      43.704  36.245  32.040  1.00  0.00    -0.200 F 
ATOM     68  C   UNL A   1      42.971  35.162  34.006  1.00  0.00     0.200 A 
ATOM     69  F   UNL A   1      42.258  34.034  35.952  1.00  0.00    -0.200 F 
ATOM     70  F   UNL A   1      42.946  36.333  34.658  1.00  0.00    -0.200 F 
ENDBRANCH  46  60
BRANCH  47  71
ATOM     71  C   UNL A   1      42.819  24.105  27.561  1.00  0.00     0.064 A 
ATOM     72  C   UNL A   1      42.487  22.887  28.169  1.00  0.00     0.173 A 
ATOM     73  C   UNL A   1      43.145  24.086  26.197  1.00  0.00     0.173 A 
ATOM     74  F   UNL A   1      42.187  22.852  29.476  1.00  0.00    -0.203 F 
ATOM     75  C   UNL A   1      42.504  21.694  27.450  1.00  0.00     0.198 A 
ATOM     76  C   UNL A   1      43.135  22.897  25.472  1.00  0.00     0.198 A 
ATOM     77  F   UNL A   1      43.463  25.226  25.566  1.00  0.00    -0.203 F 
ATOM     78  F   UNL A   1      42.230  20.538  28.068  1.00  0.00    -0.200 F 
ATOM     79  C   UNL A   1      42.824  21.700  26.100  1.00  0.00     0.200 A 
ATOM     80  F   UNL A   1      43.429  22.910  24.164  1.00  0.00    -0.200 F 
ATOM     81  F   UNL A   1      42.840  20.553  25.408  1.00  0.00    -0.200 F 
ENDBRANCH  47  71
BRANCH  59  82
ATOM     82  C   UNL A   1      47.534  27.125  31.698  1.00  0.00     0.064 A 
ATOM     83  C   UNL A   1      48.695  27.480  30.995  1.00  0.00     0.173 A 
ATOM     84  C   UNL A   1      47.678  26.360  32.865  1.00  0.00     0.173 A 
ATOM     85  F   UNL A   1      48.609  28.198  29.866  1.00  0.00    -0.203 F 
ATOM     86  C   UNL A   1      49.949  27.055  31.427  1.00  0.00     0.198 A 
ATOM     87  C   UNL A   1      48.935  25.962  33.309  1.00  0.00     0.198 A 
ATOM     88  F   UNL A   1      46.599  26.001  33.576  1.00  0.00    -0.203 F 
ATOM     89  F   UNL A   1      51.040  27.359  30.710  1.00  0.00    -0.200 F 
ATOM     90  C   UNL A   1      50.069  26.302  32.585  1.00  0.00     0.200 A 
ATOM     91  F   UNL A   1      49.051  25.243  34.434  1.00  0.00    -0.200 F 
ATOM     92  F   UNL A   1      51.276  25.893  32.997  1.00  0.00    -0.200 F 
ENDBRANCH  59  82
ENDBRANCH  33  34
ENDBRANCH  25  28
ENDBRANCH  23  24
ENDBRANCH  22  23
ENDBRANCH   1  22
TORSDOF 14
ENDMDL
