MODEL 1
REMARK VINA RESULT:     -11.4      0.000      0.000
REMARK SMILES CC(C)C[C@@H](C[NH3+])C(=O)N1CCC(CC(=O)NCCCNC(=O)c2ccc(-c3c4nc(c(-c5c(F)c(F)c(F)c(F)c5F)c5ccc([nH]5)c(-c5c(F)c(F)c(F)c(F)c5F)c5nc(c(-c6c(F)c(F)c(F)c(F)c6F)c6ccc3[nH]6)C=C5)C=C4)cc2)CC1
REMARK SMILES IDX 18 1 17 2 15 3 16 4 14 6 13 7 8 8 9 9 10 10 11 11 88 12
REMARK SMILES IDX 12 13 87 14 5 15 4 16 2 17 1 18 3 19 6 20 7 21 19 25 20 26
REMARK SMILES IDX 21 27 22 28 23 30 24 31 25 32 86 33 26 34 85 35 27 36 28 37
REMARK SMILES IDX 29 38 79 39 30 40 84 41 78 42 80 43 31 44 83 45 77 46 76 47
REMARK SMILES IDX 32 49 64 50 44 51 63 52 45 53 48 54 62 55 81 56 46 57 47 58
REMARK SMILES IDX 61 60 82 61 49 62 33 63 34 64 42 65 35 66 36 67 40 68 43 69
REMARK SMILES IDX 37 70 38 71 41 72 39 73 65 74 66 75 74 76 67 77 68 78 72 79
REMARK SMILES IDX 75 80 69 81 70 82 73 83 71 84 50 85 51 86 59 87 52 88 53 89
REMARK SMILES IDX 57 90 60 91 54 92 55 93 58 94 56 95
REMARK H PARENT 17 5 7 22 7 23 7 24 21 29 80 48 48 59
REMARK Flexibility Score: inf
ROOT
ATOM      1  C   UNL A   1      36.613  20.611  24.774  1.00  0.00     0.117 C 
ENDROOT
BRANCH   1   2
ATOM      2  N   UNL A   1      35.336  20.097  25.257  1.00  0.00    -0.356 N 
ATOM      3  C   UNL A   1      34.056  20.523  25.055  1.00  0.00     0.220 C 
ATOM      4  O   UNL A   1      33.144  19.897  25.598  1.00  0.00    -0.275 OA
ATOM      5  H   UNL A   1      35.411  19.301  25.831  1.00  0.00     0.163 HD
BRANCH   3   6
ATOM      6  C   UNL A   1      33.759  21.747  24.211  1.00  0.00     0.103 C 
BRANCH   6   7
ATOM      7  C   UNL A   1      33.258  22.947  25.037  1.00  0.00     0.002 C 
ATOM      8  C   UNL A   1      32.790  26.955  24.315  1.00  0.00     0.231 C 
ATOM      9  O   UNL A   1      33.788  27.166  23.616  1.00  0.00    -0.274 OA
ATOM     10  N   UNL A   1      32.676  25.795  25.053  1.00  0.00    -0.342 N 
ATOM     11  C   UNL A   1      33.846  25.316  25.755  1.00  0.00     0.120 C 
ATOM     12  C   UNL A   1      31.555  24.870  25.005  1.00  0.00     0.120 C 
ATOM     13  C   UNL A   1      34.341  24.024  25.141  1.00  0.00     0.026 C 
ATOM     14  C   UNL A   1      31.977  23.524  24.406  1.00  0.00     0.026 C 
BRANCH   8  15
ATOM     15  C   UNL A   1      31.825  28.108  24.619  1.00  0.00     0.133 C 
BRANCH  15  16
ATOM     16  C   UNL A   1      32.423  29.322  25.341  1.00  0.00     0.022 C 
BRANCH  16  17
ATOM     17  C   UNL A   1      32.535  29.212  26.875  1.00  0.00    -0.016 C 
ATOM     18  C   UNL A   1      31.524  28.239  27.479  1.00  0.00     0.007 C 
ATOM     19  C   UNL A   1      33.957  28.775  27.243  1.00  0.00     0.007 C 
ENDBRANCH  16  17
ENDBRANCH  15  16
BRANCH  15  20
ATOM     20  C   UNL A   1      31.051  28.440  23.325  1.00  0.00     0.272 C 
BRANCH  20  21
ATOM     21  N   UNL A   1      31.762  29.304  22.381  1.00  0.00    -0.357 N 
ATOM     22  H   UNL A   1      31.123  30.014  22.022  1.00  0.00     0.344 HD
ATOM     23  H   UNL A   1      32.118  28.744  21.607  1.00  0.00     0.344 HD
ATOM     24  H   UNL A   1      32.541  29.759  22.857  1.00  0.00     0.344 HD
ENDBRANCH  20  21
ENDBRANCH  15  20
ENDBRANCH   8  15
ENDBRANCH   6   7
ENDBRANCH   3   6
ENDBRANCH   1   2
BRANCH   1  25
ATOM     25  C   UNL A   1      37.773  19.634  24.987  1.00  0.00     0.042 C 
BRANCH  25  26
ATOM     26  C   UNL A   1      38.949  20.208  25.770  1.00  0.00     0.118 C 
BRANCH  26  27
ATOM     27  N   UNL A   1      40.031  19.247  25.898  1.00  0.00    -0.352 N 
ATOM     28  C   UNL A   1      41.379  19.455  26.068  1.00  0.00     0.251 C 
ATOM     29  H   UNL A   1      39.756  18.302  25.857  1.00  0.00     0.163 HD
ATOM     30  O   UNL A   1      42.157  18.520  25.903  1.00  0.00    -0.269 OA
BRANCH  28  31
ATOM     31  C   UNL A   1      41.916  20.788  26.440  1.00  0.00     0.039 A 
ATOM     32  C   UNL A   1      42.164  21.718  25.423  1.00  0.00     0.014 A 
ATOM     33  C   UNL A   1      42.246  21.109  27.759  1.00  0.00     0.014 A 
ATOM     34  C   UNL A   1      42.690  22.977  25.733  1.00  0.00     0.010 A 
ATOM     35  C   UNL A   1      42.710  22.387  28.077  1.00  0.00     0.010 A 
ATOM     36  C   UNL A   1      42.942  23.334  27.067  1.00  0.00    -0.014 A 
BRANCH  36  37
ATOM     37  C   UNL A   1      43.439  24.690  27.424  1.00  0.00     0.031 A 
ATOM     38  C   UNL A   1      42.504  25.724  27.988  1.00  0.00     0.074 A 
ATOM     39  C   UNL A   1      44.722  25.017  27.176  1.00  0.00     0.049 A 
ATOM     40  N   UNL A   1      42.732  26.983  28.270  1.00  0.00    -0.248 NA
ATOM     41  C   UNL A   1      41.123  25.292  28.254  1.00  0.00     0.031 C 
ATOM     42  C   UNL A   1      45.724  24.122  26.597  1.00  0.00     0.029 A 
ATOM     43  N   UNL A   1      45.399  26.198  27.361  1.00  0.00    -0.354 N 
ATOM     44  C   UNL A   1      41.523  27.496  28.724  1.00  0.00     0.074 A 
ATOM     45  C   UNL A   1      40.555  26.422  28.649  1.00  0.00     0.031 C 
ATOM     46  C   UNL A   1      46.888  24.781  26.482  1.00  0.00     0.029 A 
ATOM     47  C   UNL A   1      46.706  26.155  26.941  1.00  0.00     0.049 A 
ATOM     48  H   UNL A   1      44.986  26.998  27.758  1.00  0.00     0.167 HD
ATOM     49  C   UNL A   1      41.250  28.744  29.176  1.00  0.00     0.037 A 
ATOM     50  C   UNL A   1      47.648  27.118  26.910  1.00  0.00     0.037 A 
ATOM     51  C   UNL A   1      42.220  29.802  29.286  1.00  0.00     0.049 A 
ATOM     52  C   UNL A   1      47.315  28.497  27.409  1.00  0.00     0.074 A 
ATOM     53  C   UNL A   1      42.055  31.070  29.817  1.00  0.00     0.029 A 
ATOM     54  N   UNL A   1      43.533  29.718  28.854  1.00  0.00    -0.354 N 
ATOM     55  N   UNL A   1      46.187  28.950  27.897  1.00  0.00    -0.248 NA
ATOM     56  C   UNL A   1      48.388  29.501  27.350  1.00  0.00     0.031 C 
ATOM     57  C   UNL A   1      43.258  31.768  29.667  1.00  0.00     0.029 A 
ATOM     58  C   UNL A   1      44.183  30.923  29.077  1.00  0.00     0.049 A 
ATOM     59  H   UNL A   1      43.945  28.921  28.447  1.00  0.00     0.167 HD
ATOM     60  C   UNL A   1      46.416  30.281  28.214  1.00  0.00     0.074 A 
ATOM     61  C   UNL A   1      47.796  30.561  27.881  1.00  0.00     0.031 C 
ATOM     62  C   UNL A   1      45.555  31.190  28.733  1.00  0.00     0.037 A 
BRANCH  49  63
ATOM     63  C   UNL A   1      39.840  29.040  29.593  1.00  0.00     0.064 A 
ATOM     64  C   UNL A   1      38.894  29.537  28.684  1.00  0.00     0.173 A 
ATOM     65  C   UNL A   1      39.414  28.769  30.902  1.00  0.00     0.173 A 
ATOM     66  F   UNL A   1      39.253  29.818  27.422  1.00  0.00    -0.203 F 
ATOM     67  C   UNL A   1      37.579  29.773  29.076  1.00  0.00     0.198 A 
ATOM     68  C   UNL A   1      38.093  28.983  31.285  1.00  0.00     0.198 A 
ATOM     69  F   UNL A   1      40.278  28.284  31.807  1.00  0.00    -0.203 F 
ATOM     70  F   UNL A   1      36.701  30.282  28.201  1.00  0.00    -0.200 F 
ATOM     71  C   UNL A   1      37.177  29.489  30.374  1.00  0.00     0.200 A 
ATOM     72  F   UNL A   1      37.703  28.697  32.534  1.00  0.00    -0.200 F 
ATOM     73  F   UNL A   1      35.909  29.709  30.748  1.00  0.00    -0.200 F 
ENDBRANCH  49  63
BRANCH  50  74
ATOM     74  C   UNL A   1      49.001  26.807  26.384  1.00  0.00     0.064 A 
ATOM     75  C   UNL A   1      50.000  26.301  27.226  1.00  0.00     0.173 A 
ATOM     76  C   UNL A   1      49.321  27.005  25.033  1.00  0.00     0.173 A 
ATOM     77  F   UNL A   1      49.748  26.119  28.530  1.00  0.00    -0.203 F 
ATOM     78  C   UNL A   1      51.275  26.016  26.738  1.00  0.00     0.198 A 
ATOM     79  C   UNL A   1      50.588  26.695  24.541  1.00  0.00     0.198 A 
ATOM     80  F   UNL A   1      48.399  27.488  24.187  1.00  0.00    -0.203 F 
ATOM     81  F   UNL A   1      52.224  25.571  27.572  1.00  0.00    -0.200 F 
ATOM     82  C   UNL A   1      51.564  26.207  25.396  1.00  0.00     0.200 A 
ATOM     83  F   UNL A   1      50.861  26.871  23.242  1.00  0.00    -0.200 F 
ATOM     84  F   UNL A   1      52.788  25.929  24.926  1.00  0.00    -0.200 F 
ENDBRANCH  50  74
BRANCH  62  85
ATOM     85  C   UNL A   1      46.082  32.574  28.978  1.00  0.00     0.064 A 
ATOM     86  C   UNL A   1      46.758  32.897  30.164  1.00  0.00     0.173 A 
ATOM     87  C   UNL A   1      45.949  33.572  28.001  1.00  0.00     0.173 A 
ATOM     88  F   UNL A   1      46.893  31.981  31.134  1.00  0.00    -0.203 F 
ATOM     89  C   UNL A   1      47.267  34.175  30.370  1.00  0.00     0.198 A 
ATOM     90  C   UNL A   1      46.482  34.842  28.201  1.00  0.00     0.198 A 
ATOM     91  F   UNL A   1      45.315  33.310  26.849  1.00  0.00    -0.203 F 
ATOM     92  F   UNL A   1      47.877  34.474  31.525  1.00  0.00    -0.200 F 
ATOM     93  C   UNL A   1      47.136  35.145  29.386  1.00  0.00     0.200 A 
ATOM     94  F   UNL A   1      46.363  35.775  27.246  1.00  0.00    -0.200 F 
ATOM     95  F   UNL A   1      47.634  36.373  29.583  1.00  0.00    -0.200 F 
ENDBRANCH  62  85
ENDBRANCH  36  37
ENDBRANCH  28  31
ENDBRANCH  26  27
ENDBRANCH  25  26
ENDBRANCH   1  25
TORSDOF 16
ENDMDL
MODEL 2
REMARK VINA RESULT:     -11.3      5.141     11.013
REMARK SMILES CC(C)C[C@@H](C[NH3+])C(=O)N1CCC(CC(=O)NCCCNC(=O)c2ccc(-c3c4nc(c(-c5c(F)c(F)c(F)c(F)c5F)c5ccc([nH]5)c(-c5c(F)c(F)c(F)c(F)c5F)c5nc(c(-c6c(F)c(F)c(F)c(F)c6F)c6ccc3[nH]6)C=C5)C=C4)cc2)CC1
REMARK SMILES IDX 18 1 17 2 15 3 16 4 14 6 13 7 8 8 9 9 10 10 11 11 88 12
REMARK SMILES IDX 12 13 87 14 5 15 4 16 2 17 1 18 3 19 6 20 7 21 19 25 20 26
REMARK SMILES IDX 21 27 22 28 23 30 24 31 25 32 86 33 26 34 85 35 27 36 28 37
REMARK SMILES IDX 29 38 79 39 30 40 84 41 78 42 80 43 31 44 83 45 77 46 76 47
REMARK SMILES IDX 32 49 64 50 44 51 63 52 45 53 48 54 62 55 81 56 46 57 47 58
REMARK SMILES IDX 61 60 82 61 49 62 33 63 34 64 42 65 35 66 36 67 40 68 43 69
REMARK SMILES IDX 37 70 38 71 41 72 39 73 65 74 66 75 74 76 67 77 68 78 72 79
REMARK SMILES IDX 75 80 69 81 70 82 73 83 71 84 50 85 51 86 59 87 52 88 53 89
REMARK SMILES IDX 57 90 60 91 54 92 55 93 58 94 56 95
REMARK H PARENT 17 5 7 22 7 23 7 24 21 29 80 48 48 59
REMARK Flexibility Score: inf
ROOT
ATOM      1  C   UNL A   1      31.403  30.351  25.868  1.00  0.00     0.117 C 
ENDROOT
BRANCH   1   2
ATOM      2  N   UNL A   1      31.037  30.089  24.480  1.00  0.00    -0.356 N 
ATOM      3  C   UNL A   1      30.713  28.933  23.834  1.00  0.00     0.220 C 
ATOM      4  O   UNL A   1      30.447  28.995  22.633  1.00  0.00    -0.275 OA
ATOM      5  H   UNL A   1      31.020  30.891  23.908  1.00  0.00     0.163 HD
BRANCH   3   6
ATOM      6  C   UNL A   1      30.708  27.601  24.561  1.00  0.00     0.103 C 
BRANCH   6   7
ATOM      7  C   UNL A   1      31.998  26.788  24.345  1.00  0.00     0.002 C 
ATOM      8  C   UNL A   1      33.343  23.124  25.601  1.00  0.00     0.231 C 
ATOM      9  O   UNL A   1      32.887  23.109  26.750  1.00  0.00    -0.274 OA
ATOM     10  N   UNL A   1      33.401  24.298  24.878  1.00  0.00    -0.342 N 
ATOM     11  C   UNL A   1      33.824  25.499  25.562  1.00  0.00     0.120 C 
ATOM     12  C   UNL A   1      32.850  24.499  23.548  1.00  0.00     0.120 C 
ATOM     13  C   UNL A   1      32.672  26.474  25.683  1.00  0.00     0.026 C 
ATOM     14  C   UNL A   1      31.681  25.489  23.579  1.00  0.00     0.026 C 
BRANCH   8  15
ATOM     15  C   UNL A   1      34.137  21.914  25.089  1.00  0.00     0.133 C 
BRANCH  15  16
ATOM     16  C   UNL A   1      35.551  21.741  25.655  1.00  0.00     0.022 C 
BRANCH  16  17
ATOM     17  C   UNL A   1      36.699  21.746  24.626  1.00  0.00    -0.016 C 
ATOM     18  C   UNL A   1      36.599  22.896  23.624  1.00  0.00     0.007 C 
ATOM     19  C   UNL A   1      38.037  21.823  25.369  1.00  0.00     0.007 C 
ENDBRANCH  16  17
ENDBRANCH  15  16
BRANCH  15  20
ATOM     20  C   UNL A   1      33.236  20.666  25.204  1.00  0.00     0.272 C 
BRANCH  20  21
ATOM     21  N   UNL A   1      33.277  19.987  26.499  1.00  0.00    -0.357 N 
ATOM     22  H   UNL A   1      34.099  20.296  27.019  1.00  0.00     0.344 HD
ATOM     23  H   UNL A   1      33.324  18.979  26.355  1.00  0.00     0.344 HD
ATOM     24  H   UNL A   1      32.436  20.215  27.029  1.00  0.00     0.344 HD
ENDBRANCH  20  21
ENDBRANCH  15  20
ENDBRANCH   8  15
ENDBRANCH   6   7
ENDBRANCH   3   6
ENDBRANCH   1   2
BRANCH   1  25
ATOM     25  C   UNL A   1      31.332  31.836  26.238  1.00  0.00     0.042 C 
BRANCH  25  26
ATOM     26  C   UNL A   1      32.593  32.385  26.897  1.00  0.00     0.118 C 
BRANCH  26  27
ATOM     27  N   UNL A   1      32.413  33.757  27.340  1.00  0.00    -0.352 N 
ATOM     28  C   UNL A   1      33.013  34.434  28.376  1.00  0.00     0.251 C 
ATOM     29  H   UNL A   1      31.765  34.283  26.819  1.00  0.00     0.163 HD
ATOM     30  O   UNL A   1      32.544  35.507  28.744  1.00  0.00    -0.269 OA
BRANCH  28  31
ATOM     31  C   UNL A   1      34.210  33.891  29.065  1.00  0.00     0.039 A 
ATOM     32  C   UNL A   1      34.027  32.953  30.088  1.00  0.00     0.014 A 
ATOM     33  C   UNL A   1      35.499  34.344  28.772  1.00  0.00     0.014 A 
ATOM     34  C   UNL A   1      35.132  32.435  30.775  1.00  0.00     0.010 A 
ATOM     35  C   UNL A   1      36.605  33.781  29.412  1.00  0.00     0.010 A 
ATOM     36  C   UNL A   1      36.434  32.823  30.423  1.00  0.00    -0.014 A 
BRANCH  36  37
ATOM     37  C   UNL A   1      37.623  32.237  31.097  1.00  0.00     0.031 A 
ATOM     38  C   UNL A   1      38.391  31.114  30.452  1.00  0.00     0.074 A 
ATOM     39  C   UNL A   1      37.976  32.666  32.323  1.00  0.00     0.049 A 
ATOM     40  N   UNL A   1      39.392  30.415  30.926  1.00  0.00    -0.248 NA
ATOM     41  C   UNL A   1      37.964  30.710  29.103  1.00  0.00     0.031 C 
ATOM     42  C   UNL A   1      37.296  33.721  33.076  1.00  0.00     0.029 A 
ATOM     43  N   UNL A   1      38.984  32.256  33.162  1.00  0.00    -0.354 N 
ATOM     44  C   UNL A   1      39.699  29.479  29.947  1.00  0.00     0.074 A 
ATOM     45  C   UNL A   1      38.758  29.676  28.865  1.00  0.00     0.031 C 
ATOM     46  C   UNL A   1      37.908  33.880  34.260  1.00  0.00     0.029 A 
ATOM     47  C   UNL A   1      38.999  32.915  34.367  1.00  0.00     0.049 A 
ATOM     48  H   UNL A   1      39.633  31.557  32.922  1.00  0.00     0.167 HD
ATOM     49  C   UNL A   1      40.687  28.551  29.944  1.00  0.00     0.037 A 
ATOM     50  C   UNL A   1      39.788  32.748  35.447  1.00  0.00     0.037 A 
ATOM     51  C   UNL A   1      41.647  28.378  31.002  1.00  0.00     0.049 A 
ATOM     52  C   UNL A   1      40.870  31.704  35.421  1.00  0.00     0.074 A 
ATOM     53  C   UNL A   1      42.738  27.525  31.046  1.00  0.00     0.029 A 
ATOM     54  N   UNL A   1      41.631  29.067  32.204  1.00  0.00    -0.354 N 
ATOM     55  N   UNL A   1      41.192  30.871  34.462  1.00  0.00    -0.248 NA
ATOM     56  C   UNL A   1      41.697  31.576  36.629  1.00  0.00     0.031 C 
ATOM     57  C   UNL A   1      43.355  27.668  32.293  1.00  0.00     0.029 A 
ATOM     58  C   UNL A   1      42.674  28.636  33.011  1.00  0.00     0.049 A 
ATOM     59  H   UNL A   1      40.976  29.760  32.450  1.00  0.00     0.167 HD
ATOM     60  C   UNL A   1      42.262  30.131  34.943  1.00  0.00     0.074 A 
ATOM     61  C   UNL A   1      42.550  30.624  36.274  1.00  0.00     0.031 C 
ATOM     62  C   UNL A   1      42.944  29.130  34.335  1.00  0.00     0.037 A 
BRANCH  49  63
ATOM     63  C   UNL A   1      40.786  27.644  28.753  1.00  0.00     0.064 A 
ATOM     64  C   UNL A   1      40.000  26.487  28.644  1.00  0.00     0.173 A 
ATOM     65  C   UNL A   1      41.634  27.966  27.683  1.00  0.00     0.173 A 
ATOM     66  F   UNL A   1      39.179  26.132  29.643  1.00  0.00    -0.203 F 
ATOM     67  C   UNL A   1      40.077  25.674  27.516  1.00  0.00     0.198 A 
ATOM     68  C   UNL A   1      41.690  27.165  26.546  1.00  0.00     0.198 A 
ATOM     69  F   UNL A   1      42.399  29.067  27.734  1.00  0.00    -0.203 F 
ATOM     70  F   UNL A   1      39.344  24.554  27.448  1.00  0.00    -0.200 F 
ATOM     71  C   UNL A   1      40.915  26.017  26.465  1.00  0.00     0.200 A 
ATOM     72  F   UNL A   1      42.491  27.503  25.527  1.00  0.00    -0.200 F 
ATOM     73  F   UNL A   1      40.981  25.237  25.377  1.00  0.00    -0.200 F 
ENDBRANCH  49  63
BRANCH  50  74
ATOM     74  C   UNL A   1      39.580  33.597  36.648  1.00  0.00     0.064 A 
ATOM     75  C   UNL A   1      38.772  33.159  37.706  1.00  0.00     0.173 A 
ATOM     76  C   UNL A   1      40.186  34.856  36.763  1.00  0.00     0.173 A 
ATOM     77  F   UNL A   1      38.152  31.973  37.629  1.00  0.00    -0.203 F 
ATOM     78  C   UNL A   1      38.568  33.957  38.831  1.00  0.00     0.198 A 
ATOM     79  C   UNL A   1      40.003  35.641  37.900  1.00  0.00     0.198 A 
ATOM     80  F   UNL A   1      40.968  35.320  35.777  1.00  0.00    -0.203 F 
ATOM     81  F   UNL A   1      37.760  33.533  39.811  1.00  0.00    -0.200 F 
ATOM     82  C   UNL A   1      39.189  35.193  38.929  1.00  0.00     0.200 A 
ATOM     83  F   UNL A   1      40.612  36.830  37.996  1.00  0.00    -0.200 F 
ATOM     84  F   UNL A   1      38.996  35.957  40.012  1.00  0.00    -0.200 F 
ENDBRANCH  50  74
BRANCH  62  85
ATOM     85  C   UNL A   1      44.071  28.502  35.101  1.00  0.00     0.064 A 
ATOM     86  C   UNL A   1      45.374  29.017  35.032  1.00  0.00     0.173 A 
ATOM     87  C   UNL A   1      43.838  27.406  35.945  1.00  0.00     0.173 A 
ATOM     88  F   UNL A   1      45.649  30.053  34.226  1.00  0.00    -0.203 F 
ATOM     89  C   UNL A   1      46.407  28.445  35.768  1.00  0.00     0.198 A 
ATOM     90  C   UNL A   1      44.870  26.852  36.699  1.00  0.00     0.198 A 
ATOM     91  F   UNL A   1      42.609  26.881  36.048  1.00  0.00    -0.203 F 
ATOM     92  F   UNL A   1      47.653  28.929  35.660  1.00  0.00    -0.200 F 
ATOM     93  C   UNL A   1      46.154  27.368  36.606  1.00  0.00     0.200 A 
ATOM     94  F   UNL A   1      44.622  25.819  37.515  1.00  0.00    -0.200 F 
ATOM     95  F   UNL A   1      47.149  26.825  37.320  1.00  0.00    -0.200 F 
ENDBRANCH  62  85
ENDBRANCH  36  37
ENDBRANCH  28  31
ENDBRANCH  26  27
ENDBRANCH  25  26
ENDBRANCH   1  25
TORSDOF 16
ENDMDL
MODEL 3
REMARK VINA RESULT:     -11.2      5.234     11.109
REMARK SMILES CC(C)C[C@@H](C[NH3+])C(=O)N1CCC(CC(=O)NCCCNC(=O)c2ccc(-c3c4nc(c(-c5c(F)c(F)c(F)c(F)c5F)c5ccc([nH]5)c(-c5c(F)c(F)c(F)c(F)c5F)c5nc(c(-c6c(F)c(F)c(F)c(F)c6F)c6ccc3[nH]6)C=C5)C=C4)cc2)CC1
REMARK SMILES IDX 18 1 17 2 15 3 16 4 14 6 13 7 8 8 9 9 10 10 11 11 88 12
REMARK SMILES IDX 12 13 87 14 5 15 4 16 2 17 1 18 3 19 6 20 7 21 19 25 20 26
REMARK SMILES IDX 21 27 22 28 23 30 24 31 25 32 86 33 26 34 85 35 27 36 28 37
REMARK SMILES IDX 29 38 79 39 30 40 84 41 78 42 80 43 31 44 83 45 77 46 76 47
REMARK SMILES IDX 32 49 64 50 44 51 63 52 45 53 48 54 62 55 81 56 46 57 47 58
REMARK SMILES IDX 61 60 82 61 49 62 33 63 34 64 42 65 35 66 36 67 40 68 43 69
REMARK SMILES IDX 37 70 38 71 41 72 39 73 65 74 66 75 74 76 67 77 68 78 72 79
REMARK SMILES IDX 75 80 69 81 70 82 73 83 71 84 50 85 51 86 59 87 52 88 53 89
REMARK SMILES IDX 57 90 60 91 54 92 55 93 58 94 56 95
REMARK H PARENT 17 5 7 22 7 23 7 24 21 29 80 48 48 59
REMARK Flexibility Score: inf
ROOT
ATOM      1  C   UNL A   1      31.588  30.654  26.417  1.00  0.00     0.117 C 
ENDROOT
BRANCH   1   2
ATOM      2  N   UNL A   1      31.394  30.362  25.001  1.00  0.00    -0.356 N 
ATOM      3  C   UNL A   1      31.248  29.181  24.335  1.00  0.00     0.220 C 
ATOM      4  O   UNL A   1      31.103  29.220  23.111  1.00  0.00    -0.275 OA
ATOM      5  H   UNL A   1      31.362  31.159  24.424  1.00  0.00     0.163 HD
BRANCH   3   6
ATOM      6  C   UNL A   1      31.292  27.854  25.067  1.00  0.00     0.103 C 
BRANCH   6   7
ATOM      7  C   UNL A   1      32.452  26.948  24.612  1.00  0.00     0.002 C 
ATOM      8  C   UNL A   1      33.723  23.176  25.593  1.00  0.00     0.231 C 
ATOM      9  O   UNL A   1      33.492  23.179  26.808  1.00  0.00    -0.274 OA
ATOM     10  N   UNL A   1      33.734  24.352  24.871  1.00  0.00    -0.342 N 
ATOM     11  C   UNL A   1      34.370  25.509  25.463  1.00  0.00     0.120 C 
ATOM     12  C   UNL A   1      32.959  24.613  23.669  1.00  0.00     0.120 C 
ATOM     13  C   UNL A   1      33.339  26.565  25.799  1.00  0.00     0.026 C 
ATOM     14  C   UNL A   1      31.897  25.688  23.921  1.00  0.00     0.026 C 
BRANCH   8  15
ATOM     15  C   UNL A   1      34.311  21.917  24.941  1.00  0.00     0.133 C 
BRANCH  15  16
ATOM     16  C   UNL A   1      35.629  21.401  25.528  1.00  0.00     0.022 C 
BRANCH  16  17
ATOM     17  C   UNL A   1      36.888  21.619  24.664  1.00  0.00    -0.016 C 
ATOM     18  C   UNL A   1      36.654  22.578  23.498  1.00  0.00     0.007 C 
ATOM     19  C   UNL A   1      38.018  22.151  25.552  1.00  0.00     0.007 C 
ENDBRANCH  16  17
ENDBRANCH  15  16
BRANCH  15  20
ATOM     20  C   UNL A   1      33.189  20.861  24.840  1.00  0.00     0.272 C 
BRANCH  20  21
ATOM     21  N   UNL A   1      31.898  21.272  25.395  1.00  0.00    -0.357 N 
ATOM     22  H   UNL A   1      32.009  22.152  25.898  1.00  0.00     0.344 HD
ATOM     23  H   UNL A   1      31.558  20.554  26.035  1.00  0.00     0.344 HD
ATOM     24  H   UNL A   1      31.227  21.396  24.637  1.00  0.00     0.344 HD
ENDBRANCH  20  21
ENDBRANCH  15  20
ENDBRANCH   8  15
ENDBRANCH   6   7
ENDBRANCH   3   6
ENDBRANCH   1   2
BRANCH   1  25
ATOM     25  C   UNL A   1      31.408  32.138  26.754  1.00  0.00     0.042 C 
BRANCH  25  26
ATOM     26  C   UNL A   1      32.710  32.897  26.987  1.00  0.00     0.118 C 
BRANCH  26  27
ATOM     27  N   UNL A   1      32.472  34.201  27.583  1.00  0.00    -0.352 N 
ATOM     28  C   UNL A   1      33.020  34.768  28.709  1.00  0.00     0.251 C 
ATOM     29  H   UNL A   1      31.820  34.765  27.108  1.00  0.00     0.163 HD
ATOM     30  O   UNL A   1      32.505  35.775  29.187  1.00  0.00    -0.269 OA
BRANCH  28  31
ATOM     31  C   UNL A   1      34.216  34.183  29.367  1.00  0.00     0.039 A 
ATOM     32  C   UNL A   1      34.037  33.414  30.522  1.00  0.00     0.014 A 
ATOM     33  C   UNL A   1      35.510  34.442  28.908  1.00  0.00     0.014 A 
ATOM     34  C   UNL A   1      35.143  32.864  31.181  1.00  0.00     0.010 A 
ATOM     35  C   UNL A   1      36.609  33.842  29.527  1.00  0.00     0.010 A 
ATOM     36  C   UNL A   1      36.438  33.050  30.673  1.00  0.00    -0.014 A 
BRANCH  36  37
ATOM     37  C   UNL A   1      37.620  32.421  31.321  1.00  0.00     0.031 A 
ATOM     38  C   UNL A   1      38.363  31.305  30.638  1.00  0.00     0.074 A 
ATOM     39  C   UNL A   1      37.987  32.806  32.558  1.00  0.00     0.049 A 
ATOM     40  N   UNL A   1      39.354  30.574  31.085  1.00  0.00    -0.248 NA
ATOM     41  C   UNL A   1      37.923  30.951  29.280  1.00  0.00     0.031 C 
ATOM     42  C   UNL A   1      37.330  33.849  33.347  1.00  0.00     0.029 A 
ATOM     43  N   UNL A   1      38.991  32.352  33.379  1.00  0.00    -0.354 N 
ATOM     44  C   UNL A   1      39.639  29.663  30.075  1.00  0.00     0.074 A 
ATOM     45  C   UNL A   1      38.696  29.911  29.006  1.00  0.00     0.031 C 
ATOM     46  C   UNL A   1      37.951  33.962  34.532  1.00  0.00     0.029 A 
ATOM     47  C   UNL A   1      39.024  32.973  34.603  1.00  0.00     0.049 A 
ATOM     48  H   UNL A   1      39.626  31.649  33.114  1.00  0.00     0.167 HD
ATOM     49  C   UNL A   1      40.610  28.718  30.039  1.00  0.00     0.037 A 
ATOM     50  C   UNL A   1      39.815  32.759  35.673  1.00  0.00     0.037 A 
ATOM     51  C   UNL A   1      41.572  28.494  31.086  1.00  0.00     0.049 A 
ATOM     52  C   UNL A   1      40.878  31.697  35.609  1.00  0.00     0.074 A 
ATOM     53  C   UNL A   1      42.647  27.622  31.098  1.00  0.00     0.029 A 
ATOM     54  N   UNL A   1      41.575  29.147  32.309  1.00  0.00    -0.354 N 
ATOM     55  N   UNL A   1      41.179  30.889  34.623  1.00  0.00    -0.248 NA
ATOM     56  C   UNL A   1      41.709  31.516  36.808  1.00  0.00     0.031 C 
ATOM     57  C   UNL A   1      43.273  27.714  32.345  1.00  0.00     0.029 A 
ATOM     58  C   UNL A   1      42.613  28.672  33.095  1.00  0.00     0.049 A 
ATOM     59  H   UNL A   1      40.933  29.844  32.579  1.00  0.00     0.167 HD
ATOM     60  C   UNL A   1      42.239  30.115  35.075  1.00  0.00     0.074 A 
ATOM     61  C   UNL A   1      42.542  30.561  36.419  1.00  0.00     0.031 C 
ATOM     62  C   UNL A   1      42.899  29.120  34.433  1.00  0.00     0.037 A 
BRANCH  49  63
ATOM     63  C   UNL A   1      40.686  27.846  28.820  1.00  0.00     0.064 A 
ATOM     64  C   UNL A   1      39.933  26.667  28.712  1.00  0.00     0.173 A 
ATOM     65  C   UNL A   1      41.476  28.224  27.724  1.00  0.00     0.173 A 
ATOM     66  F   UNL A   1      39.168  26.258  29.735  1.00  0.00    -0.203 F 
ATOM     67  C   UNL A   1      39.987  25.887  27.560  1.00  0.00     0.198 A 
ATOM     68  C   UNL A   1      41.509  27.455  26.565  1.00  0.00     0.198 A 
ATOM     69  F   UNL A   1      42.208  29.348  27.774  1.00  0.00    -0.203 F 
ATOM     70  F   UNL A   1      39.288  24.745  27.492  1.00  0.00    -0.200 F 
ATOM     71  C   UNL A   1      40.768  26.285  26.485  1.00  0.00     0.200 A 
ATOM     72  F   UNL A   1      42.254  27.847  25.522  1.00  0.00    -0.200 F 
ATOM     73  F   UNL A   1      40.812  25.537  25.373  1.00  0.00    -0.200 F 
ENDBRANCH  49  63
BRANCH  50  74
ATOM     74  C   UNL A   1      39.629  33.574  36.901  1.00  0.00     0.064 A 
ATOM     75  C   UNL A   1      40.304  34.792  37.063  1.00  0.00     0.173 A 
ATOM     76  C   UNL A   1      38.776  33.155  37.931  1.00  0.00     0.173 A 
ATOM     77  F   UNL A   1      41.150  35.221  36.117  1.00  0.00    -0.203 F 
ATOM     78  C   UNL A   1      40.139  35.555  38.218  1.00  0.00     0.198 A 
ATOM     79  C   UNL A   1      38.591  33.932  39.073  1.00  0.00     0.198 A 
ATOM     80  F   UNL A   1      38.109  31.996  37.822  1.00  0.00    -0.203 F 
ATOM     81  F   UNL A   1      40.825  36.696  38.368  1.00  0.00    -0.200 F 
ATOM     82  C   UNL A   1      39.278  35.127  39.218  1.00  0.00     0.200 A 
ATOM     83  F   UNL A   1      37.751  33.520  40.032  1.00  0.00    -0.200 F 
ATOM     84  F   UNL A   1      39.117  35.863  40.326  1.00  0.00    -0.200 F 
ENDBRANCH  50  74
BRANCH  62  85
ATOM     85  C   UNL A   1      44.018  28.449  35.173  1.00  0.00     0.064 A 
ATOM     86  C   UNL A   1      43.796  27.298  35.944  1.00  0.00     0.173 A 
ATOM     87  C   UNL A   1      45.331  28.935  35.076  1.00  0.00     0.173 A 
ATOM     88  F   UNL A   1      42.555  26.807  36.080  1.00  0.00    -0.203 F 
ATOM     89  C   UNL A   1      44.845  26.667  36.604  1.00  0.00     0.198 A 
ATOM     90  C   UNL A   1      46.382  28.286  35.719  1.00  0.00     0.198 A 
ATOM     91  F   UNL A   1      45.594  30.030  34.349  1.00  0.00    -0.203 F 
ATOM     92  F   UNL A   1      44.606  25.590  37.365  1.00  0.00    -0.200 F 
ATOM     93  C   UNL A   1      46.138  27.157  36.486  1.00  0.00     0.200 A 
ATOM     94  F   UNL A   1      47.631  28.754  35.596  1.00  0.00    -0.200 F 
ATOM     95  F   UNL A   1      47.149  26.542  37.116  1.00  0.00    -0.200 F 
ENDBRANCH  62  85
ENDBRANCH  36  37
ENDBRANCH  28  31
ENDBRANCH  26  27
ENDBRANCH  25  26
ENDBRANCH   1  25
TORSDOF 16
ENDMDL
