MODEL 1
REMARK VINA RESULT:     -12.3      0.000      0.000
REMARK SMILES O=C(NCCCNC(=O)[C@@H]1C[N@@H+](CCOc2ccc(F)cc2)C[C@H]1C1CC1)c1ccc(-c2c3nc(c(-c4c(F)c(F)c(F)c(F)c4F)c4ccc([nH]4)c(-c4c(F)c(F)c(F)c(F)c4F)c4nc(c(-c5c(F)c(F)c(F)c(F)c5F)c5ccc2[nH]5)C=C4)C=C3)cc1
REMARK SMILES IDX 6 1 5 2 4 3 3 4 1 5 2 6 28 8 29 9 90 10 30 11 89 12 31 13
REMARK SMILES IDX 32 14 33 15 83 16 34 17 88 18 82 19 84 20 35 21 87 22 81 23
REMARK SMILES IDX 80 24 36 26 68 27 48 28 67 29 49 30 52 31 66 32 85 33 50 34
REMARK SMILES IDX 51 35 65 37 86 38 53 39 37 40 38 41 46 42 39 43 40 44 44 45
REMARK SMILES IDX 47 46 41 47 42 48 45 49 43 50 69 51 70 52 78 53 71 54 72 55
REMARK SMILES IDX 76 56 79 57 73 58 74 59 77 60 75 61 54 62 55 63 63 64 56 65
REMARK SMILES IDX 57 66 61 67 64 68 58 69 59 70 62 71 60 72 7 73 8 74 9 76
REMARK SMILES IDX 10 77 11 78 24 79 12 80 23 81 25 83 26 84 27 85 13 86 14 87
REMARK SMILES IDX 15 88 16 89 17 90 22 91 18 92 21 93 19 94 20 95
REMARK H PARENT 3 7 84 25 52 36 7 75 12 82
REMARK Flexibility Score: inf
ROOT
ATOM      1  C   UNL A   1      31.500  30.787  26.025  1.00  0.00     0.117 C 
ENDROOT
BRANCH   1   2
ATOM      2  C   UNL A   1      31.342  32.250  26.424  1.00  0.00     0.042 C 
BRANCH   2   3
ATOM      3  C   UNL A   1      32.499  32.770  27.270  1.00  0.00     0.118 C 
BRANCH   3   4
ATOM      4  N   UNL A   1      32.358  34.169  27.651  1.00  0.00    -0.352 N 
ATOM      5  O   UNL A   1      32.592  36.087  28.782  1.00  0.00    -0.269 OA
ATOM      6  C   UNL A   1      32.996  34.942  28.597  1.00  0.00     0.251 C 
ATOM      7  H   UNL A   1      31.676  34.656  27.134  1.00  0.00     0.163 HD
BRANCH   6   8
ATOM      8  C   UNL A   1      34.147  34.449  29.402  1.00  0.00     0.039 A 
ATOM      9  C   UNL A   1      33.982  33.784  30.614  1.00  0.00     0.014 A 
ATOM     10  C   UNL A   1      35.443  34.564  28.871  1.00  0.00     0.014 A 
ATOM     11  C   UNL A   1      35.085  33.371  31.354  1.00  0.00     0.010 A 
ATOM     12  C   UNL A   1      36.546  34.023  29.549  1.00  0.00     0.010 A 
ATOM     13  C   UNL A   1      36.374  33.419  30.801  1.00  0.00    -0.014 A 
BRANCH  13  14
ATOM     14  C   UNL A   1      37.462  32.664  31.478  1.00  0.00     0.031 A 
ATOM     15  C   UNL A   1      38.182  31.529  30.812  1.00  0.00     0.074 A 
ATOM     16  C   UNL A   1      37.817  33.054  32.721  1.00  0.00     0.049 A 
ATOM     17  N   UNL A   1      39.164  30.797  31.277  1.00  0.00    -0.248 NA
ATOM     18  C   UNL A   1      37.751  31.157  29.455  1.00  0.00     0.031 C 
ATOM     19  C   UNL A   1      37.165  34.128  33.479  1.00  0.00     0.029 A 
ATOM     20  N   UNL A   1      38.817  32.628  33.557  1.00  0.00    -0.354 N 
ATOM     21  C   UNL A   1      39.454  29.869  30.287  1.00  0.00     0.074 A 
ATOM     22  C   UNL A   1      38.538  30.118  29.195  1.00  0.00     0.031 C 
ATOM     23  C   UNL A   1      37.824  34.325  34.628  1.00  0.00     0.029 A 
ATOM     24  C   UNL A   1      38.886  33.333  34.736  1.00  0.00     0.049 A 
ATOM     25  H   UNL A   1      39.428  31.888  33.336  1.00  0.00     0.167 HD
ATOM     26  C   UNL A   1      40.404  28.905  30.298  1.00  0.00     0.037 A 
ATOM     27  C   UNL A   1      39.692  33.188  35.803  1.00  0.00     0.037 A 
ATOM     28  C   UNL A   1      41.330  28.685  31.381  1.00  0.00     0.049 A 
ATOM     29  C   UNL A   1      40.721  32.097  35.787  1.00  0.00     0.074 A 
ATOM     30  C   UNL A   1      42.363  27.766  31.454  1.00  0.00     0.029 A 
ATOM     31  N   UNL A   1      41.335  29.389  32.576  1.00  0.00    -0.354 N 
ATOM     32  N   UNL A   1      41.002  31.249  34.829  1.00  0.00    -0.248 NA
ATOM     33  C   UNL A   1      41.530  31.927  37.000  1.00  0.00     0.031 C 
ATOM     34  C   UNL A   1      42.962  27.880  32.711  1.00  0.00     0.029 A 
ATOM     35  C   UNL A   1      42.334  28.901  33.405  1.00  0.00     0.049 A 
ATOM     36  H   UNL A   1      40.722  30.125  32.803  1.00  0.00     0.167 HD
ATOM     37  C   UNL A   1      42.013  30.440  35.323  1.00  0.00     0.074 A 
ATOM     38  C   UNL A   1      42.321  30.921  36.654  1.00  0.00     0.031 C 
ATOM     39  C   UNL A   1      42.619  29.385  34.730  1.00  0.00     0.037 A 
BRANCH  26  40
ATOM     40  C   UNL A   1      40.513  27.992  29.112  1.00  0.00     0.064 A 
ATOM     41  C   UNL A   1      41.279  28.370  27.998  1.00  0.00     0.173 A 
ATOM     42  C   UNL A   1      39.753  26.818  29.021  1.00  0.00     0.173 A 
ATOM     43  F   UNL A   1      42.014  29.491  28.033  1.00  0.00    -0.203 F 
ATOM     44  C   UNL A   1      41.258  27.619  26.826  1.00  0.00     0.198 A 
ATOM     45  C   UNL A   1      39.751  26.058  27.853  1.00  0.00     0.198 A 
ATOM     46  F   UNL A   1      39.010  26.412  30.061  1.00  0.00    -0.203 F 
ATOM     47  F   UNL A   1      41.963  28.022  25.759  1.00  0.00    -0.200 F 
ATOM     48  C   UNL A   1      40.492  26.466  26.754  1.00  0.00     0.200 A 
ATOM     49  F   UNL A   1      39.021  24.936  27.788  1.00  0.00    -0.200 F 
ATOM     50  F   UNL A   1      40.464  25.748  25.621  1.00  0.00    -0.200 F 
ENDBRANCH  26  40
BRANCH  27  51
ATOM     51  C   UNL A   1      39.524  34.079  36.981  1.00  0.00     0.064 A 
ATOM     52  C   UNL A   1      40.152  35.333  37.037  1.00  0.00     0.173 A 
ATOM     53  C   UNL A   1      38.761  33.682  38.087  1.00  0.00     0.173 A 
ATOM     54  F   UNL A   1      40.898  35.757  36.007  1.00  0.00    -0.203 F 
ATOM     55  C   UNL A   1      40.047  36.143  38.165  1.00  0.00     0.198 A 
ATOM     56  C   UNL A   1      38.629  34.508  39.201  1.00  0.00     0.198 A 
ATOM     57  F   UNL A   1      38.126  32.501  38.074  1.00  0.00    -0.203 F 
ATOM     58  F   UNL A   1      40.696  37.313  38.208  1.00  0.00    -0.200 F 
ATOM     59  C   UNL A   1      39.280  35.732  39.244  1.00  0.00     0.200 A 
ATOM     60  F   UNL A   1      37.867  34.121  40.234  1.00  0.00    -0.200 F 
ATOM     61  F   UNL A   1      39.167  36.517  40.324  1.00  0.00    -0.200 F 
ENDBRANCH  27  51
BRANCH  39  62
ATOM     62  C   UNL A   1      43.673  28.668  35.518  1.00  0.00     0.064 A 
ATOM     63  C   UNL A   1      45.025  29.011  35.380  1.00  0.00     0.173 A 
ATOM     64  C   UNL A   1      43.344  27.594  36.356  1.00  0.00     0.173 A 
ATOM     65  F   UNL A   1      45.389  30.028  34.585  1.00  0.00    -0.203 F 
ATOM     66  C   UNL A   1      46.015  28.289  36.041  1.00  0.00     0.198 A 
ATOM     67  C   UNL A   1      44.334  26.891  37.036  1.00  0.00     0.198 A 
ATOM     68  F   UNL A   1      42.061  27.242  36.531  1.00  0.00    -0.203 F 
ATOM     69  F   UNL A   1      47.304  28.611  35.869  1.00  0.00    -0.200 F 
ATOM     70  C   UNL A   1      45.668  27.232  36.870  1.00  0.00     0.200 A 
ATOM     71  F   UNL A   1      43.997  25.885  37.854  1.00  0.00    -0.200 F 
ATOM     72  F   UNL A   1      46.621  26.543  37.511  1.00  0.00    -0.200 F 
ENDBRANCH  39  62
ENDBRANCH  13  14
ENDBRANCH   6   8
ENDBRANCH   3   4
ENDBRANCH   2   3
ENDBRANCH   1   2
BRANCH   1  73
ATOM     73  N   UNL A   1      30.862  30.430  24.745  1.00  0.00    -0.356 N 
ATOM     74  C   UNL A   1      30.640  29.303  24.003  1.00  0.00     0.229 C 
ATOM     75  H   UNL A   1      30.493  31.227  24.299  1.00  0.00     0.163 HD
ATOM     76  O   UNL A   1      29.850  29.449  23.061  1.00  0.00    -0.275 OA
BRANCH  74  77
ATOM     77  C   UNL A   1      31.407  27.980  24.139  1.00  0.00     0.142 C 
ATOM     78  C   UNL A   1      30.963  26.857  23.144  1.00  0.00     0.276 C 
ATOM     79  C   UNL A   1      31.286  27.325  25.489  1.00  0.00     0.065 C 
ATOM     80  N   UNL A   1      30.579  25.664  23.942  1.00  0.00    -0.331 N 
ATOM     81  C   UNL A   1      30.273  26.226  25.231  1.00  0.00     0.267 C 
ATOM     82  H   UNL A   1      29.787  25.181  23.517  1.00  0.00     0.348 HD
BRANCH  79  83
ATOM     83  C   UNL A   1      32.587  26.972  26.161  1.00  0.00    -0.001 C 
ATOM     84  C   UNL A   1      33.952  27.548  25.857  1.00  0.00     0.004 C 
ATOM     85  C   UNL A   1      33.259  27.929  27.126  1.00  0.00     0.004 C 
ENDBRANCH  79  83
BRANCH  80  86
ATOM     86  C   UNL A   1      31.471  24.484  23.923  1.00  0.00     0.304 C 
BRANCH  86  87
ATOM     87  C   UNL A   1      32.675  24.311  22.921  1.00  0.00     0.290 C 
BRANCH  87  88
ATOM     88  O   UNL A   1      33.931  24.912  23.301  1.00  0.00    -0.488 OA
BRANCH  88  89
ATOM     89  C   UNL A   1      34.862  24.070  23.870  1.00  0.00     0.119 A 
ATOM     90  C   UNL A   1      35.110  24.295  25.231  1.00  0.00     0.049 A 
ATOM     91  C   UNL A   1      35.658  23.157  23.169  1.00  0.00     0.049 A 
ATOM     92  C   UNL A   1      36.264  23.780  25.829  1.00  0.00     0.043 A 
ATOM     93  C   UNL A   1      36.801  22.622  23.779  1.00  0.00     0.043 A 
ATOM     94  C   UNL A   1      37.117  22.977  25.085  1.00  0.00     0.123 A 
ATOM     95  F   UNL A   1      38.279  22.571  25.618  1.00  0.00    -0.207 F 
ENDBRANCH  88  89
ENDBRANCH  87  88
ENDBRANCH  86  87
ENDBRANCH  80  86
ENDBRANCH  74  77
ENDBRANCH   1  73
TORSDOF 15
ENDMDL
MODEL 2
REMARK VINA RESULT:     -12.3      5.615     10.848
REMARK SMILES O=C(NCCCNC(=O)[C@@H]1C[N@@H+](CCOc2ccc(F)cc2)C[C@H]1C1CC1)c1ccc(-c2c3nc(c(-c4c(F)c(F)c(F)c(F)c4F)c4ccc([nH]4)c(-c4c(F)c(F)c(F)c(F)c4F)c4nc(c(-c5c(F)c(F)c(F)c(F)c5F)c5ccc2[nH]5)C=C4)C=C3)cc1
REMARK SMILES IDX 6 1 5 2 4 3 3 4 1 5 2 6 28 8 29 9 90 10 30 11 89 12 31 13
REMARK SMILES IDX 32 14 33 15 83 16 34 17 88 18 82 19 84 20 35 21 87 22 81 23
REMARK SMILES IDX 80 24 36 26 68 27 48 28 67 29 49 30 52 31 66 32 85 33 50 34
REMARK SMILES IDX 51 35 65 37 86 38 53 39 37 40 38 41 46 42 39 43 40 44 44 45
REMARK SMILES IDX 47 46 41 47 42 48 45 49 43 50 69 51 70 52 78 53 71 54 72 55
REMARK SMILES IDX 76 56 79 57 73 58 74 59 77 60 75 61 54 62 55 63 63 64 56 65
REMARK SMILES IDX 57 66 61 67 64 68 58 69 59 70 62 71 60 72 7 73 8 74 9 76
REMARK SMILES IDX 10 77 11 78 24 79 12 80 23 81 25 83 26 84 27 85 13 86 14 87
REMARK SMILES IDX 15 88 16 89 17 90 22 91 18 92 21 93 19 94 20 95
REMARK H PARENT 3 7 84 25 52 36 7 75 12 82
REMARK Flexibility Score: inf
ROOT
ATOM      1  C   UNL A   1      36.805  20.362  25.026  1.00  0.00     0.117 C 
ENDROOT
BRANCH   1   2
ATOM      2  C   UNL A   1      37.990  19.403  25.025  1.00  0.00     0.042 C 
BRANCH   2   3
ATOM      3  C   UNL A   1      39.192  19.932  25.799  1.00  0.00     0.118 C 
BRANCH   3   4
ATOM      4  N   UNL A   1      40.317  19.007  25.830  1.00  0.00    -0.352 N 
ATOM      5  O   UNL A   1      42.416  18.231  25.902  1.00  0.00    -0.269 OA
ATOM      6  C   UNL A   1      41.665  19.192  26.047  1.00  0.00     0.251 C 
ATOM      7  H   UNL A   1      40.067  18.070  25.663  1.00  0.00     0.163 HD
BRANCH   6   8
ATOM      8  C   UNL A   1      42.247  20.503  26.445  1.00  0.00     0.039 A 
ATOM      9  C   UNL A   1      42.718  21.427  25.515  1.00  0.00     0.014 A 
ATOM     10  C   UNL A   1      42.227  20.869  27.802  1.00  0.00     0.014 A 
ATOM     11  C   UNL A   1      43.287  22.626  25.930  1.00  0.00     0.010 A 
ATOM     12  C   UNL A   1      42.672  22.136  28.210  1.00  0.00     0.010 A 
ATOM     13  C   UNL A   1      43.207  23.027  27.272  1.00  0.00    -0.014 A 
BRANCH  13  14
ATOM     14  C   UNL A   1      43.518  24.443  27.606  1.00  0.00     0.031 A 
ATOM     15  C   UNL A   1      42.449  25.436  27.955  1.00  0.00     0.074 A 
ATOM     16  C   UNL A   1      44.817  24.815  27.621  1.00  0.00     0.049 A 
ATOM     17  N   UNL A   1      42.579  26.697  28.286  1.00  0.00    -0.248 NA
ATOM     18  C   UNL A   1      41.054  24.967  27.924  1.00  0.00     0.031 C 
ATOM     19  C   UNL A   1      45.941  23.939  27.270  1.00  0.00     0.029 A 
ATOM     20  N   UNL A   1      45.421  25.996  27.966  1.00  0.00    -0.354 N 
ATOM     21  C   UNL A   1      41.292  27.177  28.483  1.00  0.00     0.074 A 
ATOM     22  C   UNL A   1      40.388  26.077  28.224  1.00  0.00     0.031 C 
ATOM     23  C   UNL A   1      47.092  24.586  27.487  1.00  0.00     0.029 A 
ATOM     24  C   UNL A   1      46.794  25.950  27.902  1.00  0.00     0.049 A 
ATOM     25  H   UNL A   1      44.921  26.801  28.233  1.00  0.00     0.167 HD
ATOM     26  C   UNL A   1      40.913  28.423  28.852  1.00  0.00     0.037 A 
ATOM     27  C   UNL A   1      47.718  26.903  28.124  1.00  0.00     0.037 A 
ATOM     28  C   UNL A   1      41.825  29.502  29.136  1.00  0.00     0.049 A 
ATOM     29  C   UNL A   1      47.259  28.276  28.513  1.00  0.00     0.074 A 
ATOM     30  C   UNL A   1      41.530  30.783  29.569  1.00  0.00     0.029 A 
ATOM     31  N   UNL A   1      43.204  29.429  29.013  1.00  0.00    -0.354 N 
ATOM     32  N   UNL A   1      46.039  28.704  28.726  1.00  0.00    -0.248 NA
ATOM     33  C   UNL A   1      48.296  29.303  28.674  1.00  0.00     0.031 C 
ATOM     34  C   UNL A   1      42.726  31.500  29.663  1.00  0.00     0.029 A 
ATOM     35  C   UNL A   1      43.771  30.653  29.333  1.00  0.00     0.049 A 
ATOM     36  H   UNL A   1      43.706  28.628  28.739  1.00  0.00     0.167 HD
ATOM     37  C   UNL A   1      46.158  30.049  29.038  1.00  0.00     0.074 A 
ATOM     38  C   UNL A   1      47.573  30.359  29.022  1.00  0.00     0.031 C 
ATOM     39  C   UNL A   1      45.180  30.947  29.300  1.00  0.00     0.037 A 
BRANCH  26  40
ATOM     40  C   UNL A   1      39.447  28.718  28.976  1.00  0.00     0.064 A 
ATOM     41  C   UNL A   1      38.734  29.230  27.880  1.00  0.00     0.173 A 
ATOM     42  C   UNL A   1      38.784  28.628  30.207  1.00  0.00     0.173 A 
ATOM     43  F   UNL A   1      39.328  29.346  26.683  1.00  0.00    -0.203 F 
ATOM     44  C   UNL A   1      37.419  29.665  28.020  1.00  0.00     0.198 A 
ATOM     45  C   UNL A   1      37.461  29.046  30.339  1.00  0.00     0.198 A 
ATOM     46  F   UNL A   1      39.421  28.140  31.283  1.00  0.00    -0.203 F 
ATOM     47  F   UNL A   1      36.773  30.192  26.971  1.00  0.00    -0.200 F 
ATOM     48  C   UNL A   1      36.786  29.576  29.250  1.00  0.00     0.200 A 
ATOM     49  F   UNL A   1      36.845  28.948  31.525  1.00  0.00    -0.200 F 
ATOM     50  F   UNL A   1      35.523  30.006  29.387  1.00  0.00    -0.200 F 
ENDBRANCH  26  40
BRANCH  27  51
ATOM     51  C   UNL A   1      49.160  26.587  27.944  1.00  0.00     0.064 A 
ATOM     52  C   UNL A   1      49.722  26.472  26.663  1.00  0.00     0.173 A 
ATOM     53  C   UNL A   1      49.995  26.362  29.045  1.00  0.00     0.173 A 
ATOM     54  F   UNL A   1      48.963  26.673  25.576  1.00  0.00    -0.203 F 
ATOM     55  C   UNL A   1      51.057  26.115  26.490  1.00  0.00     0.198 A 
ATOM     56  C   UNL A   1      51.339  26.038  28.872  1.00  0.00     0.198 A 
ATOM     57  F   UNL A   1      49.510  26.478  30.290  1.00  0.00    -0.203 F 
ATOM     58  F   UNL A   1      51.553  25.967  25.256  1.00  0.00    -0.200 F 
ATOM     59  C   UNL A   1      51.866  25.905  27.596  1.00  0.00     0.200 A 
ATOM     60  F   UNL A   1      52.127  25.858  29.942  1.00  0.00    -0.200 F 
ATOM     61  F   UNL A   1      53.154  25.575  27.430  1.00  0.00    -0.200 F 
ENDBRANCH  27  51
BRANCH  39  62
ATOM     62  C   UNL A   1      45.601  32.357  29.582  1.00  0.00     0.064 A 
ATOM     63  C   UNL A   1      45.879  32.771  30.892  1.00  0.00     0.173 A 
ATOM     64  C   UNL A   1      45.659  33.313  28.558  1.00  0.00     0.173 A 
ATOM     65  F   UNL A   1      45.831  31.894  31.905  1.00  0.00    -0.203 F 
ATOM     66  C   UNL A   1      46.182  34.101  31.170  1.00  0.00     0.198 A 
ATOM     67  C   UNL A   1      45.988  34.635  28.836  1.00  0.00     0.198 A 
ATOM     68  F   UNL A   1      45.417  32.957  27.287  1.00  0.00    -0.203 F 
ATOM     69  F   UNL A   1      46.412  34.484  32.433  1.00  0.00    -0.200 F 
ATOM     70  C   UNL A   1      46.240  35.030  30.142  1.00  0.00     0.200 A 
ATOM     71  F   UNL A   1      46.066  35.528  27.840  1.00  0.00    -0.200 F 
ATOM     72  F   UNL A   1      46.540  36.308  30.410  1.00  0.00    -0.200 F 
ENDBRANCH  39  62
ENDBRANCH  13  14
ENDBRANCH   6   8
ENDBRANCH   3   4
ENDBRANCH   2   3
ENDBRANCH   1   2
BRANCH   1  73
ATOM     73  N   UNL A   1      35.486  19.705  24.992  1.00  0.00    -0.356 N 
ATOM     74  C   UNL A   1      34.175  20.069  24.844  1.00  0.00     0.229 C 
ATOM     75  H   UNL A   1      35.572  18.731  25.108  1.00  0.00     0.163 HD
ATOM     76  O   UNL A   1      33.393  19.127  24.661  1.00  0.00    -0.275 OA
BRANCH  74  77
ATOM     77  C   UNL A   1      33.612  21.479  25.065  1.00  0.00     0.142 C 
ATOM     78  C   UNL A   1      32.049  21.567  25.089  1.00  0.00     0.276 C 
ATOM     79  C   UNL A   1      34.007  22.480  24.011  1.00  0.00     0.065 C 
ATOM     80  N   UNL A   1      31.629  22.547  24.055  1.00  0.00    -0.331 N 
ATOM     81  C   UNL A   1      32.755  22.567  23.158  1.00  0.00     0.267 C 
ATOM     82  H   UNL A   1      30.763  22.253  23.604  1.00  0.00     0.348 HD
BRANCH  79  83
ATOM     83  C   UNL A   1      34.629  23.753  24.522  1.00  0.00    -0.001 C 
ATOM     84  C   UNL A   1      35.365  23.943  25.829  1.00  0.00     0.004 C 
ATOM     85  C   UNL A   1      36.134  23.936  24.547  1.00  0.00     0.004 C 
ENDBRANCH  79  83
BRANCH  80  86
ATOM     86  C   UNL A   1      31.103  23.857  24.495  1.00  0.00     0.304 C 
BRANCH  86  87
ATOM     87  C   UNL A   1      31.376  24.479  25.918  1.00  0.00     0.290 C 
BRANCH  87  88
ATOM     88  O   UNL A   1      30.895  25.820  26.147  1.00  0.00    -0.488 OA
BRANCH  88  89
ATOM     89  C   UNL A   1      31.848  26.760  26.476  1.00  0.00     0.119 A 
ATOM     90  C   UNL A   1      31.390  27.804  27.293  1.00  0.00     0.049 A 
ATOM     91  C   UNL A   1      33.137  26.826  25.938  1.00  0.00     0.049 A 
ATOM     92  C   UNL A   1      32.125  28.989  27.396  1.00  0.00     0.043 A 
ATOM     93  C   UNL A   1      33.883  28.005  26.064  1.00  0.00     0.043 A 
ATOM     94  C   UNL A   1      33.349  29.090  26.749  1.00  0.00     0.123 A 
ATOM     95  F   UNL A   1      34.007  30.259  26.753  1.00  0.00    -0.207 F 
ENDBRANCH  88  89
ENDBRANCH  87  88
ENDBRANCH  86  87
ENDBRANCH  80  86
ENDBRANCH  74  77
ENDBRANCH   1  73
TORSDOF 15
ENDMDL
MODEL 3
REMARK VINA RESULT:     -12.2      5.786     11.336
REMARK SMILES O=C(NCCCNC(=O)[C@@H]1C[N@@H+](CCOc2ccc(F)cc2)C[C@H]1C1CC1)c1ccc(-c2c3nc(c(-c4c(F)c(F)c(F)c(F)c4F)c4ccc([nH]4)c(-c4c(F)c(F)c(F)c(F)c4F)c4nc(c(-c5c(F)c(F)c(F)c(F)c5F)c5ccc2[nH]5)C=C4)C=C3)cc1
REMARK SMILES IDX 6 1 5 2 4 3 3 4 1 5 2 6 28 8 29 9 90 10 30 11 89 12 31 13
REMARK SMILES IDX 32 14 33 15 83 16 34 17 88 18 82 19 84 20 35 21 87 22 81 23
REMARK SMILES IDX 80 24 36 26 68 27 48 28 67 29 49 30 52 31 66 32 85 33 50 34
REMARK SMILES IDX 51 35 65 37 86 38 53 39 37 40 38 41 46 42 39 43 40 44 44 45
REMARK SMILES IDX 47 46 41 47 42 48 45 49 43 50 69 51 70 52 78 53 71 54 72 55
REMARK SMILES IDX 76 56 79 57 73 58 74 59 77 60 75 61 54 62 55 63 63 64 56 65
REMARK SMILES IDX 57 66 61 67 64 68 58 69 59 70 62 71 60 72 7 73 8 74 9 76
REMARK SMILES IDX 10 77 11 78 24 79 12 80 23 81 25 83 26 84 27 85 13 86 14 87
REMARK SMILES IDX 15 88 16 89 17 90 22 91 18 92 21 93 19 94 20 95
REMARK H PARENT 3 7 84 25 52 36 7 75 12 82
REMARK Flexibility Score: inf
ROOT
ATOM      1  C   UNL A   1      36.759  20.509  24.990  1.00  0.00     0.117 C 
ENDROOT
BRANCH   1   2
ATOM      2  C   UNL A   1      37.945  19.552  24.986  1.00  0.00     0.042 C 
BRANCH   2   3
ATOM      3  C   UNL A   1      39.161  20.099  25.727  1.00  0.00     0.118 C 
BRANCH   3   4
ATOM      4  N   UNL A   1      40.241  19.130  25.867  1.00  0.00    -0.352 N 
ATOM      5  O   UNL A   1      42.299  18.270  26.050  1.00  0.00    -0.269 OA
ATOM      6  C   UNL A   1      41.593  19.274  26.087  1.00  0.00     0.251 C 
ATOM      7  H   UNL A   1      39.948  18.194  25.789  1.00  0.00     0.163 HD
BRANCH   6   8
ATOM      8  C   UNL A   1      42.232  20.590  26.363  1.00  0.00     0.039 A 
ATOM      9  C   UNL A   1      42.657  21.444  25.348  1.00  0.00     0.014 A 
ATOM     10  C   UNL A   1      42.315  21.036  27.693  1.00  0.00     0.014 A 
ATOM     11  C   UNL A   1      43.282  22.649  25.649  1.00  0.00     0.010 A 
ATOM     12  C   UNL A   1      42.818  22.312  27.992  1.00  0.00     0.010 A 
ATOM     13  C   UNL A   1      43.306  23.132  26.966  1.00  0.00    -0.014 A 
BRANCH  13  14
ATOM     14  C   UNL A   1      43.672  24.556  27.191  1.00  0.00     0.031 A 
ATOM     15  C   UNL A   1      42.688  25.562  27.711  1.00  0.00     0.074 A 
ATOM     16  C   UNL A   1      44.948  24.923  26.942  1.00  0.00     0.049 A 
ATOM     17  N   UNL A   1      42.877  26.832  27.973  1.00  0.00    -0.248 NA
ATOM     18  C   UNL A   1      41.316  25.098  27.966  1.00  0.00     0.031 C 
ATOM     19  C   UNL A   1      45.984  24.034  26.406  1.00  0.00     0.029 A 
ATOM     20  N   UNL A   1      45.605  26.112  27.127  1.00  0.00    -0.354 N 
ATOM     21  C   UNL A   1      41.652  27.322  28.402  1.00  0.00     0.074 A 
ATOM     22  C   UNL A   1      40.717  26.218  28.357  1.00  0.00     0.031 C 
ATOM     23  C   UNL A   1      47.155  24.683  26.375  1.00  0.00     0.029 A 
ATOM     24  C   UNL A   1      46.939  26.060  26.799  1.00  0.00     0.049 A 
ATOM     25  H   UNL A   1      45.164  26.927  27.462  1.00  0.00     0.167 HD
ATOM     26  C   UNL A   1      41.348  28.580  28.800  1.00  0.00     0.037 A 
ATOM     27  C   UNL A   1      47.886  27.016  26.809  1.00  0.00     0.037 A 
ATOM     28  C   UNL A   1      42.295  29.664  28.868  1.00  0.00     0.049 A 
ATOM     29  C   UNL A   1      47.508  28.402  27.238  1.00  0.00     0.074 A 
ATOM     30  C   UNL A   1      42.087  30.959  29.313  1.00  0.00     0.029 A 
ATOM     31  N   UNL A   1      43.625  29.583  28.482  1.00  0.00    -0.354 N 
ATOM     32  N   UNL A   1      46.352  28.840  27.672  1.00  0.00    -0.248 NA
ATOM     33  C   UNL A   1      48.554  29.430  27.164  1.00  0.00     0.031 C 
ATOM     34  C   UNL A   1      43.277  31.674  29.151  1.00  0.00     0.029 A 
ATOM     35  C   UNL A   1      44.240  30.814  28.649  1.00  0.00     0.049 A 
ATOM     36  H   UNL A   1      44.066  28.772  28.140  1.00  0.00     0.167 HD
ATOM     37  C   UNL A   1      46.526  30.193  27.914  1.00  0.00     0.074 A 
ATOM     38  C   UNL A   1      47.909  30.498  27.614  1.00  0.00     0.031 C 
ATOM     39  C   UNL A   1      45.615  31.102  28.334  1.00  0.00     0.037 A 
BRANCH  26  40
ATOM     40  C   UNL A   1      39.934  28.884  29.197  1.00  0.00     0.064 A 
ATOM     41  C   UNL A   1      39.504  28.651  30.514  1.00  0.00     0.173 A 
ATOM     42  C   UNL A   1      38.974  29.269  28.251  1.00  0.00     0.173 A 
ATOM     43  F   UNL A   1      40.383  28.270  31.453  1.00  0.00    -0.203 F 
ATOM     44  C   UNL A   1      38.161  28.767  30.860  1.00  0.00     0.198 A 
ATOM     45  C   UNL A   1      37.634  29.404  28.607  1.00  0.00     0.198 A 
ATOM     46  F   UNL A   1      39.337  29.508  26.982  1.00  0.00    -0.203 F 
ATOM     47  F   UNL A   1      37.767  28.497  32.113  1.00  0.00    -0.200 F 
ATOM     48  C   UNL A   1      37.227  29.140  29.906  1.00  0.00     0.200 A 
ATOM     49  F   UNL A   1      36.733  29.777  27.687  1.00  0.00    -0.200 F 
ATOM     50  F   UNL A   1      35.932  29.241  30.238  1.00  0.00    -0.200 F 
ENDBRANCH  26  40
BRANCH  27  51
ATOM     51  C   UNL A   1      49.266  26.690  26.361  1.00  0.00     0.064 A 
ATOM     52  C   UNL A   1      50.231  26.222  27.268  1.00  0.00     0.173 A 
ATOM     53  C   UNL A   1      49.658  26.872  25.029  1.00  0.00     0.173 A 
ATOM     54  F   UNL A   1      49.907  26.037  28.556  1.00  0.00    -0.203 F 
ATOM     55  C   UNL A   1      51.540  25.977  26.865  1.00  0.00     0.198 A 
ATOM     56  C   UNL A   1      50.960  26.594  24.619  1.00  0.00     0.198 A 
ATOM     57  F   UNL A   1      48.768  27.300  24.121  1.00  0.00    -0.203 F 
ATOM     58  F   UNL A   1      52.450  25.576  27.761  1.00  0.00    -0.200 F 
ATOM     59  C   UNL A   1      51.903  26.156  25.539  1.00  0.00     0.200 A 
ATOM     60  F   UNL A   1      51.303  26.745  23.332  1.00  0.00    -0.200 F 
ATOM     61  F   UNL A   1      53.160  25.907  25.148  1.00  0.00    -0.200 F 
ENDBRANCH  27  51
BRANCH  39  62
ATOM     62  C   UNL A   1      46.079  32.518  28.486  1.00  0.00     0.064 A 
ATOM     63  C   UNL A   1      46.592  32.974  29.708  1.00  0.00     0.173 A 
ATOM     64  C   UNL A   1      45.947  33.439  27.438  1.00  0.00     0.173 A 
ATOM     65  F   UNL A   1      46.732  32.131  30.742  1.00  0.00    -0.203 F 
ATOM     66  C   UNL A   1      46.940  34.311  29.881  1.00  0.00     0.198 A 
ATOM     67  C   UNL A   1      46.321  34.769  27.606  1.00  0.00     0.198 A 
ATOM     68  F   UNL A   1      45.476  33.042  26.246  1.00  0.00    -0.203 F 
ATOM     69  F   UNL A   1      47.398  34.734  31.067  1.00  0.00    -0.200 F 
ATOM     70  C   UNL A   1      46.807  35.206  28.829  1.00  0.00     0.200 A 
ATOM     71  F   UNL A   1      46.213  35.627  26.583  1.00  0.00    -0.200 F 
ATOM     72  F   UNL A   1      47.150  36.490  28.995  1.00  0.00    -0.200 F 
ENDBRANCH  39  62
ENDBRANCH  13  14
ENDBRANCH   6   8
ENDBRANCH   3   4
ENDBRANCH   2   3
ENDBRANCH   1   2
BRANCH   1  73
ATOM     73  N   UNL A   1      35.444  19.853  25.094  1.00  0.00    -0.356 N 
ATOM     74  C   UNL A   1      34.124  20.211  25.037  1.00  0.00     0.229 C 
ATOM     75  H   UNL A   1      35.542  18.885  25.248  1.00  0.00     0.163 HD
ATOM     76  O   UNL A   1      33.332  19.263  24.963  1.00  0.00    -0.275 OA
BRANCH  74  77
ATOM     77  C   UNL A   1      33.577  21.630  25.237  1.00  0.00     0.142 C 
ATOM     78  C   UNL A   1      32.027  21.716  25.438  1.00  0.00     0.276 C 
ATOM     79  C   UNL A   1      33.837  22.567  24.086  1.00  0.00     0.065 C 
ATOM     80  N   UNL A   1      31.480  22.631  24.402  1.00  0.00    -0.331 N 
ATOM     81  C   UNL A   1      32.494  22.599  23.381  1.00  0.00     0.267 C 
ATOM     82  H   UNL A   1      30.570  22.308  24.074  1.00  0.00     0.348 HD
BRANCH  79  83
ATOM     83  C   UNL A   1      34.502  23.870  24.443  1.00  0.00    -0.001 C 
ATOM     84  C   UNL A   1      35.252  24.188  25.718  1.00  0.00     0.004 C 
ATOM     85  C   UNL A   1      36.012  24.006  24.443  1.00  0.00     0.004 C 
ENDBRANCH  79  83
BRANCH  80  86
ATOM     86  C   UNL A   1      30.997  23.964  24.822  1.00  0.00     0.304 C 
BRANCH  86  87
ATOM     87  C   UNL A   1      31.238  24.574  26.255  1.00  0.00     0.290 C 
BRANCH  87  88
ATOM     88  O   UNL A   1      30.816  25.938  26.463  1.00  0.00    -0.488 OA
BRANCH  88  89
ATOM     89  C   UNL A   1      31.820  26.869  26.622  1.00  0.00     0.119 A 
ATOM     90  C   UNL A   1      31.498  27.949  27.455  1.00  0.00     0.049 A 
ATOM     91  C   UNL A   1      33.023  26.887  25.908  1.00  0.00     0.049 A 
ATOM     92  C   UNL A   1      32.260  29.121  27.411  1.00  0.00     0.043 A 
ATOM     93  C   UNL A   1      33.799  28.055  25.886  1.00  0.00     0.043 A 
ATOM     94  C   UNL A   1      33.384  29.173  26.598  1.00  0.00     0.123 A 
ATOM     95  F   UNL A   1      34.054  30.327  26.468  1.00  0.00    -0.207 F 
ENDBRANCH  88  89
ENDBRANCH  87  88
ENDBRANCH  86  87
ENDBRANCH  80  86
ENDBRANCH  74  77
ENDBRANCH   1  73
TORSDOF 15
ENDMDL
