MODEL 1
REMARK VINA RESULT:     -13.8      0.000      0.000
REMARK SMILES C[C@H]1CC[C@@](Nc2ccc(C(N)=O)nn2)(C(=O)NCCCNC(=O)c2ccc(-c3c4nc(c(-c5c(F)c(F)c(F)c(F)c5F)c5ccc([nH]5)c(-c5c(F)c(F)c(F)c(F)c5F)c5nc(c(-c6c(F)c(F)c(F)c(F)c6F)c6ccc3[nH]6)C=C5)C=C4)cc2)CC1
REMARK SMILES IDX 19 1 18 2 16 3 17 4 5 6 1 7 2 8 89 9 3 10 88 11 4 12 6 13
REMARK SMILES IDX 7 15 8 16 15 17 9 18 14 19 10 20 11 21 12 22 13 23 20 26
REMARK SMILES IDX 21 27 22 28 23 29 24 31 25 32 26 33 87 34 27 35 86 36 28 37
REMARK SMILES IDX 29 38 30 39 80 40 31 41 85 42 79 43 81 44 32 45 84 46 78 47
REMARK SMILES IDX 77 48 33 50 65 51 45 52 64 53 46 54 49 55 63 56 82 57 47 58
REMARK SMILES IDX 48 59 62 61 83 62 50 63 34 64 35 65 43 66 36 67 37 68 41 69
REMARK SMILES IDX 44 70 38 71 39 72 42 73 40 74 66 75 67 76 75 77 68 78 69 79
REMARK SMILES IDX 73 80 76 81 70 82 71 83 74 84 72 85 51 86 52 87 60 88 53 89
REMARK SMILES IDX 54 90 58 91 61 92 55 93 56 94 59 95 57 96
REMARK H PARENT 18 5 6 14 12 24 12 25 22 30 81 49 49 60
REMARK Flexibility Score: inf
ROOT
ATOM      1  C   UNL A   1      36.907  20.984  24.818  1.00  0.00     0.117 C 
ENDROOT
BRANCH   1   2
ATOM      2  N   UNL A   1      36.085  21.153  26.002  1.00  0.00    -0.354 N 
ATOM      3  C   UNL A   1      34.753  21.418  26.130  1.00  0.00     0.245 C 
ATOM      4  O   UNL A   1      34.302  21.355  27.279  1.00  0.00    -0.272 OA
ATOM      5  H   UNL A   1      36.570  21.063  26.855  1.00  0.00     0.163 HD
BRANCH   3   6
ATOM      6  C   UNL A   1      33.850  21.740  24.887  1.00  0.00     0.118 C 
ATOM      7  C   UNL A   1      33.887  26.044  25.832  1.00  0.00     0.007 C 
ATOM      8  C   UNL A   1      33.569  24.752  25.077  1.00  0.00    -0.014 C 
ATOM      9  C   UNL A   1      32.714  23.816  25.940  1.00  0.00     0.006 C 
ATOM     10  C   UNL A   1      34.862  24.076  24.621  1.00  0.00     0.006 C 
ATOM     11  C   UNL A   1      32.529  22.417  25.331  1.00  0.00     0.039 C 
ATOM     12  C   UNL A   1      34.575  22.737  23.945  1.00  0.00     0.039 C 
BRANCH   6  13
ATOM     13  N   UNL A   1      33.489  20.514  24.112  1.00  0.00    -0.354 N 
ATOM     14  H   UNL A   1      33.210  20.622  23.175  1.00  0.00     0.163 HD
BRANCH  13  15
ATOM     15  C   UNL A   1      33.526  19.234  24.639  1.00  0.00     0.149 A 
ATOM     16  C   UNL A   1      34.536  18.320  24.375  1.00  0.00     0.051 A 
ATOM     17  N   UNL A   1      32.429  18.838  25.326  1.00  0.00    -0.132 NA
ATOM     18  C   UNL A   1      34.352  16.975  24.699  1.00  0.00     0.040 A 
ATOM     19  N   UNL A   1      32.222  17.510  25.632  1.00  0.00    -0.143 NA
ATOM     20  C   UNL A   1      33.163  16.601  25.293  1.00  0.00     0.150 A 
BRANCH  20  21
ATOM     21  C   UNL A   1      32.825  15.163  25.491  1.00  0.00     0.269 C 
ATOM     22  N   UNL A   1      31.502  14.863  25.677  1.00  0.00    -0.364 N 
ATOM     23  O   UNL A   1      33.679  14.284  25.447  1.00  0.00    -0.268 OA
ATOM     24  H   UNL A   1      30.834  15.584  25.709  1.00  0.00     0.160 HD
ATOM     25  H   UNL A   1      31.221  13.925  25.778  1.00  0.00     0.160 HD
ENDBRANCH  20  21
ENDBRANCH  13  15
ENDBRANCH   6  13
ENDBRANCH   3   6
ENDBRANCH   1   2
BRANCH   1  26
ATOM     26  C   UNL A   1      37.903  19.855  24.989  1.00  0.00     0.042 C 
BRANCH  26  27
ATOM     27  C   UNL A   1      39.150  20.292  25.740  1.00  0.00     0.118 C 
BRANCH  27  28
ATOM     28  N   UNL A   1      40.113  19.208  25.899  1.00  0.00    -0.352 N 
ATOM     29  C   UNL A   1      41.471  19.269  26.086  1.00  0.00     0.251 C 
ATOM     30  H   UNL A   1      39.733  18.300  25.869  1.00  0.00     0.163 HD
ATOM     31  O   UNL A   1      42.156  18.257  25.985  1.00  0.00    -0.269 OA
BRANCH  29  32
ATOM     32  C   UNL A   1      42.102  20.567  26.388  1.00  0.00     0.039 A 
ATOM     33  C   UNL A   1      42.494  21.395  25.334  1.00  0.00     0.014 A 
ATOM     34  C   UNL A   1      42.279  20.976  27.712  1.00  0.00     0.014 A 
ATOM     35  C   UNL A   1      43.003  22.663  25.612  1.00  0.00     0.010 A 
ATOM     36  C   UNL A   1      42.683  22.276  27.982  1.00  0.00     0.010 A 
ATOM     37  C   UNL A   1      43.063  23.128  26.936  1.00  0.00    -0.014 A 
BRANCH  37  38
ATOM     38  C   UNL A   1      43.540  24.494  27.257  1.00  0.00     0.031 A 
ATOM     39  C   UNL A   1      42.572  25.517  27.782  1.00  0.00     0.074 A 
ATOM     40  C   UNL A   1      44.820  24.831  27.009  1.00  0.00     0.049 A 
ATOM     41  N   UNL A   1      42.764  26.787  28.034  1.00  0.00    -0.248 NA
ATOM     42  C   UNL A   1      41.193  25.061  28.023  1.00  0.00     0.031 C 
ATOM     43  C   UNL A   1      45.838  23.938  26.452  1.00  0.00     0.029 A 
ATOM     44  N   UNL A   1      45.481  26.020  27.180  1.00  0.00    -0.354 N 
ATOM     45  C   UNL A   1      41.534  27.279  28.448  1.00  0.00     0.074 A 
ATOM     46  C   UNL A   1      40.585  26.191  28.348  1.00  0.00     0.031 C 
ATOM     47  C   UNL A   1      46.999  24.605  26.350  1.00  0.00     0.029 A 
ATOM     48  C   UNL A   1      46.797  25.981  26.791  1.00  0.00     0.049 A 
ATOM     49  H   UNL A   1      45.052  26.827  27.549  1.00  0.00     0.167 HD
ATOM     50  C   UNL A   1      41.228  28.518  28.901  1.00  0.00     0.037 A 
ATOM     51  C   UNL A   1      47.731  26.952  26.778  1.00  0.00     0.037 A 
ATOM     52  C   UNL A   1      42.182  29.587  29.020  1.00  0.00     0.049 A 
ATOM     53  C   UNL A   1      47.363  28.325  27.274  1.00  0.00     0.074 A 
ATOM     54  C   UNL A   1      41.988  30.865  29.513  1.00  0.00     0.029 A 
ATOM     55  N   UNL A   1      43.513  29.502  28.637  1.00  0.00    -0.354 N 
ATOM     56  N   UNL A   1      46.211  28.761  27.727  1.00  0.00    -0.248 NA
ATOM     57  C   UNL A   1      48.424  29.339  27.265  1.00  0.00     0.031 C 
ATOM     58  C   UNL A   1      43.189  31.569  29.381  1.00  0.00     0.029 A 
ATOM     59  C   UNL A   1      44.147  30.713  28.864  1.00  0.00     0.049 A 
ATOM     60  H   UNL A   1      43.944  28.700  28.261  1.00  0.00     0.167 HD
ATOM     61  C   UNL A   1      46.419  30.085  28.087  1.00  0.00     0.074 A 
ATOM     62  C   UNL A   1      47.810  30.377  27.814  1.00  0.00     0.031 C 
ATOM     63  C   UNL A   1      45.538  30.980  28.599  1.00  0.00     0.037 A 
BRANCH  50  64
ATOM     64  C   UNL A   1      39.805  28.778  29.307  1.00  0.00     0.064 A 
ATOM     65  C   UNL A   1      38.858  29.270  28.396  1.00  0.00     0.173 A 
ATOM     66  C   UNL A   1      39.374  28.500  30.613  1.00  0.00     0.173 A 
ATOM     67  F   UNL A   1      39.219  29.565  27.138  1.00  0.00    -0.203 F 
ATOM     68  C   UNL A   1      37.542  29.504  28.785  1.00  0.00     0.198 A 
ATOM     69  C   UNL A   1      38.049  28.702  30.989  1.00  0.00     0.198 A 
ATOM     70  F   UNL A   1      40.236  28.024  31.524  1.00  0.00    -0.203 F 
ATOM     71  F   UNL A   1      36.670  30.026  27.911  1.00  0.00    -0.200 F 
ATOM     72  C   UNL A   1      37.136  29.211  30.078  1.00  0.00     0.200 A 
ATOM     73  F   UNL A   1      37.655  28.405  32.235  1.00  0.00    -0.200 F 
ATOM     74  F   UNL A   1      35.866  29.427  30.448  1.00  0.00    -0.200 F 
ENDBRANCH  50  64
BRANCH  51  75
ATOM     75  C   UNL A   1      49.107  26.658  26.295  1.00  0.00     0.064 A 
ATOM     76  C   UNL A   1      50.080  26.135  27.159  1.00  0.00     0.173 A 
ATOM     77  C   UNL A   1      49.482  26.907  24.966  1.00  0.00     0.173 A 
ATOM     78  F   UNL A   1      49.775  25.897  28.443  1.00  0.00    -0.203 F 
ATOM     79  C   UNL A   1      51.381  25.902  26.722  1.00  0.00     0.198 A 
ATOM     80  C   UNL A   1      50.776  26.641  24.522  1.00  0.00     0.198 A 
ATOM     81  F   UNL A   1      48.588  27.398  24.096  1.00  0.00    -0.203 F 
ATOM     82  F   UNL A   1      52.305  25.455  27.584  1.00  0.00    -0.200 F 
ATOM     83  C   UNL A   1      51.728  26.149  25.402  1.00  0.00     0.200 A 
ATOM     84  F   UNL A   1      51.100  26.864  23.241  1.00  0.00    -0.200 F 
ATOM     85  F   UNL A   1      52.979  25.922  24.981  1.00  0.00    -0.200 F 
ENDBRANCH  51  75
BRANCH  63  86
ATOM     86  C   UNL A   1      46.061  32.345  28.943  1.00  0.00     0.064 A 
ATOM     87  C   UNL A   1      46.015  33.407  28.029  1.00  0.00     0.173 A 
ATOM     88  C   UNL A   1      46.575  32.601  30.224  1.00  0.00     0.173 A 
ATOM     89  F   UNL A   1      45.547  33.210  26.787  1.00  0.00    -0.203 F 
ATOM     90  C   UNL A   1      46.488  34.670  28.376  1.00  0.00     0.198 A 
ATOM     91  C   UNL A   1      47.014  33.873  30.579  1.00  0.00     0.198 A 
ATOM     92  F   UNL A   1      46.633  31.622  31.139  1.00  0.00    -0.203 F 
ATOM     93  F   UNL A   1      46.481  35.657  27.470  1.00  0.00    -0.200 F 
ATOM     94  C   UNL A   1      46.978  34.904  29.653  1.00  0.00     0.200 A 
ATOM     95  F   UNL A   1      47.471  34.101  31.818  1.00  0.00    -0.200 F 
ATOM     96  F   UNL A   1      47.424  36.123  29.988  1.00  0.00    -0.200 F 
ENDBRANCH  63  86
ENDBRANCH  37  38
ENDBRANCH  29  32
ENDBRANCH  27  28
ENDBRANCH  26  27
ENDBRANCH   1  26
TORSDOF 13
ENDMDL
MODEL 2
REMARK VINA RESULT:     -13.8      0.072      1.594
REMARK SMILES C[C@H]1CC[C@@](Nc2ccc(C(N)=O)nn2)(C(=O)NCCCNC(=O)c2ccc(-c3c4nc(c(-c5c(F)c(F)c(F)c(F)c5F)c5ccc([nH]5)c(-c5c(F)c(F)c(F)c(F)c5F)c5nc(c(-c6c(F)c(F)c(F)c(F)c6F)c6ccc3[nH]6)C=C5)C=C4)cc2)CC1
REMARK SMILES IDX 19 1 18 2 16 3 17 4 5 6 1 7 2 8 89 9 3 10 88 11 4 12 6 13
REMARK SMILES IDX 7 15 8 16 15 17 9 18 14 19 10 20 11 21 12 22 13 23 20 26
REMARK SMILES IDX 21 27 22 28 23 29 24 31 25 32 26 33 87 34 27 35 86 36 28 37
REMARK SMILES IDX 29 38 30 39 80 40 31 41 85 42 79 43 81 44 32 45 84 46 78 47
REMARK SMILES IDX 77 48 33 50 65 51 45 52 64 53 46 54 49 55 63 56 82 57 47 58
REMARK SMILES IDX 48 59 62 61 83 62 50 63 34 64 35 65 43 66 36 67 37 68 41 69
REMARK SMILES IDX 44 70 38 71 39 72 42 73 40 74 66 75 67 76 75 77 68 78 69 79
REMARK SMILES IDX 73 80 76 81 70 82 71 83 74 84 72 85 51 86 52 87 60 88 53 89
REMARK SMILES IDX 54 90 58 91 61 92 55 93 56 94 59 95 57 96
REMARK H PARENT 18 5 6 14 12 24 12 25 22 30 81 49 49 60
REMARK Flexibility Score: inf
ROOT
ATOM      1  C   UNL A   1      36.961  20.972  24.825  1.00  0.00     0.117 C 
ENDROOT
BRANCH   1   2
ATOM      2  N   UNL A   1      36.135  21.151  26.005  1.00  0.00    -0.354 N 
ATOM      3  C   UNL A   1      34.801  21.409  26.127  1.00  0.00     0.245 C 
ATOM      4  O   UNL A   1      34.347  21.357  27.274  1.00  0.00    -0.272 OA
ATOM      5  H   UNL A   1      36.618  21.073  26.860  1.00  0.00     0.163 HD
BRANCH   3   6
ATOM      6  C   UNL A   1      33.900  21.712  24.877  1.00  0.00     0.118 C 
ATOM      7  C   UNL A   1      33.810  26.011  25.839  1.00  0.00     0.007 C 
ATOM      8  C   UNL A   1      33.534  24.714  25.077  1.00  0.00    -0.014 C 
ATOM      9  C   UNL A   1      32.698  23.752  25.929  1.00  0.00     0.006 C 
ATOM     10  C   UNL A   1      34.849  24.076  24.629  1.00  0.00     0.006 C 
ATOM     11  C   UNL A   1      32.556  22.351  25.313  1.00  0.00     0.039 C 
ATOM     12  C   UNL A   1      34.605  22.733  23.945  1.00  0.00     0.039 C 
BRANCH   6  13
ATOM     13  N   UNL A   1      33.579  20.480  24.094  1.00  0.00    -0.354 N 
ATOM     14  H   UNL A   1      33.351  20.580  23.143  1.00  0.00     0.163 HD
BRANCH  13  15
ATOM     15  C   UNL A   1      33.585  19.204  24.633  1.00  0.00     0.149 A 
ATOM     16  C   UNL A   1      34.587  18.273  24.401  1.00  0.00     0.051 A 
ATOM     17  N   UNL A   1      32.468  18.830  25.298  1.00  0.00    -0.132 NA
ATOM     18  C   UNL A   1      34.377  16.934  24.733  1.00  0.00     0.040 A 
ATOM     19  N   UNL A   1      32.234  17.508  25.611  1.00  0.00    -0.143 NA
ATOM     20  C   UNL A   1      33.169  16.583  25.302  1.00  0.00     0.150 A 
BRANCH  20  21
ATOM     21  C   UNL A   1      32.806  15.152  25.505  1.00  0.00     0.269 C 
ATOM     22  N   UNL A   1      31.482  14.878  25.718  1.00  0.00    -0.364 N 
ATOM     23  O   UNL A   1      33.641  14.255  25.441  1.00  0.00    -0.268 OA
ATOM     24  H   UNL A   1      30.829  15.613  25.766  1.00  0.00     0.160 HD
ATOM     25  H   UNL A   1      31.184  13.946  25.824  1.00  0.00     0.160 HD
ENDBRANCH  20  21
ENDBRANCH  13  15
ENDBRANCH   6  13
ENDBRANCH   3   6
ENDBRANCH   1   2
BRANCH   1  26
ATOM     26  C   UNL A   1      37.951  19.840  25.006  1.00  0.00     0.042 C 
BRANCH  26  27
ATOM     27  C   UNL A   1      39.181  20.266  25.791  1.00  0.00     0.118 C 
BRANCH  27  28
ATOM     28  N   UNL A   1      40.157  19.190  25.925  1.00  0.00    -0.352 N 
ATOM     29  C   UNL A   1      41.517  19.263  26.099  1.00  0.00     0.251 C 
ATOM     30  H   UNL A   1      39.786  18.280  25.886  1.00  0.00     0.163 HD
ATOM     31  O   UNL A   1      42.211  18.260  25.977  1.00  0.00    -0.269 OA
BRANCH  29  32
ATOM     32  C   UNL A   1      42.136  20.564  26.412  1.00  0.00     0.039 A 
ATOM     33  C   UNL A   1      42.571  21.380  25.365  1.00  0.00     0.014 A 
ATOM     34  C   UNL A   1      42.263  20.985  27.738  1.00  0.00     0.014 A 
ATOM     35  C   UNL A   1      43.070  22.650  25.650  1.00  0.00     0.010 A 
ATOM     36  C   UNL A   1      42.658  22.288  28.010  1.00  0.00     0.010 A 
ATOM     37  C   UNL A   1      43.079  23.129  26.971  1.00  0.00    -0.014 A 
BRANCH  37  38
ATOM     38  C   UNL A   1      43.546  24.498  27.297  1.00  0.00     0.031 A 
ATOM     39  C   UNL A   1      42.571  25.510  27.831  1.00  0.00     0.074 A 
ATOM     40  C   UNL A   1      44.822  24.847  27.045  1.00  0.00     0.049 A 
ATOM     41  N   UNL A   1      42.752  26.780  28.088  1.00  0.00    -0.248 NA
ATOM     42  C   UNL A   1      41.198  25.040  28.076  1.00  0.00     0.031 C 
ATOM     43  C   UNL A   1      45.846  23.966  26.479  1.00  0.00     0.029 A 
ATOM     44  N   UNL A   1      45.473  26.042  27.219  1.00  0.00    -0.354 N 
ATOM     45  C   UNL A   1      41.520  27.258  28.510  1.00  0.00     0.074 A 
ATOM     46  C   UNL A   1      40.581  26.163  28.409  1.00  0.00     0.031 C 
ATOM     47  C   UNL A   1      47.000  24.644  26.375  1.00  0.00     0.029 A 
ATOM     48  C   UNL A   1      46.787  26.016  26.823  1.00  0.00     0.049 A 
ATOM     49  H   UNL A   1      45.038  26.842  27.594  1.00  0.00     0.167 HD
ATOM     50  C   UNL A   1      41.205  28.492  28.970  1.00  0.00     0.037 A 
ATOM     51  C   UNL A   1      47.712  26.995  26.811  1.00  0.00     0.037 A 
ATOM     52  C   UNL A   1      42.150  29.569  29.090  1.00  0.00     0.049 A 
ATOM     53  C   UNL A   1      47.334  28.362  27.316  1.00  0.00     0.074 A 
ATOM     54  C   UNL A   1      41.947  30.843  29.590  1.00  0.00     0.029 A 
ATOM     55  N   UNL A   1      43.480  29.498  28.701  1.00  0.00    -0.354 N 
ATOM     56  N   UNL A   1      46.180  28.786  27.775  1.00  0.00    -0.248 NA
ATOM     57  C   UNL A   1      48.387  29.386  27.307  1.00  0.00     0.031 C 
ATOM     58  C   UNL A   1      43.141  31.559  29.456  1.00  0.00     0.029 A 
ATOM     59  C   UNL A   1      44.104  30.714  28.931  1.00  0.00     0.049 A 
ATOM     60  H   UNL A   1      43.916  28.703  28.320  1.00  0.00     0.167 HD
ATOM     61  C   UNL A   1      46.378  30.110  28.142  1.00  0.00     0.074 A 
ATOM     62  C   UNL A   1      47.766  30.416  27.864  1.00  0.00     0.031 C 
ATOM     63  C   UNL A   1      45.491  30.995  28.661  1.00  0.00     0.037 A 
BRANCH  50  64
ATOM     64  C   UNL A   1      39.782  28.738  29.383  1.00  0.00     0.064 A 
ATOM     65  C   UNL A   1      39.341  28.487  30.692  1.00  0.00     0.173 A 
ATOM     66  C   UNL A   1      38.855  29.263  28.471  1.00  0.00     0.173 A 
ATOM     67  F   UNL A   1      40.182  27.972  31.602  1.00  0.00    -0.203 F 
ATOM     68  C   UNL A   1      38.020  28.722  31.062  1.00  0.00     0.198 A 
ATOM     69  C   UNL A   1      37.543  29.530  28.854  1.00  0.00     0.198 A 
ATOM     70  F   UNL A   1      39.223  29.527  27.208  1.00  0.00    -0.203 F 
ATOM     71  F   UNL A   1      37.610  28.422  32.303  1.00  0.00    -0.200 F 
ATOM     72  C   UNL A   1      37.125  29.252  30.146  1.00  0.00     0.200 A 
ATOM     73  F   UNL A   1      36.683  30.057  27.971  1.00  0.00    -0.200 F 
ATOM     74  F   UNL A   1      35.856  29.488  30.507  1.00  0.00    -0.200 F 
ENDBRANCH  50  64
BRANCH  51  75
ATOM     75  C   UNL A   1      49.089  26.716  26.321  1.00  0.00     0.064 A 
ATOM     76  C   UNL A   1      49.439  26.945  24.983  1.00  0.00     0.173 A 
ATOM     77  C   UNL A   1      50.076  26.200  27.174  1.00  0.00     0.173 A 
ATOM     78  F   UNL A   1      48.526  27.419  24.123  1.00  0.00    -0.203 F 
ATOM     79  C   UNL A   1      50.714  26.641  24.510  1.00  0.00     0.198 A 
ATOM     80  C   UNL A   1      51.361  25.929  26.707  1.00  0.00     0.198 A 
ATOM     81  F   UNL A   1      49.796  25.970  28.465  1.00  0.00    -0.203 F 
ATOM     82  F   UNL A   1      51.005  26.819  23.214  1.00  0.00    -0.200 F 
ATOM     83  C   UNL A   1      51.676  26.140  25.373  1.00  0.00     0.200 A 
ATOM     84  F   UNL A   1      52.292  25.461  27.550  1.00  0.00    -0.200 F 
ATOM     85  F   UNL A   1      52.903  25.850  24.919  1.00  0.00    -0.200 F 
ENDBRANCH  51  75
BRANCH  63  86
ATOM     86  C   UNL A   1      46.003  32.362  29.009  1.00  0.00     0.064 A 
ATOM     87  C   UNL A   1      45.952  33.427  28.098  1.00  0.00     0.173 A 
ATOM     88  C   UNL A   1      46.513  32.620  30.292  1.00  0.00     0.173 A 
ATOM     89  F   UNL A   1      45.488  33.229  26.854  1.00  0.00    -0.203 F 
ATOM     90  C   UNL A   1      46.415  34.692  28.449  1.00  0.00     0.198 A 
ATOM     91  C   UNL A   1      46.942  33.893  30.651  1.00  0.00     0.198 A 
ATOM     92  F   UNL A   1      46.576  31.639  31.205  1.00  0.00    -0.203 F 
ATOM     93  F   UNL A   1      46.403  35.682  27.546  1.00  0.00    -0.200 F 
ATOM     94  C   UNL A   1      46.901  34.927  29.727  1.00  0.00     0.200 A 
ATOM     95  F   UNL A   1      47.395  34.122  31.892  1.00  0.00    -0.200 F 
ATOM     96  F   UNL A   1      47.336  36.148  30.066  1.00  0.00    -0.200 F 
ENDBRANCH  63  86
ENDBRANCH  37  38
ENDBRANCH  29  32
ENDBRANCH  27  28
ENDBRANCH  26  27
ENDBRANCH   1  26
TORSDOF 13
ENDMDL
MODEL 3
REMARK VINA RESULT:     -13.6      6.647     11.864
REMARK SMILES C[C@H]1CC[C@@](Nc2ccc(C(N)=O)nn2)(C(=O)NCCCNC(=O)c2ccc(-c3c4nc(c(-c5c(F)c(F)c(F)c(F)c5F)c5ccc([nH]5)c(-c5c(F)c(F)c(F)c(F)c5F)c5nc(c(-c6c(F)c(F)c(F)c(F)c6F)c6ccc3[nH]6)C=C5)C=C4)cc2)CC1
REMARK SMILES IDX 19 1 18 2 16 3 17 4 5 6 1 7 2 8 89 9 3 10 88 11 4 12 6 13
REMARK SMILES IDX 7 15 8 16 15 17 9 18 14 19 10 20 11 21 12 22 13 23 20 26
REMARK SMILES IDX 21 27 22 28 23 29 24 31 25 32 26 33 87 34 27 35 86 36 28 37
REMARK SMILES IDX 29 38 30 39 80 40 31 41 85 42 79 43 81 44 32 45 84 46 78 47
REMARK SMILES IDX 77 48 33 50 65 51 45 52 64 53 46 54 49 55 63 56 82 57 47 58
REMARK SMILES IDX 48 59 62 61 83 62 50 63 34 64 35 65 43 66 36 67 37 68 41 69
REMARK SMILES IDX 44 70 38 71 39 72 42 73 40 74 66 75 67 76 75 77 68 78 69 79
REMARK SMILES IDX 73 80 76 81 70 82 71 83 74 84 72 85 51 86 52 87 60 88 53 89
REMARK SMILES IDX 54 90 58 91 61 92 55 93 56 94 59 95 57 96
REMARK H PARENT 18 5 6 14 12 24 12 25 22 30 81 49 49 60
REMARK Flexibility Score: inf
ROOT
ATOM      1  C   UNL A   1      31.782  30.271  26.360  1.00  0.00     0.117 C 
ENDROOT
BRANCH   1   2
ATOM      2  N   UNL A   1      32.580  30.048  25.168  1.00  0.00    -0.354 N 
ATOM      3  C   UNL A   1      32.462  29.114  24.180  1.00  0.00     0.245 C 
ATOM      4  O   UNL A   1      33.204  29.269  23.205  1.00  0.00    -0.272 OA
ATOM      5  H   UNL A   1      33.332  30.674  25.054  1.00  0.00     0.163 HD
BRANCH   3   6
ATOM      6  C   UNL A   1      31.418  27.946  24.267  1.00  0.00     0.118 C 
ATOM      7  C   UNL A   1      34.570  25.054  25.324  1.00  0.00     0.007 C 
ATOM      8  C   UNL A   1      33.170  25.590  25.023  1.00  0.00    -0.014 C 
ATOM      9  C   UNL A   1      33.077  26.081  23.573  1.00  0.00     0.006 C 
ATOM     10  C   UNL A   1      32.803  26.693  26.017  1.00  0.00     0.006 C 
ATOM     11  C   UNL A   1      31.768  26.822  23.258  1.00  0.00     0.039 C 
ATOM     12  C   UNL A   1      31.446  27.308  25.682  1.00  0.00     0.039 C 
BRANCH   6  13
ATOM     13  N   UNL A   1      30.026  28.402  23.968  1.00  0.00    -0.354 N 
ATOM     14  H   UNL A   1      29.277  27.857  24.300  1.00  0.00     0.163 HD
BRANCH  13  15
ATOM     15  C   UNL A   1      29.731  29.548  23.250  1.00  0.00     0.149 A 
ATOM     16  C   UNL A   1      29.290  30.729  23.829  1.00  0.00     0.051 A 
ATOM     17  N   UNL A   1      29.746  29.430  21.902  1.00  0.00    -0.132 NA
ATOM     18  C   UNL A   1      28.741  31.729  23.025  1.00  0.00     0.040 A 
ATOM     19  N   UNL A   1      29.185  30.398  21.096  1.00  0.00    -0.143 NA
ATOM     20  C   UNL A   1      28.669  31.510  21.664  1.00  0.00     0.150 A 
BRANCH  20  21
ATOM     21  C   UNL A   1      27.927  32.448  20.775  1.00  0.00     0.269 C 
ATOM     22  N   UNL A   1      27.599  31.985  19.529  1.00  0.00    -0.364 N 
ATOM     23  O   UNL A   1      27.585  33.565  21.151  1.00  0.00    -0.268 OA
ATOM     24  H   UNL A   1      27.883  31.085  19.249  1.00  0.00     0.160 HD
ATOM     25  H   UNL A   1      27.078  32.551  18.916  1.00  0.00     0.160 HD
ENDBRANCH  20  21
ENDBRANCH  13  15
ENDBRANCH   6  13
ENDBRANCH   3   6
ENDBRANCH   1   2
BRANCH   1  26
ATOM     26  C   UNL A   1      31.533  31.747  26.593  1.00  0.00     0.042 C 
BRANCH  26  27
ATOM     27  C   UNL A   1      32.728  32.444  27.222  1.00  0.00     0.118 C 
BRANCH  27  28
ATOM     28  N   UNL A   1      32.466  33.852  27.506  1.00  0.00    -0.352 N 
ATOM     29  C   UNL A   1      33.012  34.663  28.469  1.00  0.00     0.251 C 
ATOM     30  H   UNL A   1      31.802  34.282  26.921  1.00  0.00     0.163 HD
ATOM     31  O   UNL A   1      32.521  35.761  28.705  1.00  0.00    -0.269 OA
BRANCH  29  32
ATOM     32  C   UNL A   1      34.182  34.190  29.233  1.00  0.00     0.039 A 
ATOM     33  C   UNL A   1      33.980  33.416  30.378  1.00  0.00     0.014 A 
ATOM     34  C   UNL A   1      35.476  34.492  28.802  1.00  0.00     0.014 A 
ATOM     35  C   UNL A   1      35.081  32.888  31.050  1.00  0.00     0.010 A 
ATOM     36  C   UNL A   1      36.563  33.877  29.407  1.00  0.00     0.010 A 
ATOM     37  C   UNL A   1      36.379  33.080  30.546  1.00  0.00    -0.014 A 
BRANCH  37  38
ATOM     38  C   UNL A   1      37.563  32.479  31.204  1.00  0.00     0.031 A 
ATOM     39  C   UNL A   1      38.301  31.357  30.529  1.00  0.00     0.074 A 
ATOM     40  C   UNL A   1      37.927  32.892  32.433  1.00  0.00     0.049 A 
ATOM     41  N   UNL A   1      39.297  30.634  30.973  1.00  0.00    -0.248 NA
ATOM     42  C   UNL A   1      37.833  30.971  29.187  1.00  0.00     0.031 C 
ATOM     43  C   UNL A   1      37.257  33.937  33.209  1.00  0.00     0.029 A 
ATOM     44  N   UNL A   1      38.944  32.472  33.253  1.00  0.00    -0.354 N 
ATOM     45  C   UNL A   1      39.563  29.707  29.975  1.00  0.00     0.074 A 
ATOM     46  C   UNL A   1      38.582  29.910  28.933  1.00  0.00     0.031 C 
ATOM     47  C   UNL A   1      37.894  34.091  34.381  1.00  0.00     0.029 A 
ATOM     48  C   UNL A   1      38.988  33.129  34.458  1.00  0.00     0.049 A 
ATOM     49  H   UNL A   1      39.583  31.767  33.000  1.00  0.00     0.167 HD
ATOM     50  C   UNL A   1      40.557  28.788  29.919  1.00  0.00     0.037 A 
ATOM     51  C   UNL A   1      39.810  32.962  35.511  1.00  0.00     0.037 A 
ATOM     52  C   UNL A   1      41.543  28.609  30.950  1.00  0.00     0.049 A 
ATOM     53  C   UNL A   1      40.898  31.925  35.429  1.00  0.00     0.074 A 
ATOM     54  C   UNL A   1      42.620  27.741  30.971  1.00  0.00     0.029 A 
ATOM     55  N   UNL A   1      41.569  29.310  32.147  1.00  0.00    -0.354 N 
ATOM     56  N   UNL A   1      41.183  31.098  34.451  1.00  0.00    -0.248 NA
ATOM     57  C   UNL A   1      41.785  31.802  36.593  1.00  0.00     0.031 C 
ATOM     58  C   UNL A   1      43.269  27.881  32.202  1.00  0.00     0.029 A 
ATOM     59  C   UNL A   1      42.633  28.879  32.923  1.00  0.00     0.049 A 
ATOM     60  H   UNL A   1      40.928  30.010  32.406  1.00  0.00     0.167 HD
ATOM     61  C   UNL A   1      42.298  30.383  34.867  1.00  0.00     0.074 A 
ATOM     62  C   UNL A   1      42.647  30.885  36.180  1.00  0.00     0.031 C 
ATOM     63  C   UNL A   1      42.973  29.401  34.222  1.00  0.00     0.037 A 
BRANCH  50  64
ATOM     64  C   UNL A   1      40.627  27.914  28.700  1.00  0.00     0.064 A 
ATOM     65  C   UNL A   1      39.928  26.699  28.623  1.00  0.00     0.173 A 
ATOM     66  C   UNL A   1      41.373  28.310  27.580  1.00  0.00     0.173 A 
ATOM     67  F   UNL A   1      39.209  26.266  29.670  1.00  0.00    -0.203 F 
ATOM     68  C   UNL A   1      40.000  25.900  27.485  1.00  0.00     0.198 A 
ATOM     69  C   UNL A   1      41.414  27.525  26.431  1.00  0.00     0.198 A 
ATOM     70  F   UNL A   1      42.058  29.464  27.596  1.00  0.00    -0.203 F 
ATOM     71  F   UNL A   1      39.367  24.718  27.458  1.00  0.00    -0.200 F 
ATOM     72  C   UNL A   1      40.735  26.318  26.387  1.00  0.00     0.200 A 
ATOM     73  F   UNL A   1      42.115  27.938  25.364  1.00  0.00    -0.200 F 
ATOM     74  F   UNL A   1      40.794  25.552  25.288  1.00  0.00    -0.200 F 
ENDBRANCH  50  64
BRANCH  51  75
ATOM     75  C   UNL A   1      39.649  33.806  36.725  1.00  0.00     0.064 A 
ATOM     76  C   UNL A   1      38.872  33.372  37.809  1.00  0.00     0.173 A 
ATOM     77  C   UNL A   1      40.253  35.068  36.822  1.00  0.00     0.173 A 
ATOM     78  F   UNL A   1      38.259  32.180  37.758  1.00  0.00    -0.203 F 
ATOM     79  C   UNL A   1      38.682  34.179  38.928  1.00  0.00     0.198 A 
ATOM     80  C   UNL A   1      40.090  35.860  37.956  1.00  0.00     0.198 A 
ATOM     81  F   UNL A   1      41.013  35.529  35.817  1.00  0.00    -0.203 F 
ATOM     82  F   UNL A   1      37.890  33.761  39.925  1.00  0.00    -0.200 F 
ATOM     83  C   UNL A   1      39.296  35.420  39.004  1.00  0.00     0.200 A 
ATOM     84  F   UNL A   1      40.699  37.051  38.032  1.00  0.00    -0.200 F 
ATOM     85  F   UNL A   1      39.115  36.195  40.082  1.00  0.00    -0.200 F 
ENDBRANCH  51  75
BRANCH  63  86
ATOM     86  C   UNL A   1      44.187  28.835  34.901  1.00  0.00     0.064 A 
ATOM     87  C   UNL A   1      45.458  29.406  34.744  1.00  0.00     0.173 A 
ATOM     88  C   UNL A   1      44.065  27.730  35.759  1.00  0.00     0.173 A 
ATOM     89  F   UNL A   1      45.630  30.454  33.923  1.00  0.00    -0.203 F 
ATOM     90  C   UNL A   1      46.566  28.876  35.398  1.00  0.00     0.198 A 
ATOM     91  C   UNL A   1      45.168  27.225  36.440  1.00  0.00     0.198 A 
ATOM     92  F   UNL A   1      42.870  27.152  35.952  1.00  0.00    -0.203 F 
ATOM     93  F   UNL A   1      47.779  29.407  35.194  1.00  0.00    -0.200 F 
ATOM     94  C   UNL A   1      46.419  27.793  36.253  1.00  0.00     0.200 A 
ATOM     95  F   UNL A   1      45.021  26.190  37.277  1.00  0.00    -0.200 F 
ATOM     96  F   UNL A   1      47.486  27.291  36.891  1.00  0.00    -0.200 F 
ENDBRANCH  63  86
ENDBRANCH  37  38
ENDBRANCH  29  32
ENDBRANCH  27  28
ENDBRANCH  26  27
ENDBRANCH   1  26
TORSDOF 13
ENDMDL
