MODEL 1
REMARK VINA RESULT:     -12.7      0.000      0.000
REMARK SMILES C[C@H]1[C@@H](C(=O)NCCCNC(=O)c2ccc(-c3c4nc(c(-c5c(F)c(F)c(F)c(F)c5F)c5ccc([nH]5)c(-c5c(F)c(F)c(F)c(F)c5F)c5nc(c(-c6c(F)c(F)c(F)c(F)c6F)c6ccc3[nH]6)C=C5)C=C4)cc2)CC[N@@H+]1Cc1ccn(-c2ccccc2)n1
REMARK SMILES IDX 7 1 6 2 4 3 5 4 3 6 1 7 2 8 78 9 76 10 77 11 79 13 80 14
REMARK SMILES IDX 81 15 90 16 82 17 83 18 84 19 85 20 89 21 86 22 88 23 87 24
REMARK SMILES IDX 8 25 9 26 10 27 11 28 12 30 13 31 14 32 75 33 15 34 74 35
REMARK SMILES IDX 16 36 17 37 18 38 68 39 19 40 73 41 67 42 69 43 20 44 72 45
REMARK SMILES IDX 66 46 65 47 21 49 53 50 33 51 52 52 34 53 37 54 51 55 70 56
REMARK SMILES IDX 35 57 36 58 50 60 71 61 38 62 22 63 23 64 31 65 24 66 25 67
REMARK SMILES IDX 29 68 32 69 26 70 27 71 30 72 28 73 54 74 55 75 63 76 56 77
REMARK SMILES IDX 57 78 61 79 64 80 58 81 59 82 62 83 60 84 39 85 40 86 48 87
REMARK SMILES IDX 41 88 42 89 46 90 49 91 43 92 44 93 47 94 45 95
REMARK H PARENT 6 5 78 12 10 29 69 48 37 59
REMARK Flexibility Score: inf
ROOT
ATOM      1  C   UNL A   1      31.142  29.340  24.225  1.00  0.00     0.117 C 
ENDROOT
BRANCH   1   2
ATOM      2  N   UNL A   1      32.171  28.978  23.269  1.00  0.00    -0.356 N 
ATOM      3  C   UNL A   1      32.648  27.758  22.902  1.00  0.00     0.229 C 
ATOM      4  O   UNL A   1      33.766  27.751  22.380  1.00  0.00    -0.275 OA
ATOM      5  H   UNL A   1      32.593  29.739  22.811  1.00  0.00     0.163 HD
BRANCH   3   6
ATOM      6  C   UNL A   1      31.773  26.507  22.997  1.00  0.00     0.142 C 
ATOM      7  C   UNL A   1      32.929  25.737  25.247  1.00  0.00     0.076 C 
ATOM      8  C   UNL A   1      32.073  25.409  24.039  1.00  0.00     0.194 C 
ATOM      9  N   UNL A   1      32.759  24.312  23.333  1.00  0.00    -0.327 N 
ATOM     10  C   UNL A   1      31.875  25.730  21.675  1.00  0.00     0.081 C 
ATOM     11  C   UNL A   1      32.972  24.719  21.951  1.00  0.00     0.263 C 
ATOM     12  H   UNL A   1      33.681  24.156  23.741  1.00  0.00     0.348 HD
BRANCH   9  13
ATOM     13  C   UNL A   1      32.150  22.993  23.549  1.00  0.00     0.321 C 
BRANCH  13  14
ATOM     14  C   UNL A   1      33.102  21.894  23.936  1.00  0.00     0.117 A 
ATOM     15  C   UNL A   1      34.394  22.063  24.480  1.00  0.00     0.052 A 
ATOM     16  N   UNL A   1      32.777  20.594  23.837  1.00  0.00    -0.167 NA
ATOM     17  C   UNL A   1      34.830  20.796  24.763  1.00  0.00     0.115 A 
ATOM     18  N   UNL A   1      33.803  19.935  24.444  1.00  0.00    -0.241 N 
BRANCH  18  19
ATOM     19  C   UNL A   1      33.739  18.544  24.728  1.00  0.00     0.065 A 
ATOM     20  C   UNL A   1      32.603  18.004  25.352  1.00  0.00     0.028 A 
ATOM     21  C   UNL A   1      34.793  17.699  24.359  1.00  0.00     0.028 A 
ATOM     22  C   UNL A   1      32.524  16.633  25.602  1.00  0.00     0.002 A 
ATOM     23  C   UNL A   1      34.717  16.331  24.639  1.00  0.00     0.002 A 
ATOM     24  C   UNL A   1      33.583  15.800  25.254  1.00  0.00     0.000 A 
ENDBRANCH  18  19
ENDBRANCH  13  14
ENDBRANCH   9  13
ENDBRANCH   3   6
ENDBRANCH   1   2
BRANCH   1  25
ATOM     25  C   UNL A   1      31.657  29.103  25.647  1.00  0.00     0.042 C 
BRANCH  25  26
ATOM     26  C   UNL A   1      32.974  29.805  25.956  1.00  0.00     0.118 C 
BRANCH  26  27
ATOM     27  N   UNL A   1      32.773  31.188  26.341  1.00  0.00    -0.352 N 
ATOM     28  C   UNL A   1      33.423  31.942  27.282  1.00  0.00     0.251 C 
ATOM     29  H   UNL A   1      32.060  31.658  25.851  1.00  0.00     0.163 HD
ATOM     30  O   UNL A   1      32.934  33.026  27.618  1.00  0.00    -0.269 OA
BRANCH  28  31
ATOM     31  C   UNL A   1      34.686  31.492  27.917  1.00  0.00     0.039 A 
ATOM     32  C   UNL A   1      34.739  30.199  28.449  1.00  0.00     0.014 A 
ATOM     33  C   UNL A   1      35.788  32.340  28.073  1.00  0.00     0.014 A 
ATOM     34  C   UNL A   1      35.890  29.753  29.107  1.00  0.00     0.010 A 
ATOM     35  C   UNL A   1      36.968  31.865  28.651  1.00  0.00     0.010 A 
ATOM     36  C   UNL A   1      37.022  30.577  29.202  1.00  0.00    -0.014 A 
BRANCH  36  37
ATOM     37  C   UNL A   1      38.242  30.119  29.921  1.00  0.00     0.031 A 
ATOM     38  C   UNL A   1      38.519  30.593  31.324  1.00  0.00     0.074 A 
ATOM     39  C   UNL A   1      39.117  29.298  29.309  1.00  0.00     0.049 A 
ATOM     40  N   UNL A   1      39.538  30.327  32.104  1.00  0.00    -0.248 NA
ATOM     41  C   UNL A   1      37.535  31.509  31.920  1.00  0.00     0.031 C 
ATOM     42  C   UNL A   1      38.997  28.808  27.936  1.00  0.00     0.029 A 
ATOM     43  N   UNL A   1      40.284  28.735  29.762  1.00  0.00    -0.354 N 
ATOM     44  C   UNL A   1      39.324  31.055  33.269  1.00  0.00     0.074 A 
ATOM     45  C   UNL A   1      38.109  31.815  33.074  1.00  0.00     0.031 C 
ATOM     46  C   UNL A   1      40.033  27.998  27.667  1.00  0.00     0.029 A 
ATOM     47  C   UNL A   1      40.904  27.934  28.837  1.00  0.00     0.049 A 
ATOM     48  H   UNL A   1      40.642  28.892  30.666  1.00  0.00     0.167 HD
ATOM     49  C   UNL A   1      40.057  31.069  34.409  1.00  0.00     0.037 A 
ATOM     50  C   UNL A   1      42.047  27.225  28.921  1.00  0.00     0.037 A 
ATOM     51  C   UNL A   1      41.246  30.286  34.620  1.00  0.00     0.049 A 
ATOM     52  C   UNL A   1      42.826  27.231  30.207  1.00  0.00     0.074 A 
ATOM     53  C   UNL A   1      42.026  30.188  35.759  1.00  0.00     0.029 A 
ATOM     54  N   UNL A   1      41.824  29.460  33.667  1.00  0.00    -0.354 N 
ATOM     55  N   UNL A   1      42.579  27.875  31.322  1.00  0.00    -0.248 NA
ATOM     56  C   UNL A   1      44.037  26.399  30.250  1.00  0.00     0.031 C 
ATOM     57  C   UNL A   1      43.096  29.328  35.486  1.00  0.00     0.029 A 
ATOM     58  C   UNL A   1      42.958  28.859  34.189  1.00  0.00     0.049 A 
ATOM     59  H   UNL A   1      41.480  29.321  32.755  1.00  0.00     0.167 HD
ATOM     60  C   UNL A   1      43.591  27.516  32.202  1.00  0.00     0.074 A 
ATOM     61  C   UNL A   1      44.443  26.579  31.501  1.00  0.00     0.031 C 
ATOM     62  C   UNL A   1      43.796  27.928  33.477  1.00  0.00     0.037 A 
BRANCH  49  63
ATOM     63  C   UNL A   1      39.582  31.955  35.524  1.00  0.00     0.064 A 
ATOM     64  C   UNL A   1      38.624  31.518  36.451  1.00  0.00     0.173 A 
ATOM     65  C   UNL A   1      40.110  33.245  35.685  1.00  0.00     0.173 A 
ATOM     66  F   UNL A   1      38.080  30.297  36.336  1.00  0.00    -0.203 F 
ATOM     67  C   UNL A   1      38.189  32.350  37.479  1.00  0.00     0.198 A 
ATOM     68  C   UNL A   1      39.693  34.064  36.731  1.00  0.00     0.198 A 
ATOM     69  F   UNL A   1      41.034  33.709  34.830  1.00  0.00    -0.203 F 
ATOM     70  F   UNL A   1      37.236  31.929  38.322  1.00  0.00    -0.200 F 
ATOM     71  C   UNL A   1      38.728  33.619  37.622  1.00  0.00     0.200 A 
ATOM     72  F   UNL A   1      40.223  35.287  36.875  1.00  0.00    -0.200 F 
ATOM     73  F   UNL A   1      38.309  34.419  38.613  1.00  0.00    -0.200 F 
ENDBRANCH  49  63
BRANCH  50  74
ATOM     74  C   UNL A   1      42.501  26.420  27.759  1.00  0.00     0.064 A 
ATOM     75  C   UNL A   1      42.013  25.124  27.544  1.00  0.00     0.173 A 
ATOM     76  C   UNL A   1      43.427  26.932  26.837  1.00  0.00     0.173 A 
ATOM     77  F   UNL A   1      41.143  24.585  28.412  1.00  0.00    -0.203 F 
ATOM     78  C   UNL A   1      42.444  24.363  26.460  1.00  0.00     0.198 A 
ATOM     79  C   UNL A   1      43.838  26.179  25.739  1.00  0.00     0.198 A 
ATOM     80  F   UNL A   1      43.920  28.168  26.996  1.00  0.00    -0.203 F 
ATOM     81  F   UNL A   1      41.991  23.112  26.300  1.00  0.00    -0.200 F 
ATOM     82  C   UNL A   1      43.351  24.893  25.554  1.00  0.00     0.200 A 
ATOM     83  F   UNL A   1      44.705  26.699  24.859  1.00  0.00    -0.200 F 
ATOM     84  F   UNL A   1      43.760  24.163  24.508  1.00  0.00    -0.200 F 
ENDBRANCH  50  74
BRANCH  62  85
ATOM     85  C   UNL A   1      44.978  27.354  34.199  1.00  0.00     0.064 A 
ATOM     86  C   UNL A   1      46.227  27.991  34.184  1.00  0.00     0.173 A 
ATOM     87  C   UNL A   1      44.853  26.167  34.937  1.00  0.00     0.173 A 
ATOM     88  F   UNL A   1      46.400  29.120  33.481  1.00  0.00    -0.203 F 
ATOM     89  C   UNL A   1      47.316  27.447  34.861  1.00  0.00     0.198 A 
ATOM     90  C   UNL A   1      45.937  25.640  35.634  1.00  0.00     0.198 A 
ATOM     91  F   UNL A   1      43.678  25.522  34.987  1.00  0.00    -0.203 F 
ATOM     92  F   UNL A   1      48.512  28.049  34.794  1.00  0.00    -0.200 F 
ATOM     93  C   UNL A   1      47.169  26.276  35.589  1.00  0.00     0.200 A 
ATOM     94  F   UNL A   1      45.791  24.513  36.346  1.00  0.00    -0.200 F 
ATOM     95  F   UNL A   1      48.217  25.755  36.241  1.00  0.00    -0.200 F 
ENDBRANCH  62  85
ENDBRANCH  36  37
ENDBRANCH  28  31
ENDBRANCH  26  27
ENDBRANCH  25  26
ENDBRANCH   1  25
TORSDOF 13
ENDMDL
MODEL 2
REMARK VINA RESULT:     -12.7      1.561      2.295
REMARK SMILES C[C@H]1[C@@H](C(=O)NCCCNC(=O)c2ccc(-c3c4nc(c(-c5c(F)c(F)c(F)c(F)c5F)c5ccc([nH]5)c(-c5c(F)c(F)c(F)c(F)c5F)c5nc(c(-c6c(F)c(F)c(F)c(F)c6F)c6ccc3[nH]6)C=C5)C=C4)cc2)CC[N@@H+]1Cc1ccn(-c2ccccc2)n1
REMARK SMILES IDX 7 1 6 2 4 3 5 4 3 6 1 7 2 8 78 9 76 10 77 11 79 13 80 14
REMARK SMILES IDX 81 15 90 16 82 17 83 18 84 19 85 20 89 21 86 22 88 23 87 24
REMARK SMILES IDX 8 25 9 26 10 27 11 28 12 30 13 31 14 32 75 33 15 34 74 35
REMARK SMILES IDX 16 36 17 37 18 38 68 39 19 40 73 41 67 42 69 43 20 44 72 45
REMARK SMILES IDX 66 46 65 47 21 49 53 50 33 51 52 52 34 53 37 54 51 55 70 56
REMARK SMILES IDX 35 57 36 58 50 60 71 61 38 62 22 63 23 64 31 65 24 66 25 67
REMARK SMILES IDX 29 68 32 69 26 70 27 71 30 72 28 73 54 74 55 75 63 76 56 77
REMARK SMILES IDX 57 78 61 79 64 80 58 81 59 82 62 83 60 84 39 85 40 86 48 87
REMARK SMILES IDX 41 88 42 89 46 90 49 91 43 92 44 93 47 94 45 95
REMARK H PARENT 6 5 78 12 10 29 69 48 37 59
REMARK Flexibility Score: inf
ROOT
ATOM      1  C   UNL A   1      31.403  30.426  26.351  1.00  0.00     0.117 C 
ENDROOT
BRANCH   1   2
ATOM      2  N   UNL A   1      31.760  30.075  24.990  1.00  0.00    -0.356 N 
ATOM      3  C   UNL A   1      31.841  28.861  24.380  1.00  0.00     0.229 C 
ATOM      4  O   UNL A   1      32.533  28.815  23.361  1.00  0.00    -0.275 OA
ATOM      5  H   UNL A   1      31.981  30.840  24.412  1.00  0.00     0.163 HD
BRANCH   3   6
ATOM      6  C   UNL A   1      30.992  27.681  24.858  1.00  0.00     0.142 C 
ATOM      7  C   UNL A   1      33.044  26.568  26.100  1.00  0.00     0.076 C 
ATOM      8  C   UNL A   1      31.649  26.451  25.518  1.00  0.00     0.194 C 
ATOM      9  N   UNL A   1      31.716  25.391  24.495  1.00  0.00    -0.327 N 
ATOM     10  C   UNL A   1      30.287  27.056  23.644  1.00  0.00     0.081 C 
ATOM     11  C   UNL A   1      31.226  25.936  23.237  1.00  0.00     0.263 C 
ATOM     12  H   UNL A   1      32.686  25.116  24.340  1.00  0.00     0.348 HD
BRANCH   9  13
ATOM     13  C   UNL A   1      31.146  24.109  24.929  1.00  0.00     0.321 C 
BRANCH  13  14
ATOM     14  C   UNL A   1      32.129  22.978  25.076  1.00  0.00     0.117 A 
ATOM     15  C   UNL A   1      33.047  22.803  26.135  1.00  0.00     0.052 A 
ATOM     16  N   UNL A   1      32.194  21.964  24.197  1.00  0.00    -0.167 NA
ATOM     17  C   UNL A   1      33.645  21.595  25.891  1.00  0.00     0.115 A 
ATOM     18  N   UNL A   1      33.053  21.072  24.762  1.00  0.00    -0.241 N 
BRANCH  18  19
ATOM     19  C   UNL A   1      33.233  19.764  24.235  1.00  0.00     0.065 A 
ATOM     20  C   UNL A   1      32.333  19.258  23.284  1.00  0.00     0.028 A 
ATOM     21  C   UNL A   1      34.326  18.986  24.637  1.00  0.00     0.028 A 
ATOM     22  C   UNL A   1      32.528  17.988  22.740  1.00  0.00     0.002 A 
ATOM     23  C   UNL A   1      34.497  17.702  24.108  1.00  0.00     0.002 A 
ATOM     24  C   UNL A   1      33.603  17.208  23.158  1.00  0.00     0.000 A 
ENDBRANCH  18  19
ENDBRANCH  13  14
ENDBRANCH   9  13
ENDBRANCH   3   6
ENDBRANCH   1   2
BRANCH   1  25
ATOM     25  C   UNL A   1      31.389  31.949  26.501  1.00  0.00     0.042 C 
BRANCH  25  26
ATOM     26  C   UNL A   1      32.738  32.549  26.878  1.00  0.00     0.118 C 
BRANCH  26  27
ATOM     27  N   UNL A   1      32.602  33.883  27.430  1.00  0.00    -0.352 N 
ATOM     28  C   UNL A   1      33.199  34.445  28.528  1.00  0.00     0.251 C 
ATOM     29  H   UNL A   1      31.986  34.476  26.942  1.00  0.00     0.163 HD
ATOM     30  O   UNL A   1      32.759  35.516  28.962  1.00  0.00    -0.269 OA
BRANCH  28  31
ATOM     31  C   UNL A   1      34.344  33.802  29.218  1.00  0.00     0.039 A 
ATOM     32  C   UNL A   1      35.639  34.205  28.873  1.00  0.00     0.014 A 
ATOM     33  C   UNL A   1      34.176  32.757  30.133  1.00  0.00     0.014 A 
ATOM     34  C   UNL A   1      36.749  33.586  29.456  1.00  0.00     0.010 A 
ATOM     35  C   UNL A   1      35.281  32.201  30.780  1.00  0.00     0.010 A 
ATOM     36  C   UNL A   1      36.582  32.587  30.427  1.00  0.00    -0.014 A 
BRANCH  36  37
ATOM     37  C   UNL A   1      37.758  31.907  31.035  1.00  0.00     0.031 A 
ATOM     38  C   UNL A   1      38.202  32.262  32.431  1.00  0.00     0.074 A 
ATOM     39  C   UNL A   1      38.445  30.989  30.329  1.00  0.00     0.049 A 
ATOM     40  N   UNL A   1      39.215  31.800  33.122  1.00  0.00    -0.248 NA
ATOM     41  C   UNL A   1      37.421  33.292  33.133  1.00  0.00     0.031 C 
ATOM     42  C   UNL A   1      38.155  30.593  28.951  1.00  0.00     0.029 A 
ATOM     43  N   UNL A   1      39.535  30.227  30.672  1.00  0.00    -0.354 N 
ATOM     44  C   UNL A   1      39.201  32.494  34.326  1.00  0.00     0.074 A 
ATOM     45  C   UNL A   1      38.114  33.446  34.251  1.00  0.00     0.031 C 
ATOM     46  C   UNL A   1      39.026  29.643  28.575  1.00  0.00     0.029 A 
ATOM     47  C   UNL A   1      39.953  29.385  29.673  1.00  0.00     0.049 A 
ATOM     48  H   UNL A   1      39.974  30.281  31.552  1.00  0.00     0.167 HD
ATOM     49  C   UNL A   1      40.002  32.336  35.407  1.00  0.00     0.037 A 
ATOM     50  C   UNL A   1      40.969  28.501  29.645  1.00  0.00     0.037 A 
ATOM     51  C   UNL A   1      41.060  31.365  35.499  1.00  0.00     0.049 A 
ATOM     52  C   UNL A   1      41.824  28.319  30.868  1.00  0.00     0.074 A 
ATOM     53  C   UNL A   1      41.890  31.089  36.572  1.00  0.00     0.029 A 
ATOM     54  N   UNL A   1      41.432  30.506  34.475  1.00  0.00    -0.354 N 
ATOM     55  N   UNL A   1      41.761  28.939  32.022  1.00  0.00    -0.248 NA
ATOM     56  C   UNL A   1      42.886  27.306  30.790  1.00  0.00     0.031 C 
ATOM     57  C   UNL A   1      42.786  30.085  36.187  1.00  0.00     0.029 A 
ATOM     58  C   UNL A   1      42.487  29.708  34.888  1.00  0.00     0.049 A 
ATOM     59  H   UNL A   1      41.009  30.469  33.587  1.00  0.00     0.167 HD
ATOM     60  C   UNL A   1      42.759  28.382  32.810  1.00  0.00     0.074 A 
ATOM     61  C   UNL A   1      43.399  27.357  32.012  1.00  0.00     0.031 C 
ATOM     62  C   UNL A   1      43.114  28.693  34.081  1.00  0.00     0.037 A 
BRANCH  49  63
ATOM     63  C   UNL A   1      39.753  33.230  36.587  1.00  0.00     0.064 A 
ATOM     64  C   UNL A   1      38.819  32.893  37.580  1.00  0.00     0.173 A 
ATOM     65  C   UNL A   1      40.475  34.423  36.744  1.00  0.00     0.173 A 
ATOM     66  F   UNL A   1      38.096  31.769  37.472  1.00  0.00    -0.203 F 
ATOM     67  C   UNL A   1      38.595  33.732  38.668  1.00  0.00     0.198 A 
ATOM     68  C   UNL A   1      40.268  35.246  37.849  1.00  0.00     0.198 A 
ATOM     69  F   UNL A   1      41.384  34.789  35.828  1.00  0.00    -0.203 F 
ATOM     70  F   UNL A   1      37.662  33.414  39.575  1.00  0.00    -0.200 F 
ATOM     71  C   UNL A   1      39.323  34.904  38.804  1.00  0.00     0.200 A 
ATOM     72  F   UNL A   1      40.979  36.373  37.986  1.00  0.00    -0.200 F 
ATOM     73  F   UNL A   1      39.107  35.710  39.853  1.00  0.00    -0.200 F 
ENDBRANCH  49  63
BRANCH  50  74
ATOM     74  C   UNL A   1      41.208  27.692  28.422  1.00  0.00     0.064 A 
ATOM     75  C   UNL A   1      42.114  28.120  27.442  1.00  0.00     0.173 A 
ATOM     76  C   UNL A   1      40.542  26.476  28.212  1.00  0.00     0.173 A 
ATOM     77  F   UNL A   1      42.757  29.288  27.590  1.00  0.00    -0.203 F 
ATOM     78  C   UNL A   1      42.334  27.370  26.289  1.00  0.00     0.198 A 
ATOM     79  C   UNL A   1      40.782  25.714  27.070  1.00  0.00     0.198 A 
ATOM     80  F   UNL A   1      39.669  26.022  29.122  1.00  0.00    -0.203 F 
ATOM     81  F   UNL A   1      43.176  27.821  25.349  1.00  0.00    -0.200 F 
ATOM     82  C   UNL A   1      41.673  26.164  26.107  1.00  0.00     0.200 A 
ATOM     83  F   UNL A   1      40.151  24.544  26.904  1.00  0.00    -0.200 F 
ATOM     84  F   UNL A   1      41.890  25.439  25.001  1.00  0.00    -0.200 F 
ENDBRANCH  50  74
BRANCH  62  85
ATOM     85  C   UNL A   1      44.234  27.904  34.690  1.00  0.00     0.064 A 
ATOM     86  C   UNL A   1      45.565  28.337  34.609  1.00  0.00     0.173 A 
ATOM     87  C   UNL A   1      43.970  26.715  35.387  1.00  0.00     0.173 A 
ATOM     88  F   UNL A   1      45.870  29.460  33.940  1.00  0.00    -0.203 F 
ATOM     89  C   UNL A   1      46.595  27.595  35.181  1.00  0.00     0.198 A 
ATOM     90  C   UNL A   1      44.999  25.989  35.981  1.00  0.00     0.198 A 
ATOM     91  F   UNL A   1      42.712  26.261  35.498  1.00  0.00    -0.203 F 
ATOM     92  F   UNL A   1      47.865  28.004  35.051  1.00  0.00    -0.200 F 
ATOM     93  C   UNL A   1      46.311  26.426  35.871  1.00  0.00     0.200 A 
ATOM     94  F   UNL A   1      44.722  24.865  36.656  1.00  0.00    -0.200 F 
ATOM     95  F   UNL A   1      47.304  25.714  36.423  1.00  0.00    -0.200 F 
ENDBRANCH  62  85
ENDBRANCH  36  37
ENDBRANCH  28  31
ENDBRANCH  26  27
ENDBRANCH  25  26
ENDBRANCH   1  25
TORSDOF 13
ENDMDL
MODEL 3
REMARK VINA RESULT:     -12.6      4.722      8.899
REMARK SMILES C[C@H]1[C@@H](C(=O)NCCCNC(=O)c2ccc(-c3c4nc(c(-c5c(F)c(F)c(F)c(F)c5F)c5ccc([nH]5)c(-c5c(F)c(F)c(F)c(F)c5F)c5nc(c(-c6c(F)c(F)c(F)c(F)c6F)c6ccc3[nH]6)C=C5)C=C4)cc2)CC[N@@H+]1Cc1ccn(-c2ccccc2)n1
REMARK SMILES IDX 7 1 6 2 4 3 5 4 3 6 1 7 2 8 78 9 76 10 77 11 79 13 80 14
REMARK SMILES IDX 81 15 90 16 82 17 83 18 84 19 85 20 89 21 86 22 88 23 87 24
REMARK SMILES IDX 8 25 9 26 10 27 11 28 12 30 13 31 14 32 75 33 15 34 74 35
REMARK SMILES IDX 16 36 17 37 18 38 68 39 19 40 73 41 67 42 69 43 20 44 72 45
REMARK SMILES IDX 66 46 65 47 21 49 53 50 33 51 52 52 34 53 37 54 51 55 70 56
REMARK SMILES IDX 35 57 36 58 50 60 71 61 38 62 22 63 23 64 31 65 24 66 25 67
REMARK SMILES IDX 29 68 32 69 26 70 27 71 30 72 28 73 54 74 55 75 63 76 56 77
REMARK SMILES IDX 57 78 61 79 64 80 58 81 59 82 62 83 60 84 39 85 40 86 48 87
REMARK SMILES IDX 41 88 42 89 46 90 49 91 43 92 44 93 47 94 45 95
REMARK H PARENT 6 5 78 12 10 29 69 48 37 59
REMARK Flexibility Score: inf
ROOT
ATOM      1  C   UNL A   1      36.779  20.261  24.856  1.00  0.00     0.117 C 
ENDROOT
BRANCH   1   2
ATOM      2  N   UNL A   1      36.993  21.476  25.617  1.00  0.00    -0.356 N 
ATOM      3  C   UNL A   1      36.204  22.573  25.775  1.00  0.00     0.229 C 
ATOM      4  O   UNL A   1      36.778  23.603  26.137  1.00  0.00    -0.275 OA
ATOM      5  H   UNL A   1      37.851  21.515  26.097  1.00  0.00     0.163 HD
BRANCH   3   6
ATOM      6  C   UNL A   1      34.682  22.473  25.657  1.00  0.00     0.142 C 
ATOM      7  C   UNL A   1      34.720  23.221  23.121  1.00  0.00     0.076 C 
ATOM      8  C   UNL A   1      33.949  23.006  24.409  1.00  0.00     0.194 C 
ATOM      9  N   UNL A   1      33.372  24.315  24.766  1.00  0.00    -0.327 N 
ATOM     10  C   UNL A   1      34.043  23.302  26.783  1.00  0.00     0.081 C 
ATOM     11  C   UNL A   1      33.788  24.644  26.122  1.00  0.00     0.263 C 
ATOM     12  H   UNL A   1      33.747  25.042  24.157  1.00  0.00     0.348 HD
BRANCH   9  13
ATOM     13  C   UNL A   1      31.939  24.435  24.466  1.00  0.00     0.321 C 
BRANCH  13  14
ATOM     14  C   UNL A   1      31.543  25.646  23.664  1.00  0.00     0.117 A 
ATOM     15  C   UNL A   1      31.844  25.881  22.304  1.00  0.00     0.052 A 
ATOM     16  N   UNL A   1      30.797  26.637  24.180  1.00  0.00    -0.167 NA
ATOM     17  C   UNL A   1      31.195  27.046  21.993  1.00  0.00     0.115 A 
ATOM     18  N   UNL A   1      30.503  27.436  23.118  1.00  0.00    -0.241 N 
BRANCH  18  19
ATOM     19  C   UNL A   1      29.556  28.492  23.211  1.00  0.00     0.065 A 
ATOM     20  C   UNL A   1      29.982  29.797  23.505  1.00  0.00     0.028 A 
ATOM     21  C   UNL A   1      28.197  28.243  22.980  1.00  0.00     0.028 A 
ATOM     22  C   UNL A   1      29.057  30.840  23.564  1.00  0.00     0.002 A 
ATOM     23  C   UNL A   1      27.274  29.290  23.069  1.00  0.00     0.002 A 
ATOM     24  C   UNL A   1      27.704  30.586  23.355  1.00  0.00     0.000 A 
ENDBRANCH  18  19
ENDBRANCH  13  14
ENDBRANCH   9  13
ENDBRANCH   3   6
ENDBRANCH   1   2
BRANCH   1  25
ATOM     25  C   UNL A   1      38.024  19.374  24.944  1.00  0.00     0.042 C 
BRANCH  25  26
ATOM     26  C   UNL A   1      39.149  19.964  25.785  1.00  0.00     0.118 C 
BRANCH  26  27
ATOM     27  N   UNL A   1      40.244  19.030  25.955  1.00  0.00    -0.352 N 
ATOM     28  C   UNL A   1      41.586  19.266  26.095  1.00  0.00     0.251 C 
ATOM     29  H   UNL A   1      39.984  18.081  25.974  1.00  0.00     0.163 HD
ATOM     30  O   UNL A   1      42.372  18.317  25.985  1.00  0.00    -0.269 OA
BRANCH  28  31
ATOM     31  C   UNL A   1      42.125  20.623  26.359  1.00  0.00     0.039 A 
ATOM     32  C   UNL A   1      42.265  21.035  27.688  1.00  0.00     0.014 A 
ATOM     33  C   UNL A   1      42.417  21.525  25.331  1.00  0.00     0.014 A 
ATOM     34  C   UNL A   1      42.714  22.326  27.984  1.00  0.00     0.010 A 
ATOM     35  C   UNL A   1      42.950  22.782  25.625  1.00  0.00     0.010 A 
ATOM     36  C   UNL A   1      43.076  23.208  26.955  1.00  0.00    -0.014 A 
BRANCH  36  37
ATOM     37  C   UNL A   1      43.533  24.592  27.259  1.00  0.00     0.031 A 
ATOM     38  C   UNL A   1      42.564  25.608  27.805  1.00  0.00     0.074 A 
ATOM     39  C   UNL A   1      44.811  24.947  27.022  1.00  0.00     0.049 A 
ATOM     40  N   UNL A   1      42.765  26.867  28.108  1.00  0.00    -0.248 NA
ATOM     41  C   UNL A   1      41.179  25.159  28.013  1.00  0.00     0.031 C 
ATOM     42  C   UNL A   1      45.836  24.077  26.447  1.00  0.00     0.029 A 
ATOM     43  N   UNL A   1      45.463  26.136  27.233  1.00  0.00    -0.354 N 
ATOM     44  C   UNL A   1      41.533  27.359  28.522  1.00  0.00     0.074 A 
ATOM     45  C   UNL A   1      40.580  26.281  28.381  1.00  0.00     0.031 C 
ATOM     46  C   UNL A   1      46.994  24.753  26.374  1.00  0.00     0.029 A 
ATOM     47  C   UNL A   1      46.786  26.110  26.870  1.00  0.00     0.049 A 
ATOM     48  H   UNL A   1      45.022  26.933  27.609  1.00  0.00     0.167 HD
ATOM     49  C   UNL A   1      41.227  28.589  29.003  1.00  0.00     0.037 A 
ATOM     50  C   UNL A   1      47.728  27.071  26.933  1.00  0.00     0.037 A 
ATOM     51  C   UNL A   1      42.180  29.652  29.179  1.00  0.00     0.049 A 
ATOM     52  C   UNL A   1      47.373  28.417  27.500  1.00  0.00     0.074 A 
ATOM     53  C   UNL A   1      41.980  30.914  29.712  1.00  0.00     0.029 A 
ATOM     54  N   UNL A   1      43.521  29.575  28.829  1.00  0.00    -0.354 N 
ATOM     55  N   UNL A   1      46.218  28.850  27.946  1.00  0.00    -0.248 NA
ATOM     56  C   UNL A   1      48.456  29.407  27.585  1.00  0.00     0.031 C 
ATOM     57  C   UNL A   1      43.191  31.612  29.655  1.00  0.00     0.029 A 
ATOM     58  C   UNL A   1      44.156  30.771  29.124  1.00  0.00     0.049 A 
ATOM     59  H   UNL A   1      43.956  28.786  28.432  1.00  0.00     0.167 HD
ATOM     60  C   UNL A   1      46.438  30.150  28.377  1.00  0.00     0.074 A 
ATOM     61  C   UNL A   1      47.842  30.431  28.162  1.00  0.00     0.031 C 
ATOM     62  C   UNL A   1      45.554  31.034  28.903  1.00  0.00     0.037 A 
BRANCH  49  63
ATOM     63  C   UNL A   1      39.798  28.845  29.385  1.00  0.00     0.064 A 
ATOM     64  C   UNL A   1      38.867  29.337  28.457  1.00  0.00     0.173 A 
ATOM     65  C   UNL A   1      39.347  28.571  30.685  1.00  0.00     0.173 A 
ATOM     66  F   UNL A   1      39.250  29.625  27.205  1.00  0.00    -0.203 F 
ATOM     67  C   UNL A   1      37.545  29.574  28.825  1.00  0.00     0.198 A 
ATOM     68  C   UNL A   1      38.017  28.783  31.041  1.00  0.00     0.198 A 
ATOM     69  F   UNL A   1      40.194  28.094  31.609  1.00  0.00    -0.203 F 
ATOM     70  F   UNL A   1      36.687  30.092  27.936  1.00  0.00    -0.200 F 
ATOM     71  C   UNL A   1      37.120  29.292  30.114  1.00  0.00     0.200 A 
ATOM     72  F   UNL A   1      37.604  28.499  32.284  1.00  0.00    -0.200 F 
ATOM     73  F   UNL A   1      35.847  29.519  30.466  1.00  0.00    -0.200 F 
ENDBRANCH  49  63
BRANCH  50  74
ATOM     74  C   UNL A   1      49.110  26.778  26.475  1.00  0.00     0.064 A 
ATOM     75  C   UNL A   1      49.479  26.961  25.136  1.00  0.00     0.173 A 
ATOM     76  C   UNL A   1      50.089  26.316  27.366  1.00  0.00     0.173 A 
ATOM     77  F   UNL A   1      48.570  27.379  24.242  1.00  0.00    -0.203 F 
ATOM     78  C   UNL A   1      50.772  26.678  24.700  1.00  0.00     0.198 A 
ATOM     79  C   UNL A   1      51.389  26.058  26.935  1.00  0.00     0.198 A 
ATOM     80  F   UNL A   1      49.786  26.129  28.659  1.00  0.00    -0.203 F 
ATOM     81  F   UNL A   1      51.088  26.824  23.406  1.00  0.00    -0.200 F 
ATOM     82  C   UNL A   1      51.728  26.233  25.602  1.00  0.00     0.200 A 
ATOM     83  F   UNL A   1      52.313  25.641  27.812  1.00  0.00    -0.200 F 
ATOM     84  F   UNL A   1      52.973  25.968  25.184  1.00  0.00    -0.200 F 
ENDBRANCH  50  74
BRANCH  62  85
ATOM     85  C   UNL A   1      46.086  32.380  29.297  1.00  0.00     0.064 A 
ATOM     86  C   UNL A   1      46.611  32.615  30.576  1.00  0.00     0.173 A 
ATOM     87  C   UNL A   1      46.095  33.438  28.377  1.00  0.00     0.173 A 
ATOM     88  F   UNL A   1      46.611  31.638  31.496  1.00  0.00    -0.203 F 
ATOM     89  C   UNL A   1      47.103  33.869  30.927  1.00  0.00     0.198 A 
ATOM     90  C   UNL A   1      46.612  34.684  28.723  1.00  0.00     0.198 A 
ATOM     91  F   UNL A   1      45.609  33.263  27.139  1.00  0.00    -0.203 F 
ATOM     92  F   UNL A   1      47.558  34.084  32.170  1.00  0.00    -0.200 F 
ATOM     93  C   UNL A   1      47.108  34.900  30.000  1.00  0.00     0.200 A 
ATOM     94  F   UNL A   1      46.625  35.677  27.823  1.00  0.00    -0.200 F 
ATOM     95  F   UNL A   1      47.584  36.106  30.340  1.00  0.00    -0.200 F 
ENDBRANCH  62  85
ENDBRANCH  36  37
ENDBRANCH  28  31
ENDBRANCH  26  27
ENDBRANCH  25  26
ENDBRANCH   1  25
TORSDOF 13
ENDMDL
