MODEL 1
REMARK VINA RESULT:     -13.2      0.000      0.000
REMARK SMILES O=C(NCCCNC(=O)c1[nH]ncc1C[NH+]1CCC([N@H+]2CCC[C@@H](C(=O)N3CCCC3)C2)CC1)c1ccc(-c2c3nc(c(-c4c(F)c(F)c(F)c(F)c4F)c4ccc([nH]4)c(-c4c(F)c(F)c(F)c(F)c4F)c4nc(c(-c5c(F)c(F)c(F)c(F)c5F)c5ccc2[nH]5)C=C4)C=C3)cc1
REMARK SMILES IDX 6 1 5 2 4 3 3 4 1 5 2 6 35 8 36 9 97 10 37 11 96 12 38 13
REMARK SMILES IDX 39 14 40 15 90 16 41 17 95 18 89 19 91 20 42 21 94 22 88 23
REMARK SMILES IDX 87 24 43 26 75 27 55 28 74 29 56 30 59 31 73 32 92 33 57 34
REMARK SMILES IDX 58 35 72 37 93 38 60 39 44 40 45 41 53 42 46 43 47 44 51 45
REMARK SMILES IDX 54 46 48 47 49 48 52 49 50 50 76 51 77 52 85 53 78 54 79 55
REMARK SMILES IDX 83 56 86 57 80 58 81 59 84 60 82 61 61 62 62 63 70 64 63 65
REMARK SMILES IDX 64 66 68 67 71 68 65 69 66 70 69 71 67 72 7 73 8 74 9 76
REMARK SMILES IDX 10 77 11 78 14 79 12 80 13 82 15 83 16 84 17 85 34 86 18 88
REMARK SMILES IDX 33 89 19 90 20 91 21 92 32 93 22 95 24 96 23 97 25 98 26 99
REMARK SMILES IDX 27 100 28 101 31 102 29 103 30 104
REMARK H PARENT 3 7 91 25 59 36 7 75 11 81 16 87 20 94
REMARK Flexibility Score: inf
ROOT
ATOM      1  C   UNL A   1      32.136  26.293  26.074  1.00  0.00     0.118 C 
ENDROOT
BRANCH   1   2
ATOM      2  C   UNL A   1      32.406  27.578  26.846  1.00  0.00     0.042 C 
BRANCH   2   3
ATOM      3  C   UNL A   1      33.370  28.535  26.156  1.00  0.00     0.118 C 
BRANCH   3   4
ATOM      4  N   UNL A   1      33.016  29.932  26.349  1.00  0.00    -0.352 N 
ATOM      5  O   UNL A   1      32.986  31.974  27.276  1.00  0.00    -0.269 OA
ATOM      6  C   UNL A   1      33.594  30.919  27.108  1.00  0.00     0.251 C 
ATOM      7  H   UNL A   1      32.220  30.221  25.848  1.00  0.00     0.163 HD
BRANCH   6   8
ATOM      8  C   UNL A   1      34.924  30.743  27.736  1.00  0.00     0.039 A 
ATOM      9  C   UNL A   1      35.826  31.800  27.855  1.00  0.00     0.014 A 
ATOM     10  C   UNL A   1      35.232  29.505  28.316  1.00  0.00     0.014 A 
ATOM     11  C   UNL A   1      37.074  31.594  28.438  1.00  0.00     0.010 A 
ATOM     12  C   UNL A   1      36.452  29.320  28.976  1.00  0.00     0.010 A 
ATOM     13  C   UNL A   1      37.390  30.359  29.026  1.00  0.00    -0.014 A 
BRANCH  13  14
ATOM     14  C   UNL A   1      38.667  30.219  29.770  1.00  0.00     0.031 A 
ATOM     15  C   UNL A   1      38.828  30.762  31.160  1.00  0.00     0.074 A 
ATOM     16  C   UNL A   1      39.687  29.568  29.178  1.00  0.00     0.049 A 
ATOM     17  N   UNL A   1      39.861  30.675  31.961  1.00  0.00    -0.248 NA
ATOM     18  C   UNL A   1      37.692  31.505  31.725  1.00  0.00     0.031 C 
ATOM     19  C   UNL A   1      39.663  29.029  27.817  1.00  0.00     0.029 A 
ATOM     20  N   UNL A   1      40.928  29.226  29.650  1.00  0.00    -0.354 N 
ATOM     21  C   UNL A   1      39.512  31.372  33.108  1.00  0.00     0.074 A 
ATOM     22  C   UNL A   1      38.174  31.884  32.902  1.00  0.00     0.031 C 
ATOM     23  C   UNL A   1      40.813  28.379  27.582  1.00  0.00     0.029 A 
ATOM     24  C   UNL A   1      41.668  28.491  28.758  1.00  0.00     0.049 A 
ATOM     25  H   UNL A   1      41.257  29.484  30.542  1.00  0.00     0.167 HD
ATOM     26  C   UNL A   1      40.243  31.559  34.232  1.00  0.00     0.037 A 
ATOM     27  C   UNL A   1      42.901  27.965  28.871  1.00  0.00     0.037 A 
ATOM     28  C   UNL A   1      41.552  31.007  34.460  1.00  0.00     0.049 A 
ATOM     29  C   UNL A   1      43.678  28.175  30.135  1.00  0.00     0.074 A 
ATOM     30  C   UNL A   1      42.317  31.048  35.613  1.00  0.00     0.029 A 
ATOM     31  N   UNL A   1      42.290  30.316  33.513  1.00  0.00    -0.354 N 
ATOM     32  N   UNL A   1      43.314  28.790  31.232  1.00  0.00    -0.248 NA
ATOM     33  C   UNL A   1      45.045  27.636  30.168  1.00  0.00     0.031 C 
ATOM     34  C   UNL A   1      43.534  30.404  35.353  1.00  0.00     0.029 A 
ATOM     35  C   UNL A   1      43.517  29.952  34.044  1.00  0.00     0.049 A 
ATOM     36  H   UNL A   1      41.988  30.112  32.599  1.00  0.00     0.167 HD
ATOM     37  C   UNL A   1      44.407  28.731  32.080  1.00  0.00     0.074 A 
ATOM     38  C   UNL A   1      45.441  27.993  31.382  1.00  0.00     0.031 C 
ATOM     39  C   UNL A   1      44.544  29.249  33.323  1.00  0.00     0.037 A 
BRANCH  26  40
ATOM     40  C   UNL A   1      39.646  32.403  35.313  1.00  0.00     0.064 A 
ATOM     41  C   UNL A   1      38.836  31.847  36.312  1.00  0.00     0.173 A 
ATOM     42  C   UNL A   1      39.939  33.772  35.384  1.00  0.00     0.173 A 
ATOM     43  F   UNL A   1      38.522  30.543  36.277  1.00  0.00    -0.203 F 
ATOM     44  C   UNL A   1      38.334  32.635  37.344  1.00  0.00     0.198 A 
ATOM     45  C   UNL A   1      39.444  34.555  36.424  1.00  0.00     0.198 A 
ATOM     46  F   UNL A   1      40.711  34.347  34.450  1.00  0.00    -0.203 F 
ATOM     47  F   UNL A   1      37.549  32.088  38.283  1.00  0.00    -0.200 F 
ATOM     48  C   UNL A   1      38.643  33.986  37.402  1.00  0.00     0.200 A 
ATOM     49  F   UNL A   1      39.744  35.861  36.480  1.00  0.00    -0.200 F 
ATOM     50  F   UNL A   1      38.163  34.742  38.400  1.00  0.00    -0.200 F 
ENDBRANCH  26  40
BRANCH  27  51
ATOM     51  C   UNL A   1      43.468  27.194  27.741  1.00  0.00     0.064 A 
ATOM     52  C   UNL A   1      44.089  27.846  26.669  1.00  0.00     0.173 A 
ATOM     53  C   UNL A   1      43.437  25.793  27.735  1.00  0.00     0.173 A 
ATOM     54  F   UNL A   1      44.126  29.185  26.629  1.00  0.00    -0.203 F 
ATOM     55  C   UNL A   1      44.662  27.120  25.627  1.00  0.00     0.198 A 
ATOM     56  C   UNL A   1      44.024  25.068  26.700  1.00  0.00     0.198 A 
ATOM     57  F   UNL A   1      42.854  25.130  28.744  1.00  0.00    -0.203 F 
ATOM     58  F   UNL A   1      45.239  27.764  24.603  1.00  0.00    -0.200 F 
ATOM     59  C   UNL A   1      44.635  25.732  25.647  1.00  0.00     0.200 A 
ATOM     60  F   UNL A   1      44.004  23.729  26.727  1.00  0.00    -0.200 F 
ATOM     61  F   UNL A   1      45.196  25.036  24.649  1.00  0.00    -0.200 F 
ENDBRANCH  27  51
BRANCH  39  62
ATOM     62  C   UNL A   1      45.872  29.074  33.984  1.00  0.00     0.064 A 
ATOM     63  C   UNL A   1      46.876  30.041  33.840  1.00  0.00     0.173 A 
ATOM     64  C   UNL A   1      46.139  27.950  34.779  1.00  0.00     0.173 A 
ATOM     65  F   UNL A   1      46.667  31.123  33.074  1.00  0.00    -0.203 F 
ATOM     66  C   UNL A   1      48.110  29.885  34.464  1.00  0.00     0.198 A 
ATOM     67  C   UNL A   1      47.370  27.804  35.410  1.00  0.00     0.198 A 
ATOM     68  F   UNL A   1      45.208  27.000  34.939  1.00  0.00    -0.203 F 
ATOM     69  F   UNL A   1      49.068  30.808  34.293  1.00  0.00    -0.200 F 
ATOM     70  C   UNL A   1      48.356  28.769  35.251  1.00  0.00     0.200 A 
ATOM     71  F   UNL A   1      47.608  26.725  36.170  1.00  0.00    -0.200 F 
ATOM     72  F   UNL A   1      49.545  28.618  35.848  1.00  0.00    -0.200 F 
ENDBRANCH  39  62
ENDBRANCH  13  14
ENDBRANCH   6   8
ENDBRANCH   3   4
ENDBRANCH   2   3
ENDBRANCH   1   2
BRANCH   1  73
ATOM     73  N   UNL A   1      31.395  25.316  26.853  1.00  0.00    -0.351 N 
ATOM     74  C   UNL A   1      30.861  24.111  26.484  1.00  0.00     0.269 C 
ATOM     75  H   UNL A   1      31.254  25.559  27.797  1.00  0.00     0.163 HD
ATOM     76  O   UNL A   1      30.018  23.611  27.228  1.00  0.00    -0.268 OA
BRANCH  74  77
ATOM     77  C   UNL A   1      31.242  23.492  25.248  1.00  0.00     0.131 A 
ATOM     78  N   UNL A   1      30.628  23.838  24.073  1.00  0.00    -0.272 N 
ATOM     79  C   UNL A   1      32.094  22.441  24.920  1.00  0.00     0.057 A 
ATOM     80  N   UNL A   1      31.122  23.214  22.994  1.00  0.00    -0.183 NA
ATOM     81  H   UNL A   1      29.889  24.486  24.026  1.00  0.00     0.190 HD
ATOM     82  C   UNL A   1      31.995  22.350  23.510  1.00  0.00     0.145 A 
BRANCH  79  83
ATOM     83  C   UNL A   1      32.943  21.594  25.806  1.00  0.00     0.303 C 
BRANCH  83  84
ATOM     84  N   UNL A   1      34.367  21.910  25.775  1.00  0.00    -0.331 N 
ATOM     85  C   UNL A   1      35.171  21.041  24.918  1.00  0.00     0.268 C 
ATOM     86  C   UNL A   1      34.684  23.320  25.581  1.00  0.00     0.268 C 
ATOM     87  H   UNL A   1      34.651  21.696  26.732  1.00  0.00     0.348 HD
ATOM     88  C   UNL A   1      36.646  21.195  25.281  1.00  0.00     0.126 C 
ATOM     89  C   UNL A   1      36.139  23.572  25.989  1.00  0.00     0.126 C 
ATOM     90  C   UNL A   1      37.100  22.666  25.198  1.00  0.00     0.195 C 
BRANCH  90  91
ATOM     91  N   UNL A   1      38.512  22.926  25.588  1.00  0.00    -0.331 N 
ATOM     92  C   UNL A   1      38.672  24.021  26.556  1.00  0.00     0.262 C 
ATOM     93  C   UNL A   1      39.153  21.688  26.076  1.00  0.00     0.275 C 
ATOM     94  H   UNL A   1      38.986  23.239  24.741  1.00  0.00     0.348 HD
ATOM     95  C   UNL A   1      40.143  24.268  26.890  1.00  0.00     0.062 C 
ATOM     96  C   UNL A   1      40.651  21.873  26.393  1.00  0.00     0.134 C 
ATOM     97  C   UNL A   1      40.810  22.999  27.415  1.00  0.00     0.025 C 
BRANCH  96  98
ATOM     98  C   UNL A   1      41.227  20.524  26.837  1.00  0.00     0.231 C 
ATOM     99  O   UNL A   1      40.634  19.818  27.656  1.00  0.00    -0.274 OA
ATOM    100  N   UNL A   1      42.381  20.071  26.235  1.00  0.00    -0.342 N 
ATOM    101  C   UNL A   1      43.304  20.792  25.377  1.00  0.00     0.119 C 
ATOM    102  C   UNL A   1      42.804  18.691  26.414  1.00  0.00     0.119 C 
ATOM    103  C   UNL A   1      44.156  19.708  24.734  1.00  0.00     0.023 C 
ATOM    104  C   UNL A   1      44.192  18.622  25.801  1.00  0.00     0.023 C 
ENDBRANCH  96  98
ENDBRANCH  90  91
ENDBRANCH  83  84
ENDBRANCH  79  83
ENDBRANCH  74  77
ENDBRANCH   1  73
TORSDOF 14
ENDMDL
MODEL 2
REMARK VINA RESULT:     -13.0      0.378      7.156
REMARK SMILES O=C(NCCCNC(=O)c1[nH]ncc1C[NH+]1CCC([N@H+]2CCC[C@@H](C(=O)N3CCCC3)C2)CC1)c1ccc(-c2c3nc(c(-c4c(F)c(F)c(F)c(F)c4F)c4ccc([nH]4)c(-c4c(F)c(F)c(F)c(F)c4F)c4nc(c(-c5c(F)c(F)c(F)c(F)c5F)c5ccc2[nH]5)C=C4)C=C3)cc1
REMARK SMILES IDX 6 1 5 2 4 3 3 4 1 5 2 6 35 8 36 9 97 10 37 11 96 12 38 13
REMARK SMILES IDX 39 14 40 15 90 16 41 17 95 18 89 19 91 20 42 21 94 22 88 23
REMARK SMILES IDX 87 24 43 26 75 27 55 28 74 29 56 30 59 31 73 32 92 33 57 34
REMARK SMILES IDX 58 35 72 37 93 38 60 39 44 40 45 41 53 42 46 43 47 44 51 45
REMARK SMILES IDX 54 46 48 47 49 48 52 49 50 50 76 51 77 52 85 53 78 54 79 55
REMARK SMILES IDX 83 56 86 57 80 58 81 59 84 60 82 61 61 62 62 63 70 64 63 65
REMARK SMILES IDX 64 66 68 67 71 68 65 69 66 70 69 71 67 72 7 73 8 74 9 76
REMARK SMILES IDX 10 77 11 78 14 79 12 80 13 82 15 83 16 84 17 85 34 86 18 88
REMARK SMILES IDX 33 89 19 90 20 91 21 92 32 93 22 95 24 96 23 97 25 98 26 99
REMARK SMILES IDX 27 100 28 101 31 102 29 103 30 104
REMARK H PARENT 3 7 91 25 59 36 7 75 11 81 16 87 20 94
REMARK Flexibility Score: inf
ROOT
ATOM      1  C   UNL A   1      32.545  26.186  26.119  1.00  0.00     0.118 C 
ENDROOT
BRANCH   1   2
ATOM      2  C   UNL A   1      32.229  27.650  26.398  1.00  0.00     0.042 C 
BRANCH   2   3
ATOM      3  C   UNL A   1      33.350  28.615  26.033  1.00  0.00     0.118 C 
BRANCH   3   4
ATOM      4  N   UNL A   1      32.993  30.008  26.260  1.00  0.00    -0.352 N 
ATOM      5  O   UNL A   1      32.948  32.022  27.243  1.00  0.00    -0.269 OA
ATOM      6  C   UNL A   1      33.558  30.972  27.055  1.00  0.00     0.251 C 
ATOM      7  H   UNL A   1      32.204  30.311  25.755  1.00  0.00     0.163 HD
BRANCH   6   8
ATOM      8  C   UNL A   1      34.878  30.777  27.700  1.00  0.00     0.039 A 
ATOM      9  C   UNL A   1      35.784  31.827  27.849  1.00  0.00     0.014 A 
ATOM     10  C   UNL A   1      35.170  29.529  28.265  1.00  0.00     0.014 A 
ATOM     11  C   UNL A   1      37.022  31.604  28.447  1.00  0.00     0.010 A 
ATOM     12  C   UNL A   1      36.379  29.326  28.940  1.00  0.00     0.010 A 
ATOM     13  C   UNL A   1      37.322  30.358  29.020  1.00  0.00    -0.014 A 
BRANCH  13  14
ATOM     14  C   UNL A   1      38.587  30.197  29.780  1.00  0.00     0.031 A 
ATOM     15  C   UNL A   1      39.778  29.508  29.181  1.00  0.00     0.074 A 
ATOM     16  C   UNL A   1      38.658  30.707  31.024  1.00  0.00     0.049 A 
ATOM     17  N   UNL A   1      40.970  29.334  29.696  1.00  0.00    -0.248 NA
ATOM     18  C   UNL A   1      39.614  28.931  27.838  1.00  0.00     0.031 C 
ATOM     19  C   UNL A   1      37.555  31.365  31.728  1.00  0.00     0.029 A 
ATOM     20  N   UNL A   1      39.704  30.775  31.908  1.00  0.00    -0.354 N 
ATOM     21  C   UNL A   1      41.687  28.607  28.756  1.00  0.00     0.074 A 
ATOM     22  C   UNL A   1      40.798  28.365  27.640  1.00  0.00     0.031 C 
ATOM     23  C   UNL A   1      37.996  31.817  32.911  1.00  0.00     0.029 A 
ATOM     24  C   UNL A   1      39.397  31.445  33.066  1.00  0.00     0.049 A 
ATOM     25  H   UNL A   1      40.589  30.382  31.730  1.00  0.00     0.167 HD
ATOM     26  C   UNL A   1      42.973  28.189  28.821  1.00  0.00     0.037 A 
ATOM     27  C   UNL A   1      40.159  31.729  34.139  1.00  0.00     0.037 A 
ATOM     28  C   UNL A   1      43.874  28.473  29.906  1.00  0.00     0.049 A 
ATOM     29  C   UNL A   1      41.584  31.267  34.172  1.00  0.00     0.074 A 
ATOM     30  C   UNL A   1      45.226  28.189  30.003  1.00  0.00     0.029 A 
ATOM     31  N   UNL A   1      43.512  29.106  31.084  1.00  0.00    -0.354 N 
ATOM     32  N   UNL A   1      42.264  30.628  33.253  1.00  0.00    -0.248 NA
ATOM     33  C   UNL A   1      42.341  31.547  35.401  1.00  0.00     0.031 C 
ATOM     34  C   UNL A   1      45.676  28.626  31.256  1.00  0.00     0.029 A 
ATOM     35  C   UNL A   1      44.607  29.193  31.929  1.00  0.00     0.049 A 
ATOM     36  H   UNL A   1      42.611  29.444  31.291  1.00  0.00     0.167 HD
ATOM     37  C   UNL A   1      43.521  30.412  33.794  1.00  0.00     0.074 A 
ATOM     38  C   UNL A   1      43.521  31.013  35.113  1.00  0.00     0.031 C 
ATOM     39  C   UNL A   1      44.577  29.764  33.249  1.00  0.00     0.037 A 
BRANCH  26  40
ATOM     40  C   UNL A   1      43.492  27.369  27.682  1.00  0.00     0.064 A 
ATOM     41  C   UNL A   1      44.134  27.962  26.588  1.00  0.00     0.173 A 
ATOM     42  C   UNL A   1      43.400  25.970  27.719  1.00  0.00     0.173 A 
ATOM     43  F   UNL A   1      44.236  29.297  26.508  1.00  0.00    -0.203 F 
ATOM     44  C   UNL A   1      44.663  27.182  25.563  1.00  0.00     0.198 A 
ATOM     45  C   UNL A   1      43.939  25.193  26.697  1.00  0.00     0.198 A 
ATOM     46  F   UNL A   1      42.794  25.360  28.748  1.00  0.00    -0.203 F 
ATOM     47  F   UNL A   1      45.261  27.768  24.516  1.00  0.00    -0.200 F 
ATOM     48  C   UNL A   1      44.570  25.799  25.621  1.00  0.00     0.200 A 
ATOM     49  F   UNL A   1      43.849  23.856  26.755  1.00  0.00    -0.200 F 
ATOM     50  F   UNL A   1      45.084  25.049  24.636  1.00  0.00    -0.200 F 
ENDBRANCH  26  40
BRANCH  27  51
ATOM     51  C   UNL A   1      39.572  32.488  35.267  1.00  0.00     0.064 A 
ATOM     52  C   UNL A   1      38.842  31.833  36.266  1.00  0.00     0.173 A 
ATOM     53  C   UNL A   1      39.765  33.870  35.387  1.00  0.00     0.173 A 
ATOM     54  F   UNL A   1      38.621  30.514  36.181  1.00  0.00    -0.203 F 
ATOM     55  C   UNL A   1      38.326  32.539  37.351  1.00  0.00     0.198 A 
ATOM     56  C   UNL A   1      39.263  34.571  36.480  1.00  0.00     0.198 A 
ATOM     57  F   UNL A   1      40.460  34.533  34.452  1.00  0.00    -0.203 F 
ATOM     58  F   UNL A   1      37.619  31.895  38.291  1.00  0.00    -0.200 F 
ATOM     59  C   UNL A   1      38.543  33.905  37.461  1.00  0.00     0.200 A 
ATOM     60  F   UNL A   1      39.481  35.888  36.587  1.00  0.00    -0.200 F 
ATOM     61  F   UNL A   1      38.056  34.580  38.511  1.00  0.00    -0.200 F 
ENDBRANCH  27  51
BRANCH  39  62
ATOM     62  C   UNL A   1      45.800  29.636  34.097  1.00  0.00     0.064 A 
ATOM     63  C   UNL A   1      45.980  28.524  34.931  1.00  0.00     0.173 A 
ATOM     64  C   UNL A   1      46.805  30.614  34.066  1.00  0.00     0.173 A 
ATOM     65  F   UNL A   1      45.034  27.575  35.003  1.00  0.00    -0.203 F 
ATOM     66  C   UNL A   1      47.123  28.398  35.714  1.00  0.00     0.198 A 
ATOM     67  C   UNL A   1      47.952  30.477  34.841  1.00  0.00     0.198 A 
ATOM     68  F   UNL A   1      46.671  31.695  33.285  1.00  0.00    -0.203 F 
ATOM     69  F   UNL A   1      47.266  27.340  36.524  1.00  0.00    -0.200 F 
ATOM     70  C   UNL A   1      48.110  29.372  35.666  1.00  0.00     0.200 A 
ATOM     71  F   UNL A   1      48.905  31.419  34.795  1.00  0.00    -0.200 F 
ATOM     72  F   UNL A   1      49.209  29.252  36.422  1.00  0.00    -0.200 F 
ENDBRANCH  39  62
ENDBRANCH  13  14
ENDBRANCH   6   8
ENDBRANCH   3   4
ENDBRANCH   2   3
ENDBRANCH   1   2
BRANCH   1  73
ATOM     73  N   UNL A   1      31.718  25.276  26.893  1.00  0.00    -0.351 N 
ATOM     74  C   UNL A   1      31.074  24.129  26.517  1.00  0.00     0.269 C 
ATOM     75  H   UNL A   1      31.603  25.524  27.839  1.00  0.00     0.163 HD
ATOM     76  O   UNL A   1      30.190  23.704  27.258  1.00  0.00    -0.268 OA
BRANCH  74  77
ATOM     77  C   UNL A   1      31.394  23.487  25.274  1.00  0.00     0.131 A 
ATOM     78  N   UNL A   1      30.756  23.845  24.116  1.00  0.00    -0.272 N 
ATOM     79  C   UNL A   1      32.196  22.403  24.930  1.00  0.00     0.057 A 
ATOM     80  N   UNL A   1      31.193  23.195  23.028  1.00  0.00    -0.183 NA
ATOM     81  H   UNL A   1      30.039  24.519  24.086  1.00  0.00     0.190 HD
ATOM     82  C   UNL A   1      32.050  22.304  23.524  1.00  0.00     0.145 A 
BRANCH  79  83
ATOM     83  C   UNL A   1      33.042  21.533  25.797  1.00  0.00     0.303 C 
BRANCH  83  84
ATOM     84  N   UNL A   1      34.466  21.850  25.780  1.00  0.00    -0.331 N 
ATOM     85  C   UNL A   1      35.260  21.060  24.842  1.00  0.00     0.268 C 
ATOM     86  C   UNL A   1      34.783  23.272  25.708  1.00  0.00     0.268 C 
ATOM     87  H   UNL A   1      34.759  21.553  26.711  1.00  0.00     0.348 HD
ATOM     88  C   UNL A   1      36.740  21.180  25.202  1.00  0.00     0.126 C 
ATOM     89  C   UNL A   1      36.242  23.486  26.122  1.00  0.00     0.126 C 
ATOM     90  C   UNL A   1      37.195  22.653  25.245  1.00  0.00     0.195 C 
BRANCH  90  91
ATOM     91  N   UNL A   1      38.611  22.877  25.643  1.00  0.00    -0.331 N 
ATOM     92  C   UNL A   1      38.773  23.792  26.782  1.00  0.00     0.262 C 
ATOM     93  C   UNL A   1      39.290  21.590  25.895  1.00  0.00     0.275 C 
ATOM     94  H   UNL A   1      39.055  23.343  24.852  1.00  0.00     0.348 HD
ATOM     95  C   UNL A   1      40.247  24.015  27.120  1.00  0.00     0.062 C 
ATOM     96  C   UNL A   1      40.792  21.755  26.205  1.00  0.00     0.134 C 
ATOM     97  C   UNL A   1      40.953  22.691  27.403  1.00  0.00     0.025 C 
BRANCH  96  98
ATOM     98  C   UNL A   1      41.407  20.364  26.395  1.00  0.00     0.231 C 
ATOM     99  O   UNL A   1      40.764  19.451  26.919  1.00  0.00    -0.274 OA
ATOM    100  N   UNL A   1      42.666  20.127  25.889  1.00  0.00    -0.342 N 
ATOM    101  C   UNL A   1      43.639  21.079  25.382  1.00  0.00     0.119 C 
ATOM    102  C   UNL A   1      43.170  18.766  25.794  1.00  0.00     0.119 C 
ATOM    103  C   UNL A   1      44.657  20.228  24.638  1.00  0.00     0.023 C 
ATOM    104  C   UNL A   1      44.631  18.913  25.405  1.00  0.00     0.023 C 
ENDBRANCH  96  98
ENDBRANCH  90  91
ENDBRANCH  83  84
ENDBRANCH  79  83
ENDBRANCH  74  77
ENDBRANCH   1  73
TORSDOF 14
ENDMDL
MODEL 3
REMARK VINA RESULT:     -12.3      4.062     10.471
REMARK SMILES O=C(NCCCNC(=O)c1[nH]ncc1C[NH+]1CCC([N@H+]2CCC[C@@H](C(=O)N3CCCC3)C2)CC1)c1ccc(-c2c3nc(c(-c4c(F)c(F)c(F)c(F)c4F)c4ccc([nH]4)c(-c4c(F)c(F)c(F)c(F)c4F)c4nc(c(-c5c(F)c(F)c(F)c(F)c5F)c5ccc2[nH]5)C=C4)C=C3)cc1
REMARK SMILES IDX 6 1 5 2 4 3 3 4 1 5 2 6 35 8 36 9 97 10 37 11 96 12 38 13
REMARK SMILES IDX 39 14 40 15 90 16 41 17 95 18 89 19 91 20 42 21 94 22 88 23
REMARK SMILES IDX 87 24 43 26 75 27 55 28 74 29 56 30 59 31 73 32 92 33 57 34
REMARK SMILES IDX 58 35 72 37 93 38 60 39 44 40 45 41 53 42 46 43 47 44 51 45
REMARK SMILES IDX 54 46 48 47 49 48 52 49 50 50 76 51 77 52 85 53 78 54 79 55
REMARK SMILES IDX 83 56 86 57 80 58 81 59 84 60 82 61 61 62 62 63 70 64 63 65
REMARK SMILES IDX 64 66 68 67 71 68 65 69 66 70 69 71 67 72 7 73 8 74 9 76
REMARK SMILES IDX 10 77 11 78 14 79 12 80 13 82 15 83 16 84 17 85 34 86 18 88
REMARK SMILES IDX 33 89 19 90 20 91 21 92 32 93 22 95 24 96 23 97 25 98 26 99
REMARK SMILES IDX 27 100 28 101 31 102 29 103 30 104
REMARK H PARENT 3 7 91 25 59 36 7 75 11 81 16 87 20 94
REMARK Flexibility Score: inf
ROOT
ATOM      1  C   UNL A   1      36.885  19.768  24.882  1.00  0.00     0.118 C 
ENDROOT
BRANCH   1   2
ATOM      2  C   UNL A   1      38.388  19.799  24.640  1.00  0.00     0.042 C 
BRANCH   2   3
ATOM      3  C   UNL A   1      39.223  20.006  25.898  1.00  0.00     0.118 C 
BRANCH   3   4
ATOM      4  N   UNL A   1      40.371  19.115  25.968  1.00  0.00    -0.352 N 
ATOM      5  O   UNL A   1      42.514  18.458  25.944  1.00  0.00    -0.269 OA
ATOM      6  C   UNL A   1      41.709  19.368  26.128  1.00  0.00     0.251 C 
ATOM      7  H   UNL A   1      40.147  18.159  25.885  1.00  0.00     0.163 HD
BRANCH   6   8
ATOM      8  C   UNL A   1      42.210  20.710  26.507  1.00  0.00     0.039 A 
ATOM      9  C   UNL A   1      42.516  21.677  25.549  1.00  0.00     0.014 A 
ATOM     10  C   UNL A   1      42.275  21.042  27.866  1.00  0.00     0.014 A 
ATOM     11  C   UNL A   1      42.998  22.924  25.941  1.00  0.00     0.010 A 
ATOM     12  C   UNL A   1      42.680  22.322  28.261  1.00  0.00     0.010 A 
ATOM     13  C   UNL A   1      43.063  23.267  27.300  1.00  0.00    -0.014 A 
BRANCH  13  14
ATOM     14  C   UNL A   1      43.439  24.652  27.679  1.00  0.00     0.031 A 
ATOM     15  C   UNL A   1      44.866  25.114  27.641  1.00  0.00     0.074 A 
ATOM     16  C   UNL A   1      42.463  25.507  28.040  1.00  0.00     0.049 A 
ATOM     17  N   UNL A   1      45.351  26.305  27.892  1.00  0.00    -0.248 NA
ATOM     18  C   UNL A   1      45.885  24.114  27.287  1.00  0.00     0.031 C 
ATOM     19  C   UNL A   1      41.043  25.165  28.151  1.00  0.00     0.029 A 
ATOM     20  N   UNL A   1      42.509  26.840  28.356  1.00  0.00    -0.354 N 
ATOM     21  C   UNL A   1      46.726  26.193  27.753  1.00  0.00     0.074 A 
ATOM     22  C   UNL A   1      47.006  24.816  27.402  1.00  0.00     0.031 C 
ATOM     23  C   UNL A   1      40.347  26.270  28.457  1.00  0.00     0.029 A 
ATOM     24  C   UNL A   1      41.274  27.386  28.604  1.00  0.00     0.049 A 
ATOM     25  H   UNL A   1      43.346  27.356  28.401  1.00  0.00     0.167 HD
ATOM     26  C   UNL A   1      47.666  27.156  27.899  1.00  0.00     0.037 A 
ATOM     27  C   UNL A   1      40.923  28.647  28.917  1.00  0.00     0.037 A 
ATOM     28  C   UNL A   1      47.387  28.536  28.196  1.00  0.00     0.049 A 
ATOM     29  C   UNL A   1      41.986  29.694  29.054  1.00  0.00     0.074 A 
ATOM     30  C   UNL A   1      48.267  29.603  28.248  1.00  0.00     0.029 A 
ATOM     31  N   UNL A   1      46.131  29.038  28.494  1.00  0.00    -0.354 N 
ATOM     32  N   UNL A   1      43.277  29.585  28.867  1.00  0.00    -0.248 NA
ATOM     33  C   UNL A   1      41.545  31.033  29.468  1.00  0.00     0.031 C 
ATOM     34  C   UNL A   1      47.545  30.749  28.606  1.00  0.00     0.029 A 
ATOM     35  C   UNL A   1      46.216  30.395  28.763  1.00  0.00     0.049 A 
ATOM     36  H   UNL A   1      45.300  28.509  28.513  1.00  0.00     0.167 HD
ATOM     37  C   UNL A   1      43.808  30.832  29.155  1.00  0.00     0.074 A 
ATOM     38  C   UNL A   1      42.695  31.693  29.503  1.00  0.00     0.031 C 
ATOM     39  C   UNL A   1      45.104  31.224  29.141  1.00  0.00     0.037 A 
BRANCH  26  40
ATOM     40  C   UNL A   1      49.099  26.754  27.743  1.00  0.00     0.064 A 
ATOM     41  C   UNL A   1      49.883  26.400  28.848  1.00  0.00     0.173 A 
ATOM     42  C   UNL A   1      49.672  26.663  26.466  1.00  0.00     0.173 A 
ATOM     43  F   UNL A   1      49.377  26.482  30.088  1.00  0.00    -0.203 F 
ATOM     44  C   UNL A   1      51.198  25.973  28.682  1.00  0.00     0.198 A 
ATOM     45  C   UNL A   1      50.984  26.225  26.303  1.00  0.00     0.198 A 
ATOM     46  F   UNL A   1      48.958  26.991  25.380  1.00  0.00    -0.203 F 
ATOM     47  F   UNL A   1      51.938  25.653  29.753  1.00  0.00    -0.200 F 
ATOM     48  C   UNL A   1      51.745  25.881  27.410  1.00  0.00     0.200 A 
ATOM     49  F   UNL A   1      51.512  26.135  25.074  1.00  0.00    -0.200 F 
ATOM     50  F   UNL A   1      53.009  25.464  27.252  1.00  0.00    -0.200 F 
ENDBRANCH  26  40
BRANCH  27  51
ATOM     51  C   UNL A   1      39.494  28.972  29.125  1.00  0.00     0.064 A 
ATOM     52  C   UNL A   1      38.911  28.858  30.393  1.00  0.00     0.173 A 
ATOM     53  C   UNL A   1      38.699  29.443  28.072  1.00  0.00     0.173 A 
ATOM     54  F   UNL A   1      39.633  28.396  31.424  1.00  0.00    -0.203 F 
ATOM     55  C   UNL A   1      37.578  29.206  30.600  1.00  0.00     0.198 A 
ATOM     56  C   UNL A   1      37.371  29.806  28.284  1.00  0.00     0.198 A 
ATOM     57  F   UNL A   1      39.219  29.569  26.844  1.00  0.00    -0.203 F 
ATOM     58  F   UNL A   1      37.035  29.076  31.819  1.00  0.00    -0.200 F 
ATOM     59  C   UNL A   1      36.811  29.686  29.547  1.00  0.00     0.200 A 
ATOM     60  F   UNL A   1      36.636  30.277  27.268  1.00  0.00    -0.200 F 
ATOM     61  F   UNL A   1      35.533  30.031  29.751  1.00  0.00    -0.200 F 
ENDBRANCH  27  51
BRANCH  39  62
ATOM     62  C   UNL A   1      45.386  32.632  29.555  1.00  0.00     0.064 A 
ATOM     63  C   UNL A   1      45.291  33.682  28.632  1.00  0.00     0.173 A 
ATOM     64  C   UNL A   1      45.732  32.938  30.879  1.00  0.00     0.173 A 
ATOM     65  F   UNL A   1      44.980  33.429  27.352  1.00  0.00    -0.203 F 
ATOM     66  C   UNL A   1      45.543  34.995  29.019  1.00  0.00     0.198 A 
ATOM     67  C   UNL A   1      45.970  34.253  31.264  1.00  0.00     0.198 A 
ATOM     68  F   UNL A   1      45.837  31.962  31.792  1.00  0.00    -0.203 F 
ATOM     69  F   UNL A   1      45.472  35.983  28.116  1.00  0.00    -0.200 F 
ATOM     70  C   UNL A   1      45.878  35.280  30.334  1.00  0.00     0.200 A 
ATOM     71  F   UNL A   1      46.296  34.530  32.535  1.00  0.00    -0.200 F 
ATOM     72  F   UNL A   1      46.124  36.544  30.704  1.00  0.00    -0.200 F 
ENDBRANCH  39  62
ENDBRANCH  13  14
ENDBRANCH   6   8
ENDBRANCH   3   4
ENDBRANCH   2   3
ENDBRANCH   1   2
BRANCH   1  73
ATOM     73  N   UNL A   1      36.442  20.808  25.794  1.00  0.00    -0.351 N 
ATOM     74  C   UNL A   1      35.189  21.309  26.024  1.00  0.00     0.269 C 
ATOM     75  H   UNL A   1      37.157  21.220  26.332  1.00  0.00     0.163 HD
ATOM     76  O   UNL A   1      35.106  22.388  26.607  1.00  0.00    -0.268 OA
BRANCH  74  77
ATOM     77  C   UNL A   1      34.027  20.612  25.551  1.00  0.00     0.131 A 
ATOM     78  N   UNL A   1      33.636  19.433  26.127  1.00  0.00    -0.272 N 
ATOM     79  C   UNL A   1      33.169  20.795  24.471  1.00  0.00     0.057 A 
ATOM     80  N   UNL A   1      32.507  18.923  25.614  1.00  0.00    -0.183 NA
ATOM     81  H   UNL A   1      34.140  18.997  26.852  1.00  0.00     0.190 HD
ATOM     82  C   UNL A   1      32.236  19.737  24.594  1.00  0.00     0.145 A 
BRANCH  79  83
ATOM     83  C   UNL A   1      33.178  21.851  23.418  1.00  0.00     0.303 C 
BRANCH  83  84
ATOM     84  N   UNL A   1      32.605  23.129  23.826  1.00  0.00    -0.331 N 
ATOM     85  C   UNL A   1      31.265  23.396  23.307  1.00  0.00     0.268 C 
ATOM     86  C   UNL A   1      32.713  23.430  25.250  1.00  0.00     0.268 C 
ATOM     87  H   UNL A   1      33.221  23.796  23.360  1.00  0.00     0.348 HD
ATOM     88  C   UNL A   1      30.953  24.884  23.448  1.00  0.00     0.126 C 
ATOM     89  C   UNL A   1      32.477  24.927  25.470  1.00  0.00     0.126 C 
ATOM     90  C   UNL A   1      31.112  25.361  24.906  1.00  0.00     0.195 C 
BRANCH  90  91
ATOM     91  N   UNL A   1      30.882  26.813  25.136  1.00  0.00    -0.331 N 
ATOM     92  C   UNL A   1      31.953  27.473  25.897  1.00  0.00     0.262 C 
ATOM     93  C   UNL A   1      30.634  27.509  23.857  1.00  0.00     0.275 C 
ATOM     94  H   UNL A   1      30.050  26.878  25.721  1.00  0.00     0.348 HD
ATOM     95  C   UNL A   1      31.646  28.951  26.137  1.00  0.00     0.062 C 
ATOM     96  C   UNL A   1      30.281  28.999  24.044  1.00  0.00     0.134 C 
ATOM     97  C   UNL A   1      31.408  29.684  24.819  1.00  0.00     0.025 C 
BRANCH  96  98
ATOM     98  C   UNL A   1      29.992  29.609  22.668  1.00  0.00     0.231 C 
ATOM     99  O   UNL A   1      30.288  29.010  21.632  1.00  0.00    -0.274 OA
ATOM    100  N   UNL A   1      29.310  30.805  22.609  1.00  0.00    -0.342 N 
ATOM    101  C   UNL A   1      29.008  31.735  23.682  1.00  0.00     0.119 C 
ATOM    102  C   UNL A   1      28.770  31.275  21.343  1.00  0.00     0.119 C 
ATOM    103  C   UNL A   1      27.945  32.657  23.103  1.00  0.00     0.023 C 
ATOM    104  C   UNL A   1      28.292  32.690  21.620  1.00  0.00     0.023 C 
ENDBRANCH  96  98
ENDBRANCH  90  91
ENDBRANCH  83  84
ENDBRANCH  79  83
ENDBRANCH  74  77
ENDBRANCH   1  73
TORSDOF 14
ENDMDL
