MODEL 1
REMARK VINA RESULT:     -13.4      0.000      0.000
REMARK SMILES O=C(NCCCNC(=O)[C@@H]1CCCN1S(=O)(=O)c1ccc2[nH]c(=O)c(=O)[nH]c2c1)c1ccc(-c2c3nc(c(-c4c(F)c(F)c(F)c(F)c4F)c4ccc([nH]4)c(-c4c(F)c(F)c(F)c(F)c4F)c4nc(c(-c5c(F)c(F)c(F)c(F)c5F)c5ccc2[nH]5)C=C4)C=C3)cc1
REMARK SMILES IDX 5 1 4 2 3 3 1 4 2 5 30 7 31 8 92 9 32 10 91 11 33 12 34 13
REMARK SMILES IDX 35 14 85 15 36 16 90 17 84 18 86 19 37 20 89 21 83 22 82 23
REMARK SMILES IDX 38 25 70 26 50 27 69 28 51 29 54 30 68 31 87 32 52 33 53 34
REMARK SMILES IDX 67 36 88 37 55 38 39 39 40 40 48 41 41 42 42 43 46 44 49 45
REMARK SMILES IDX 43 46 44 47 47 48 45 49 71 50 72 51 80 52 73 53 74 54 78 55
REMARK SMILES IDX 81 56 75 57 76 58 79 59 77 60 56 61 57 62 65 63 58 64 59 65
REMARK SMILES IDX 63 66 66 67 60 68 61 69 64 70 62 71 6 72 7 73 8 74 9 76
REMARK SMILES IDX 10 77 11 78 14 79 12 80 13 81 15 82 16 83 17 84 18 85 19 86
REMARK SMILES IDX 29 87 20 88 28 89 21 90 27 91 22 92 25 93 23 95 26 97 24 98
REMARK H PARENT 3 6 86 24 54 35 7 75 27 94 22 96
REMARK Flexibility Score: inf
ROOT
ATOM      1  C   UNL A   1      32.238  28.093  27.433  1.00  0.00     0.042 C 
ENDROOT
BRANCH   1   2
ATOM      2  C   UNL A   1      33.626  28.699  27.268  1.00  0.00     0.118 C 
BRANCH   2   3
ATOM      3  N   UNL A   1      33.671  30.095  27.647  1.00  0.00    -0.352 N 
ATOM      4  O   UNL A   1      34.387  31.927  28.722  1.00  0.00    -0.269 OA
ATOM      5  C   UNL A   1      34.652  30.804  28.299  1.00  0.00     0.251 C 
ATOM      6  H   UNL A   1      32.876  30.619  27.398  1.00  0.00     0.163 HD
BRANCH   5   7
ATOM      7  C   UNL A   1      36.013  30.248  28.520  1.00  0.00     0.039 A 
ATOM      8  C   UNL A   1      37.042  30.408  27.593  1.00  0.00     0.014 A 
ATOM      9  C   UNL A   1      36.300  29.654  29.755  1.00  0.00     0.014 A 
ATOM     10  C   UNL A   1      38.314  29.888  27.851  1.00  0.00     0.010 A 
ATOM     11  C   UNL A   1      37.598  29.212  30.048  1.00  0.00     0.010 A 
ATOM     12  C   UNL A   1      38.621  29.314  29.094  1.00  0.00    -0.014 A 
BRANCH  12  13
ATOM     13  C   UNL A   1      40.024  28.915  29.412  1.00  0.00     0.031 A 
ATOM     14  C   UNL A   1      40.921  29.794  30.243  1.00  0.00     0.074 A 
ATOM     15  C   UNL A   1      40.507  27.750  28.932  1.00  0.00     0.049 A 
ATOM     16  N   UNL A   1      42.179  29.622  30.574  1.00  0.00    -0.248 NA
ATOM     17  C   UNL A   1      40.330  31.033  30.768  1.00  0.00     0.031 C 
ATOM     18  C   UNL A   1      39.755  26.798  28.112  1.00  0.00     0.029 A 
ATOM     19  N   UNL A   1      41.743  27.163  29.066  1.00  0.00    -0.354 N 
ATOM     20  C   UNL A   1      42.535  30.736  31.323  1.00  0.00     0.074 A 
ATOM     21  C   UNL A   1      41.369  31.594  31.373  1.00  0.00     0.031 C 
ATOM     22  C   UNL A   1      40.526  25.733  27.851  1.00  0.00     0.029 A 
ATOM     23  C   UNL A   1      41.850  25.954  28.418  1.00  0.00     0.049 A 
ATOM     24  H   UNL A   1      42.481  27.568  29.575  1.00  0.00     0.167 HD
ATOM     25  C   UNL A   1      43.721  31.014  31.922  1.00  0.00     0.037 A 
ATOM     26  C   UNL A   1      42.899  25.122  28.272  1.00  0.00     0.037 A 
ATOM     27  C   UNL A   1      44.880  30.157  31.877  1.00  0.00     0.049 A 
ATOM     28  C   UNL A   1      44.217  25.484  28.898  1.00  0.00     0.074 A 
ATOM     29  C   UNL A   1      46.112  30.340  32.483  1.00  0.00     0.029 A 
ATOM     30  N   UNL A   1      44.958  28.960  31.180  1.00  0.00    -0.354 N 
ATOM     31  N   UNL A   1      44.529  26.522  29.635  1.00  0.00    -0.248 NA
ATOM     32  C   UNL A   1      45.332  24.555  28.669  1.00  0.00     0.031 C 
ATOM     33  C   UNL A   1      46.952  29.288  32.101  1.00  0.00     0.029 A 
ATOM     34  C   UNL A   1      46.225  28.411  31.316  1.00  0.00     0.049 A 
ATOM     35  H   UNL A   1      44.221  28.557  30.665  1.00  0.00     0.167 HD
ATOM     36  C   UNL A   1      45.862  26.355  29.983  1.00  0.00     0.074 A 
ATOM     37  C   UNL A   1      46.295  25.107  29.392  1.00  0.00     0.031 C 
ATOM     38  C   UNL A   1      46.653  27.165  30.730  1.00  0.00     0.037 A 
BRANCH  25  39
ATOM     39  C   UNL A   1      43.839  32.319  32.662  1.00  0.00     0.064 A 
ATOM     40  C   UNL A   1      44.272  33.494  32.030  1.00  0.00     0.173 A 
ATOM     41  C   UNL A   1      43.473  32.403  34.015  1.00  0.00     0.173 A 
ATOM     42  F   UNL A   1      44.640  33.471  30.740  1.00  0.00    -0.203 F 
ATOM     43  C   UNL A   1      44.368  34.694  32.732  1.00  0.00     0.198 A 
ATOM     44  C   UNL A   1      43.537  33.611  34.704  1.00  0.00     0.198 A 
ATOM     45  F   UNL A   1      43.041  31.314  34.670  1.00  0.00    -0.203 F 
ATOM     46  F   UNL A   1      44.836  35.791  32.120  1.00  0.00    -0.200 F 
ATOM     47  C   UNL A   1      43.994  34.754  34.065  1.00  0.00     0.200 A 
ATOM     48  F   UNL A   1      43.157  33.670  35.989  1.00  0.00    -0.200 F 
ATOM     49  F   UNL A   1      44.080  35.910  34.738  1.00  0.00    -0.200 F 
ENDBRANCH  25  39
BRANCH  26  50
ATOM     50  C   UNL A   1      42.747  23.865  27.493  1.00  0.00     0.064 A 
ATOM     51  C   UNL A   1      42.295  22.687  28.104  1.00  0.00     0.173 A 
ATOM     52  C   UNL A   1      43.061  23.809  26.126  1.00  0.00     0.173 A 
ATOM     53  F   UNL A   1      42.009  22.680  29.415  1.00  0.00    -0.203 F 
ATOM     54  C   UNL A   1      42.184  21.499  27.385  1.00  0.00     0.198 A 
ATOM     55  C   UNL A   1      42.917  22.629  25.400  1.00  0.00     0.198 A 
ATOM     56  F   UNL A   1      43.502  24.907  25.493  1.00  0.00    -0.203 F 
ATOM     57  F   UNL A   1      41.808  20.374  28.009  1.00  0.00    -0.200 F 
ATOM     58  C   UNL A   1      42.489  21.472  26.033  1.00  0.00     0.200 A 
ATOM     59  F   UNL A   1      43.202  22.612  24.091  1.00  0.00    -0.200 F 
ATOM     60  F   UNL A   1      42.384  20.329  25.342  1.00  0.00    -0.200 F 
ENDBRANCH  26  50
BRANCH  38  61
ATOM     61  C   UNL A   1      48.059  26.703  30.993  1.00  0.00     0.064 A 
ATOM     62  C   UNL A   1      49.135  27.096  30.181  1.00  0.00     0.173 A 
ATOM     63  C   UNL A   1      48.336  25.865  32.085  1.00  0.00     0.173 A 
ATOM     64  F   UNL A   1      48.924  27.882  29.115  1.00  0.00    -0.203 F 
ATOM     65  C   UNL A   1      50.426  26.640  30.434  1.00  0.00     0.198 A 
ATOM     66  C   UNL A   1      49.634  25.442  32.355  1.00  0.00     0.198 A 
ATOM     67  F   UNL A   1      47.348  25.463  32.897  1.00  0.00    -0.203 F 
ATOM     68  F   UNL A   1      51.427  26.980  29.609  1.00  0.00    -0.200 F 
ATOM     69  C   UNL A   1      50.677  25.820  31.524  1.00  0.00     0.200 A 
ATOM     70  F   UNL A   1      49.876  24.663  33.419  1.00  0.00    -0.200 F 
ATOM     71  F   UNL A   1      51.921  25.387  31.767  1.00  0.00    -0.200 F 
ENDBRANCH  38  61
ENDBRANCH  12  13
ENDBRANCH   5   7
ENDBRANCH   2   3
ENDBRANCH   1   2
BRANCH   1  72
ATOM     72  C   UNL A   1      31.676  27.308  26.247  1.00  0.00     0.117 C 
BRANCH  72  73
ATOM     73  N   UNL A   1      31.141  26.003  26.576  1.00  0.00    -0.355 N 
ATOM     74  C   UNL A   1      31.624  24.745  26.501  1.00  0.00     0.238 C 
ATOM     75  H   UNL A   1      30.224  26.043  26.933  1.00  0.00     0.163 HD
ATOM     76  O   UNL A   1      30.953  23.900  27.113  1.00  0.00    -0.273 OA
BRANCH  74  77
ATOM     77  C   UNL A   1      32.858  24.300  25.749  1.00  0.00     0.162 C 
ATOM     78  C   UNL A   1      34.138  25.024  26.156  1.00  0.00     0.032 C 
ATOM     79  N   UNL A   1      32.980  23.991  24.301  1.00  0.00    -0.185 NA
ATOM     80  C   UNL A   1      35.174  24.432  25.224  1.00  0.00     0.019 C 
ATOM     81  C   UNL A   1      34.414  24.262  23.921  1.00  0.00     0.103 C 
BRANCH  79  82
ATOM     82  S   UNL A   1      31.941  24.415  23.049  1.00  0.00     0.243 S 
ATOM     83  O   UNL A   1      32.620  24.045  21.826  1.00  0.00    -0.207 OA
ATOM     84  O   UNL A   1      30.660  23.814  23.357  1.00  0.00    -0.207 OA
BRANCH  82  85
ATOM     85  C   UNL A   1      31.629  26.157  22.949  1.00  0.00     0.084 A 
ATOM     86  C   UNL A   1      32.620  27.109  22.739  1.00  0.00     0.024 A 
ATOM     87  C   UNL A   1      30.286  26.560  23.065  1.00  0.00     0.050 A 
ATOM     88  C   UNL A   1      32.263  28.436  22.461  1.00  0.00     0.030 A 
ATOM     89  C   UNL A   1      29.947  27.899  22.886  1.00  0.00     0.066 A 
ATOM     90  C   UNL A   1      30.927  28.825  22.523  1.00  0.00     0.065 A 
ATOM     91  N   UNL A   1      28.627  28.317  23.063  1.00  0.00    -0.316 N 
ATOM     92  N   UNL A   1      30.565  30.141  22.225  1.00  0.00    -0.316 N 
ATOM     93  C   UNL A   1      28.215  29.618  22.864  1.00  0.00     0.314 A 
ATOM     94  H   UNL A   1      27.959  27.652  23.344  1.00  0.00     0.170 HD
ATOM     95  C   UNL A   1      29.275  30.611  22.333  1.00  0.00     0.314 A 
ATOM     96  H   UNL A   1      31.266  30.762  21.923  1.00  0.00     0.170 HD
ATOM     97  O   UNL A   1      27.056  29.964  23.062  1.00  0.00    -0.263 OA
ATOM     98  O   UNL A   1      28.974  31.756  22.019  1.00  0.00    -0.263 OA
ENDBRANCH  82  85
ENDBRANCH  79  82
ENDBRANCH  74  77
ENDBRANCH  72  73
ENDBRANCH   1  72
TORSDOF 12
ENDMDL
MODEL 2
REMARK VINA RESULT:     -13.4      2.677      3.974
REMARK SMILES O=C(NCCCNC(=O)[C@@H]1CCCN1S(=O)(=O)c1ccc2[nH]c(=O)c(=O)[nH]c2c1)c1ccc(-c2c3nc(c(-c4c(F)c(F)c(F)c(F)c4F)c4ccc([nH]4)c(-c4c(F)c(F)c(F)c(F)c4F)c4nc(c(-c5c(F)c(F)c(F)c(F)c5F)c5ccc2[nH]5)C=C4)C=C3)cc1
REMARK SMILES IDX 5 1 4 2 3 3 1 4 2 5 30 7 31 8 92 9 32 10 91 11 33 12 34 13
REMARK SMILES IDX 35 14 85 15 36 16 90 17 84 18 86 19 37 20 89 21 83 22 82 23
REMARK SMILES IDX 38 25 70 26 50 27 69 28 51 29 54 30 68 31 87 32 52 33 53 34
REMARK SMILES IDX 67 36 88 37 55 38 39 39 40 40 48 41 41 42 42 43 46 44 49 45
REMARK SMILES IDX 43 46 44 47 47 48 45 49 71 50 72 51 80 52 73 53 74 54 78 55
REMARK SMILES IDX 81 56 75 57 76 58 79 59 77 60 56 61 57 62 65 63 58 64 59 65
REMARK SMILES IDX 63 66 66 67 60 68 61 69 64 70 62 71 6 72 7 73 8 74 9 76
REMARK SMILES IDX 10 77 11 78 14 79 12 80 13 81 15 82 16 83 17 84 18 85 19 86
REMARK SMILES IDX 29 87 20 88 28 89 21 90 27 91 22 92 25 93 23 95 26 97 24 98
REMARK H PARENT 3 6 86 24 54 35 7 75 27 94 22 96
REMARK Flexibility Score: inf
ROOT
ATOM      1  C   UNL A   1      31.790  28.719  26.113  1.00  0.00     0.042 C 
ENDROOT
BRANCH   1   2
ATOM      2  C   UNL A   1      32.840  29.720  25.647  1.00  0.00     0.118 C 
BRANCH   2   3
ATOM      3  N   UNL A   1      32.582  31.060  26.129  1.00  0.00    -0.352 N 
ATOM      4  O   UNL A   1      32.681  32.815  27.520  1.00  0.00    -0.269 OA
ATOM      5  C   UNL A   1      33.209  31.780  27.118  1.00  0.00     0.251 C 
ATOM      6  H   UNL A   1      31.845  31.529  25.677  1.00  0.00     0.163 HD
BRANCH   5   7
ATOM      7  C   UNL A   1      34.491  31.337  27.725  1.00  0.00     0.039 A 
ATOM      8  C   UNL A   1      35.532  32.225  27.997  1.00  0.00     0.014 A 
ATOM      9  C   UNL A   1      34.605  30.008  28.152  1.00  0.00     0.014 A 
ATOM     10  C   UNL A   1      36.713  31.768  28.589  1.00  0.00     0.010 A 
ATOM     11  C   UNL A   1      35.754  29.573  28.827  1.00  0.00     0.010 A 
ATOM     12  C   UNL A   1      36.830  30.446  29.044  1.00  0.00    -0.014 A 
BRANCH  12  13
ATOM     13  C   UNL A   1      38.032  30.022  29.822  1.00  0.00     0.031 A 
ATOM     14  C   UNL A   1      38.278  30.523  31.221  1.00  0.00     0.074 A 
ATOM     15  C   UNL A   1      38.926  29.185  29.256  1.00  0.00     0.049 A 
ATOM     16  N   UNL A   1      39.293  30.292  32.019  1.00  0.00    -0.248 NA
ATOM     17  C   UNL A   1      37.254  31.404  31.799  1.00  0.00     0.031 C 
ATOM     18  C   UNL A   1      38.819  28.621  27.909  1.00  0.00     0.029 A 
ATOM     19  N   UNL A   1      40.099  28.657  29.740  1.00  0.00    -0.354 N 
ATOM     20  C   UNL A   1      39.042  31.013  33.179  1.00  0.00     0.074 A 
ATOM     21  C   UNL A   1      37.793  31.715  32.970  1.00  0.00     0.031 C 
ATOM     22  C   UNL A   1      39.854  27.799  27.690  1.00  0.00     0.029 A 
ATOM     23  C   UNL A   1      40.740  27.831  28.847  1.00  0.00     0.049 A 
ATOM     24  H   UNL A   1      40.448  28.852  30.640  1.00  0.00     0.167 HD
ATOM     25  C   UNL A   1      39.780  31.078  34.317  1.00  0.00     0.037 A 
ATOM     26  C   UNL A   1      41.919  27.186  28.932  1.00  0.00     0.037 A 
ATOM     27  C   UNL A   1      41.021  30.374  34.527  1.00  0.00     0.049 A 
ATOM     28  C   UNL A   1      42.743  27.322  30.183  1.00  0.00     0.074 A 
ATOM     29  C   UNL A   1      41.819  30.351  35.660  1.00  0.00     0.029 A 
ATOM     30  N   UNL A   1      41.653  29.577  33.584  1.00  0.00    -0.354 N 
ATOM     31  N   UNL A   1      42.476  27.977  31.286  1.00  0.00    -0.248 NA
ATOM     32  C   UNL A   1      44.037  26.628  30.198  1.00  0.00     0.031 C 
ATOM     33  C   UNL A   1      42.961  29.594  35.380  1.00  0.00     0.029 A 
ATOM     34  C   UNL A   1      42.845  29.085  34.098  1.00  0.00     0.049 A 
ATOM     35  H   UNL A   1      41.307  29.387  32.681  1.00  0.00     0.167 HD
ATOM     36  C   UNL A   1      43.548  27.748  32.135  1.00  0.00     0.074 A 
ATOM     37  C   UNL A   1      44.464  26.878  31.427  1.00  0.00     0.031 C 
ATOM     38  C   UNL A   1      43.753  28.215  33.392  1.00  0.00     0.037 A 
BRANCH  25  39
ATOM     39  C   UNL A   1      39.277  31.964  35.424  1.00  0.00     0.064 A 
ATOM     40  C   UNL A   1      38.459  31.475  36.453  1.00  0.00     0.173 A 
ATOM     41  C   UNL A   1      39.657  33.315  35.480  1.00  0.00     0.173 A 
ATOM     42  F   UNL A   1      38.060  30.193  36.447  1.00  0.00    -0.203 F 
ATOM     43  C   UNL A   1      38.011  32.310  37.474  1.00  0.00     0.198 A 
ATOM     44  C   UNL A   1      39.235  34.139  36.520  1.00  0.00     0.198 A 
ATOM     45  F   UNL A   1      40.449  33.837  34.530  1.00  0.00    -0.203 F 
ATOM     46  F   UNL A   1      37.185  31.832  38.415  1.00  0.00    -0.200 F 
ATOM     47  C   UNL A   1      38.405  33.639  37.511  1.00  0.00     0.200 A 
ATOM     48  F   UNL A   1      39.633  35.418  36.564  1.00  0.00    -0.200 F 
ATOM     49  F   UNL A   1      37.978  34.440  38.497  1.00  0.00    -0.200 F 
ENDBRANCH  25  39
BRANCH  26  50
ATOM     50  C   UNL A   1      42.397  26.358  27.794  1.00  0.00     0.064 A 
ATOM     51  C   UNL A   1      43.279  26.882  26.839  1.00  0.00     0.173 A 
ATOM     52  C   UNL A   1      41.973  25.030  27.628  1.00  0.00     0.173 A 
ATOM     53  F   UNL A   1      43.691  28.155  26.936  1.00  0.00    -0.203 F 
ATOM     54  C   UNL A   1      43.701  26.120  25.752  1.00  0.00     0.198 A 
ATOM     55  C   UNL A   1      42.423  24.257  26.560  1.00  0.00     0.198 A 
ATOM     56  F   UNL A   1      41.126  24.479  28.510  1.00  0.00    -0.203 F 
ATOM     57  F   UNL A   1      44.496  26.666  24.822  1.00  0.00    -0.200 F 
ATOM     58  C   UNL A   1      43.279  24.806  25.617  1.00  0.00     0.200 A 
ATOM     59  F   UNL A   1      42.021  22.984  26.440  1.00  0.00    -0.200 F 
ATOM     60  F   UNL A   1      43.684  24.074  24.571  1.00  0.00    -0.200 F 
ENDBRANCH  26  50
BRANCH  38  61
ATOM     61  C   UNL A   1      44.994  27.756  34.104  1.00  0.00     0.064 A 
ATOM     62  C   UNL A   1      45.021  26.577  34.866  1.00  0.00     0.173 A 
ATOM     63  C   UNL A   1      46.181  28.500  34.009  1.00  0.00     0.173 A 
ATOM     64  F   UNL A   1      43.911  25.837  35.003  1.00  0.00    -0.203 F 
ATOM     65  C   UNL A   1      46.177  26.180  35.531  1.00  0.00     0.198 A 
ATOM     66  C   UNL A   1      47.346  28.079  34.647  1.00  0.00     0.198 A 
ATOM     67  F   UNL A   1      46.215  29.631  33.291  1.00  0.00    -0.203 F 
ATOM     68  F   UNL A   1      46.161  25.083  36.302  1.00  0.00    -0.200 F 
ATOM     69  C   UNL A   1      47.341  26.926  35.416  1.00  0.00     0.200 A 
ATOM     70  F   UNL A   1      48.472  28.795  34.520  1.00  0.00    -0.200 F 
ATOM     71  F   UNL A   1      48.454  26.540  36.054  1.00  0.00    -0.200 F 
ENDBRANCH  38  61
ENDBRANCH  12  13
ENDBRANCH   5   7
ENDBRANCH   2   3
ENDBRANCH   1   2
BRANCH   1  72
ATOM     72  C   UNL A   1      32.291  27.478  26.852  1.00  0.00     0.117 C 
BRANCH  72  73
ATOM     73  N   UNL A   1      31.420  26.324  26.771  1.00  0.00    -0.355 N 
ATOM     74  C   UNL A   1      31.605  25.031  26.433  1.00  0.00     0.238 C 
ATOM     75  H   UNL A   1      30.488  26.528  27.016  1.00  0.00     0.163 HD
ATOM     76  O   UNL A   1      30.660  24.283  26.726  1.00  0.00    -0.273 OA
BRANCH  74  77
ATOM     77  C   UNL A   1      32.817  24.447  25.743  1.00  0.00     0.162 C 
ATOM     78  C   UNL A   1      34.141  25.094  26.141  1.00  0.00     0.032 C 
ATOM     79  N   UNL A   1      32.946  24.043  24.319  1.00  0.00    -0.185 NA
ATOM     80  C   UNL A   1      35.147  24.368  25.273  1.00  0.00     0.019 C 
ATOM     81  C   UNL A   1      34.405  24.179  23.962  1.00  0.00     0.103 C 
BRANCH  79  82
ATOM     82  S   UNL A   1      31.972  24.469  23.017  1.00  0.00     0.243 S 
ATOM     83  O   UNL A   1      32.717  24.111  21.829  1.00  0.00    -0.207 OA
ATOM     84  O   UNL A   1      30.681  23.857  23.253  1.00  0.00    -0.207 OA
BRANCH  82  85
ATOM     85  C   UNL A   1      31.654  26.209  22.912  1.00  0.00     0.084 A 
ATOM     86  C   UNL A   1      32.636  27.161  22.662  1.00  0.00     0.024 A 
ATOM     87  C   UNL A   1      30.315  26.611  23.068  1.00  0.00     0.050 A 
ATOM     88  C   UNL A   1      32.268  28.484  22.384  1.00  0.00     0.030 A 
ATOM     89  C   UNL A   1      29.968  27.948  22.889  1.00  0.00     0.066 A 
ATOM     90  C   UNL A   1      30.934  28.873  22.487  1.00  0.00     0.065 A 
ATOM     91  N   UNL A   1      28.654  28.367  23.106  1.00  0.00    -0.316 N 
ATOM     92  N   UNL A   1      30.560  30.186  22.189  1.00  0.00    -0.316 N 
ATOM     93  C   UNL A   1      28.233  29.665  22.910  1.00  0.00     0.314 A 
ATOM     94  H   UNL A   1      27.996  27.703  23.415  1.00  0.00     0.170 HD
ATOM     95  C   UNL A   1      29.274  30.655  22.336  1.00  0.00     0.314 A 
ATOM     96  H   UNL A   1      31.250  30.805  21.859  1.00  0.00     0.170 HD
ATOM     97  O   UNL A   1      27.081  30.011  23.143  1.00  0.00    -0.263 OA
ATOM     98  O   UNL A   1      28.961  31.797  22.021  1.00  0.00    -0.263 OA
ENDBRANCH  82  85
ENDBRANCH  79  82
ENDBRANCH  74  77
ENDBRANCH  72  73
ENDBRANCH   1  72
TORSDOF 12
ENDMDL
MODEL 3
REMARK VINA RESULT:     -13.3      2.763      7.484
REMARK SMILES O=C(NCCCNC(=O)[C@@H]1CCCN1S(=O)(=O)c1ccc2[nH]c(=O)c(=O)[nH]c2c1)c1ccc(-c2c3nc(c(-c4c(F)c(F)c(F)c(F)c4F)c4ccc([nH]4)c(-c4c(F)c(F)c(F)c(F)c4F)c4nc(c(-c5c(F)c(F)c(F)c(F)c5F)c5ccc2[nH]5)C=C4)C=C3)cc1
REMARK SMILES IDX 5 1 4 2 3 3 1 4 2 5 30 7 31 8 92 9 32 10 91 11 33 12 34 13
REMARK SMILES IDX 35 14 85 15 36 16 90 17 84 18 86 19 37 20 89 21 83 22 82 23
REMARK SMILES IDX 38 25 70 26 50 27 69 28 51 29 54 30 68 31 87 32 52 33 53 34
REMARK SMILES IDX 67 36 88 37 55 38 39 39 40 40 48 41 41 42 42 43 46 44 49 45
REMARK SMILES IDX 43 46 44 47 47 48 45 49 71 50 72 51 80 52 73 53 74 54 78 55
REMARK SMILES IDX 81 56 75 57 76 58 79 59 77 60 56 61 57 62 65 63 58 64 59 65
REMARK SMILES IDX 63 66 66 67 60 68 61 69 64 70 62 71 6 72 7 73 8 74 9 76
REMARK SMILES IDX 10 77 11 78 14 79 12 80 13 81 15 82 16 83 17 84 18 85 19 86
REMARK SMILES IDX 29 87 20 88 28 89 21 90 27 91 22 92 25 93 23 95 26 97 24 98
REMARK H PARENT 3 6 86 24 54 35 7 75 27 94 22 96
REMARK Flexibility Score: inf
ROOT
ATOM      1  C   UNL A   1      31.899  28.471  26.041  1.00  0.00     0.042 C 
ENDROOT
BRANCH   1   2
ATOM      2  C   UNL A   1      32.927  29.504  25.598  1.00  0.00     0.118 C 
BRANCH   2   3
ATOM      3  N   UNL A   1      32.607  30.839  26.060  1.00  0.00    -0.352 N 
ATOM      4  O   UNL A   1      32.622  32.617  27.424  1.00  0.00    -0.269 OA
ATOM      5  C   UNL A   1      33.198  31.601  27.039  1.00  0.00     0.251 C 
ATOM      6  H   UNL A   1      31.850  31.266  25.599  1.00  0.00     0.163 HD
BRANCH   5   7
ATOM      7  C   UNL A   1      34.497  31.227  27.655  1.00  0.00     0.039 A 
ATOM      8  C   UNL A   1      35.493  32.166  27.922  1.00  0.00     0.014 A 
ATOM      9  C   UNL A   1      34.674  29.909  28.094  1.00  0.00     0.014 A 
ATOM     10  C   UNL A   1      36.693  31.773  28.523  1.00  0.00     0.010 A 
ATOM     11  C   UNL A   1      35.840  29.536  28.777  1.00  0.00     0.010 A 
ATOM     12  C   UNL A   1      36.871  30.463  28.991  1.00  0.00    -0.014 A 
BRANCH  12  13
ATOM     13  C   UNL A   1      38.089  30.104  29.777  1.00  0.00     0.031 A 
ATOM     14  C   UNL A   1      39.134  29.172  29.224  1.00  0.00     0.074 A 
ATOM     15  C   UNL A   1      38.250  30.612  31.017  1.00  0.00     0.049 A 
ATOM     16  N   UNL A   1      40.227  28.718  29.791  1.00  0.00    -0.248 NA
ATOM     17  C   UNL A   1      38.923  28.677  27.856  1.00  0.00     0.031 C 
ATOM     18  C   UNL A   1      37.320  31.526  31.683  1.00  0.00     0.029 A 
ATOM     19  N   UNL A   1      39.255  30.438  31.939  1.00  0.00    -0.354 N 
ATOM     20  C   UNL A   1      40.819  27.872  28.862  1.00  0.00     0.074 A 
ATOM     21  C   UNL A   1      39.949  27.851  27.705  1.00  0.00     0.031 C 
ATOM     22  C   UNL A   1      37.813  31.863  32.882  1.00  0.00     0.029 A 
ATOM     23  C   UNL A   1      39.056  31.135  33.107  1.00  0.00     0.049 A 
ATOM     24  H   UNL A   1      40.042  29.868  31.779  1.00  0.00     0.167 HD
ATOM     25  C   UNL A   1      41.985  27.185  28.961  1.00  0.00     0.037 A 
ATOM     26  C   UNL A   1      39.775  31.173  34.245  1.00  0.00     0.037 A 
ATOM     27  C   UNL A   1      42.855  27.212  30.111  1.00  0.00     0.049 A 
ATOM     28  C   UNL A   1      41.033  30.356  34.347  1.00  0.00     0.074 A 
ATOM     29  C   UNL A   1      44.074  26.575  30.286  1.00  0.00     0.029 A 
ATOM     30  N   UNL A   1      42.598  27.902  31.287  1.00  0.00    -0.354 N 
ATOM     31  N   UNL A   1      41.600  29.589  33.448  1.00  0.00    -0.248 NA
ATOM     32  C   UNL A   1      41.750  30.408  35.628  1.00  0.00     0.031 C 
ATOM     33  C   UNL A   1      44.520  26.828  31.587  1.00  0.00     0.029 A 
ATOM     34  C   UNL A   1      43.618  27.681  32.201  1.00  0.00     0.049 A 
ATOM     35  H   UNL A   1      41.808  28.467  31.449  1.00  0.00     0.167 HD
ATOM     36  C   UNL A   1      42.754  29.096  34.041  1.00  0.00     0.074 A 
ATOM     37  C   UNL A   1      42.816  29.664  35.371  1.00  0.00     0.031 C 
ATOM     38  C   UNL A   1      43.680  28.251  33.524  1.00  0.00     0.037 A 
BRANCH  25  39
ATOM     39  C   UNL A   1      42.383  26.316  27.798  1.00  0.00     0.064 A 
ATOM     40  C   UNL A   1      43.290  26.754  26.821  1.00  0.00     0.173 A 
ATOM     41  C   UNL A   1      41.882  25.009  27.683  1.00  0.00     0.173 A 
ATOM     42  F   UNL A   1      43.797  27.995  26.878  1.00  0.00    -0.203 F 
ATOM     43  C   UNL A   1      43.652  25.932  25.756  1.00  0.00     0.198 A 
ATOM     44  C   UNL A   1      42.272  24.178  26.637  1.00  0.00     0.198 A 
ATOM     45  F   UNL A   1      41.020  24.532  28.594  1.00  0.00    -0.203 F 
ATOM     46  F   UNL A   1      44.478  26.392  24.807  1.00  0.00    -0.200 F 
ATOM     47  C   UNL A   1      43.149  24.643  25.669  1.00  0.00     0.200 A 
ATOM     48  F   UNL A   1      41.799  22.926  26.565  1.00  0.00    -0.200 F 
ATOM     49  F   UNL A   1      43.503  23.850  24.648  1.00  0.00    -0.200 F 
ENDBRANCH  25  39
BRANCH  26  50
ATOM     50  C   UNL A   1      39.318  32.011  35.385  1.00  0.00     0.064 A 
ATOM     51  C   UNL A   1      38.496  31.478  36.388  1.00  0.00     0.173 A 
ATOM     52  C   UNL A   1      39.681  33.362  35.491  1.00  0.00     0.173 A 
ATOM     53  F   UNL A   1      38.096  30.200  36.318  1.00  0.00    -0.203 F 
ATOM     54  C   UNL A   1      38.037  32.269  37.440  1.00  0.00     0.198 A 
ATOM     55  C   UNL A   1      39.252  34.143  36.561  1.00  0.00     0.198 A 
ATOM     56  F   UNL A   1      40.463  33.923  34.556  1.00  0.00    -0.203 F 
ATOM     57  F   UNL A   1      37.204  31.750  38.351  1.00  0.00    -0.200 F 
ATOM     58  C   UNL A   1      38.421  33.599  37.529  1.00  0.00     0.200 A 
ATOM     59  F   UNL A   1      39.634  35.425  36.650  1.00  0.00    -0.200 F 
ATOM     60  F   UNL A   1      37.979  34.359  38.539  1.00  0.00    -0.200 F 
ENDBRANCH  26  50
BRANCH  38  61
ATOM     61  C   UNL A   1      44.870  27.924  34.383  1.00  0.00     0.064 A 
ATOM     62  C   UNL A   1      46.029  28.716  34.379  1.00  0.00     0.173 A 
ATOM     63  C   UNL A   1      44.842  26.810  35.237  1.00  0.00     0.173 A 
ATOM     64  F   UNL A   1      46.115  29.782  33.570  1.00  0.00    -0.203 F 
ATOM     65  C   UNL A   1      47.126  28.384  35.170  1.00  0.00     0.198 A 
ATOM     66  C   UNL A   1      45.927  26.503  36.054  1.00  0.00     0.198 A 
ATOM     67  F   UNL A   1      43.758  26.022  35.287  1.00  0.00    -0.203 F 
ATOM     68  F   UNL A   1      48.245  29.120  35.103  1.00  0.00    -0.200 F 
ATOM     69  C   UNL A   1      47.072  27.283  36.012  1.00  0.00     0.200 A 
ATOM     70  F   UNL A   1      45.866  25.448  36.878  1.00  0.00    -0.200 F 
ATOM     71  F   UNL A   1      48.127  26.969  36.776  1.00  0.00    -0.200 F 
ENDBRANCH  38  61
ENDBRANCH  12  13
ENDBRANCH   5   7
ENDBRANCH   2   3
ENDBRANCH   1   2
BRANCH   1  72
ATOM     72  C   UNL A   1      32.409  27.293  26.870  1.00  0.00     0.117 C 
BRANCH  72  73
ATOM     73  N   UNL A   1      31.549  26.127  26.871  1.00  0.00    -0.355 N 
ATOM     74  C   UNL A   1      31.733  24.826  26.565  1.00  0.00     0.238 C 
ATOM     75  H   UNL A   1      30.628  26.329  27.158  1.00  0.00     0.163 HD
ATOM     76  O   UNL A   1      30.813  24.077  26.930  1.00  0.00    -0.273 OA
BRANCH  74  77
ATOM     77  C   UNL A   1      32.914  24.233  25.832  1.00  0.00     0.162 C 
ATOM     78  C   UNL A   1      34.250  24.899  26.148  1.00  0.00     0.032 C 
ATOM     79  N   UNL A   1      32.978  23.793  24.414  1.00  0.00    -0.185 NA
ATOM     80  C   UNL A   1      35.219  24.159  25.251  1.00  0.00     0.019 C 
ATOM     81  C   UNL A   1      34.416  23.931  23.983  1.00  0.00     0.103 C 
BRANCH  79  82
ATOM     82  S   UNL A   1      31.938  24.179  23.150  1.00  0.00     0.243 S 
ATOM     83  O   UNL A   1      32.598  23.733  21.942  1.00  0.00    -0.207 OA
ATOM     84  O   UNL A   1      30.647  23.623  23.498  1.00  0.00    -0.207 OA
BRANCH  82  85
ATOM     85  C   UNL A   1      31.664  25.920  22.967  1.00  0.00     0.084 A 
ATOM     86  C   UNL A   1      32.668  26.832  22.662  1.00  0.00     0.024 A 
ATOM     87  C   UNL A   1      30.338  26.365  23.117  1.00  0.00     0.050 A 
ATOM     88  C   UNL A   1      32.332  28.151  22.326  1.00  0.00     0.030 A 
ATOM     89  C   UNL A   1      30.025  27.701  22.878  1.00  0.00     0.066 A 
ATOM     90  C   UNL A   1      31.009  28.579  22.423  1.00  0.00     0.065 A 
ATOM     91  N   UNL A   1      28.724  28.164  23.089  1.00  0.00    -0.316 N 
ATOM     92  N   UNL A   1      30.666  29.886  22.068  1.00  0.00    -0.316 N 
ATOM     93  C   UNL A   1      28.335  29.462  22.835  1.00  0.00     0.314 A 
ATOM     94  H   UNL A   1      28.052  27.533  23.435  1.00  0.00     0.170 HD
ATOM     95  C   UNL A   1      29.395  30.396  22.205  1.00  0.00     0.314 A 
ATOM     96  H   UNL A   1      31.369  30.471  21.702  1.00  0.00     0.170 HD
ATOM     97  O   UNL A   1      27.196  29.849  23.063  1.00  0.00    -0.263 OA
ATOM     98  O   UNL A   1      29.108  31.530  21.840  1.00  0.00    -0.263 OA
ENDBRANCH  82  85
ENDBRANCH  79  82
ENDBRANCH  74  77
ENDBRANCH  72  73
ENDBRANCH   1  72
TORSDOF 12
ENDMDL
