MODEL 1
REMARK VINA RESULT:     -13.1      0.000      0.000
REMARK SMILES Cc1cc(F)c([C@@H](C)[N@H+]2C[C@H](C)[C@H](C(=O)NCCCNC(=O)c3ccc(-c4c5nc(c(-c6c(F)c(F)c(F)c(F)c6F)c6ccc([nH]6)c(-c6c(F)c(F)c(F)c(F)c6F)c6nc(c(-c7c(F)c(F)c(F)c(F)c7F)c7ccc4[nH]7)C=C6)C=C5)cc3)C2)cc1F
REMARK SMILES IDX 18 1 17 2 16 3 14 4 15 5 13 7 9 8 10 9 86 10 11 12 12 13
REMARK SMILES IDX 7 14 8 15 6 16 1 17 2 18 3 19 88 20 4 21 87 22 89 23 5 24
REMARK SMILES IDX 19 25 20 26 21 27 22 29 23 30 24 31 85 32 25 33 84 34 26 35
REMARK SMILES IDX 27 36 28 37 78 38 29 39 83 40 77 41 79 42 30 43 82 44 76 45
REMARK SMILES IDX 75 46 31 48 63 49 43 50 62 51 44 52 47 53 61 54 80 55 45 56
REMARK SMILES IDX 46 57 60 59 81 60 48 61 32 62 33 63 41 64 34 65 35 66 39 67
REMARK SMILES IDX 42 68 36 69 37 70 40 71 38 72 64 73 65 74 73 75 66 76 67 77
REMARK SMILES IDX 71 78 74 79 68 80 69 81 72 82 70 83 49 84 50 85 58 86 51 87
REMARK SMILES IDX 52 88 56 89 59 90 53 91 54 92 57 93 55 94
REMARK H PARENT 16 6 9 11 20 28 79 47 47 58
REMARK Flexibility Score: inf
ROOT
ATOM      1  C   UNL A   1      31.361  32.146  26.657  1.00  0.00     0.042 C 
ENDROOT
BRANCH   1   2
ATOM      2  C   UNL A   1      31.634  30.817  25.966  1.00  0.00     0.117 C 
BRANCH   2   3
ATOM      3  N   UNL A   1      31.687  29.709  26.903  1.00  0.00    -0.356 N 
ATOM      4  C   UNL A   1      31.580  28.368  26.715  1.00  0.00     0.229 C 
ATOM      5  O   UNL A   1      31.631  27.669  27.734  1.00  0.00    -0.275 OA
ATOM      6  H   UNL A   1      31.823  29.977  27.840  1.00  0.00     0.163 HD
BRANCH   4   7
ATOM      7  C   UNL A   1      31.398  27.703  25.357  1.00  0.00     0.142 C 
ATOM      8  N   UNL A   1      32.000  25.654  24.436  1.00  0.00    -0.328 N 
ATOM      9  C   UNL A   1      32.347  26.629  23.426  1.00  0.00     0.266 C 
ATOM     10  C   UNL A   1      31.059  26.210  25.383  1.00  0.00     0.276 C 
ATOM     11  H   UNL A   1      32.815  25.458  25.017  1.00  0.00     0.348 HD
ATOM     12  C   UNL A   1      32.481  27.900  24.272  1.00  0.00     0.059 C 
ATOM     13  C   UNL A   1      33.924  28.077  24.740  1.00  0.00     0.015 C 
BRANCH   8  14
ATOM     14  C   UNL A   1      32.091  24.237  24.141  1.00  0.00     0.215 C 
ATOM     15  C   UNL A   1      31.051  23.336  24.821  1.00  0.00     0.081 C 
BRANCH  14  16
ATOM     16  C   UNL A   1      33.513  23.793  24.457  1.00  0.00     0.048 A 
ATOM     17  C   UNL A   1      37.660  22.870  25.288  1.00  0.00     0.047 C 
ATOM     18  C   UNL A   1      36.228  23.186  24.991  1.00  0.00    -0.012 A 
ATOM     19  C   UNL A   1      35.365  23.543  26.029  1.00  0.00     0.046 A 
ATOM     20  C   UNL A   1      35.718  23.127  23.692  1.00  0.00     0.126 A 
ATOM     21  C   UNL A   1      34.028  23.827  25.760  1.00  0.00     0.132 A 
ATOM     22  C   UNL A   1      34.384  23.432  23.419  1.00  0.00     0.052 A 
ATOM     23  F   UNL A   1      36.518  22.781  22.673  1.00  0.00    -0.207 F 
ATOM     24  F   UNL A   1      33.250  24.184  26.792  1.00  0.00    -0.206 F 
ENDBRANCH  14  16
ENDBRANCH   8  14
ENDBRANCH   4   7
ENDBRANCH   2   3
ENDBRANCH   1   2
BRANCH   1  25
ATOM     25  C   UNL A   1      32.601  32.783  27.257  1.00  0.00     0.118 C 
BRANCH  25  26
ATOM     26  N   UNL A   1      32.389  34.170  27.650  1.00  0.00    -0.352 N 
ATOM     27  C   UNL A   1      33.004  34.936  28.617  1.00  0.00     0.251 C 
ATOM     28  H   UNL A   1      31.688  34.638  27.140  1.00  0.00     0.163 HD
ATOM     29  O   UNL A   1      32.539  36.028  28.910  1.00  0.00    -0.269 OA
BRANCH  27  30
ATOM     30  C   UNL A   1      34.198  34.428  29.338  1.00  0.00     0.039 A 
ATOM     31  C   UNL A   1      35.484  34.620  28.839  1.00  0.00     0.014 A 
ATOM     32  C   UNL A   1      34.027  33.749  30.549  1.00  0.00     0.014 A 
ATOM     33  C   UNL A   1      36.558  33.947  29.410  1.00  0.00     0.010 A 
ATOM     34  C   UNL A   1      35.130  33.184  31.199  1.00  0.00     0.010 A 
ATOM     35  C   UNL A   1      36.400  33.228  30.605  1.00  0.00    -0.014 A 
BRANCH  35  36
ATOM     36  C   UNL A   1      37.581  32.550  31.208  1.00  0.00     0.031 A 
ATOM     37  C   UNL A   1      38.048  32.893  32.599  1.00  0.00     0.074 A 
ATOM     38  C   UNL A   1      38.199  31.571  30.518  1.00  0.00     0.049 A 
ATOM     39  N   UNL A   1      39.048  32.391  33.281  1.00  0.00    -0.248 NA
ATOM     40  C   UNL A   1      37.305  33.939  33.318  1.00  0.00     0.031 C 
ATOM     41  C   UNL A   1      37.836  31.138  29.167  1.00  0.00     0.029 A 
ATOM     42  N   UNL A   1      39.234  30.738  30.863  1.00  0.00    -0.354 N 
ATOM     43  C   UNL A   1      39.066  33.070  34.492  1.00  0.00     0.074 A 
ATOM     44  C   UNL A   1      37.998  34.046  34.443  1.00  0.00     0.031 C 
ATOM     45  C   UNL A   1      38.582  30.078  28.827  1.00  0.00     0.029 A 
ATOM     46  C   UNL A   1      39.533  29.805  29.898  1.00  0.00     0.049 A 
ATOM     47  H   UNL A   1      39.717  30.803  31.718  1.00  0.00     0.167 HD
ATOM     48  C   UNL A   1      39.888  32.886  35.553  1.00  0.00     0.037 A 
ATOM     49  C   UNL A   1      40.477  28.847  29.868  1.00  0.00     0.037 A 
ATOM     50  C   UNL A   1      40.930  31.893  35.611  1.00  0.00     0.049 A 
ATOM     51  C   UNL A   1      41.404  28.696  31.038  1.00  0.00     0.074 A 
ATOM     52  C   UNL A   1      41.800  31.618  36.652  1.00  0.00     0.029 A 
ATOM     53  N   UNL A   1      41.241  31.012  34.586  1.00  0.00    -0.354 N 
ATOM     54  N   UNL A   1      41.408  29.345  32.176  1.00  0.00    -0.248 NA
ATOM     55  C   UNL A   1      42.469  27.691  30.916  1.00  0.00     0.031 C 
ATOM     56  C   UNL A   1      42.668  30.602  36.241  1.00  0.00     0.029 A 
ATOM     57  C   UNL A   1      42.306  30.207  34.963  1.00  0.00     0.049 A 
ATOM     58  H   UNL A   1      40.775  30.964  33.720  1.00  0.00     0.167 HD
ATOM     59  C   UNL A   1      42.461  28.822  32.910  1.00  0.00     0.074 A 
ATOM     60  C   UNL A   1      43.064  27.786  32.098  1.00  0.00     0.031 C 
ATOM     61  C   UNL A   1      42.894  29.176  34.146  1.00  0.00     0.037 A 
BRANCH  48  62
ATOM     62  C   UNL A   1      39.705  33.776  36.749  1.00  0.00     0.064 A 
ATOM     63  C   UNL A   1      40.283  35.053  36.814  1.00  0.00     0.173 A 
ATOM     64  C   UNL A   1      38.878  33.378  37.812  1.00  0.00     0.173 A 
ATOM     65  F   UNL A   1      41.088  35.479  35.830  1.00  0.00    -0.203 F 
ATOM     66  C   UNL A   1      40.054  35.890  37.904  1.00  0.00     0.198 A 
ATOM     67  C   UNL A   1      38.628  34.228  38.886  1.00  0.00     0.198 A 
ATOM     68  F   UNL A   1      38.292  32.171  37.796  1.00  0.00    -0.203 F 
ATOM     69  F   UNL A   1      40.645  37.091  37.960  1.00  0.00    -0.200 F 
ATOM     70  C   UNL A   1      39.220  35.481  38.934  1.00  0.00     0.200 A 
ATOM     71  F   UNL A   1      37.808  33.837  39.872  1.00  0.00    -0.200 F 
ATOM     72  F   UNL A   1      38.988  36.294  39.973  1.00  0.00    -0.200 F 
ENDBRANCH  48  62
BRANCH  49  73
ATOM     73  C   UNL A   1      40.580  27.958  28.681  1.00  0.00     0.064 A 
ATOM     74  C   UNL A   1      39.885  26.742  28.629  1.00  0.00     0.173 A 
ATOM     75  C   UNL A   1      41.340  28.323  27.559  1.00  0.00     0.173 A 
ATOM     76  F   UNL A   1      39.161  26.339  29.684  1.00  0.00    -0.203 F 
ATOM     77  C   UNL A   1      39.946  25.927  27.501  1.00  0.00     0.198 A 
ATOM     78  C   UNL A   1      41.375  27.523  26.420  1.00  0.00     0.198 A 
ATOM     79  F   UNL A   1      42.021  29.479  27.557  1.00  0.00    -0.203 F 
ATOM     80  F   UNL A   1      39.293  24.757  27.487  1.00  0.00    -0.200 F 
ATOM     81  C   UNL A   1      40.681  26.323  26.394  1.00  0.00     0.200 A 
ATOM     82  F   UNL A   1      42.071  27.919  25.346  1.00  0.00    -0.200 F 
ATOM     83  F   UNL A   1      40.722  25.548  25.301  1.00  0.00    -0.200 F 
ENDBRANCH  49  73
BRANCH  61  84
ATOM     84  C   UNL A   1      44.066  28.430  34.710  1.00  0.00     0.064 A 
ATOM     85  C   UNL A   1      45.375  28.914  34.573  1.00  0.00     0.173 A 
ATOM     86  C   UNL A   1      43.871  27.260  35.459  1.00  0.00     0.173 A 
ATOM     87  F   UNL A   1      45.615  30.020  33.853  1.00  0.00    -0.203 F 
ATOM     88  C   UNL A   1      46.448  28.246  35.158  1.00  0.00     0.198 A 
ATOM     89  C   UNL A   1      44.942  26.612  36.066  1.00  0.00     0.198 A 
ATOM     90  F   UNL A   1      42.637  26.761  35.624  1.00  0.00    -0.203 F 
ATOM     91  F   UNL A   1      47.694  28.708  34.988  1.00  0.00    -0.200 F 
ATOM     92  C   UNL A   1      46.229  27.103  35.913  1.00  0.00     0.200 A 
ATOM     93  F   UNL A   1      44.728  25.516  36.808  1.00  0.00    -0.200 F 
ATOM     94  F   UNL A   1      47.261  26.474  36.491  1.00  0.00    -0.200 F 
ENDBRANCH  61  84
ENDBRANCH  35  36
ENDBRANCH  27  30
ENDBRANCH  25  26
ENDBRANCH   1  25
TORSDOF 12
ENDMDL
MODEL 2
REMARK VINA RESULT:     -13.0      0.092      1.130
REMARK SMILES Cc1cc(F)c([C@@H](C)[N@H+]2C[C@H](C)[C@H](C(=O)NCCCNC(=O)c3ccc(-c4c5nc(c(-c6c(F)c(F)c(F)c(F)c6F)c6ccc([nH]6)c(-c6c(F)c(F)c(F)c(F)c6F)c6nc(c(-c7c(F)c(F)c(F)c(F)c7F)c7ccc4[nH]7)C=C6)C=C5)cc3)C2)cc1F
REMARK SMILES IDX 18 1 17 2 16 3 14 4 15 5 13 7 9 8 10 9 86 10 11 12 12 13
REMARK SMILES IDX 7 14 8 15 6 16 1 17 2 18 3 19 88 20 4 21 87 22 89 23 5 24
REMARK SMILES IDX 19 25 20 26 21 27 22 29 23 30 24 31 85 32 25 33 84 34 26 35
REMARK SMILES IDX 27 36 28 37 78 38 29 39 83 40 77 41 79 42 30 43 82 44 76 45
REMARK SMILES IDX 75 46 31 48 63 49 43 50 62 51 44 52 47 53 61 54 80 55 45 56
REMARK SMILES IDX 46 57 60 59 81 60 48 61 32 62 33 63 41 64 34 65 35 66 39 67
REMARK SMILES IDX 42 68 36 69 37 70 40 71 38 72 64 73 65 74 73 75 66 76 67 77
REMARK SMILES IDX 71 78 74 79 68 80 69 81 72 82 70 83 49 84 50 85 58 86 51 87
REMARK SMILES IDX 52 88 56 89 59 90 53 91 54 92 57 93 55 94
REMARK H PARENT 16 6 9 11 20 28 79 47 47 58
REMARK Flexibility Score: inf
ROOT
ATOM      1  C   UNL A   1      31.370  32.162  26.694  1.00  0.00     0.042 C 
ENDROOT
BRANCH   1   2
ATOM      2  C   UNL A   1      31.640  30.837  25.994  1.00  0.00     0.117 C 
BRANCH   2   3
ATOM      3  N   UNL A   1      31.684  29.721  26.921  1.00  0.00    -0.356 N 
ATOM      4  C   UNL A   1      31.573  28.383  26.721  1.00  0.00     0.229 C 
ATOM      5  O   UNL A   1      31.617  27.675  27.734  1.00  0.00    -0.275 OA
ATOM      6  H   UNL A   1      31.818  29.981  27.861  1.00  0.00     0.163 HD
BRANCH   4   7
ATOM      7  C   UNL A   1      31.393  27.730  25.357  1.00  0.00     0.142 C 
ATOM      8  N   UNL A   1      31.996  25.688  24.419  1.00  0.00    -0.328 N 
ATOM      9  C   UNL A   1      32.345  26.673  23.418  1.00  0.00     0.266 C 
ATOM     10  C   UNL A   1      31.053  26.237  25.369  1.00  0.00     0.276 C 
ATOM     11  H   UNL A   1      32.810  25.488  25.000  1.00  0.00     0.348 HD
ATOM     12  C   UNL A   1      32.478  27.936  24.275  1.00  0.00     0.059 C 
ATOM     13  C   UNL A   1      33.920  28.109  24.748  1.00  0.00     0.015 C 
BRANCH   8  14
ATOM     14  C   UNL A   1      32.087  24.275  24.111  1.00  0.00     0.215 C 
ATOM     15  C   UNL A   1      31.041  23.369  24.775  1.00  0.00     0.081 C 
BRANCH  14  16
ATOM     16  C   UNL A   1      33.506  23.825  24.434  1.00  0.00     0.048 A 
ATOM     17  C   UNL A   1      37.646  22.886  25.281  1.00  0.00     0.047 C 
ATOM     18  C   UNL A   1      36.216  23.208  24.978  1.00  0.00    -0.012 A 
ATOM     19  C   UNL A   1      35.354  23.580  26.012  1.00  0.00     0.046 A 
ATOM     20  C   UNL A   1      35.709  23.139  23.680  1.00  0.00     0.126 A 
ATOM     21  C   UNL A   1      34.019  23.869  25.738  1.00  0.00     0.132 A 
ATOM     22  C   UNL A   1      34.377  23.449  23.401  1.00  0.00     0.052 A 
ATOM     23  F   UNL A   1      36.508  22.779  22.666  1.00  0.00    -0.207 F 
ATOM     24  F   UNL A   1      33.241  24.241  26.764  1.00  0.00    -0.206 F 
ENDBRANCH  14  16
ENDBRANCH   8  14
ENDBRANCH   4   7
ENDBRANCH   2   3
ENDBRANCH   1   2
BRANCH   1  25
ATOM     25  C   UNL A   1      32.618  32.813  27.262  1.00  0.00     0.118 C 
BRANCH  25  26
ATOM     26  N   UNL A   1      32.399  34.196  27.665  1.00  0.00    -0.352 N 
ATOM     27  C   UNL A   1      33.013  34.959  28.635  1.00  0.00     0.251 C 
ATOM     28  H   UNL A   1      31.695  34.664  27.160  1.00  0.00     0.163 HD
ATOM     29  O   UNL A   1      32.543  36.046  28.936  1.00  0.00    -0.269 OA
BRANCH  27  30
ATOM     30  C   UNL A   1      34.212  34.453  29.349  1.00  0.00     0.039 A 
ATOM     31  C   UNL A   1      35.489  34.591  28.812  1.00  0.00     0.014 A 
ATOM     32  C   UNL A   1      34.054  33.831  30.592  1.00  0.00     0.014 A 
ATOM     33  C   UNL A   1      36.561  33.918  29.386  1.00  0.00     0.010 A 
ATOM     34  C   UNL A   1      35.160  33.267  31.240  1.00  0.00     0.010 A 
ATOM     35  C   UNL A   1      36.415  33.254  30.615  1.00  0.00    -0.014 A 
BRANCH  35  36
ATOM     36  C   UNL A   1      37.595  32.573  31.219  1.00  0.00     0.031 A 
ATOM     37  C   UNL A   1      38.061  32.916  32.610  1.00  0.00     0.074 A 
ATOM     38  C   UNL A   1      38.211  31.593  30.529  1.00  0.00     0.049 A 
ATOM     39  N   UNL A   1      39.060  32.411  33.292  1.00  0.00    -0.248 NA
ATOM     40  C   UNL A   1      37.319  33.963  33.329  1.00  0.00     0.031 C 
ATOM     41  C   UNL A   1      37.848  31.161  29.177  1.00  0.00     0.029 A 
ATOM     42  N   UNL A   1      39.244  30.758  30.875  1.00  0.00    -0.354 N 
ATOM     43  C   UNL A   1      39.078  33.090  34.504  1.00  0.00     0.074 A 
ATOM     44  C   UNL A   1      38.012  34.068  34.454  1.00  0.00     0.031 C 
ATOM     45  C   UNL A   1      38.592  30.099  28.838  1.00  0.00     0.029 A 
ATOM     46  C   UNL A   1      39.541  29.825  29.910  1.00  0.00     0.049 A 
ATOM     47  H   UNL A   1      39.726  30.821  31.730  1.00  0.00     0.167 HD
ATOM     48  C   UNL A   1      39.899  32.904  35.565  1.00  0.00     0.037 A 
ATOM     49  C   UNL A   1      40.483  28.864  29.880  1.00  0.00     0.037 A 
ATOM     50  C   UNL A   1      40.939  31.909  35.624  1.00  0.00     0.049 A 
ATOM     51  C   UNL A   1      41.409  28.711  31.051  1.00  0.00     0.074 A 
ATOM     52  C   UNL A   1      41.807  31.632  36.665  1.00  0.00     0.029 A 
ATOM     53  N   UNL A   1      41.249  31.027  34.599  1.00  0.00    -0.354 N 
ATOM     54  N   UNL A   1      41.413  29.361  32.190  1.00  0.00    -0.248 NA
ATOM     55  C   UNL A   1      42.472  27.704  30.930  1.00  0.00     0.031 C 
ATOM     56  C   UNL A   1      42.673  30.614  36.255  1.00  0.00     0.029 A 
ATOM     57  C   UNL A   1      42.311  30.220  34.977  1.00  0.00     0.049 A 
ATOM     58  H   UNL A   1      40.783  30.980  33.733  1.00  0.00     0.167 HD
ATOM     59  C   UNL A   1      42.466  28.835  32.924  1.00  0.00     0.074 A 
ATOM     60  C   UNL A   1      43.066  27.797  32.112  1.00  0.00     0.031 C 
ATOM     61  C   UNL A   1      42.898  29.188  34.160  1.00  0.00     0.037 A 
BRANCH  48  62
ATOM     62  C   UNL A   1      39.717  33.795  36.761  1.00  0.00     0.064 A 
ATOM     63  C   UNL A   1      40.294  35.071  36.825  1.00  0.00     0.173 A 
ATOM     64  C   UNL A   1      38.891  33.396  37.825  1.00  0.00     0.173 A 
ATOM     65  F   UNL A   1      41.098  35.498  35.840  1.00  0.00    -0.203 F 
ATOM     66  C   UNL A   1      40.066  35.909  37.915  1.00  0.00     0.198 A 
ATOM     67  C   UNL A   1      38.643  34.246  38.900  1.00  0.00     0.198 A 
ATOM     68  F   UNL A   1      38.306  32.189  37.811  1.00  0.00    -0.203 F 
ATOM     69  F   UNL A   1      40.657  37.111  37.970  1.00  0.00    -0.200 F 
ATOM     70  C   UNL A   1      39.234  35.500  38.946  1.00  0.00     0.200 A 
ATOM     71  F   UNL A   1      37.823  33.856  39.887  1.00  0.00    -0.200 F 
ATOM     72  F   UNL A   1      39.002  36.313  39.985  1.00  0.00    -0.200 F 
ENDBRANCH  48  62
BRANCH  49  73
ATOM     73  C   UNL A   1      40.586  27.975  28.693  1.00  0.00     0.064 A 
ATOM     74  C   UNL A   1      39.881  26.765  28.637  1.00  0.00     0.173 A 
ATOM     75  C   UNL A   1      41.354  28.335  27.575  1.00  0.00     0.173 A 
ATOM     76  F   UNL A   1      39.149  26.367  29.688  1.00  0.00    -0.203 F 
ATOM     77  C   UNL A   1      39.942  25.950  27.509  1.00  0.00     0.198 A 
ATOM     78  C   UNL A   1      41.389  27.535  26.436  1.00  0.00     0.198 A 
ATOM     79  F   UNL A   1      42.044  29.485  27.578  1.00  0.00    -0.203 F 
ATOM     80  F   UNL A   1      39.279  24.785  27.491  1.00  0.00    -0.200 F 
ATOM     81  C   UNL A   1      40.685  26.341  26.406  1.00  0.00     0.200 A 
ATOM     82  F   UNL A   1      42.093  27.926  25.366  1.00  0.00    -0.200 F 
ATOM     83  F   UNL A   1      40.725  25.566  25.313  1.00  0.00    -0.200 F 
ENDBRANCH  49  73
BRANCH  61  84
ATOM     84  C   UNL A   1      44.068  28.440  34.725  1.00  0.00     0.064 A 
ATOM     85  C   UNL A   1      43.895  27.253  35.452  1.00  0.00     0.173 A 
ATOM     86  C   UNL A   1      45.379  28.873  34.473  1.00  0.00     0.173 A 
ATOM     87  F   UNL A   1      42.663  26.806  35.732  1.00  0.00    -0.203 F 
ATOM     88  C   UNL A   1      44.994  26.533  35.914  1.00  0.00     0.198 A 
ATOM     89  C   UNL A   1      46.473  28.135  34.911  1.00  0.00     0.198 A 
ATOM     90  F   UNL A   1      45.597  29.998  33.776  1.00  0.00    -0.203 F 
ATOM     91  F   UNL A   1      44.805  25.418  36.634  1.00  0.00    -0.200 F 
ATOM     92  C   UNL A   1      46.280  26.968  35.634  1.00  0.00     0.200 A 
ATOM     93  F   UNL A   1      47.717  28.548  34.627  1.00  0.00    -0.200 F 
ATOM     94  F   UNL A   1      47.336  26.262  36.064  1.00  0.00    -0.200 F 
ENDBRANCH  61  84
ENDBRANCH  35  36
ENDBRANCH  27  30
ENDBRANCH  25  26
ENDBRANCH   1  25
TORSDOF 12
ENDMDL
MODEL 3
REMARK VINA RESULT:     -12.9      0.342      7.401
REMARK SMILES Cc1cc(F)c([C@@H](C)[N@H+]2C[C@H](C)[C@H](C(=O)NCCCNC(=O)c3ccc(-c4c5nc(c(-c6c(F)c(F)c(F)c(F)c6F)c6ccc([nH]6)c(-c6c(F)c(F)c(F)c(F)c6F)c6nc(c(-c7c(F)c(F)c(F)c(F)c7F)c7ccc4[nH]7)C=C6)C=C5)cc3)C2)cc1F
REMARK SMILES IDX 18 1 17 2 16 3 14 4 15 5 13 7 9 8 10 9 86 10 11 12 12 13
REMARK SMILES IDX 7 14 8 15 6 16 1 17 2 18 3 19 88 20 4 21 87 22 89 23 5 24
REMARK SMILES IDX 19 25 20 26 21 27 22 29 23 30 24 31 85 32 25 33 84 34 26 35
REMARK SMILES IDX 27 36 28 37 78 38 29 39 83 40 77 41 79 42 30 43 82 44 76 45
REMARK SMILES IDX 75 46 31 48 63 49 43 50 62 51 44 52 47 53 61 54 80 55 45 56
REMARK SMILES IDX 46 57 60 59 81 60 48 61 32 62 33 63 41 64 34 65 35 66 39 67
REMARK SMILES IDX 42 68 36 69 37 70 40 71 38 72 64 73 65 74 73 75 66 76 67 77
REMARK SMILES IDX 71 78 74 79 68 80 69 81 72 82 70 83 49 84 50 85 58 86 51 87
REMARK SMILES IDX 52 88 56 89 59 90 53 91 54 92 57 93 55 94
REMARK H PARENT 16 6 9 11 20 28 79 47 47 58
REMARK Flexibility Score: inf
ROOT
ATOM      1  C   UNL A   1      31.373  32.170  26.728  1.00  0.00     0.042 C 
ENDROOT
BRANCH   1   2
ATOM      2  C   UNL A   1      31.620  30.848  26.015  1.00  0.00     0.117 C 
BRANCH   2   3
ATOM      3  N   UNL A   1      31.676  29.726  26.936  1.00  0.00    -0.356 N 
ATOM      4  C   UNL A   1      31.578  28.388  26.728  1.00  0.00     0.229 C 
ATOM      5  O   UNL A   1      31.630  27.674  27.737  1.00  0.00    -0.275 OA
ATOM      6  H   UNL A   1      31.809  29.981  27.877  1.00  0.00     0.163 HD
BRANCH   4   7
ATOM      7  C   UNL A   1      31.403  27.742  25.360  1.00  0.00     0.142 C 
ATOM      8  N   UNL A   1      32.009  25.705  24.414  1.00  0.00    -0.328 N 
ATOM      9  C   UNL A   1      32.362  26.695  23.420  1.00  0.00     0.266 C 
ATOM     10  C   UNL A   1      31.063  26.248  25.364  1.00  0.00     0.276 C 
ATOM     11  H   UNL A   1      32.822  25.502  24.997  1.00  0.00     0.348 HD
ATOM     12  C   UNL A   1      32.492  27.953  24.283  1.00  0.00     0.059 C 
ATOM     13  C   UNL A   1      33.932  28.124  24.761  1.00  0.00     0.015 C 
BRANCH   8  14
ATOM     14  C   UNL A   1      32.102  24.293  24.100  1.00  0.00     0.215 C 
ATOM     15  C   UNL A   1      31.051  23.384  24.753  1.00  0.00     0.081 C 
BRANCH  14  16
ATOM     16  C   UNL A   1      33.518  23.841  24.429  1.00  0.00     0.048 A 
ATOM     17  C   UNL A   1      37.654  22.896  25.297  1.00  0.00     0.047 C 
ATOM     18  C   UNL A   1      36.225  23.220  24.987  1.00  0.00    -0.012 A 
ATOM     19  C   UNL A   1      35.357  23.589  26.017  1.00  0.00     0.046 A 
ATOM     20  C   UNL A   1      35.725  23.156  23.686  1.00  0.00     0.126 A 
ATOM     21  C   UNL A   1      34.024  23.880  25.736  1.00  0.00     0.132 A 
ATOM     22  C   UNL A   1      34.396  23.468  23.400  1.00  0.00     0.052 A 
ATOM     23  F   UNL A   1      36.530  22.798  22.675  1.00  0.00    -0.207 F 
ATOM     24  F   UNL A   1      33.241  24.249  26.760  1.00  0.00    -0.206 F 
ENDBRANCH  14  16
ENDBRANCH   8  14
ENDBRANCH   4   7
ENDBRANCH   2   3
ENDBRANCH   1   2
BRANCH   1  25
ATOM     25  C   UNL A   1      32.642  32.830  27.237  1.00  0.00     0.118 C 
BRANCH  25  26
ATOM     26  N   UNL A   1      32.440  34.223  27.615  1.00  0.00    -0.352 N 
ATOM     27  C   UNL A   1      33.015  34.977  28.615  1.00  0.00     0.251 C 
ATOM     28  H   UNL A   1      31.783  34.707  27.063  1.00  0.00     0.163 HD
ATOM     29  O   UNL A   1      32.561  36.081  28.878  1.00  0.00    -0.269 OA
BRANCH  27  30
ATOM     30  C   UNL A   1      34.152  34.442  29.407  1.00  0.00     0.039 A 
ATOM     31  C   UNL A   1      35.466  34.559  28.962  1.00  0.00     0.014 A 
ATOM     32  C   UNL A   1      33.896  33.814  30.631  1.00  0.00     0.014 A 
ATOM     33  C   UNL A   1      36.481  33.860  29.603  1.00  0.00     0.010 A 
ATOM     34  C   UNL A   1      34.942  33.224  31.349  1.00  0.00     0.010 A 
ATOM     35  C   UNL A   1      36.238  33.191  30.813  1.00  0.00    -0.014 A 
BRANCH  35  36
ATOM     36  C   UNL A   1      37.359  32.483  31.492  1.00  0.00     0.031 A 
ATOM     37  C   UNL A   1      38.113  31.377  30.800  1.00  0.00     0.074 A 
ATOM     38  C   UNL A   1      37.741  32.886  32.720  1.00  0.00     0.049 A 
ATOM     39  N   UNL A   1      39.122  30.666  31.240  1.00  0.00    -0.248 NA
ATOM     40  C   UNL A   1      37.677  31.014  29.443  1.00  0.00     0.031 C 
ATOM     41  C   UNL A   1      37.099  33.953  33.491  1.00  0.00     0.029 A 
ATOM     42  N   UNL A   1      38.777  32.478  33.523  1.00  0.00    -0.354 N 
ATOM     43  C   UNL A   1      39.424  29.764  30.228  1.00  0.00     0.074 A 
ATOM     44  C   UNL A   1      38.473  29.991  29.162  1.00  0.00     0.031 C 
ATOM     45  C   UNL A   1      37.795  34.165  34.617  1.00  0.00     0.029 A 
ATOM     46  C   UNL A   1      38.882  33.196  34.690  1.00  0.00     0.049 A 
ATOM     47  H   UNL A   1      39.385  31.741  33.286  1.00  0.00     0.167 HD
ATOM     48  C   UNL A   1      40.416  28.841  30.187  1.00  0.00     0.037 A 
ATOM     49  C   UNL A   1      39.746  33.080  35.716  1.00  0.00     0.037 A 
ATOM     50  C   UNL A   1      41.381  28.638  31.237  1.00  0.00     0.049 A 
ATOM     51  C   UNL A   1      40.805  32.018  35.664  1.00  0.00     0.074 A 
ATOM     52  C   UNL A   1      42.435  27.742  31.275  1.00  0.00     0.029 A 
ATOM     53  N   UNL A   1      41.413  29.343  32.431  1.00  0.00    -0.354 N 
ATOM     54  N   UNL A   1      41.079  31.173  34.700  1.00  0.00    -0.248 NA
ATOM     55  C   UNL A   1      41.666  31.881  36.847  1.00  0.00     0.031 C 
ATOM     56  C   UNL A   1      43.076  27.871  32.511  1.00  0.00     0.029 A 
ATOM     57  C   UNL A   1      42.454  28.885  33.222  1.00  0.00     0.049 A 
ATOM     58  H   UNL A   1      40.788  30.063  32.679  1.00  0.00     0.167 HD
ATOM     59  C   UNL A   1      42.148  30.414  35.151  1.00  0.00     0.074 A 
ATOM     60  C   UNL A   1      42.488  30.911  36.468  1.00  0.00     0.031 C 
ATOM     61  C   UNL A   1      42.785  29.391  34.530  1.00  0.00     0.037 A 
BRANCH  48  62
ATOM     62  C   UNL A   1      40.516  27.968  28.968  1.00  0.00     0.064 A 
ATOM     63  C   UNL A   1      39.779  26.781  28.849  1.00  0.00     0.173 A 
ATOM     64  C   UNL A   1      41.301  28.364  27.873  1.00  0.00     0.173 A 
ATOM     65  F   UNL A   1      39.020  26.353  29.868  1.00  0.00    -0.203 F 
ATOM     66  C   UNL A   1      39.836  26.014  27.688  1.00  0.00     0.198 A 
ATOM     67  C   UNL A   1      41.334  27.610  26.703  1.00  0.00     0.198 A 
ATOM     68  F   UNL A   1      42.019  29.496  27.930  1.00  0.00    -0.203 F 
ATOM     69  F   UNL A   1      39.150  24.865  27.610  1.00  0.00    -0.200 F 
ATOM     70  C   UNL A   1      40.606  26.434  26.612  1.00  0.00     0.200 A 
ATOM     71  F   UNL A   1      42.065  28.027  25.659  1.00  0.00    -0.200 F 
ATOM     72  F   UNL A   1      40.647  25.704  25.490  1.00  0.00    -0.200 F 
ENDBRANCH  48  62
BRANCH  49  73
ATOM     73  C   UNL A   1      39.635  34.005  36.874  1.00  0.00     0.064 A 
ATOM     74  C   UNL A   1      38.863  33.668  37.994  1.00  0.00     0.173 A 
ATOM     75  C   UNL A   1      40.332  35.223  36.904  1.00  0.00     0.173 A 
ATOM     76  F   UNL A   1      38.163  32.524  38.005  1.00  0.00    -0.203 F 
ATOM     77  C   UNL A   1      38.791  34.513  39.098  1.00  0.00     0.198 A 
ATOM     78  C   UNL A   1      40.284  36.053  38.022  1.00  0.00     0.198 A 
ATOM     79  F   UNL A   1      41.087  35.590  35.859  1.00  0.00    -0.203 F 
ATOM     80  F   UNL A   1      38.025  34.180  40.146  1.00  0.00    -0.200 F 
ATOM     81  C   UNL A   1      39.511  35.699  39.117  1.00  0.00     0.200 A 
ATOM     82  F   UNL A   1      40.996  37.187  38.042  1.00  0.00    -0.200 F 
ATOM     83  F   UNL A   1      39.457  36.501  40.189  1.00  0.00    -0.200 F 
ENDBRANCH  49  73
BRANCH  61  84
ATOM     84  C   UNL A   1      43.928  28.745  35.254  1.00  0.00     0.064 A 
ATOM     85  C   UNL A   1      43.732  27.632  36.085  1.00  0.00     0.173 A 
ATOM     86  C   UNL A   1      45.242  29.196  35.056  1.00  0.00     0.173 A 
ATOM     87  F   UNL A   1      42.494  27.172  36.318  1.00  0.00    -0.203 F 
ATOM     88  C   UNL A   1      44.811  27.001  36.699  1.00  0.00     0.198 A 
ATOM     89  C   UNL A   1      46.319  28.545  35.648  1.00  0.00     0.198 A 
ATOM     90  F   UNL A   1      45.482  30.252  34.265  1.00  0.00    -0.203 F 
ATOM     91  F   UNL A   1      44.598  25.958  37.514  1.00  0.00    -0.200 F 
ATOM     92  C   UNL A   1      46.103  27.450  36.471  1.00  0.00     0.200 A 
ATOM     93  F   UNL A   1      47.569  28.970  35.415  1.00  0.00    -0.200 F 
ATOM     94  F   UNL A   1      47.141  26.828  37.048  1.00  0.00    -0.200 F 
ENDBRANCH  61  84
ENDBRANCH  35  36
ENDBRANCH  27  30
ENDBRANCH  25  26
ENDBRANCH   1  25
TORSDOF 12
ENDMDL
