MODEL 1
REMARK VINA RESULT:     -13.8      0.000      0.000
REMARK SMILES O=C(NCCCNC(=O)[C@H]1CC[C@@H]2CCCC[C@H]2N1C(=O)C1CC[NH2+]CC1)c1ccc(-c2c3nc(c(-c4c(F)c(F)c(F)c(F)c4F)c4ccc([nH]4)c(-c4c(F)c(F)c(F)c(F)c4F)c4nc(c(-c5c(F)c(F)c(F)c(F)c5F)c5ccc2[nH]5)C=C4)C=C3)cc1
REMARK SMILES IDX 5 1 4 2 3 3 1 4 2 5 28 7 29 8 90 9 30 10 89 11 31 12 32 13
REMARK SMILES IDX 33 14 83 15 34 16 88 17 82 18 84 19 35 20 87 21 81 22 80 23
REMARK SMILES IDX 36 25 68 26 48 27 67 28 49 29 52 30 66 31 85 32 50 33 51 34
REMARK SMILES IDX 65 36 86 37 53 38 37 39 38 40 46 41 39 42 40 43 44 44 47 45
REMARK SMILES IDX 41 46 42 47 45 48 43 49 69 50 70 51 78 52 71 53 72 54 76 55
REMARK SMILES IDX 79 56 73 57 74 58 77 59 75 60 54 61 55 62 63 63 56 64 57 65
REMARK SMILES IDX 61 66 64 67 58 68 59 69 62 70 60 71 6 72 7 73 8 74 9 76
REMARK SMILES IDX 10 77 11 78 19 79 12 80 18 81 13 82 17 83 14 84 16 85 15 86
REMARK SMILES IDX 20 87 21 88 22 89 23 90 27 91 24 92 26 93 25 94
REMARK H PARENT 3 6 84 24 52 35 7 75 25 95 25 96
REMARK Flexibility Score: inf
ROOT
ATOM      1  C   UNL A   1      32.609  27.228  25.854  1.00  0.00     0.042 C 
ENDROOT
BRANCH   1   2
ATOM      2  C   UNL A   1      33.542  28.330  25.405  1.00  0.00     0.118 C 
BRANCH   2   3
ATOM      3  N   UNL A   1      33.023  29.682  25.690  1.00  0.00    -0.352 N 
ATOM      4  O   UNL A   1      32.483  31.538  26.842  1.00  0.00    -0.269 OA
ATOM      5  C   UNL A   1      33.295  30.636  26.649  1.00  0.00     0.251 C 
ATOM      6  H   UNL A   1      32.327  29.966  25.054  1.00  0.00     0.163 HD
BRANCH   5   7
ATOM      7  C   UNL A   1      34.521  30.571  27.467  1.00  0.00     0.039 A 
ATOM      8  C   UNL A   1      34.853  29.373  28.066  1.00  0.00     0.014 A 
ATOM      9  C   UNL A   1      35.376  31.671  27.626  1.00  0.00     0.014 A 
ATOM     10  C   UNL A   1      35.812  29.328  29.047  1.00  0.00     0.010 A 
ATOM     11  C   UNL A   1      36.521  31.549  28.428  1.00  0.00     0.010 A 
ATOM     12  C   UNL A   1      36.731  30.375  29.165  1.00  0.00    -0.014 A 
BRANCH  12  13
ATOM     13  C   UNL A   1      37.948  30.085  29.962  1.00  0.00     0.031 A 
ATOM     14  C   UNL A   1      38.067  30.508  31.392  1.00  0.00     0.074 A 
ATOM     15  C   UNL A   1      38.897  29.317  29.381  1.00  0.00     0.049 A 
ATOM     16  N   UNL A   1      39.055  30.295  32.221  1.00  0.00    -0.248 NA
ATOM     17  C   UNL A   1      36.955  31.278  31.969  1.00  0.00     0.031 C 
ATOM     18  C   UNL A   1      38.867  28.858  27.984  1.00  0.00     0.029 A 
ATOM     19  N   UNL A   1      40.025  28.726  29.885  1.00  0.00    -0.354 N 
ATOM     20  C   UNL A   1      38.712  30.947  33.395  1.00  0.00     0.074 A 
ATOM     21  C   UNL A   1      37.418  31.556  33.183  1.00  0.00     0.031 C 
ATOM     22  C   UNL A   1      39.846  27.969  27.783  1.00  0.00     0.029 A 
ATOM     23  C   UNL A   1      40.672  27.922  28.977  1.00  0.00     0.049 A 
ATOM     24  H   UNL A   1      40.342  28.864  30.807  1.00  0.00     0.167 HD
ATOM     25  C   UNL A   1      39.434  31.029  34.537  1.00  0.00     0.037 A 
ATOM     26  C   UNL A   1      41.842  27.266  29.063  1.00  0.00     0.037 A 
ATOM     27  C   UNL A   1      40.699  30.369  34.734  1.00  0.00     0.049 A 
ATOM     28  C   UNL A   1      42.617  27.396  30.337  1.00  0.00     0.074 A 
ATOM     29  C   UNL A   1      41.483  30.333  35.874  1.00  0.00     0.029 A 
ATOM     30  N   UNL A   1      41.364  29.628  33.766  1.00  0.00    -0.354 N 
ATOM     31  N   UNL A   1      42.278  28.012  31.443  1.00  0.00    -0.248 NA
ATOM     32  C   UNL A   1      43.944  26.776  30.367  1.00  0.00     0.031 C 
ATOM     33  C   UNL A   1      42.648  29.619  35.578  1.00  0.00     0.029 A 
ATOM     34  C   UNL A   1      42.570  29.166  34.271  1.00  0.00     0.049 A 
ATOM     35  H   UNL A   1      41.030  29.457  32.857  1.00  0.00     0.167 HD
ATOM     36  C   UNL A   1      43.358  27.873  32.297  1.00  0.00     0.074 A 
ATOM     37  C   UNL A   1      44.342  27.070  31.597  1.00  0.00     0.031 C 
ATOM     38  C   UNL A   1      43.531  28.381  33.541  1.00  0.00     0.037 A 
BRANCH  25  39
ATOM     39  C   UNL A   1      38.914  31.888  35.650  1.00  0.00     0.064 A 
ATOM     40  C   UNL A   1      38.155  31.364  36.706  1.00  0.00     0.173 A 
ATOM     41  C   UNL A   1      39.269  33.246  35.707  1.00  0.00     0.173 A 
ATOM     42  F   UNL A   1      37.778  30.078  36.693  1.00  0.00    -0.203 F 
ATOM     43  C   UNL A   1      37.773  32.168  37.779  1.00  0.00     0.198 A 
ATOM     44  C   UNL A   1      38.904  34.040  36.790  1.00  0.00     0.198 A 
ATOM     45  F   UNL A   1      39.995  33.795  34.721  1.00  0.00    -0.203 F 
ATOM     46  F   UNL A   1      37.035  31.653  38.771  1.00  0.00    -0.200 F 
ATOM     47  C   UNL A   1      38.158  33.501  37.825  1.00  0.00     0.200 A 
ATOM     48  F   UNL A   1      39.289  35.324  36.838  1.00  0.00    -0.200 F 
ATOM     49  F   UNL A   1      37.810  34.265  38.870  1.00  0.00    -0.200 F 
ENDBRANCH  25  39
BRANCH  26  50
ATOM     50  C   UNL A   1      42.381  26.541  27.882  1.00  0.00     0.064 A 
ATOM     51  C   UNL A   1      43.166  27.188  26.919  1.00  0.00     0.173 A 
ATOM     52  C   UNL A   1      42.129  25.170  27.701  1.00  0.00     0.173 A 
ATOM     53  F   UNL A   1      43.419  28.500  27.034  1.00  0.00    -0.203 F 
ATOM     54  C   UNL A   1      43.668  26.496  25.818  1.00  0.00     0.198 A 
ATOM     55  C   UNL A   1      42.667  24.471  26.624  1.00  0.00     0.198 A 
ATOM     56  F   UNL A   1      41.387  24.498  28.594  1.00  0.00    -0.203 F 
ATOM     57  F   UNL A   1      44.377  27.148  24.888  1.00  0.00    -0.200 F 
ATOM     58  C   UNL A   1      43.427  25.137  25.677  1.00  0.00     0.200 A 
ATOM     59  F   UNL A   1      42.453  23.153  26.512  1.00  0.00    -0.200 F 
ATOM     60  F   UNL A   1      43.923  24.470  24.627  1.00  0.00    -0.200 F 
ENDBRANCH  26  50
BRANCH  38  61
ATOM     61  C   UNL A   1      44.837  28.077  34.205  1.00  0.00     0.064 A 
ATOM     62  C   UNL A   1      45.918  28.965  34.121  1.00  0.00     0.173 A 
ATOM     63  C   UNL A   1      45.004  26.895  34.938  1.00  0.00     0.173 A 
ATOM     64  F   UNL A   1      45.808  30.096  33.408  1.00  0.00    -0.203 F 
ATOM     65  C   UNL A   1      47.132  28.667  34.730  1.00  0.00     0.198 A 
ATOM     66  C   UNL A   1      46.210  26.614  35.572  1.00  0.00     0.198 A 
ATOM     67  F   UNL A   1      43.997  26.015  35.045  1.00  0.00    -0.203 F 
ATOM     68  F   UNL A   1      48.170  29.504  34.594  1.00  0.00    -0.200 F 
ATOM     69  C   UNL A   1      47.275  27.497  35.461  1.00  0.00     0.200 A 
ATOM     70  F   UNL A   1      46.344  25.488  36.284  1.00  0.00    -0.200 F 
ATOM     71  F   UNL A   1      48.444  27.213  36.049  1.00  0.00    -0.200 F 
ENDBRANCH  38  61
ENDBRANCH  12  13
ENDBRANCH   5   7
ENDBRANCH   2   3
ENDBRANCH   1   2
BRANCH   1  72
ATOM     72  C   UNL A   1      33.312  25.892  25.824  1.00  0.00     0.117 C 
BRANCH  72  73
ATOM     73  N   UNL A   1      33.960  25.454  24.467  1.00  0.00    -0.354 N 
ATOM     74  C   UNL A   1      33.995  24.205  23.547  1.00  0.00     0.242 C 
ATOM     75  H   UNL A   1      34.504  26.183  24.088  1.00  0.00     0.163 HD
ATOM     76  O   UNL A   1      34.403  24.782  22.501  1.00  0.00    -0.273 OA
BRANCH  74  77
ATOM     77  C   UNL A   1      33.531  22.139  23.902  1.00  0.00     0.174 C 
ATOM     78  C   UNL A   1      32.298  21.151  23.006  1.00  0.00     0.036 C 
ATOM     79  N   UNL A   1      34.546  21.023  24.404  1.00  0.00    -0.327 N 
ATOM     80  C   UNL A   1      31.994  19.801  23.551  1.00  0.00     0.008 C 
ATOM     81  C   UNL A   1      34.196  19.575  24.599  1.00  0.00     0.089 C 
ATOM     82  C   UNL A   1      33.275  19.025  23.501  1.00  0.00     0.012 C 
ATOM     83  C   UNL A   1      35.413  18.627  24.713  1.00  0.00     0.025 C 
ATOM     84  C   UNL A   1      32.899  17.550  23.618  1.00  0.00     0.006 C 
ATOM     85  C   UNL A   1      34.987  17.165  24.894  1.00  0.00     0.002 C 
ATOM     86  C   UNL A   1      34.127  16.678  23.739  1.00  0.00     0.000 C 
BRANCH  79  87
ATOM     87  C   UNL A   1      35.422  21.596  25.313  1.00  0.00     0.227 C 
ATOM     88  O   UNL A   1      35.300  21.823  26.499  1.00  0.00    -0.275 OA
BRANCH  87  89
ATOM     89  C   UNL A   1      36.592  21.902  24.483  1.00  0.00     0.090 C 
ATOM     90  C   UNL A   1      36.805  23.698  24.976  1.00  0.00     0.075 C 
ATOM     91  C   UNL A   1      37.864  20.589  24.953  1.00  0.00     0.075 C 
ATOM     92  C   UNL A   1      38.020  24.078  26.380  1.00  0.00     0.261 C 
ATOM     93  C   UNL A   1      39.293  21.069  26.126  1.00  0.00     0.261 C 
ATOM     94  N   UNL A   1      39.346  22.769  26.907  1.00  0.00    -0.346 N 
ATOM     95  H   UNL A   1      39.254  22.638  27.914  1.00  0.00     0.346 HD
ATOM     96  H   UNL A   1      40.227  23.164  26.580  1.00  0.00     0.346 HD
ENDBRANCH  87  89
ENDBRANCH  79  87
ENDBRANCH  74  77
ENDBRANCH  72  73
ENDBRANCH   1  72
TORSDOF 12
ENDMDL
MODEL 2
REMARK VINA RESULT:     -13.5      3.014      4.281
REMARK SMILES O=C(NCCCNC(=O)[C@H]1CC[C@@H]2CCCC[C@H]2N1C(=O)C1CC[NH2+]CC1)c1ccc(-c2c3nc(c(-c4c(F)c(F)c(F)c(F)c4F)c4ccc([nH]4)c(-c4c(F)c(F)c(F)c(F)c4F)c4nc(c(-c5c(F)c(F)c(F)c(F)c5F)c5ccc2[nH]5)C=C4)C=C3)cc1
REMARK SMILES IDX 5 1 4 2 3 3 1 4 2 5 28 7 29 8 90 9 30 10 89 11 31 12 32 13
REMARK SMILES IDX 33 14 83 15 34 16 88 17 82 18 84 19 35 20 87 21 81 22 80 23
REMARK SMILES IDX 36 25 68 26 48 27 67 28 49 29 52 30 66 31 85 32 50 33 51 34
REMARK SMILES IDX 65 36 86 37 53 38 37 39 38 40 46 41 39 42 40 43 44 44 47 45
REMARK SMILES IDX 41 46 42 47 45 48 43 49 69 50 70 51 78 52 71 53 72 54 76 55
REMARK SMILES IDX 79 56 73 57 74 58 77 59 75 60 54 61 55 62 63 63 56 64 57 65
REMARK SMILES IDX 61 66 64 67 58 68 59 69 62 70 60 71 6 72 7 73 8 74 9 76
REMARK SMILES IDX 10 77 11 78 19 79 12 80 18 81 13 82 17 83 14 84 16 85 15 86
REMARK SMILES IDX 20 87 21 88 22 89 23 90 27 91 24 92 26 93 25 94
REMARK H PARENT 3 6 84 24 52 35 7 75 25 95 25 96
REMARK Flexibility Score: inf
ROOT
ATOM      1  C   UNL A   1      32.695  27.219  26.128  1.00  0.00     0.042 C 
ENDROOT
BRANCH   1   2
ATOM      2  C   UNL A   1      33.983  27.915  26.508  1.00  0.00     0.118 C 
BRANCH   2   3
ATOM      3  N   UNL A   1      33.790  29.327  26.889  1.00  0.00    -0.352 N 
ATOM      4  O   UNL A   1      33.914  31.229  28.087  1.00  0.00    -0.269 OA
ATOM      5  C   UNL A   1      34.481  30.213  27.692  1.00  0.00     0.251 C 
ATOM      6  H   UNL A   1      32.988  29.727  26.480  1.00  0.00     0.163 HD
BRANCH   5   7
ATOM      7  C   UNL A   1      35.870  29.943  28.110  1.00  0.00     0.039 A 
ATOM      8  C   UNL A   1      36.895  30.268  27.245  1.00  0.00     0.014 A 
ATOM      9  C   UNL A   1      36.184  29.403  29.366  1.00  0.00     0.014 A 
ATOM     10  C   UNL A   1      38.164  29.791  27.461  1.00  0.00     0.010 A 
ATOM     11  C   UNL A   1      37.525  29.157  29.699  1.00  0.00     0.010 A 
ATOM     12  C   UNL A   1      38.524  29.330  28.731  1.00  0.00    -0.014 A 
BRANCH  12  13
ATOM     13  C   UNL A   1      39.979  29.205  28.989  1.00  0.00     0.031 A 
ATOM     14  C   UNL A   1      40.723  30.226  29.790  1.00  0.00     0.074 A 
ATOM     15  C   UNL A   1      40.584  28.069  28.573  1.00  0.00     0.049 A 
ATOM     16  N   UNL A   1      41.986  30.231  30.126  1.00  0.00    -0.248 NA
ATOM     17  C   UNL A   1      39.971  31.397  30.268  1.00  0.00     0.031 C 
ATOM     18  C   UNL A   1      39.936  27.015  27.779  1.00  0.00     0.029 A 
ATOM     19  N   UNL A   1      41.836  27.567  28.806  1.00  0.00    -0.354 N 
ATOM     20  C   UNL A   1      42.195  31.423  30.802  1.00  0.00     0.074 A 
ATOM     21  C   UNL A   1      40.927  32.116  30.846  1.00  0.00     0.031 C 
ATOM     22  C   UNL A   1      40.744  25.953  27.699  1.00  0.00     0.029 A 
ATOM     23  C   UNL A   1      42.025  26.308  28.286  1.00  0.00     0.049 A 
ATOM     24  H   UNL A   1      42.534  28.059  29.297  1.00  0.00     0.167 HD
ATOM     25  C   UNL A   1      43.355  31.886  31.323  1.00  0.00     0.037 A 
ATOM     26  C   UNL A   1      43.126  25.541  28.222  1.00  0.00     0.037 A 
ATOM     27  C   UNL A   1      44.592  31.147  31.307  1.00  0.00     0.049 A 
ATOM     28  C   UNL A   1      44.391  26.097  28.797  1.00  0.00     0.074 A 
ATOM     29  C   UNL A   1      45.810  31.496  31.863  1.00  0.00     0.029 A 
ATOM     30  N   UNL A   1      44.767  29.910  30.702  1.00  0.00    -0.354 N 
ATOM     31  N   UNL A   1      44.574  27.224  29.439  1.00  0.00    -0.248 NA
ATOM     32  C   UNL A   1      45.606  25.300  28.608  1.00  0.00     0.031 C 
ATOM     33  C   UNL A   1      46.735  30.497  31.547  1.00  0.00     0.029 A 
ATOM     34  C   UNL A   1      46.085  29.501  30.836  1.00  0.00     0.049 A 
ATOM     35  H   UNL A   1      44.061  29.399  30.244  1.00  0.00     0.167 HD
ATOM     36  C   UNL A   1      45.928  27.284  29.716  1.00  0.00     0.074 A 
ATOM     37  C   UNL A   1      46.511  26.055  29.215  1.00  0.00     0.031 C 
ATOM     38  C   UNL A   1      46.633  28.276  30.313  1.00  0.00     0.037 A 
BRANCH  25  39
ATOM     39  C   UNL A   1      43.372  33.262  31.918  1.00  0.00     0.064 A 
ATOM     40  C   UNL A   1      43.536  34.412  31.135  1.00  0.00     0.173 A 
ATOM     41  C   UNL A   1      43.119  33.431  33.289  1.00  0.00     0.173 A 
ATOM     42  F   UNL A   1      43.794  34.306  29.824  1.00  0.00    -0.203 F 
ATOM     43  C   UNL A   1      43.444  35.682  31.703  1.00  0.00     0.198 A 
ATOM     44  C   UNL A   1      43.006  34.700  33.848  1.00  0.00     0.198 A 
ATOM     45  F   UNL A   1      42.953  32.361  34.082  1.00  0.00    -0.203 F 
ATOM     46  F   UNL A   1      43.620  36.770  30.940  1.00  0.00    -0.200 F 
ATOM     47  C   UNL A   1      43.167  35.825  33.055  1.00  0.00     0.200 A 
ATOM     48  F   UNL A   1      42.725  34.835  35.152  1.00  0.00    -0.200 F 
ATOM     49  F   UNL A   1      43.055  37.047  33.593  1.00  0.00    -0.200 F 
ENDBRANCH  25  39
BRANCH  26  50
ATOM     50  C   UNL A   1      43.091  24.242  27.500  1.00  0.00     0.064 A 
ATOM     51  C   UNL A   1      42.717  23.055  28.142  1.00  0.00     0.173 A 
ATOM     52  C   UNL A   1      43.420  24.167  26.135  1.00  0.00     0.173 A 
ATOM     53  F   UNL A   1      42.412  23.068  29.448  1.00  0.00    -0.203 F 
ATOM     54  C   UNL A   1      42.684  21.844  27.452  1.00  0.00     0.198 A 
ATOM     55  C   UNL A   1      43.345  22.965  25.438  1.00  0.00     0.198 A 
ATOM     56  F   UNL A   1      43.782  25.273  25.467  1.00  0.00    -0.203 F 
ATOM     57  F   UNL A   1      42.367  20.716  28.101  1.00  0.00    -0.200 F 
ATOM     58  C   UNL A   1      42.988  21.802  26.099  1.00  0.00     0.200 A 
ATOM     59  F   UNL A   1      43.613  22.938  24.125  1.00  0.00    -0.200 F 
ATOM     60  F   UNL A   1      42.941  20.640  25.434  1.00  0.00    -0.200 F 
ENDBRANCH  26  50
BRANCH  38  61
ATOM     61  C   UNL A   1      48.107  28.057  30.443  1.00  0.00     0.064 A 
ATOM     62  C   UNL A   1      48.648  27.401  31.558  1.00  0.00     0.173 A 
ATOM     63  C   UNL A   1      48.983  28.496  29.441  1.00  0.00     0.173 A 
ATOM     64  F   UNL A   1      47.846  26.987  32.551  1.00  0.00    -0.203 F 
ATOM     65  C   UNL A   1      50.020  27.214  31.676  1.00  0.00     0.198 A 
ATOM     66  C   UNL A   1      50.353  28.280  29.549  1.00  0.00     0.198 A 
ATOM     67  F   UNL A   1      48.510  29.128  28.357  1.00  0.00    -0.203 F 
ATOM     68  F   UNL A   1      50.522  26.632  32.775  1.00  0.00    -0.200 F 
ATOM     69  C   UNL A   1      50.870  27.646  30.669  1.00  0.00     0.200 A 
ATOM     70  F   UNL A   1      51.171  28.689  28.571  1.00  0.00    -0.200 F 
ATOM     71  F   UNL A   1      52.192  27.463  30.784  1.00  0.00    -0.200 F 
ENDBRANCH  38  61
ENDBRANCH  12  13
ENDBRANCH   5   7
ENDBRANCH   2   3
ENDBRANCH   1   2
BRANCH   1  72
ATOM     72  C   UNL A   1      32.935  25.747  25.893  1.00  0.00     0.117 C 
BRANCH  72  73
ATOM     73  N   UNL A   1      33.695  25.347  24.583  1.00  0.00    -0.354 N 
ATOM     74  C   UNL A   1      33.845  24.108  23.661  1.00  0.00     0.242 C 
ATOM     75  H   UNL A   1      34.235  26.099  24.248  1.00  0.00     0.163 HD
ATOM     76  O   UNL A   1      34.303  24.709  22.650  1.00  0.00    -0.273 OA
BRANCH  74  77
ATOM     77  C   UNL A   1      33.439  22.022  23.970  1.00  0.00     0.174 C 
ATOM     78  C   UNL A   1      32.203  21.030  23.082  1.00  0.00     0.036 C 
ATOM     79  N   UNL A   1      34.493  20.917  24.412  1.00  0.00    -0.327 N 
ATOM     80  C   UNL A   1      31.946  19.660  23.597  1.00  0.00     0.008 C 
ATOM     81  C   UNL A   1      34.182  19.457  24.575  1.00  0.00     0.089 C 
ATOM     82  C   UNL A   1      33.243  18.916  23.489  1.00  0.00     0.012 C 
ATOM     83  C   UNL A   1      35.423  18.536  24.628  1.00  0.00     0.025 C 
ATOM     84  C   UNL A   1      32.905  17.429  23.575  1.00  0.00     0.006 C 
ATOM     85  C   UNL A   1      35.036  17.059  24.780  1.00  0.00     0.002 C 
ATOM     86  C   UNL A   1      34.154  16.584  23.637  1.00  0.00     0.000 C 
BRANCH  79  87
ATOM     87  C   UNL A   1      35.382  21.486  25.312  1.00  0.00     0.227 C 
ATOM     88  O   UNL A   1      35.283  21.690  26.504  1.00  0.00    -0.275 OA
BRANCH  87  89
ATOM     89  C   UNL A   1      36.528  21.823  24.462  1.00  0.00     0.090 C 
ATOM     90  C   UNL A   1      36.715  23.619  24.968  1.00  0.00     0.075 C 
ATOM     91  C   UNL A   1      37.836  20.532  24.894  1.00  0.00     0.075 C 
ATOM     92  C   UNL A   1      37.950  24.011  26.351  1.00  0.00     0.261 C 
ATOM     93  C   UNL A   1      39.278  21.031  26.043  1.00  0.00     0.261 C 
ATOM     94  N   UNL A   1      39.312  22.725  26.839  1.00  0.00    -0.346 N 
ATOM     95  H   UNL A   1      39.243  22.583  27.847  1.00  0.00     0.346 HD
ATOM     96  H   UNL A   1      40.178  23.140  26.498  1.00  0.00     0.346 HD
ENDBRANCH  87  89
ENDBRANCH  79  87
ENDBRANCH  74  77
ENDBRANCH  72  73
ENDBRANCH   1  72
TORSDOF 12
ENDMDL
MODEL 3
REMARK VINA RESULT:     -13.4      4.085     10.139
REMARK SMILES O=C(NCCCNC(=O)[C@H]1CC[C@@H]2CCCC[C@H]2N1C(=O)C1CC[NH2+]CC1)c1ccc(-c2c3nc(c(-c4c(F)c(F)c(F)c(F)c4F)c4ccc([nH]4)c(-c4c(F)c(F)c(F)c(F)c4F)c4nc(c(-c5c(F)c(F)c(F)c(F)c5F)c5ccc2[nH]5)C=C4)C=C3)cc1
REMARK SMILES IDX 5 1 4 2 3 3 1 4 2 5 28 7 29 8 90 9 30 10 89 11 31 12 32 13
REMARK SMILES IDX 33 14 83 15 34 16 88 17 82 18 84 19 35 20 87 21 81 22 80 23
REMARK SMILES IDX 36 25 68 26 48 27 67 28 49 29 52 30 66 31 85 32 50 33 51 34
REMARK SMILES IDX 65 36 86 37 53 38 37 39 38 40 46 41 39 42 40 43 44 44 47 45
REMARK SMILES IDX 41 46 42 47 45 48 43 49 69 50 70 51 78 52 71 53 72 54 76 55
REMARK SMILES IDX 79 56 73 57 74 58 77 59 75 60 54 61 55 62 63 63 56 64 57 65
REMARK SMILES IDX 61 66 64 67 58 68 59 69 62 70 60 71 6 72 7 73 8 74 9 76
REMARK SMILES IDX 10 77 11 78 19 79 12 80 18 81 13 82 17 83 14 84 16 85 15 86
REMARK SMILES IDX 20 87 21 88 22 89 23 90 27 91 24 92 26 93 25 94
REMARK H PARENT 3 6 84 24 52 35 7 75 25 95 25 96
REMARK Flexibility Score: inf
ROOT
ATOM      1  C   UNL A   1      35.091  23.569  24.651  1.00  0.00     0.042 C 
ENDROOT
BRANCH   1   2
ATOM      2  C   UNL A   1      35.784  23.303  25.968  1.00  0.00     0.118 C 
BRANCH   2   3
ATOM      3  N   UNL A   1      36.639  22.100  25.941  1.00  0.00    -0.352 N 
ATOM      4  O   UNL A   1      38.446  20.800  25.612  1.00  0.00    -0.269 OA
ATOM      5  C   UNL A   1      38.003  21.886  25.977  1.00  0.00     0.251 C 
ATOM      6  H   UNL A   1      36.122  21.265  25.885  1.00  0.00     0.163 HD
BRANCH   5   7
ATOM      7  C   UNL A   1      38.933  22.947  26.408  1.00  0.00     0.039 A 
ATOM      8  C   UNL A   1      38.697  24.241  25.994  1.00  0.00     0.014 A 
ATOM      9  C   UNL A   1      40.024  22.690  27.251  1.00  0.00     0.014 A 
ATOM     10  C   UNL A   1      39.667  25.203  26.131  1.00  0.00     0.010 A 
ATOM     11  C   UNL A   1      40.881  23.740  27.616  1.00  0.00     0.010 A 
ATOM     12  C   UNL A   1      40.716  25.005  27.033  1.00  0.00    -0.014 A 
BRANCH  12  13
ATOM     13  C   UNL A   1      41.486  26.215  27.412  1.00  0.00     0.031 A 
ATOM     14  C   UNL A   1      42.847  26.483  26.854  1.00  0.00     0.074 A 
ATOM     15  C   UNL A   1      40.858  27.127  28.189  1.00  0.00     0.049 A 
ATOM     16  N   UNL A   1      43.622  27.514  27.067  1.00  0.00    -0.248 NA
ATOM     17  C   UNL A   1      43.427  25.473  25.956  1.00  0.00     0.031 C 
ATOM     18  C   UNL A   1      39.525  26.948  28.784  1.00  0.00     0.029 A 
ATOM     19  N   UNL A   1      41.203  28.399  28.559  1.00  0.00    -0.354 N 
ATOM     20  C   UNL A   1      44.798  27.254  26.380  1.00  0.00     0.074 A 
ATOM     21  C   UNL A   1      44.636  25.974  25.728  1.00  0.00     0.031 C 
ATOM     22  C   UNL A   1      39.120  28.099  29.330  1.00  0.00     0.029 A 
ATOM     23  C   UNL A   1      40.223  29.043  29.276  1.00  0.00     0.049 A 
ATOM     24  H   UNL A   1      42.069  28.812  28.334  1.00  0.00     0.167 HD
ATOM     25  C   UNL A   1      45.909  28.024  26.321  1.00  0.00     0.037 A 
ATOM     26  C   UNL A   1      40.227  30.240  29.888  1.00  0.00     0.037 A 
ATOM     27  C   UNL A   1      46.020  29.319  26.941  1.00  0.00     0.049 A 
ATOM     28  C   UNL A   1      41.481  31.053  29.812  1.00  0.00     0.074 A 
ATOM     29  C   UNL A   1      47.078  30.211  26.890  1.00  0.00     0.029 A 
ATOM     30  N   UNL A   1      45.038  29.907  27.727  1.00  0.00    -0.354 N 
ATOM     31  N   UNL A   1      42.585  30.797  29.153  1.00  0.00    -0.248 NA
ATOM     32  C   UNL A   1      41.508  32.296  30.586  1.00  0.00     0.031 C 
ATOM     33  C   UNL A   1      46.758  31.311  27.689  1.00  0.00     0.029 A 
ATOM     34  C   UNL A   1      45.482  31.132  28.200  1.00  0.00     0.049 A 
ATOM     35  H   UNL A   1      44.157  29.512  27.921  1.00  0.00     0.167 HD
ATOM     36  C   UNL A   1      43.448  31.837  29.449  1.00  0.00     0.074 A 
ATOM     37  C   UNL A   1      42.720  32.752  30.306  1.00  0.00     0.031 C 
ATOM     38  C   UNL A   1      44.736  32.011  29.063  1.00  0.00     0.037 A 
BRANCH  25  39
ATOM     39  C   UNL A   1      47.112  27.488  25.604  1.00  0.00     0.064 A 
ATOM     40  C   UNL A   1      47.331  27.715  24.239  1.00  0.00     0.173 A 
ATOM     41  C   UNL A   1      48.111  26.815  26.327  1.00  0.00     0.173 A 
ATOM     42  F   UNL A   1      46.403  28.340  23.501  1.00  0.00    -0.203 F 
ATOM     43  C   UNL A   1      48.509  27.292  23.624  1.00  0.00     0.198 A 
ATOM     44  C   UNL A   1      49.294  26.414  25.715  1.00  0.00     0.198 A 
ATOM     45  F   UNL A   1      47.949  26.573  27.637  1.00  0.00    -0.203 F 
ATOM     46  F   UNL A   1      48.693  27.505  22.315  1.00  0.00    -0.200 F 
ATOM     47  C   UNL A   1      49.493  26.653  24.365  1.00  0.00     0.200 A 
ATOM     48  F   UNL A   1      50.249  25.808  26.436  1.00  0.00    -0.200 F 
ATOM     49  F   UNL A   1      50.634  26.268  23.776  1.00  0.00    -0.200 F 
ENDBRANCH  25  39
BRANCH  26  50
ATOM     50  C   UNL A   1      39.058  30.666  30.702  1.00  0.00     0.064 A 
ATOM     51  C   UNL A   1      38.965  30.363  32.066  1.00  0.00     0.173 A 
ATOM     52  C   UNL A   1      38.009  31.404  30.127  1.00  0.00     0.173 A 
ATOM     53  F   UNL A   1      39.928  29.644  32.660  1.00  0.00    -0.203 F 
ATOM     54  C   UNL A   1      37.865  30.772  32.820  1.00  0.00     0.198 A 
ATOM     55  C   UNL A   1      36.933  31.848  30.890  1.00  0.00     0.198 A 
ATOM     56  F   UNL A   1      38.047  31.726  28.825  1.00  0.00    -0.203 F 
ATOM     57  F   UNL A   1      37.778  30.430  34.112  1.00  0.00    -0.200 F 
ATOM     58  C   UNL A   1      36.856  31.522  32.233  1.00  0.00     0.200 A 
ATOM     59  F   UNL A   1      35.977  32.597  30.322  1.00  0.00    -0.200 F 
ATOM     60  F   UNL A   1      35.807  31.927  32.962  1.00  0.00    -0.200 F 
ENDBRANCH  26  50
BRANCH  38  61
ATOM     61  C   UNL A   1      45.422  33.236  29.578  1.00  0.00     0.064 A 
ATOM     62  C   UNL A   1      46.165  33.207  30.767  1.00  0.00     0.173 A 
ATOM     63  C   UNL A   1      45.344  34.445  28.873  1.00  0.00     0.173 A 
ATOM     64  F   UNL A   1      46.244  32.077  31.486  1.00  0.00    -0.203 F 
ATOM     65  C   UNL A   1      46.788  34.355  31.245  1.00  0.00     0.198 A 
ATOM     66  C   UNL A   1      45.994  35.583  29.338  1.00  0.00     0.198 A 
ATOM     67  F   UNL A   1      44.644  34.519  27.731  1.00  0.00    -0.203 F 
ATOM     68  F   UNL A   1      47.449  34.320  32.410  1.00  0.00    -0.200 F 
ATOM     69  C   UNL A   1      46.708  35.539  30.527  1.00  0.00     0.200 A 
ATOM     70  F   UNL A   1      45.924  36.723  28.639  1.00  0.00    -0.200 F 
ATOM     71  F   UNL A   1      47.311  36.643  30.987  1.00  0.00    -0.200 F 
ENDBRANCH  38  61
ENDBRANCH  12  13
ENDBRANCH   5   7
ENDBRANCH   2   3
ENDBRANCH   1   2
BRANCH   1  72
ATOM     72  C   UNL A   1      34.407  24.915  24.672  1.00  0.00     0.117 C 
BRANCH  72  73
ATOM     73  N   UNL A   1      33.282  25.129  25.741  1.00  0.00    -0.354 N 
ATOM     74  C   UNL A   1      31.860  25.746  25.822  1.00  0.00     0.242 C 
ATOM     75  H   UNL A   1      33.557  24.768  26.615  1.00  0.00     0.163 HD
ATOM     76  O   UNL A   1      31.497  25.183  26.892  1.00  0.00    -0.273 OA
BRANCH  74  77
ATOM     77  C   UNL A   1      30.816  27.132  24.559  1.00  0.00     0.174 C 
ATOM     78  C   UNL A   1      29.210  26.848  23.758  1.00  0.00     0.036 C 
ATOM     79  N   UNL A   1      30.849  28.717  24.676  1.00  0.00    -0.327 N 
ATOM     80  C   UNL A   1      28.767  27.860  22.763  1.00  0.00     0.008 C 
ATOM     81  C   UNL A   1      30.069  29.655  23.801  1.00  0.00     0.089 C 
ATOM     82  C   UNL A   1      28.649  29.158  23.501  1.00  0.00     0.012 C 
ATOM     83  C   UNL A   1      29.959  31.100  24.342  1.00  0.00     0.025 C 
ATOM     84  C   UNL A   1      27.785  30.076  22.639  1.00  0.00     0.006 C 
ATOM     85  C   UNL A   1      29.138  32.001  23.411  1.00  0.00     0.002 C 
ATOM     86  C   UNL A   1      27.727  31.473  23.210  1.00  0.00     0.000 C 
BRANCH  79  87
ATOM     87  C   UNL A   1      32.126  29.107  25.052  1.00  0.00     0.227 C 
ATOM     88  O   UNL A   1      33.117  29.328  24.387  1.00  0.00    -0.275 OA
BRANCH  87  89
ATOM     89  C   UNL A   1      32.021  29.185  26.512  1.00  0.00     0.090 C 
ATOM     90  C   UNL A   1      33.606  28.279  26.941  1.00  0.00     0.075 C 
ATOM     91  C   UNL A   1      31.804  31.024  26.876  1.00  0.00     0.075 C 
ATOM     92  C   UNL A   1      35.153  29.328  27.251  1.00  0.00     0.261 C 
ATOM     93  C   UNL A   1      33.305  32.022  27.510  1.00  0.00     0.261 C 
ATOM     94  N   UNL A   1      34.992  31.221  27.627  1.00  0.00    -0.346 N 
ATOM     95  H   UNL A   1      35.601  31.709  26.972  1.00  0.00     0.346 HD
ATOM     96  H   UNL A   1      35.233  31.297  28.615  1.00  0.00     0.346 HD
ENDBRANCH  87  89
ENDBRANCH  79  87
ENDBRANCH  74  77
ENDBRANCH  72  73
ENDBRANCH   1  72
TORSDOF 12
ENDMDL
