MODEL 1
REMARK VINA RESULT:     -11.5      0.000      0.000
REMARK SMILES O=C(CCCC(=O)Nc1nc2n(n1)[C@@H](c1ccc(Cl)cc1)C[C@@H](c1ccc(Cl)cc1)N2)NCCCNC(=O)c1ccc(-c2c3nc(c(-c4c(F)c(F)c(F)c(F)c4F)c4ccc([nH]4)c(-c4c(F)c(F)c(F)c(F)c4F)c4nc(c(-c5c(F)c(F)c(F)c(F)c5F)c5ccc2[nH]5)C=C4)C=C3)cc1
REMARK SMILES IDX 1 1 2 2 32 3 3 5 4 6 5 7 6 8 7 9 8 10 9 12 10 13 13 14 11 15
REMARK SMILES IDX 12 16 31 17 14 18 23 19 22 21 15 22 16 23 21 24 17 25 20 26
REMARK SMILES IDX 18 27 19 28 24 29 25 30 30 31 26 32 29 33 27 34 28 35 33 36
REMARK SMILES IDX 34 37 35 38 36 39 37 40 38 42 39 43 40 44 101 45 41 46
REMARK SMILES IDX 100 47 42 48 43 49 44 50 94 51 45 52 99 53 93 54 95 55 46 56
REMARK SMILES IDX 98 57 92 58 91 59 47 61 79 62 59 63 78 64 60 65 63 66 77 67
REMARK SMILES IDX 96 68 61 69 62 70 76 72 97 73 64 74 48 75 49 76 57 77 50 78
REMARK SMILES IDX 51 79 55 80 58 81 52 82 53 83 56 84 54 85 80 86 81 87 89 88
REMARK SMILES IDX 82 89 83 90 87 91 90 92 84 93 85 94 88 95 86 96 65 97 66 98
REMARK SMILES IDX 74 99 67 100 68 101 72 102 75 103 69 104 70 105 73 106
REMARK SMILES IDX 71 107
REMARK H PARENT 32 4 8 11 31 20 36 41 95 60 63 71
REMARK Flexibility Score: inf
ROOT
ATOM      1  O   UNL A   1      47.128  30.830  27.425  1.00  0.00    -0.275 OA
ATOM      2  C   UNL A   1      46.518  30.461  26.426  1.00  0.00     0.220 C 
ATOM      3  N   UNL A   1      45.667  31.284  25.734  1.00  0.00    -0.356 N 
ATOM      4  H   UNL A   1      45.376  30.993  24.839  1.00  0.00     0.163 HD
ENDROOT
BRANCH   2   5
ATOM      5  C   UNL A   1      46.686  29.052  25.865  1.00  0.00     0.100 C 
BRANCH   5   6
ATOM      6  C   UNL A   1      47.962  28.300  26.240  1.00  0.00     0.020 C 
BRANCH   6   7
ATOM      7  C   UNL A   1      48.879  27.660  25.193  1.00  0.00     0.101 C 
BRANCH   7   8
ATOM      8  C   UNL A   1      48.562  26.515  24.200  1.00  0.00     0.226 C 
ATOM      9  O   UNL A   1      49.233  26.477  23.155  1.00  0.00    -0.275 OA
ATOM     10  N   UNL A   1      47.860  25.378  24.484  1.00  0.00    -0.293 N 
ATOM     11  H   UNL A   1      48.275  24.554  24.139  1.00  0.00     0.173 HD
BRANCH  10  12
ATOM     12  C   UNL A   1      46.689  25.172  25.156  1.00  0.00     0.250 A 
ATOM     13  N   UNL A   1      45.554  25.750  24.735  1.00  0.00    -0.176 NA
ATOM     14  N   UNL A   1      46.557  24.406  26.256  1.00  0.00    -0.130 NA
ATOM     15  C   UNL A   1      44.673  25.445  25.646  1.00  0.00     0.224 A 
ATOM     16  N   UNL A   1      45.254  24.641  26.600  1.00  0.00    -0.222 N 
ATOM     17  N   UNL A   1      43.410  25.885  25.732  1.00  0.00    -0.347 N 
ATOM     18  C   UNL A   1      44.512  24.046  27.750  1.00  0.00     0.144 C 
ATOM     19  C   UNL A   1      42.646  25.704  26.945  1.00  0.00     0.115 C 
ATOM     20  H   UNL A   1      42.998  26.337  24.962  1.00  0.00     0.164 HD
ATOM     21  C   UNL A   1      42.986  24.298  27.501  1.00  0.00     0.062 C 
BRANCH  18  22
ATOM     22  C   UNL A   1      44.953  24.482  29.168  1.00  0.00    -0.023 A 
ATOM     23  C   UNL A   1      44.374  23.901  30.321  1.00  0.00     0.007 A 
ATOM     24  C   UNL A   1      45.915  25.475  29.400  1.00  0.00     0.007 A 
ATOM     25  C   UNL A   1      44.558  24.441  31.599  1.00  0.00     0.021 A 
ATOM     26  C   UNL A   1      46.100  26.027  30.679  1.00  0.00     0.021 A 
ATOM     27  C   UNL A   1      45.383  25.540  31.765  1.00  0.00     0.041 A 
ATOM     28  Cl  UNL A   1      45.510  26.294  33.303  1.00  0.00    -0.084 Cl
ENDBRANCH  18  22
BRANCH  19  29
ATOM     29  C   UNL A   1      42.796  26.917  27.861  1.00  0.00    -0.025 A 
ATOM     30  C   UNL A   1      43.096  28.197  27.377  1.00  0.00     0.007 A 
ATOM     31  C   UNL A   1      42.584  26.808  29.245  1.00  0.00     0.007 A 
ATOM     32  C   UNL A   1      43.310  29.290  28.220  1.00  0.00     0.021 A 
ATOM     33  C   UNL A   1      42.729  27.919  30.094  1.00  0.00     0.021 A 
ATOM     34  C   UNL A   1      43.115  29.151  29.581  1.00  0.00     0.041 A 
ATOM     35  Cl  UNL A   1      43.336  30.507  30.612  1.00  0.00    -0.084 Cl
ENDBRANCH  19  29
ENDBRANCH  10  12
ENDBRANCH   7   8
ENDBRANCH   6   7
ENDBRANCH   5   6
ENDBRANCH   2   5
BRANCH   3  36
ATOM     36  C   UNL A   1      45.163  32.550  26.226  1.00  0.00     0.117 C 
BRANCH  36  37
ATOM     37  C   UNL A   1      44.130  33.155  25.273  1.00  0.00     0.042 C 
BRANCH  37  38
ATOM     38  C   UNL A   1      43.745  34.577  25.629  1.00  0.00     0.118 C 
BRANCH  38  39
ATOM     39  N   UNL A   1      44.893  35.389  26.039  1.00  0.00    -0.352 N 
ATOM     40  C   UNL A   1      45.052  36.106  27.211  1.00  0.00     0.251 C 
ATOM     41  H   UNL A   1      45.644  35.430  25.403  1.00  0.00     0.163 HD
ATOM     42  O   UNL A   1      45.893  36.995  27.306  1.00  0.00    -0.269 OA
BRANCH  40  43
ATOM     43  C   UNL A   1      44.165  35.792  28.342  1.00  0.00     0.039 A 
ATOM     44  C   UNL A   1      42.994  36.511  28.587  1.00  0.00     0.014 A 
ATOM     45  C   UNL A   1      44.478  34.667  29.093  1.00  0.00     0.014 A 
ATOM     46  C   UNL A   1      42.091  36.010  29.521  1.00  0.00     0.010 A 
ATOM     47  C   UNL A   1      43.495  34.061  29.828  1.00  0.00     0.010 A 
ATOM     48  C   UNL A   1      42.325  34.753  30.109  1.00  0.00    -0.014 A 
BRANCH  48  49
ATOM     49  C   UNL A   1      41.304  34.101  30.928  1.00  0.00     0.031 A 
ATOM     50  C   UNL A   1      41.730  33.842  32.328  1.00  0.00     0.074 A 
ATOM     51  C   UNL A   1      40.021  33.921  30.533  1.00  0.00     0.049 A 
ATOM     52  N   UNL A   1      41.989  32.696  32.864  1.00  0.00    -0.248 NA
ATOM     53  C   UNL A   1      42.057  34.986  33.198  1.00  0.00     0.031 C 
ATOM     54  C   UNL A   1      39.379  34.426  29.311  1.00  0.00     0.029 A 
ATOM     55  N   UNL A   1      38.974  33.337  31.191  1.00  0.00    -0.354 N 
ATOM     56  C   UNL A   1      42.254  32.957  34.206  1.00  0.00     0.074 A 
ATOM     57  C   UNL A   1      42.491  34.371  34.302  1.00  0.00     0.031 C 
ATOM     58  C   UNL A   1      38.037  34.373  29.438  1.00  0.00     0.029 A 
ATOM     59  C   UNL A   1      37.728  33.620  30.636  1.00  0.00     0.049 A 
ATOM     60  H   UNL A   1      39.090  32.766  31.986  1.00  0.00     0.167 HD
ATOM     61  C   UNL A   1      41.918  32.034  35.151  1.00  0.00     0.037 A 
ATOM     62  C   UNL A   1      36.512  33.242  31.091  1.00  0.00     0.037 A 
ATOM     63  C   UNL A   1      41.610  30.770  34.529  1.00  0.00     0.049 A 
ATOM     64  C   UNL A   1      36.707  32.066  31.963  1.00  0.00     0.074 A 
ATOM     65  C   UNL A   1      42.305  29.710  33.993  1.00  0.00     0.029 A 
ATOM     66  N   UNL A   1      40.328  30.699  34.057  1.00  0.00    -0.354 N 
ATOM     67  N   UNL A   1      37.108  30.906  31.522  1.00  0.00    -0.248 NA
ATOM     68  C   UNL A   1      36.792  32.255  33.407  1.00  0.00     0.031 C 
ATOM     69  C   UNL A   1      41.410  29.058  33.089  1.00  0.00     0.029 A 
ATOM     70  C   UNL A   1      40.181  29.709  33.126  1.00  0.00     0.049 A 
ATOM     71  H   UNL A   1      39.599  31.289  34.353  1.00  0.00     0.167 HD
ATOM     72  C   UNL A   1      37.886  30.412  32.546  1.00  0.00     0.074 A 
ATOM     73  C   UNL A   1      37.505  31.172  33.730  1.00  0.00     0.031 C 
ATOM     74  C   UNL A   1      39.012  29.693  32.278  1.00  0.00     0.037 A 
BRANCH  61  75
ATOM     75  C   UNL A   1      41.348  32.350  36.522  1.00  0.00     0.064 A 
ATOM     76  C   UNL A   1      40.194  33.161  36.604  1.00  0.00     0.173 A 
ATOM     77  C   UNL A   1      42.058  32.191  37.732  1.00  0.00     0.173 A 
ATOM     78  F   UNL A   1      39.446  33.396  35.514  1.00  0.00    -0.203 F 
ATOM     79  C   UNL A   1      39.831  33.820  37.782  1.00  0.00     0.198 A 
ATOM     80  C   UNL A   1      41.664  32.812  38.918  1.00  0.00     0.198 A 
ATOM     81  F   UNL A   1      43.217  31.529  37.800  1.00  0.00    -0.203 F 
ATOM     82  F   UNL A   1      38.798  34.674  37.778  1.00  0.00    -0.200 F 
ATOM     83  C   UNL A   1      40.570  33.651  38.937  1.00  0.00     0.200 A 
ATOM     84  F   UNL A   1      42.408  32.654  40.021  1.00  0.00    -0.200 F 
ATOM     85  F   UNL A   1      40.264  34.328  40.051  1.00  0.00    -0.200 F 
ENDBRANCH  61  75
BRANCH  62  86
ATOM     86  C   UNL A   1      35.207  33.919  30.954  1.00  0.00     0.064 A 
ATOM     87  C   UNL A   1      34.807  34.924  31.848  1.00  0.00     0.173 A 
ATOM     88  C   UNL A   1      34.458  33.792  29.770  1.00  0.00     0.173 A 
ATOM     89  F   UNL A   1      35.491  35.127  32.983  1.00  0.00    -0.203 F 
ATOM     90  C   UNL A   1      33.743  35.781  31.554  1.00  0.00     0.198 A 
ATOM     91  C   UNL A   1      33.395  34.647  29.477  1.00  0.00     0.198 A 
ATOM     92  F   UNL A   1      34.816  32.903  28.831  1.00  0.00    -0.203 F 
ATOM     93  F   UNL A   1      33.433  36.774  32.399  1.00  0.00    -0.200 F 
ATOM     94  C   UNL A   1      33.049  35.652  30.362  1.00  0.00     0.200 A 
ATOM     95  F   UNL A   1      32.754  34.539  28.304  1.00  0.00    -0.200 F 
ATOM     96  F   UNL A   1      32.079  36.521  30.047  1.00  0.00    -0.200 F 
ENDBRANCH  62  86
BRANCH  74  97
ATOM     97  C   UNL A   1      39.083  28.979  30.967  1.00  0.00     0.064 A 
ATOM     98  C   UNL A   1      39.484  29.566  29.756  1.00  0.00     0.173 A 
ATOM     99  C   UNL A   1      38.775  27.613  30.957  1.00  0.00     0.173 A 
ATOM    100  F   UNL A   1      39.860  30.850  29.702  1.00  0.00    -0.203 F 
ATOM    101  C   UNL A   1      39.536  28.818  28.580  1.00  0.00     0.198 A 
ATOM    102  C   UNL A   1      38.861  26.862  29.790  1.00  0.00     0.198 A 
ATOM    103  F   UNL A   1      38.418  26.997  32.094  1.00  0.00    -0.203 F 
ATOM    104  F   UNL A   1      39.902  29.401  27.428  1.00  0.00    -0.200 F 
ATOM    105  C   UNL A   1      39.231  27.466  28.600  1.00  0.00     0.200 A 
ATOM    106  F   UNL A   1      38.602  25.548  29.825  1.00  0.00    -0.200 F 
ATOM    107  F   UNL A   1      39.309  26.740  27.476  1.00  0.00    -0.200 F 
ENDBRANCH  74  97
ENDBRANCH  48  49
ENDBRANCH  40  43
ENDBRANCH  38  39
ENDBRANCH  37  38
ENDBRANCH  36  37
ENDBRANCH   3  36
TORSDOF 16
ENDMDL
MODEL 2
REMARK VINA RESULT:     -11.4      6.314     11.401
REMARK SMILES O=C(CCCC(=O)Nc1nc2n(n1)[C@@H](c1ccc(Cl)cc1)C[C@@H](c1ccc(Cl)cc1)N2)NCCCNC(=O)c1ccc(-c2c3nc(c(-c4c(F)c(F)c(F)c(F)c4F)c4ccc([nH]4)c(-c4c(F)c(F)c(F)c(F)c4F)c4nc(c(-c5c(F)c(F)c(F)c(F)c5F)c5ccc2[nH]5)C=C4)C=C3)cc1
REMARK SMILES IDX 1 1 2 2 32 3 3 5 4 6 5 7 6 8 7 9 8 10 9 12 10 13 13 14 11 15
REMARK SMILES IDX 12 16 31 17 14 18 23 19 22 21 15 22 16 23 21 24 17 25 20 26
REMARK SMILES IDX 18 27 19 28 24 29 25 30 30 31 26 32 29 33 27 34 28 35 33 36
REMARK SMILES IDX 34 37 35 38 36 39 37 40 38 42 39 43 40 44 101 45 41 46
REMARK SMILES IDX 100 47 42 48 43 49 44 50 94 51 45 52 99 53 93 54 95 55 46 56
REMARK SMILES IDX 98 57 92 58 91 59 47 61 79 62 59 63 78 64 60 65 63 66 77 67
REMARK SMILES IDX 96 68 61 69 62 70 76 72 97 73 64 74 48 75 49 76 57 77 50 78
REMARK SMILES IDX 51 79 55 80 58 81 52 82 53 83 56 84 54 85 80 86 81 87 89 88
REMARK SMILES IDX 82 89 83 90 87 91 90 92 84 93 85 94 88 95 86 96 65 97 66 98
REMARK SMILES IDX 74 99 67 100 68 101 72 102 75 103 69 104 70 105 73 106
REMARK SMILES IDX 71 107
REMARK H PARENT 32 4 8 11 31 20 36 41 95 60 63 71
REMARK Flexibility Score: inf
ROOT
ATOM      1  O   UNL A   1      37.772  19.981  25.012  1.00  0.00    -0.275 OA
ATOM      2  C   UNL A   1      37.900  21.201  24.964  1.00  0.00     0.220 C 
ATOM      3  N   UNL A   1      38.927  21.861  25.588  1.00  0.00    -0.356 N 
ATOM      4  H   UNL A   1      39.084  22.801  25.340  1.00  0.00     0.163 HD
ENDROOT
BRANCH   2   5
ATOM      5  C   UNL A   1      36.926  22.074  24.178  1.00  0.00     0.100 C 
BRANCH   5   6
ATOM      6  C   UNL A   1      35.567  22.351  24.817  1.00  0.00     0.020 C 
BRANCH   6   7
ATOM      7  C   UNL A   1      34.870  21.346  25.739  1.00  0.00     0.101 C 
BRANCH   7   8
ATOM      8  C   UNL A   1      33.612  20.487  25.460  1.00  0.00     0.226 C 
ATOM      9  O   UNL A   1      33.791  19.269  25.292  1.00  0.00    -0.275 OA
ATOM     10  N   UNL A   1      32.318  20.861  25.689  1.00  0.00    -0.293 N 
ATOM     11  H   UNL A   1      31.773  20.170  26.132  1.00  0.00     0.173 HD
BRANCH  10  12
ATOM     12  C   UNL A   1      31.640  22.015  25.417  1.00  0.00     0.250 A 
ATOM     13  N   UNL A   1      31.194  22.264  24.177  1.00  0.00    -0.176 NA
ATOM     14  N   UNL A   1      31.360  22.975  26.319  1.00  0.00    -0.130 NA
ATOM     15  C   UNL A   1      30.705  23.470  24.239  1.00  0.00     0.224 A 
ATOM     16  N   UNL A   1      30.806  23.944  25.528  1.00  0.00    -0.222 N 
ATOM     17  N   UNL A   1      30.240  24.211  23.224  1.00  0.00    -0.347 N 
ATOM     18  C   UNL A   1      30.275  25.265  25.972  1.00  0.00     0.144 C 
ATOM     19  C   UNL A   1      30.007  25.627  23.389  1.00  0.00     0.115 C 
ATOM     20  H   UNL A   1      30.055  23.786  22.356  1.00  0.00     0.164 HD
ATOM     21  C   UNL A   1      29.405  25.836  24.801  1.00  0.00     0.062 C 
BRANCH  18  22
ATOM     22  C   UNL A   1      31.308  26.296  26.490  1.00  0.00    -0.023 A 
ATOM     23  C   UNL A   1      30.906  27.389  27.293  1.00  0.00     0.007 A 
ATOM     24  C   UNL A   1      32.674  26.231  26.184  1.00  0.00     0.007 A 
ATOM     25  C   UNL A   1      31.756  28.467  27.564  1.00  0.00     0.021 A 
ATOM     26  C   UNL A   1      33.533  27.312  26.446  1.00  0.00     0.021 A 
ATOM     27  C   UNL A   1      33.056  28.447  27.091  1.00  0.00     0.041 A 
ATOM     28  Cl  UNL A   1      34.067  29.821  27.300  1.00  0.00    -0.084 Cl
ENDBRANCH  18  22
BRANCH  19  29
ATOM     29  C   UNL A   1      31.246  26.426  22.987  1.00  0.00    -0.025 A 
ATOM     30  C   UNL A   1      32.354  25.839  22.364  1.00  0.00     0.007 A 
ATOM     31  C   UNL A   1      31.303  27.815  23.181  1.00  0.00     0.007 A 
ATOM     32  C   UNL A   1      33.518  26.553  22.067  1.00  0.00     0.021 A 
ATOM     33  C   UNL A   1      32.443  28.555  22.821  1.00  0.00     0.021 A 
ATOM     34  C   UNL A   1      33.556  27.916  22.288  1.00  0.00     0.041 A 
ATOM     35  Cl  UNL A   1      34.972  28.800  21.882  1.00  0.00    -0.084 Cl
ENDBRANCH  19  29
ENDBRANCH  10  12
ENDBRANCH   7   8
ENDBRANCH   6   7
ENDBRANCH   5   6
ENDBRANCH   2   5
BRANCH   3  36
ATOM     36  C   UNL A   1      39.798  21.274  26.587  1.00  0.00     0.117 C 
BRANCH  36  37
ATOM     37  C   UNL A   1      40.734  20.230  25.977  1.00  0.00     0.042 C 
BRANCH  37  38
ATOM     38  C   UNL A   1      42.036  20.073  26.736  1.00  0.00     0.118 C 
BRANCH  38  39
ATOM     39  N   UNL A   1      43.141  19.633  25.881  1.00  0.00    -0.352 N 
ATOM     40  C   UNL A   1      43.988  20.414  25.116  1.00  0.00     0.251 C 
ATOM     41  H   UNL A   1      43.301  18.662  25.846  1.00  0.00     0.163 HD
ATOM     42  O   UNL A   1      44.653  19.931  24.205  1.00  0.00    -0.269 OA
BRANCH  40  43
ATOM     43  C   UNL A   1      44.056  21.855  25.409  1.00  0.00     0.039 A 
ATOM     44  C   UNL A   1      43.162  22.768  24.848  1.00  0.00     0.014 A 
ATOM     45  C   UNL A   1      44.976  22.259  26.367  1.00  0.00     0.014 A 
ATOM     46  C   UNL A   1      43.134  24.065  25.353  1.00  0.00     0.010 A 
ATOM     47  C   UNL A   1      44.788  23.451  27.011  1.00  0.00     0.010 A 
ATOM     48  C   UNL A   1      43.922  24.393  26.472  1.00  0.00    -0.014 A 
BRANCH  48  49
ATOM     49  C   UNL A   1      43.764  25.675  27.157  1.00  0.00     0.031 A 
ATOM     50  C   UNL A   1      44.763  26.699  26.755  1.00  0.00     0.074 A 
ATOM     51  C   UNL A   1      42.701  25.989  27.936  1.00  0.00     0.049 A 
ATOM     52  N   UNL A   1      45.738  27.158  27.467  1.00  0.00    -0.248 NA
ATOM     53  C   UNL A   1      44.786  27.162  25.356  1.00  0.00     0.031 C 
ATOM     54  C   UNL A   1      41.481  25.198  28.150  1.00  0.00     0.029 A 
ATOM     55  N   UNL A   1      42.428  27.138  28.625  1.00  0.00    -0.354 N 
ATOM     56  C   UNL A   1      46.332  28.155  26.698  1.00  0.00     0.074 A 
ATOM     57  C   UNL A   1      45.854  27.967  25.355  1.00  0.00     0.031 C 
ATOM     58  C   UNL A   1      40.511  25.978  28.670  1.00  0.00     0.029 A 
ATOM     59  C   UNL A   1      41.104  27.245  29.043  1.00  0.00     0.049 A 
ATOM     60  H   UNL A   1      43.106  27.828  28.811  1.00  0.00     0.167 HD
ATOM     61  C   UNL A   1      46.891  29.236  27.311  1.00  0.00     0.037 A 
ATOM     62  C   UNL A   1      40.518  28.281  29.686  1.00  0.00     0.037 A 
ATOM     63  C   UNL A   1      47.036  28.990  28.724  1.00  0.00     0.049 A 
ATOM     64  C   UNL A   1      41.587  29.063  30.339  1.00  0.00     0.074 A 
ATOM     65  C   UNL A   1      47.896  28.299  29.548  1.00  0.00     0.029 A 
ATOM     66  N   UNL A   1      45.891  29.226  29.434  1.00  0.00    -0.354 N 
ATOM     67  N   UNL A   1      42.304  28.611  31.330  1.00  0.00    -0.248 NA
ATOM     68  C   UNL A   1      42.116  30.246  29.667  1.00  0.00     0.031 C 
ATOM     69  C   UNL A   1      47.173  28.034  30.752  1.00  0.00     0.029 A 
ATOM     70  C   UNL A   1      45.907  28.603  30.651  1.00  0.00     0.049 A 
ATOM     71  H   UNL A   1      45.144  29.777  29.108  1.00  0.00     0.167 HD
ATOM     72  C   UNL A   1      43.548  29.163  31.119  1.00  0.00     0.074 A 
ATOM     73  C   UNL A   1      43.331  30.289  30.220  1.00  0.00     0.031 C 
ATOM     74  C   UNL A   1      44.679  28.452  31.394  1.00  0.00     0.037 A 
BRANCH  61  75
ATOM     75  C   UNL A   1      46.818  30.666  26.806  1.00  0.00     0.064 A 
ATOM     76  C   UNL A   1      47.989  31.455  26.838  1.00  0.00     0.173 A 
ATOM     77  C   UNL A   1      45.615  31.381  26.623  1.00  0.00     0.173 A 
ATOM     78  F   UNL A   1      49.191  30.886  27.020  1.00  0.00    -0.203 F 
ATOM     79  C   UNL A   1      47.946  32.851  26.773  1.00  0.00     0.198 A 
ATOM     80  C   UNL A   1      45.582  32.772  26.510  1.00  0.00     0.198 A 
ATOM     81  F   UNL A   1      44.417  30.790  26.659  1.00  0.00    -0.203 F 
ATOM     82  F   UNL A   1      49.071  33.561  26.932  1.00  0.00    -0.200 F 
ATOM     83  C   UNL A   1      46.741  33.509  26.617  1.00  0.00     0.200 A 
ATOM     84  F   UNL A   1      44.401  33.392  26.382  1.00  0.00    -0.200 F 
ATOM     85  F   UNL A   1      46.688  34.848  26.617  1.00  0.00    -0.200 F 
ENDBRANCH  61  75
BRANCH  62  86
ATOM     86  C   UNL A   1      39.114  28.735  29.650  1.00  0.00     0.064 A 
ATOM     87  C   UNL A   1      38.323  28.760  30.810  1.00  0.00     0.173 A 
ATOM     88  C   UNL A   1      38.616  29.426  28.531  1.00  0.00     0.173 A 
ATOM     89  F   UNL A   1      38.746  28.151  31.927  1.00  0.00    -0.203 F 
ATOM     90  C   UNL A   1      37.122  29.472  30.859  1.00  0.00     0.198 A 
ATOM     91  C   UNL A   1      37.415  30.136  28.579  1.00  0.00     0.198 A 
ATOM     92  F   UNL A   1      39.341  29.510  27.405  1.00  0.00    -0.203 F 
ATOM     93  F   UNL A   1      36.428  29.532  32.004  1.00  0.00    -0.200 F 
ATOM     94  C   UNL A   1      36.677  30.172  29.749  1.00  0.00     0.200 A 
ATOM     95  F   UNL A   1      37.013  30.842  27.513  1.00  0.00    -0.200 F 
ATOM     96  F   UNL A   1      35.565  30.916  29.820  1.00  0.00    -0.200 F 
ENDBRANCH  62  86
BRANCH  74  97
ATOM     97  C   UNL A   1      44.582  27.365  32.415  1.00  0.00     0.064 A 
ATOM     98  C   UNL A   1      44.370  26.008  32.121  1.00  0.00     0.173 A 
ATOM     99  C   UNL A   1      44.767  27.719  33.757  1.00  0.00     0.173 A 
ATOM    100  F   UNL A   1      44.255  25.585  30.857  1.00  0.00    -0.203 F 
ATOM    101  C   UNL A   1      44.310  25.056  33.139  1.00  0.00     0.198 A 
ATOM    102  C   UNL A   1      44.741  26.764  34.766  1.00  0.00     0.198 A 
ATOM    103  F   UNL A   1      45.005  28.998  34.087  1.00  0.00    -0.203 F 
ATOM    104  F   UNL A   1      44.087  23.767  32.842  1.00  0.00    -0.200 F 
ATOM    105  C   UNL A   1      44.502  25.434  34.460  1.00  0.00     0.200 A 
ATOM    106  F   UNL A   1      44.965  27.131  36.035  1.00  0.00    -0.200 F 
ATOM    107  F   UNL A   1      44.473  24.516  35.435  1.00  0.00    -0.200 F 
ENDBRANCH  74  97
ENDBRANCH  48  49
ENDBRANCH  40  43
ENDBRANCH  38  39
ENDBRANCH  37  38
ENDBRANCH  36  37
ENDBRANCH   3  36
TORSDOF 16
ENDMDL
MODEL 3
REMARK VINA RESULT:     -11.1      5.968     10.142
REMARK SMILES O=C(CCCC(=O)Nc1nc2n(n1)[C@@H](c1ccc(Cl)cc1)C[C@@H](c1ccc(Cl)cc1)N2)NCCCNC(=O)c1ccc(-c2c3nc(c(-c4c(F)c(F)c(F)c(F)c4F)c4ccc([nH]4)c(-c4c(F)c(F)c(F)c(F)c4F)c4nc(c(-c5c(F)c(F)c(F)c(F)c5F)c5ccc2[nH]5)C=C4)C=C3)cc1
REMARK SMILES IDX 1 1 2 2 32 3 3 5 4 6 5 7 6 8 7 9 8 10 9 12 10 13 13 14 11 15
REMARK SMILES IDX 12 16 31 17 14 18 23 19 22 21 15 22 16 23 21 24 17 25 20 26
REMARK SMILES IDX 18 27 19 28 24 29 25 30 30 31 26 32 29 33 27 34 28 35 33 36
REMARK SMILES IDX 34 37 35 38 36 39 37 40 38 42 39 43 40 44 101 45 41 46
REMARK SMILES IDX 100 47 42 48 43 49 44 50 94 51 45 52 99 53 93 54 95 55 46 56
REMARK SMILES IDX 98 57 92 58 91 59 47 61 79 62 59 63 78 64 60 65 63 66 77 67
REMARK SMILES IDX 96 68 61 69 62 70 76 72 97 73 64 74 48 75 49 76 57 77 50 78
REMARK SMILES IDX 51 79 55 80 58 81 52 82 53 83 56 84 54 85 80 86 81 87 89 88
REMARK SMILES IDX 82 89 83 90 87 91 90 92 84 93 85 94 88 95 86 96 65 97 66 98
REMARK SMILES IDX 74 99 67 100 68 101 72 102 75 103 69 104 70 105 73 106
REMARK SMILES IDX 71 107
REMARK H PARENT 32 4 8 11 31 20 36 41 95 60 63 71
REMARK Flexibility Score: inf
ROOT
ATOM      1  O   UNL A   1      37.486  21.090  24.533  1.00  0.00    -0.275 OA
ATOM      2  C   UNL A   1      37.452  22.168  25.118  1.00  0.00     0.220 C 
ATOM      3  N   UNL A   1      38.512  22.651  25.842  1.00  0.00    -0.356 N 
ATOM      4  H   UNL A   1      38.491  23.599  26.107  1.00  0.00     0.163 HD
ENDROOT
BRANCH   2   5
ATOM      5  C   UNL A   1      36.221  23.069  25.058  1.00  0.00     0.100 C 
BRANCH   5   6
ATOM      6  C   UNL A   1      35.190  22.913  26.175  1.00  0.00     0.020 C 
BRANCH   6   7
ATOM      7  C   UNL A   1      34.629  21.551  26.595  1.00  0.00     0.101 C 
BRANCH   7   8
ATOM      8  C   UNL A   1      33.480  20.737  25.949  1.00  0.00     0.226 C 
ATOM      9  O   UNL A   1      33.713  19.545  25.692  1.00  0.00    -0.275 OA
ATOM     10  N   UNL A   1      32.161  21.093  25.925  1.00  0.00    -0.293 N 
ATOM     11  H   UNL A   1      31.544  20.361  26.157  1.00  0.00     0.173 HD
BRANCH  10  12
ATOM     12  C   UNL A   1      31.539  22.274  25.638  1.00  0.00     0.250 A 
ATOM     13  N   UNL A   1      31.072  22.514  24.403  1.00  0.00    -0.176 NA
ATOM     14  N   UNL A   1      31.337  23.273  26.519  1.00  0.00    -0.130 NA
ATOM     15  C   UNL A   1      30.651  23.746  24.444  1.00  0.00     0.224 A 
ATOM     16  N   UNL A   1      30.814  24.248  25.715  1.00  0.00    -0.222 N 
ATOM     17  N   UNL A   1      30.198  24.483  23.421  1.00  0.00    -0.347 N 
ATOM     18  C   UNL A   1      30.369  25.609  26.135  1.00  0.00     0.144 C 
ATOM     19  C   UNL A   1      30.047  25.914  23.550  1.00  0.00     0.115 C 
ATOM     20  H   UNL A   1      29.966  24.045  22.571  1.00  0.00     0.164 HD
ATOM     21  C   UNL A   1      29.498  26.194  24.972  1.00  0.00     0.062 C 
BRANCH  18  22
ATOM     22  C   UNL A   1      31.471  26.595  26.594  1.00  0.00    -0.023 A 
ATOM     23  C   UNL A   1      31.153  27.727  27.381  1.00  0.00     0.007 A 
ATOM     24  C   UNL A   1      32.822  26.449  26.249  1.00  0.00     0.007 A 
ATOM     25  C   UNL A   1      32.067  28.764  27.598  1.00  0.00     0.021 A 
ATOM     26  C   UNL A   1      33.744  27.489  26.457  1.00  0.00     0.021 A 
ATOM     27  C   UNL A   1      33.349  28.663  27.087  1.00  0.00     0.041 A 
ATOM     28  Cl  UNL A   1      34.437  29.985  27.229  1.00  0.00    -0.084 Cl
ENDBRANCH  18  22
BRANCH  19  29
ATOM     29  C   UNL A   1      31.315  26.631  23.092  1.00  0.00    -0.025 A 
ATOM     30  C   UNL A   1      32.386  25.962  22.485  1.00  0.00     0.007 A 
ATOM     31  C   UNL A   1      31.441  28.025  23.215  1.00  0.00     0.007 A 
ATOM     32  C   UNL A   1      33.576  26.604  22.137  1.00  0.00     0.021 A 
ATOM     33  C   UNL A   1      32.609  28.690  22.803  1.00  0.00     0.021 A 
ATOM     34  C   UNL A   1      33.682  27.974  22.288  1.00  0.00     0.041 A 
ATOM     35  Cl  UNL A   1      35.131  28.768  21.818  1.00  0.00    -0.084 Cl
ENDBRANCH  19  29
ENDBRANCH  10  12
ENDBRANCH   7   8
ENDBRANCH   6   7
ENDBRANCH   5   6
ENDBRANCH   2   5
BRANCH   3  36
ATOM     36  C   UNL A   1      39.660  21.865  26.245  1.00  0.00     0.117 C 
BRANCH  36  37
ATOM     37  C   UNL A   1      40.346  22.458  27.477  1.00  0.00     0.042 C 
BRANCH  37  38
ATOM     38  C   UNL A   1      41.812  22.088  27.585  1.00  0.00     0.118 C 
BRANCH  38  39
ATOM     39  N   UNL A   1      42.599  22.548  26.438  1.00  0.00    -0.352 N 
ATOM     40  C   UNL A   1      42.725  23.838  25.956  1.00  0.00     0.251 C 
ATOM     41  H   UNL A   1      43.098  21.854  25.950  1.00  0.00     0.163 HD
ATOM     42  O   UNL A   1      43.137  24.057  24.820  1.00  0.00    -0.269 OA
BRANCH  40  43
ATOM     43  C   UNL A   1      42.330  24.950  26.835  1.00  0.00     0.039 A 
ATOM     44  C   UNL A   1      43.052  25.279  27.983  1.00  0.00     0.014 A 
ATOM     45  C   UNL A   1      41.271  25.741  26.411  1.00  0.00     0.014 A 
ATOM     46  C   UNL A   1      42.763  26.479  28.627  1.00  0.00     0.010 A 
ATOM     47  C   UNL A   1      41.150  27.012  26.902  1.00  0.00     0.010 A 
ATOM     48  C   UNL A   1      41.838  27.370  28.054  1.00  0.00    -0.014 A 
BRANCH  48  49
ATOM     49  C   UNL A   1      41.664  28.722  28.583  1.00  0.00     0.031 A 
ATOM     50  C   UNL A   1      42.715  29.679  28.148  1.00  0.00     0.074 A 
ATOM     51  C   UNL A   1      40.557  29.139  29.244  1.00  0.00     0.049 A 
ATOM     52  N   UNL A   1      43.648  30.196  28.876  1.00  0.00    -0.248 NA
ATOM     53  C   UNL A   1      42.850  29.986  26.713  1.00  0.00     0.031 C 
ATOM     54  C   UNL A   1      39.304  28.397  29.451  1.00  0.00     0.029 A 
ATOM     55  N   UNL A   1      40.264  30.361  29.783  1.00  0.00    -0.354 N 
ATOM     56  C   UNL A   1      44.321  31.092  28.050  1.00  0.00     0.074 A 
ATOM     57  C   UNL A   1      43.935  30.766  26.704  1.00  0.00     0.031 C 
ATOM     58  C   UNL A   1      38.320  29.246  29.811  1.00  0.00     0.029 A 
ATOM     59  C   UNL A   1      38.917  30.536  30.088  1.00  0.00     0.049 A 
ATOM     60  H   UNL A   1      40.945  31.054  29.942  1.00  0.00     0.167 HD
ATOM     61  C   UNL A   1      44.861  32.223  28.583  1.00  0.00     0.037 A 
ATOM     62  C   UNL A   1      38.313  31.646  30.571  1.00  0.00     0.037 A 
ATOM     63  C   UNL A   1      44.899  32.131  30.021  1.00  0.00     0.049 A 
ATOM     64  C   UNL A   1      39.352  32.476  31.212  1.00  0.00     0.074 A 
ATOM     65  C   UNL A   1      45.680  31.520  30.976  1.00  0.00     0.029 A 
ATOM     66  N   UNL A   1      43.712  32.463  30.615  1.00  0.00    -0.354 N 
ATOM     67  N   UNL A   1      39.985  32.122  32.296  1.00  0.00    -0.248 NA
ATOM     68  C   UNL A   1      39.957  33.569  30.457  1.00  0.00     0.031 C 
ATOM     69  C   UNL A   1      44.867  31.401  32.145  1.00  0.00     0.029 A 
ATOM     70  C   UNL A   1      43.626  31.977  31.890  1.00  0.00     0.049 A 
ATOM     71  H   UNL A   1      43.005  32.989  30.177  1.00  0.00     0.167 HD
ATOM     72  C   UNL A   1      41.255  32.626  32.119  1.00  0.00     0.074 A 
ATOM     73  C   UNL A   1      41.131  33.651  31.091  1.00  0.00     0.031 C 
ATOM     74  C   UNL A   1      42.344  31.930  32.552  1.00  0.00     0.037 A 
BRANCH  61  75
ATOM     75  C   UNL A   1      44.861  33.590  27.922  1.00  0.00     0.064 A 
ATOM     76  C   UNL A   1      46.101  34.203  27.635  1.00  0.00     0.173 A 
ATOM     77  C   UNL A   1      43.741  34.449  27.876  1.00  0.00     0.173 A 
ATOM     78  F   UNL A   1      47.237  33.490  27.661  1.00  0.00    -0.203 F 
ATOM     79  C   UNL A   1      46.215  35.577  27.403  1.00  0.00     0.198 A 
ATOM     80  C   UNL A   1      43.854  35.811  27.596  1.00  0.00     0.198 A 
ATOM     81  F   UNL A   1      42.512  34.041  28.210  1.00  0.00    -0.203 F 
ATOM     82  F   UNL A   1      47.426  36.131  27.257  1.00  0.00    -0.200 F 
ATOM     83  C   UNL A   1      45.092  36.382  27.390  1.00  0.00     0.200 A 
ATOM     84  F   UNL A   1      42.755  36.578  27.612  1.00  0.00    -0.200 F 
ATOM     85  F   UNL A   1      45.201  37.707  27.231  1.00  0.00    -0.200 F 
ENDBRANCH  61  75
BRANCH  62  86
ATOM     86  C   UNL A   1      36.927  32.117  30.382  1.00  0.00     0.064 A 
ATOM     87  C   UNL A   1      36.026  32.188  31.456  1.00  0.00     0.173 A 
ATOM     88  C   UNL A   1      36.553  32.782  29.199  1.00  0.00     0.173 A 
ATOM     89  F   UNL A   1      36.326  31.607  32.626  1.00  0.00    -0.203 F 
ATOM     90  C   UNL A   1      34.837  32.918  31.365  1.00  0.00     0.198 A 
ATOM     91  C   UNL A   1      35.366  33.509  29.108  1.00  0.00     0.198 A 
ATOM     92  F   UNL A   1      37.387  32.822  28.149  1.00  0.00    -0.203 F 
ATOM     93  F   UNL A   1      34.035  33.021  32.433  1.00  0.00    -0.200 F 
ATOM     94  C   UNL A   1      34.516  33.590  30.197  1.00  0.00     0.200 A 
ATOM     95  F   UNL A   1      35.083  34.188  27.987  1.00  0.00    -0.200 F 
ATOM     96  F   UNL A   1      33.415  34.351  30.136  1.00  0.00    -0.200 F 
ENDBRANCH  62  86
BRANCH  74  97
ATOM     97  C   UNL A   1      42.147  30.963  33.674  1.00  0.00     0.064 A 
ATOM     98  C   UNL A   1      42.139  31.306  35.035  1.00  0.00     0.173 A 
ATOM     99  C   UNL A   1      41.900  29.625  33.339  1.00  0.00     0.173 A 
ATOM    100  F   UNL A   1      42.297  32.576  35.428  1.00  0.00    -0.203 F 
ATOM    101  C   UNL A   1      41.930  30.337  36.017  1.00  0.00     0.198 A 
ATOM    102  C   UNL A   1      41.658  28.669  34.317  1.00  0.00     0.198 A 
ATOM    103  F   UNL A   1      41.864  29.252  32.050  1.00  0.00    -0.203 F 
ATOM    104  F   UNL A   1      41.946  30.679  37.314  1.00  0.00    -0.200 F 
ATOM    105  C   UNL A   1      41.683  29.021  35.656  1.00  0.00     0.200 A 
ATOM    106  F   UNL A   1      41.382  27.407  33.959  1.00  0.00    -0.200 F 
ATOM    107  F   UNL A   1      41.453  28.096  36.598  1.00  0.00    -0.200 F 
ENDBRANCH  74  97
ENDBRANCH  48  49
ENDBRANCH  40  43
ENDBRANCH  38  39
ENDBRANCH  37  38
ENDBRANCH  36  37
ENDBRANCH   3  36
TORSDOF 16
ENDMDL
