MODEL 1
REMARK VINA RESULT:     -10.4      0.000      0.000
REMARK SMILES C[C@@H](CCO)Sc1cc(C(=O)NCCCNC(=O)c2ccc(-c3c4nc(c(-c5c(F)c(F)c(F)c(F)c5F)c5ccc([nH]5)c(-c5c(F)c(F)c(F)c(F)c5F)c5nc(c(-c6c(F)c(F)c(F)c(F)c6F)c6ccc3[nH]6)C=C5)C=C4)cc2)c2ccccc2n1
REMARK SMILES IDX 10 1 11 2 12 3 9 5 7 6 8 7 88 8 87 9 82 10 86 11 83 12 85 13
REMARK SMILES IDX 84 14 6 15 2 16 1 17 3 18 4 19 5 20 13 22 14 23 15 24 16 25
REMARK SMILES IDX 17 26 18 28 19 29 20 30 81 31 21 32 80 33 22 34 23 35 24 36
REMARK SMILES IDX 74 37 25 38 79 39 73 40 75 41 26 42 78 43 72 44 71 45 27 47
REMARK SMILES IDX 59 48 39 49 58 50 40 51 43 52 57 53 76 54 41 55 42 56 56 58
REMARK SMILES IDX 77 59 44 60 28 61 29 62 37 63 30 64 31 65 35 66 38 67 32 68
REMARK SMILES IDX 33 69 36 70 34 71 60 72 61 73 69 74 62 75 63 76 67 77 70 78
REMARK SMILES IDX 64 79 65 80 68 81 66 82 45 83 46 84 54 85 47 86 48 87 52 88
REMARK SMILES IDX 55 89 49 90 50 91 53 92 51 93
REMARK H PARENT 12 4 5 21 16 27 75 46 43 57
REMARK Flexibility Score: inf
ROOT
ATOM      1  C   UNL A   1      34.567  33.453  31.814  1.00  0.00     0.252 C 
ATOM      2  O   UNL A   1      34.031  32.635  32.566  1.00  0.00    -0.269 OA
ATOM      3  N   UNL A   1      33.750  34.038  30.881  1.00  0.00    -0.352 N 
ATOM      4  H   UNL A   1      32.800  33.819  31.014  1.00  0.00     0.163 HD
ENDROOT
BRANCH   1   5
ATOM      5  C   UNL A   1      35.995  33.808  32.072  1.00  0.00     0.051 A 
ATOM      6  C   UNL A   1      37.573  34.315  33.800  1.00  0.00     0.098 A 
ATOM      7  C   UNL A   1      36.284  34.000  33.431  1.00  0.00     0.050 A 
ATOM      8  N   UNL A   1      38.521  34.641  32.906  1.00  0.00    -0.241 NA
ATOM      9  C   UNL A   1      38.268  34.443  31.606  1.00  0.00     0.072 A 
ATOM     10  C   UNL A   1      37.058  33.896  31.140  1.00  0.00     0.013 A 
ATOM     11  C   UNL A   1      39.295  34.711  30.709  1.00  0.00     0.029 A 
ATOM     12  C   UNL A   1      37.056  33.412  29.815  1.00  0.00     0.011 A 
ATOM     13  C   UNL A   1      39.211  34.353  29.366  1.00  0.00     0.002 A 
ATOM     14  C   UNL A   1      38.100  33.659  28.925  1.00  0.00     0.001 A 
BRANCH   6  15
ATOM     15  S   UNL A   1      38.095  34.228  35.491  1.00  0.00    -0.103 SA
BRANCH  15  16
ATOM     16  C   UNL A   1      37.759  32.455  35.923  1.00  0.00     0.052 C 
ATOM     17  C   UNL A   1      38.221  31.454  34.863  1.00  0.00     0.020 C 
BRANCH  16  18
ATOM     18  C   UNL A   1      38.132  32.035  37.359  1.00  0.00     0.043 C 
BRANCH  18  19
ATOM     19  C   UNL A   1      37.476  32.790  38.509  1.00  0.00     0.157 C 
BRANCH  19  20
ATOM     20  O   UNL A   1      36.063  32.747  38.371  1.00  0.00    -0.396 OA
ATOM     21  H   UNL A   1      35.726  31.922  38.755  1.00  0.00     0.210 HD
ENDBRANCH  19  20
ENDBRANCH  18  19
ENDBRANCH  16  18
ENDBRANCH  15  16
ENDBRANCH   6  15
ENDBRANCH   1   5
BRANCH   3  22
ATOM     22  C   UNL A   1      33.972  34.911  29.738  1.00  0.00     0.118 C 
BRANCH  22  23
ATOM     23  C   UNL A   1      33.592  34.170  28.452  1.00  0.00     0.042 C 
BRANCH  23  24
ATOM     24  C   UNL A   1      34.528  33.030  28.083  1.00  0.00     0.118 C 
BRANCH  24  25
ATOM     25  N   UNL A   1      33.801  31.817  27.753  1.00  0.00    -0.352 N 
ATOM     26  C   UNL A   1      34.243  30.523  27.629  1.00  0.00     0.251 C 
ATOM     27  H   UNL A   1      32.838  31.943  27.591  1.00  0.00     0.163 HD
ATOM     28  O   UNL A   1      33.501  29.692  27.100  1.00  0.00    -0.269 OA
BRANCH  26  29
ATOM     29  C   UNL A   1      35.585  30.100  28.099  1.00  0.00     0.039 A 
ATOM     30  C   UNL A   1      35.715  29.616  29.406  1.00  0.00     0.014 A 
ATOM     31  C   UNL A   1      36.730  30.242  27.310  1.00  0.00     0.014 A 
ATOM     32  C   UNL A   1      36.969  29.243  29.902  1.00  0.00     0.010 A 
ATOM     33  C   UNL A   1      37.965  29.784  27.770  1.00  0.00     0.010 A 
ATOM     34  C   UNL A   1      38.104  29.303  29.079  1.00  0.00    -0.014 A 
BRANCH  34  35
ATOM     35  C   UNL A   1      39.449  28.916  29.583  1.00  0.00     0.031 A 
ATOM     36  C   UNL A   1      40.134  29.756  30.630  1.00  0.00     0.074 A 
ATOM     37  C   UNL A   1      40.080  27.844  29.069  1.00  0.00     0.049 A 
ATOM     38  N   UNL A   1      41.329  29.629  31.148  1.00  0.00    -0.248 NA
ATOM     39  C   UNL A   1      39.383  30.914  31.140  1.00  0.00     0.031 C 
ATOM     40  C   UNL A   1      39.546  26.970  28.024  1.00  0.00     0.029 A 
ATOM     41  N   UNL A   1      41.312  27.309  29.353  1.00  0.00    -0.354 N 
ATOM     42  C   UNL A   1      41.481  30.698  32.022  1.00  0.00     0.074 A 
ATOM     43  C   UNL A   1      40.278  31.497  31.922  1.00  0.00     0.031 C 
ATOM     44  C   UNL A   1      40.429  25.990  27.778  1.00  0.00     0.029 A 
ATOM     45  C   UNL A   1      41.606  26.185  28.619  1.00  0.00     0.049 A 
ATOM     46  H   UNL A   1      41.926  27.693  30.020  1.00  0.00     0.167 HD
ATOM     47  C   UNL A   1      42.515  30.979  32.852  1.00  0.00     0.037 A 
ATOM     48  C   UNL A   1      42.701  25.402  28.627  1.00  0.00     0.037 A 
ATOM     49  C   UNL A   1      43.695  30.164  32.977  1.00  0.00     0.049 A 
ATOM     50  C   UNL A   1      43.835  25.728  29.559  1.00  0.00     0.074 A 
ATOM     51  C   UNL A   1      44.771  30.326  33.831  1.00  0.00     0.029 A 
ATOM     52  N   UNL A   1      43.950  29.027  32.224  1.00  0.00    -0.354 N 
ATOM     53  N   UNL A   1      43.943  26.712  30.418  1.00  0.00    -0.248 NA
ATOM     54  C   UNL A   1      44.998  24.831  29.523  1.00  0.00     0.031 C 
ATOM     55  C   UNL A   1      45.696  29.309  33.569  1.00  0.00     0.029 A 
ATOM     56  C   UNL A   1      45.175  28.487  32.581  1.00  0.00     0.049 A 
ATOM     57  H   UNL A   1      43.349  28.658  31.537  1.00  0.00     0.167 HD
ATOM     58  C   UNL A   1      45.170  26.539  31.044  1.00  0.00     0.074 A 
ATOM     59  C   UNL A   1      45.765  25.348  30.473  1.00  0.00     0.031 C 
ATOM     60  C   UNL A   1      45.750  27.299  32.005  1.00  0.00     0.037 A 
BRANCH  47  61
ATOM     61  C   UNL A   1      42.408  32.222  33.689  1.00  0.00     0.064 A 
ATOM     62  C   UNL A   1      42.836  33.470  33.211  1.00  0.00     0.173 A 
ATOM     63  C   UNL A   1      41.866  32.167  34.982  1.00  0.00     0.173 A 
ATOM     64  F   UNL A   1      43.373  33.577  31.986  1.00  0.00    -0.203 F 
ATOM     65  C   UNL A   1      42.767  34.607  34.013  1.00  0.00     0.198 A 
ATOM     66  C   UNL A   1      41.768  33.312  35.769  1.00  0.00     0.198 A 
ATOM     67  F   UNL A   1      41.433  31.001  35.486  1.00  0.00    -0.203 F 
ATOM     68  F   UNL A   1      43.244  35.774  33.557  1.00  0.00    -0.200 F 
ATOM     69  C   UNL A   1      42.230  34.529  35.288  1.00  0.00     0.200 A 
ATOM     70  F   UNL A   1      41.237  33.237  36.997  1.00  0.00    -0.200 F 
ATOM     71  F   UNL A   1      42.166  35.623  36.059  1.00  0.00    -0.200 F 
ENDBRANCH  47  61
BRANCH  48  72
ATOM     72  C   UNL A   1      42.754  24.203  27.751  1.00  0.00     0.064 A 
ATOM     73  C   UNL A   1      42.424  22.937  28.254  1.00  0.00     0.173 A 
ATOM     74  C   UNL A   1      43.112  24.296  26.398  1.00  0.00     0.173 A 
ATOM     75  F   UNL A   1      42.095  22.796  29.547  1.00  0.00    -0.203 F 
ATOM     76  C   UNL A   1      42.459  21.807  27.440  1.00  0.00     0.198 A 
ATOM     77  C   UNL A   1      43.124  23.168  25.580  1.00  0.00     0.198 A 
ATOM     78  F   UNL A   1      43.433  25.485  25.869  1.00  0.00    -0.203 F 
ATOM     79  F   UNL A   1      42.169  20.605  27.956  1.00  0.00    -0.200 F 
ATOM     80  C   UNL A   1      42.802  21.924  26.102  1.00  0.00     0.200 A 
ATOM     81  F   UNL A   1      43.443  23.288  24.283  1.00  0.00    -0.200 F 
ATOM     82  F   UNL A   1      42.826  20.840  25.317  1.00  0.00    -0.200 F 
ENDBRANCH  48  72
BRANCH  60  83
ATOM     83  C   UNL A   1      47.085  26.847  32.522  1.00  0.00     0.064 A 
ATOM     84  C   UNL A   1      48.285  27.328  31.979  1.00  0.00     0.173 A 
ATOM     85  C   UNL A   1      47.162  25.948  33.597  1.00  0.00     0.173 A 
ATOM     86  F   UNL A   1      48.262  28.177  30.941  1.00  0.00    -0.203 F 
ATOM     87  C   UNL A   1      49.514  26.907  32.478  1.00  0.00     0.198 A 
ATOM     88  C   UNL A   1      48.393  25.550  34.111  1.00  0.00     0.198 A 
ATOM     89  F   UNL A   1      46.042  25.463  34.155  1.00  0.00    -0.203 F 
ATOM     90  F   UNL A   1      50.649  27.345  31.915  1.00  0.00    -0.200 F 
ATOM     91  C   UNL A   1      49.568  26.024  33.547  1.00  0.00     0.200 A 
ATOM     92  F   UNL A   1      48.442  24.707  35.150  1.00  0.00    -0.200 F 
ATOM     93  F   UNL A   1      50.752  25.624  34.029  1.00  0.00    -0.200 F 
ENDBRANCH  60  83
ENDBRANCH  34  35
ENDBRANCH  26  29
ENDBRANCH  24  25
ENDBRANCH  23  24
ENDBRANCH  22  23
ENDBRANCH   3  22
TORSDOF 15
ENDMDL
MODEL 2
REMARK VINA RESULT:     -10.0      4.007     10.039
REMARK SMILES C[C@@H](CCO)Sc1cc(C(=O)NCCCNC(=O)c2ccc(-c3c4nc(c(-c5c(F)c(F)c(F)c(F)c5F)c5ccc([nH]5)c(-c5c(F)c(F)c(F)c(F)c5F)c5nc(c(-c6c(F)c(F)c(F)c(F)c6F)c6ccc3[nH]6)C=C5)C=C4)cc2)c2ccccc2n1
REMARK SMILES IDX 10 1 11 2 12 3 9 5 7 6 8 7 88 8 87 9 82 10 86 11 83 12 85 13
REMARK SMILES IDX 84 14 6 15 2 16 1 17 3 18 4 19 5 20 13 22 14 23 15 24 16 25
REMARK SMILES IDX 17 26 18 28 19 29 20 30 81 31 21 32 80 33 22 34 23 35 24 36
REMARK SMILES IDX 74 37 25 38 79 39 73 40 75 41 26 42 78 43 72 44 71 45 27 47
REMARK SMILES IDX 59 48 39 49 58 50 40 51 43 52 57 53 76 54 41 55 42 56 56 58
REMARK SMILES IDX 77 59 44 60 28 61 29 62 37 63 30 64 31 65 35 66 38 67 32 68
REMARK SMILES IDX 33 69 36 70 34 71 60 72 61 73 69 74 62 75 63 76 67 77 70 78
REMARK SMILES IDX 64 79 65 80 68 81 66 82 45 83 46 84 54 85 47 86 48 87 52 88
REMARK SMILES IDX 55 89 49 90 50 91 53 92 51 93
REMARK H PARENT 12 4 5 21 16 27 75 46 43 57
REMARK Flexibility Score: inf
ROOT
ATOM      1  C   UNL A   1      33.395  26.141  22.079  1.00  0.00     0.252 C 
ATOM      2  O   UNL A   1      33.090  25.467  21.091  1.00  0.00    -0.269 OA
ATOM      3  N   UNL A   1      33.571  27.482  21.861  1.00  0.00    -0.352 N 
ATOM      4  H   UNL A   1      33.307  27.760  20.955  1.00  0.00     0.163 HD
ENDROOT
BRANCH   1   5
ATOM      5  C   UNL A   1      33.419  25.459  23.408  1.00  0.00     0.051 A 
ATOM      6  C   UNL A   1      34.838  24.326  24.969  1.00  0.00     0.098 A 
ATOM      7  C   UNL A   1      34.683  24.961  23.757  1.00  0.00     0.050 A 
ATOM      8  N   UNL A   1      33.795  23.985  25.744  1.00  0.00    -0.241 NA
ATOM      9  C   UNL A   1      32.585  24.470  25.437  1.00  0.00     0.072 A 
ATOM     10  C   UNL A   1      32.364  25.331  24.346  1.00  0.00     0.013 A 
ATOM     11  C   UNL A   1      31.540  24.171  26.302  1.00  0.00     0.029 A 
ATOM     12  C   UNL A   1      31.147  26.045  24.344  1.00  0.00     0.011 A 
ATOM     13  C   UNL A   1      30.294  24.783  26.191  1.00  0.00     0.002 A 
ATOM     14  C   UNL A   1      30.110  25.760  25.231  1.00  0.00     0.001 A 
BRANCH   6  15
ATOM     15  S   UNL A   1      36.444  23.985  25.633  1.00  0.00    -0.103 SA
BRANCH  15  16
ATOM     16  C   UNL A   1      36.932  22.441  24.727  1.00  0.00     0.052 C 
ATOM     17  C   UNL A   1      38.021  21.625  25.423  1.00  0.00     0.020 C 
BRANCH  16  18
ATOM     18  C   UNL A   1      35.767  21.578  24.202  1.00  0.00     0.043 C 
BRANCH  18  19
ATOM     19  C   UNL A   1      35.274  20.442  25.091  1.00  0.00     0.157 C 
BRANCH  19  20
ATOM     20  O   UNL A   1      34.659  20.972  26.257  1.00  0.00    -0.396 OA
ATOM     21  H   UNL A   1      35.319  21.049  26.964  1.00  0.00     0.210 HD
ENDBRANCH  19  20
ENDBRANCH  18  19
ENDBRANCH  16  18
ENDBRANCH  15  16
ENDBRANCH   6  15
ENDBRANCH   1   5
BRANCH   3  22
ATOM     22  C   UNL A   1      34.062  28.588  22.669  1.00  0.00     0.118 C 
BRANCH  22  23
ATOM     23  C   UNL A   1      32.964  29.031  23.643  1.00  0.00     0.042 C 
BRANCH  23  24
ATOM     24  C   UNL A   1      33.444  29.260  25.068  1.00  0.00     0.118 C 
BRANCH  24  25
ATOM     25  N   UNL A   1      32.894  30.478  25.635  1.00  0.00    -0.352 N 
ATOM     26  C   UNL A   1      33.231  31.155  26.782  1.00  0.00     0.251 C 
ATOM     27  H   UNL A   1      32.162  30.883  25.116  1.00  0.00     0.163 HD
ATOM     28  O   UNL A   1      32.469  32.030  27.198  1.00  0.00    -0.269 OA
BRANCH  26  29
ATOM     29  C   UNL A   1      34.473  30.857  27.537  1.00  0.00     0.039 A 
ATOM     30  C   UNL A   1      34.647  29.570  28.060  1.00  0.00     0.014 A 
ATOM     31  C   UNL A   1      35.432  31.837  27.808  1.00  0.00     0.014 A 
ATOM     32  C   UNL A   1      35.786  29.259  28.811  1.00  0.00     0.010 A 
ATOM     33  C   UNL A   1      36.611  31.504  28.476  1.00  0.00     0.010 A 
ATOM     34  C   UNL A   1      36.790  30.219  29.008  1.00  0.00    -0.014 A 
BRANCH  34  35
ATOM     35  C   UNL A   1      38.009  29.915  29.805  1.00  0.00     0.031 A 
ATOM     36  C   UNL A   1      39.061  28.989  29.252  1.00  0.00     0.074 A 
ATOM     37  C   UNL A   1      38.151  30.426  31.042  1.00  0.00     0.049 A 
ATOM     38  N   UNL A   1      40.156  28.545  29.815  1.00  0.00    -0.248 NA
ATOM     39  C   UNL A   1      38.832  28.467  27.896  1.00  0.00     0.031 C 
ATOM     40  C   UNL A   1      37.189  31.304  31.709  1.00  0.00     0.029 A 
ATOM     41  N   UNL A   1      39.160  30.277  31.962  1.00  0.00    -0.354 N 
ATOM     42  C   UNL A   1      40.731  27.678  28.893  1.00  0.00     0.074 A 
ATOM     43  C   UNL A   1      39.835  27.614  27.759  1.00  0.00     0.031 C 
ATOM     44  C   UNL A   1      37.668  31.641  32.917  1.00  0.00     0.029 A 
ATOM     45  C   UNL A   1      38.951  30.976  33.126  1.00  0.00     0.049 A 
ATOM     46  H   UNL A   1      39.957  29.722  31.803  1.00  0.00     0.167 HD
ATOM     47  C   UNL A   1      41.910  27.014  28.971  1.00  0.00     0.037 A 
ATOM     48  C   UNL A   1      39.710  31.071  34.233  1.00  0.00     0.037 A 
ATOM     49  C   UNL A   1      42.819  27.106  30.084  1.00  0.00     0.049 A 
ATOM     50  C   UNL A   1      41.017  30.330  34.297  1.00  0.00     0.074 A 
ATOM     51  C   UNL A   1      44.064  26.523  30.235  1.00  0.00     0.029 A 
ATOM     52  N   UNL A   1      42.576  27.835  31.240  1.00  0.00    -0.354 N 
ATOM     53  N   UNL A   1      41.575  29.556  33.398  1.00  0.00    -0.248 NA
ATOM     54  C   UNL A   1      41.802  30.480  35.530  1.00  0.00     0.031 C 
ATOM     55  C   UNL A   1      44.560  26.869  31.497  1.00  0.00     0.029 A 
ATOM     56  C   UNL A   1      43.641  27.703  32.116  1.00  0.00     0.049 A 
ATOM     57  H   UNL A   1      41.766  28.368  31.412  1.00  0.00     0.167 HD
ATOM     58  C   UNL A   1      42.785  29.148  33.942  1.00  0.00     0.074 A 
ATOM     59  C   UNL A   1      42.886  29.770  35.246  1.00  0.00     0.031 C 
ATOM     60  C   UNL A   1      43.727  28.333  33.409  1.00  0.00     0.037 A 
BRANCH  47  61
ATOM     61  C   UNL A   1      42.280  26.130  27.814  1.00  0.00     0.064 A 
ATOM     62  C   UNL A   1      43.168  26.558  26.814  1.00  0.00     0.173 A 
ATOM     63  C   UNL A   1      41.747  24.837  27.705  1.00  0.00     0.173 A 
ATOM     64  F   UNL A   1      43.697  27.790  26.864  1.00  0.00    -0.203 F 
ATOM     65  C   UNL A   1      43.471  25.743  25.727  1.00  0.00     0.198 A 
ATOM     66  C   UNL A   1      42.079  24.011  26.633  1.00  0.00     0.198 A 
ATOM     67  F   UNL A   1      40.901  24.372  28.637  1.00  0.00    -0.203 F 
ATOM     68  F   UNL A   1      44.269  26.201  24.752  1.00  0.00    -0.200 F 
ATOM     69  C   UNL A   1      42.931  24.469  25.639  1.00  0.00     0.200 A 
ATOM     70  F   UNL A   1      41.565  22.776  26.556  1.00  0.00    -0.200 F 
ATOM     71  F   UNL A   1      43.223  23.687  24.591  1.00  0.00    -0.200 F 
ENDBRANCH  47  61
BRANCH  48  72
ATOM     72  C   UNL A   1      39.271  31.941  35.354  1.00  0.00     0.064 A 
ATOM     73  C   UNL A   1      39.618  33.298  35.382  1.00  0.00     0.173 A 
ATOM     74  C   UNL A   1      38.484  31.445  36.404  1.00  0.00     0.173 A 
ATOM     75  F   UNL A   1      40.386  33.812  34.410  1.00  0.00    -0.203 F 
ATOM     76  C   UNL A   1      39.202  34.127  36.422  1.00  0.00     0.198 A 
ATOM     77  C   UNL A   1      38.050  32.281  37.432  1.00  0.00     0.198 A 
ATOM     78  F   UNL A   1      38.123  30.155  36.422  1.00  0.00    -0.203 F 
ATOM     79  F   UNL A   1      39.575  35.414  36.439  1.00  0.00    -0.200 F 
ATOM     80  C   UNL A   1      38.413  33.620  37.442  1.00  0.00     0.200 A 
ATOM     81  F   UNL A   1      37.276  31.789  38.410  1.00  0.00    -0.200 F 
ATOM     82  F   UNL A   1      38.005  34.418  38.437  1.00  0.00    -0.200 F 
ENDBRANCH  48  72
BRANCH  60  83
ATOM     83  C   UNL A   1      44.963  28.090  34.223  1.00  0.00     0.064 A 
ATOM     84  C   UNL A   1      45.013  27.089  35.204  1.00  0.00     0.173 A 
ATOM     85  C   UNL A   1      46.123  28.846  33.995  1.00  0.00     0.173 A 
ATOM     86  F   UNL A   1      43.925  26.351  35.470  1.00  0.00    -0.203 F 
ATOM     87  C   UNL A   1      46.172  26.870  35.944  1.00  0.00     0.198 A 
ATOM     88  C   UNL A   1      47.288  28.607  34.718  1.00  0.00     0.198 A 
ATOM     89  F   UNL A   1      46.128  29.813  33.064  1.00  0.00    -0.203 F 
ATOM     90  F   UNL A   1      46.183  25.938  36.907  1.00  0.00    -0.200 F 
ATOM     91  C   UNL A   1      47.310  27.624  35.696  1.00  0.00     0.200 A 
ATOM     92  F   UNL A   1      48.389  29.328  34.469  1.00  0.00    -0.200 F 
ATOM     93  F   UNL A   1      48.426  27.408  36.405  1.00  0.00    -0.200 F 
ENDBRANCH  60  83
ENDBRANCH  34  35
ENDBRANCH  26  29
ENDBRANCH  24  25
ENDBRANCH  23  24
ENDBRANCH  22  23
ENDBRANCH   3  22
TORSDOF 15
ENDMDL
MODEL 3
REMARK VINA RESULT:      -9.9      0.695      2.165
REMARK SMILES C[C@@H](CCO)Sc1cc(C(=O)NCCCNC(=O)c2ccc(-c3c4nc(c(-c5c(F)c(F)c(F)c(F)c5F)c5ccc([nH]5)c(-c5c(F)c(F)c(F)c(F)c5F)c5nc(c(-c6c(F)c(F)c(F)c(F)c6F)c6ccc3[nH]6)C=C5)C=C4)cc2)c2ccccc2n1
REMARK SMILES IDX 10 1 11 2 12 3 9 5 7 6 8 7 88 8 87 9 82 10 86 11 83 12 85 13
REMARK SMILES IDX 84 14 6 15 2 16 1 17 3 18 4 19 5 20 13 22 14 23 15 24 16 25
REMARK SMILES IDX 17 26 18 28 19 29 20 30 81 31 21 32 80 33 22 34 23 35 24 36
REMARK SMILES IDX 74 37 25 38 79 39 73 40 75 41 26 42 78 43 72 44 71 45 27 47
REMARK SMILES IDX 59 48 39 49 58 50 40 51 43 52 57 53 76 54 41 55 42 56 56 58
REMARK SMILES IDX 77 59 44 60 28 61 29 62 37 63 30 64 31 65 35 66 38 67 32 68
REMARK SMILES IDX 33 69 36 70 34 71 60 72 61 73 69 74 62 75 63 76 67 77 70 78
REMARK SMILES IDX 64 79 65 80 68 81 66 82 45 83 46 84 54 85 47 86 48 87 52 88
REMARK SMILES IDX 55 89 49 90 50 91 53 92 51 93
REMARK H PARENT 12 4 5 21 16 27 75 46 43 57
REMARK Flexibility Score: inf
ROOT
ATOM      1  C   UNL A   1      34.901  33.270  32.036  1.00  0.00     0.252 C 
ATOM      2  O   UNL A   1      34.515  32.356  32.770  1.00  0.00    -0.269 OA
ATOM      3  N   UNL A   1      33.949  33.835  31.228  1.00  0.00    -0.352 N 
ATOM      4  H   UNL A   1      33.039  33.518  31.431  1.00  0.00     0.163 HD
ENDROOT
BRANCH   1   5
ATOM      5  C   UNL A   1      36.311  33.741  32.189  1.00  0.00     0.051 A 
ATOM      6  C   UNL A   1      37.939  34.463  33.790  1.00  0.00     0.098 A 
ATOM      7  C   UNL A   1      36.659  34.035  33.515  1.00  0.00     0.050 A 
ATOM      8  N   UNL A   1      38.809  34.801  32.824  1.00  0.00    -0.241 NA
ATOM      9  C   UNL A   1      38.501  34.507  31.554  1.00  0.00     0.072 A 
ATOM     10  C   UNL A   1      37.312  33.847  31.192  1.00  0.00     0.013 A 
ATOM     11  C   UNL A   1      39.455  34.792  30.584  1.00  0.00     0.029 A 
ATOM     12  C   UNL A   1      37.273  33.284  29.899  1.00  0.00     0.011 A 
ATOM     13  C   UNL A   1      39.325  34.347  29.271  1.00  0.00     0.002 A 
ATOM     14  C   UNL A   1      38.246  33.551  28.937  1.00  0.00     0.001 A 
BRANCH   6  15
ATOM     15  S   UNL A   1      38.558  34.517  35.448  1.00  0.00    -0.103 SA
BRANCH  15  16
ATOM     16  C   UNL A   1      38.498  32.734  35.956  1.00  0.00     0.052 C 
ATOM     17  C   UNL A   1      37.833  32.490  37.311  1.00  0.00     0.020 C 
BRANCH  16  18
ATOM     18  C   UNL A   1      38.037  31.744  34.866  1.00  0.00     0.043 C 
BRANCH  18  19
ATOM     19  C   UNL A   1      38.413  30.277  35.040  1.00  0.00     0.157 C 
BRANCH  19  20
ATOM     20  O   UNL A   1      38.150  29.565  33.839  1.00  0.00    -0.396 OA
ATOM     21  H   UNL A   1      38.702  28.767  33.808  1.00  0.00     0.210 HD
ENDBRANCH  19  20
ENDBRANCH  18  19
ENDBRANCH  16  18
ENDBRANCH  15  16
ENDBRANCH   6  15
ENDBRANCH   1   5
BRANCH   3  22
ATOM     22  C   UNL A   1      33.981  34.799  30.139  1.00  0.00     0.118 C 
BRANCH  22  23
ATOM     23  C   UNL A   1      33.596  34.099  28.831  1.00  0.00     0.042 C 
BRANCH  23  24
ATOM     24  C   UNL A   1      34.566  33.015  28.390  1.00  0.00     0.118 C 
BRANCH  24  25
ATOM     25  N   UNL A   1      33.873  31.825  27.928  1.00  0.00    -0.352 N 
ATOM     26  C   UNL A   1      34.348  30.559  27.684  1.00  0.00     0.251 C 
ATOM     27  H   UNL A   1      32.910  31.944  27.763  1.00  0.00     0.163 HD
ATOM     28  O   UNL A   1      33.634  29.769  27.062  1.00  0.00    -0.269 OA
BRANCH  26  29
ATOM     29  C   UNL A   1      35.693  30.122  28.133  1.00  0.00     0.039 A 
ATOM     30  C   UNL A   1      35.850  29.693  29.456  1.00  0.00     0.014 A 
ATOM     31  C   UNL A   1      36.816  30.199  27.305  1.00  0.00     0.014 A 
ATOM     32  C   UNL A   1      37.109  29.309  29.931  1.00  0.00     0.010 A 
ATOM     33  C   UNL A   1      38.052  29.728  27.749  1.00  0.00     0.010 A 
ATOM     34  C   UNL A   1      38.220  29.303  29.074  1.00  0.00    -0.014 A 
BRANCH  34  35
ATOM     35  C   UNL A   1      39.569  28.902  29.555  1.00  0.00     0.031 A 
ATOM     36  C   UNL A   1      40.284  29.742  30.582  1.00  0.00     0.074 A 
ATOM     37  C   UNL A   1      40.176  27.817  29.038  1.00  0.00     0.049 A 
ATOM     38  N   UNL A   1      41.488  29.603  31.077  1.00  0.00    -0.248 NA
ATOM     39  C   UNL A   1      39.558  30.914  31.095  1.00  0.00     0.031 C 
ATOM     40  C   UNL A   1      39.610  26.942  28.011  1.00  0.00     0.029 A 
ATOM     41  N   UNL A   1      41.407  27.269  29.303  1.00  0.00    -0.354 N 
ATOM     42  C   UNL A   1      41.670  30.678  31.939  1.00  0.00     0.074 A 
ATOM     43  C   UNL A   1      40.476  31.491  31.855  1.00  0.00     0.031 C 
ATOM     44  C   UNL A   1      40.476  25.949  27.756  1.00  0.00     0.029 A 
ATOM     45  C   UNL A   1      41.672  26.136  28.573  1.00  0.00     0.049 A 
ATOM     46  H   UNL A   1      42.038  27.651  29.954  1.00  0.00     0.167 HD
ATOM     47  C   UNL A   1      42.723  30.952  32.746  1.00  0.00     0.037 A 
ATOM     48  C   UNL A   1      42.757  25.338  28.566  1.00  0.00     0.037 A 
ATOM     49  C   UNL A   1      43.895  30.123  32.856  1.00  0.00     0.049 A 
ATOM     50  C   UNL A   1      43.913  25.658  29.473  1.00  0.00     0.074 A 
ATOM     51  C   UNL A   1      44.990  30.279  33.687  1.00  0.00     0.029 A 
ATOM     52  N   UNL A   1      44.121  28.977  32.108  1.00  0.00    -0.354 N 
ATOM     53  N   UNL A   1      44.050  26.647  30.322  1.00  0.00    -0.248 NA
ATOM     54  C   UNL A   1      45.063  24.746  29.423  1.00  0.00     0.031 C 
ATOM     55  C   UNL A   1      45.896  29.247  33.416  1.00  0.00     0.029 A 
ATOM     56  C   UNL A   1      45.346  28.424  32.446  1.00  0.00     0.049 A 
ATOM     57  H   UNL A   1      43.502  28.610  31.435  1.00  0.00     0.167 HD
ATOM     58  C   UNL A   1      45.286  26.464  30.925  1.00  0.00     0.074 A 
ATOM     59  C   UNL A   1      45.855  25.261  30.353  1.00  0.00     0.031 C 
ATOM     60  C   UNL A   1      45.895  27.224  31.869  1.00  0.00     0.037 A 
BRANCH  47  61
ATOM     61  C   UNL A   1      42.648  32.203  33.575  1.00  0.00     0.064 A 
ATOM     62  C   UNL A   1      42.235  32.174  34.916  1.00  0.00     0.173 A 
ATOM     63  C   UNL A   1      42.999  33.445  33.025  1.00  0.00     0.173 A 
ATOM     64  F   UNL A   1      41.877  31.014  35.487  1.00  0.00    -0.203 F 
ATOM     65  C   UNL A   1      42.133  33.347  35.661  1.00  0.00     0.198 A 
ATOM     66  C   UNL A   1      42.928  34.612  33.783  1.00  0.00     0.198 A 
ATOM     67  F   UNL A   1      43.410  33.530  31.751  1.00  0.00    -0.203 F 
ATOM     68  F   UNL A   1      41.672  33.300  36.919  1.00  0.00    -0.200 F 
ATOM     69  C   UNL A   1      42.483  34.563  35.096  1.00  0.00     0.200 A 
ATOM     70  F   UNL A   1      43.279  35.785  33.240  1.00  0.00    -0.200 F 
ATOM     71  F   UNL A   1      42.383  35.690  35.813  1.00  0.00    -0.200 F 
ENDBRANCH  47  61
BRANCH  48  72
ATOM     72  C   UNL A   1      42.777  24.132  27.700  1.00  0.00     0.064 A 
ATOM     73  C   UNL A   1      43.126  24.231  26.347  1.00  0.00     0.173 A 
ATOM     74  C   UNL A   1      42.472  22.859  28.206  1.00  0.00     0.173 A 
ATOM     75  F   UNL A   1      43.406  25.429  25.814  1.00  0.00    -0.203 F 
ATOM     76  C   UNL A   1      43.159  23.104  25.527  1.00  0.00     0.198 A 
ATOM     77  C   UNL A   1      42.529  21.731  27.390  1.00  0.00     0.198 A 
ATOM     78  F   UNL A   1      42.137  22.711  29.495  1.00  0.00    -0.203 F 
ATOM     79  F   UNL A   1      43.465  23.233  24.229  1.00  0.00    -0.200 F 
ATOM     80  C   UNL A   1      42.869  21.854  26.051  1.00  0.00     0.200 A 
ATOM     81  F   UNL A   1      42.260  20.522  27.904  1.00  0.00    -0.200 F 
ATOM     82  F   UNL A   1      42.911  20.770  25.266  1.00  0.00    -0.200 F 
ENDBRANCH  48  72
BRANCH  60  83
ATOM     83  C   UNL A   1      47.233  26.759  32.364  1.00  0.00     0.064 A 
ATOM     84  C   UNL A   1      47.348  25.822  33.401  1.00  0.00     0.173 A 
ATOM     85  C   UNL A   1      48.413  27.233  31.770  1.00  0.00     0.173 A 
ATOM     86  F   UNL A   1      46.249  25.352  34.010  1.00  0.00    -0.203 F 
ATOM     87  C   UNL A   1      48.597  25.393  33.841  1.00  0.00     0.198 A 
ATOM     88  C   UNL A   1      49.659  26.782  32.195  1.00  0.00     0.198 A 
ATOM     89  F   UNL A   1      48.356  28.127  30.771  1.00  0.00    -0.203 F 
ATOM     90  F   UNL A   1      48.686  24.531  34.864  1.00  0.00    -0.200 F 
ATOM     91  C   UNL A   1      49.751  25.868  33.235  1.00  0.00     0.200 A 
ATOM     92  F   UNL A   1      50.772  27.232  31.600  1.00  0.00    -0.200 F 
ATOM     93  F   UNL A   1      50.952  25.450  33.656  1.00  0.00    -0.200 F 
ENDBRANCH  60  83
ENDBRANCH  34  35
ENDBRANCH  26  29
ENDBRANCH  24  25
ENDBRANCH  23  24
ENDBRANCH  22  23
ENDBRANCH   3  22
TORSDOF 15
ENDMDL
