MODEL 1
REMARK VINA RESULT:     -13.8      0.000      0.000
REMARK SMILES O=C1NC(=O)/C(=C/c2ccc(OCc3cn(-c4ccc(C(=O)NCCCNC(=O)c5ccc(-c6c7nc(c(-c8c(F)c(F)c(F)c(F)c8F)c8ccc([nH]8)c(-c8c(F)c(F)c(F)c(F)c8F)c8nc(c(-c9c(F)c(F)c(F)c(F)c9F)c9ccc6[nH]9)C=C8)C=C7)cc5)cc4)nn3)cc2)S1
REMARK SMILES IDX 21 1 22 2 23 3 20 5 17 6 18 7 94 8 19 9 93 10 16 11 14 12
REMARK SMILES IDX 15 13 96 14 95 15 13 16 12 17 11 18 8 19 9 20 98 21 10 22
REMARK SMILES IDX 97 23 7 24 1 25 2 26 3 27 99 28 4 29 6 31 5 32 24 33 25 34
REMARK SMILES IDX 26 35 27 36 28 37 29 39 30 40 31 41 92 42 32 43 91 44 33 45
REMARK SMILES IDX 34 46 35 47 85 48 36 49 90 50 84 51 86 52 37 53 89 54 83 55
REMARK SMILES IDX 82 56 38 58 70 59 50 60 69 61 51 62 54 63 68 64 87 65 52 66
REMARK SMILES IDX 53 67 67 69 88 70 55 71 39 72 40 73 48 74 41 75 42 76 46 77
REMARK SMILES IDX 49 78 43 79 44 80 47 81 45 82 71 83 72 84 80 85 73 86 74 87
REMARK SMILES IDX 78 88 81 89 75 90 76 91 79 92 77 93 56 94 57 95 65 96 58 97
REMARK SMILES IDX 59 98 63 99 66 100 60 101 61 102 64 103 62 104
REMARK H PARENT 23 4 3 30 27 38 86 57 54 68
REMARK Flexibility Score: inf
ROOT
ATOM      1  C   UNL A   1      42.170  21.251  27.315  1.00  0.00     0.251 C 
ATOM      2  O   UNL A   1      42.567  21.918  28.269  1.00  0.00    -0.269 OA
ATOM      3  N   UNL A   1      43.020  20.299  26.800  1.00  0.00    -0.352 N 
ATOM      4  H   UNL A   1      43.911  20.287  27.220  1.00  0.00     0.163 HD
ENDROOT
BRANCH   1   5
ATOM      5  C   UNL A   1      40.785  21.457  26.803  1.00  0.00     0.039 A 
ATOM      6  C   UNL A   1      38.269  21.794  25.622  1.00  0.00     0.066 A 
ATOM      7  C   UNL A   1      38.883  20.537  25.600  1.00  0.00     0.029 A 
ATOM      8  C   UNL A   1      38.862  22.856  26.295  1.00  0.00     0.029 A 
ATOM      9  C   UNL A   1      40.153  20.380  26.165  1.00  0.00     0.016 A 
ATOM     10  C   UNL A   1      40.083  22.657  26.927  1.00  0.00     0.016 A 
BRANCH   6  11
ATOM     11  N   UNL A   1      37.037  21.994  24.975  1.00  0.00    -0.220 N 
ATOM     12  C   UNL A   1      34.944  21.981  24.371  1.00  0.00     0.120 A 
ATOM     13  C   UNL A   1      35.791  21.561  25.372  1.00  0.00     0.144 A 
ATOM     14  N   UNL A   1      35.680  22.675  23.446  1.00  0.00    -0.131 NA
ATOM     15  N   UNL A   1      36.939  22.706  23.839  1.00  0.00    -0.062 NA
BRANCH  12  16
ATOM     16  C   UNL A   1      33.458  21.885  24.247  1.00  0.00     0.289 C 
BRANCH  16  17
ATOM     17  O   UNL A   1      32.917  22.245  22.965  1.00  0.00    -0.487 OA
BRANCH  17  18
ATOM     18  C   UNL A   1      32.199  23.406  22.863  1.00  0.00     0.119 A 
ATOM     19  C   UNL A   1      31.090  25.987  22.758  1.00  0.00    -0.024 A 
ATOM     20  C   UNL A   1      32.212  25.673  21.988  1.00  0.00     0.012 A 
ATOM     21  C   UNL A   1      30.471  24.977  23.499  1.00  0.00     0.012 A 
ATOM     22  C   UNL A   1      32.767  24.389  22.049  1.00  0.00     0.047 A 
ATOM     23  C   UNL A   1      31.004  23.687  23.519  1.00  0.00     0.047 A 
BRANCH  19  24
ATOM     24  C   UNL A   1      30.548  27.346  22.784  1.00  0.00     0.029 C 
ATOM     25  O   UNL A   1      32.355  30.457  26.316  1.00  0.00    -0.261 OA
ATOM     26  C   UNL A   1      31.773  29.885  25.399  1.00  0.00     0.290 C 
ATOM     27  N   UNL A   1      30.776  30.408  24.651  1.00  0.00    -0.282 N 
ATOM     28  S   UNL A   1      32.126  28.256  24.869  1.00  0.00    -0.022 SA
ATOM     29  C   UNL A   1      30.244  29.638  23.658  1.00  0.00     0.265 C 
ATOM     30  H   UNL A   1      30.444  31.320  24.817  1.00  0.00     0.174 HD
ATOM     31  C   UNL A   1      30.911  28.309  23.644  1.00  0.00     0.083 C 
ATOM     32  O   UNL A   1      29.348  29.987  22.912  1.00  0.00    -0.268 OA
ENDBRANCH  19  24
ENDBRANCH  17  18
ENDBRANCH  16  17
ENDBRANCH  12  16
ENDBRANCH   6  11
ENDBRANCH   1   5
BRANCH   3  33
ATOM     33  C   UNL A   1      42.842  19.306  25.748  1.00  0.00     0.118 C 
BRANCH  33  34
ATOM     34  C   UNL A   1      44.188  18.778  25.223  1.00  0.00     0.042 C 
BRANCH  34  35
ATOM     35  C   UNL A   1      45.208  19.881  25.063  1.00  0.00     0.118 C 
BRANCH  35  36
ATOM     36  N   UNL A   1      45.074  20.599  23.785  1.00  0.00    -0.352 N 
ATOM     37  C   UNL A   1      44.567  21.868  23.558  1.00  0.00     0.251 C 
ATOM     38  H   UNL A   1      45.386  20.113  22.987  1.00  0.00     0.163 HD
ATOM     39  O   UNL A   1      44.201  22.222  22.445  1.00  0.00    -0.269 OA
BRANCH  37  40
ATOM     40  C   UNL A   1      44.492  22.789  24.701  1.00  0.00     0.039 A 
ATOM     41  C   UNL A   1      45.486  22.917  25.672  1.00  0.00     0.014 A 
ATOM     42  C   UNL A   1      43.390  23.625  24.704  1.00  0.00     0.014 A 
ATOM     43  C   UNL A   1      45.359  23.944  26.606  1.00  0.00     0.010 A 
ATOM     44  C   UNL A   1      43.499  24.821  25.328  1.00  0.00     0.010 A 
ATOM     45  C   UNL A   1      44.347  24.894  26.414  1.00  0.00    -0.014 A 
BRANCH  45  46
ATOM     46  C   UNL A   1      44.089  26.009  27.303  1.00  0.00     0.031 A 
ATOM     47  C   UNL A   1      44.980  27.175  27.119  1.00  0.00     0.074 A 
ATOM     48  C   UNL A   1      42.948  26.073  28.029  1.00  0.00     0.049 A 
ATOM     49  N   UNL A   1      45.861  27.625  27.945  1.00  0.00    -0.248 NA
ATOM     50  C   UNL A   1      44.989  27.842  25.808  1.00  0.00     0.031 C 
ATOM     51  C   UNL A   1      41.796  25.154  28.055  1.00  0.00     0.029 A 
ATOM     52  N   UNL A   1      42.525  27.081  28.829  1.00  0.00    -0.354 N 
ATOM     53  C   UNL A   1      46.401  28.756  27.346  1.00  0.00     0.074 A 
ATOM     54  C   UNL A   1      45.972  28.730  25.972  1.00  0.00     0.031 C 
ATOM     55  C   UNL A   1      40.732  25.767  28.619  1.00  0.00     0.029 A 
ATOM     56  C   UNL A   1      41.175  27.034  29.160  1.00  0.00     0.049 A 
ATOM     57  H   UNL A   1      43.126  27.792  29.152  1.00  0.00     0.167 HD
ATOM     58  C   UNL A   1      46.953  29.750  28.097  1.00  0.00     0.037 A 
ATOM     59  C   UNL A   1      40.488  28.017  29.789  1.00  0.00     0.037 A 
ATOM     60  C   UNL A   1      47.198  29.310  29.450  1.00  0.00     0.049 A 
ATOM     61  C   UNL A   1      41.500  28.868  30.477  1.00  0.00     0.074 A 
ATOM     62  C   UNL A   1      47.938  28.283  30.007  1.00  0.00     0.029 A 
ATOM     63  N   UNL A   1      46.305  29.686  30.426  1.00  0.00    -0.354 N 
ATOM     64  N   UNL A   1      42.242  28.439  31.467  1.00  0.00    -0.248 NA
ATOM     65  C   UNL A   1      42.050  29.989  29.726  1.00  0.00     0.031 C 
ATOM     66  C   UNL A   1      47.105  27.754  31.039  1.00  0.00     0.029 A 
ATOM     67  C   UNL A   1      45.955  28.542  31.103  1.00  0.00     0.049 A 
ATOM     68  H   UNL A   1      45.979  30.597  30.606  1.00  0.00     0.167 HD
ATOM     69  C   UNL A   1      43.509  28.949  31.214  1.00  0.00     0.074 A 
ATOM     70  C   UNL A   1      43.316  29.939  30.155  1.00  0.00     0.031 C 
ATOM     71  C   UNL A   1      44.638  28.314  31.651  1.00  0.00     0.037 A 
BRANCH  58  72
ATOM     72  C   UNL A   1      46.929  31.207  27.724  1.00  0.00     0.064 A 
ATOM     73  C   UNL A   1      45.694  31.821  27.443  1.00  0.00     0.173 A 
ATOM     74  C   UNL A   1      48.075  31.938  27.345  1.00  0.00     0.173 A 
ATOM     75  F   UNL A   1      44.541  31.204  27.747  1.00  0.00    -0.203 F 
ATOM     76  C   UNL A   1      45.614  33.037  26.761  1.00  0.00     0.198 A 
ATOM     77  C   UNL A   1      47.993  33.177  26.715  1.00  0.00     0.198 A 
ATOM     78  F   UNL A   1      49.311  31.435  27.457  1.00  0.00    -0.203 F 
ATOM     79  F   UNL A   1      44.418  33.520  26.400  1.00  0.00    -0.200 F 
ATOM     80  C   UNL A   1      46.764  33.711  26.392  1.00  0.00     0.200 A 
ATOM     81  F   UNL A   1      49.119  33.806  26.351  1.00  0.00    -0.200 F 
ATOM     82  F   UNL A   1      46.691  34.844  25.682  1.00  0.00    -0.200 F 
ENDBRANCH  58  72
BRANCH  59  83
ATOM     83  C   UNL A   1      39.100  28.459  29.505  1.00  0.00     0.064 A 
ATOM     84  C   UNL A   1      38.173  28.658  30.540  1.00  0.00     0.173 A 
ATOM     85  C   UNL A   1      38.730  28.948  28.234  1.00  0.00     0.173 A 
ATOM     86  F   UNL A   1      38.466  28.267  31.788  1.00  0.00    -0.203 F 
ATOM     87  C   UNL A   1      36.959  29.322  30.320  1.00  0.00     0.198 A 
ATOM     88  C   UNL A   1      37.517  29.603  28.015  1.00  0.00     0.198 A 
ATOM     89  F   UNL A   1      39.577  28.880  27.198  1.00  0.00    -0.203 F 
ATOM     90  F   UNL A   1      36.123  29.543  31.345  1.00  0.00    -0.200 F 
ATOM     91  C   UNL A   1      36.637  29.801  29.061  1.00  0.00     0.200 A 
ATOM     92  F   UNL A   1      37.237  30.096  26.801  1.00  0.00    -0.200 F 
ATOM     93  F   UNL A   1      35.502  30.488  28.865  1.00  0.00    -0.200 F 
ENDBRANCH  59  83
BRANCH  71  94
ATOM     94  C   UNL A   1      44.487  27.136  32.579  1.00  0.00     0.064 A 
ATOM     95  C   UNL A   1      44.422  25.799  32.145  1.00  0.00     0.173 A 
ATOM     96  C   UNL A   1      44.592  27.352  33.958  1.00  0.00     0.173 A 
ATOM     97  F   UNL A   1      44.432  25.495  30.845  1.00  0.00    -0.203 F 
ATOM     98  C   UNL A   1      44.418  24.737  33.049  1.00  0.00     0.198 A 
ATOM     99  C   UNL A   1      44.621  26.289  34.858  1.00  0.00     0.198 A 
ATOM    100  F   UNL A   1      44.721  28.600  34.433  1.00  0.00    -0.203 F 
ATOM    101  F   UNL A   1      44.353  23.474  32.602  1.00  0.00    -0.200 F 
ATOM    102  C   UNL A   1      44.525  24.983  34.406  1.00  0.00     0.200 A 
ATOM    103  F   UNL A   1      44.778  26.532  36.167  1.00  0.00    -0.200 F 
ATOM    104  F   UNL A   1      44.565  23.963  35.274  1.00  0.00    -0.200 F 
ENDBRANCH  71  94
ENDBRANCH  45  46
ENDBRANCH  37  40
ENDBRANCH  35  36
ENDBRANCH  34  35
ENDBRANCH  33  34
ENDBRANCH   3  33
TORSDOF 15
ENDMDL
MODEL 2
REMARK VINA RESULT:     -13.1      1.415      2.280
REMARK SMILES O=C1NC(=O)/C(=C/c2ccc(OCc3cn(-c4ccc(C(=O)NCCCNC(=O)c5ccc(-c6c7nc(c(-c8c(F)c(F)c(F)c(F)c8F)c8ccc([nH]8)c(-c8c(F)c(F)c(F)c(F)c8F)c8nc(c(-c9c(F)c(F)c(F)c(F)c9F)c9ccc6[nH]9)C=C8)C=C7)cc5)cc4)nn3)cc2)S1
REMARK SMILES IDX 21 1 22 2 23 3 20 5 17 6 18 7 94 8 19 9 93 10 16 11 14 12
REMARK SMILES IDX 15 13 96 14 95 15 13 16 12 17 11 18 8 19 9 20 98 21 10 22
REMARK SMILES IDX 97 23 7 24 1 25 2 26 3 27 99 28 4 29 6 31 5 32 24 33 25 34
REMARK SMILES IDX 26 35 27 36 28 37 29 39 30 40 31 41 92 42 32 43 91 44 33 45
REMARK SMILES IDX 34 46 35 47 85 48 36 49 90 50 84 51 86 52 37 53 89 54 83 55
REMARK SMILES IDX 82 56 38 58 70 59 50 60 69 61 51 62 54 63 68 64 87 65 52 66
REMARK SMILES IDX 53 67 67 69 88 70 55 71 39 72 40 73 48 74 41 75 42 76 46 77
REMARK SMILES IDX 49 78 43 79 44 80 47 81 45 82 71 83 72 84 80 85 73 86 74 87
REMARK SMILES IDX 78 88 81 89 75 90 76 91 79 92 77 93 56 94 57 95 65 96 58 97
REMARK SMILES IDX 59 98 63 99 66 100 60 101 61 102 64 103 62 104
REMARK H PARENT 23 4 3 30 27 38 86 57 54 68
REMARK Flexibility Score: inf
ROOT
ATOM      1  C   UNL A   1      42.289  18.915  27.247  1.00  0.00     0.251 C 
ATOM      2  O   UNL A   1      42.151  18.459  28.381  1.00  0.00    -0.269 OA
ATOM      3  N   UNL A   1      43.445  18.605  26.567  1.00  0.00    -0.352 N 
ATOM      4  H   UNL A   1      44.093  18.083  27.093  1.00  0.00     0.163 HD
ENDROOT
BRANCH   1   5
ATOM      5  C   UNL A   1      41.191  19.722  26.644  1.00  0.00     0.039 A 
ATOM      6  C   UNL A   1      39.053  21.286  25.735  1.00  0.00     0.066 A 
ATOM      7  C   UNL A   1      40.081  21.879  26.477  1.00  0.00     0.029 A 
ATOM      8  C   UNL A   1      39.126  19.945  25.378  1.00  0.00     0.029 A 
ATOM      9  C   UNL A   1      41.131  21.088  26.955  1.00  0.00     0.016 A 
ATOM     10  C   UNL A   1      40.222  19.196  25.787  1.00  0.00     0.016 A 
BRANCH   6  11
ATOM     11  N   UNL A   1      37.941  22.044  25.330  1.00  0.00    -0.220 N 
ATOM     12  C   UNL A   1      36.304  23.473  25.175  1.00  0.00     0.120 A 
ATOM     13  C   UNL A   1      37.391  23.142  25.953  1.00  0.00     0.144 A 
ATOM     14  N   UNL A   1      36.258  22.613  24.109  1.00  0.00    -0.131 NA
ATOM     15  N   UNL A   1      37.274  21.774  24.194  1.00  0.00    -0.062 NA
BRANCH  12  16
ATOM     16  C   UNL A   1      35.341  24.611  25.278  1.00  0.00     0.289 C 
BRANCH  16  17
ATOM     17  O   UNL A   1      34.031  24.368  24.738  1.00  0.00    -0.487 OA
BRANCH  17  18
ATOM     18  C   UNL A   1      33.421  25.369  24.032  1.00  0.00     0.119 A 
ATOM     19  C   UNL A   1      31.908  27.459  22.919  1.00  0.00    -0.024 A 
ATOM     20  C   UNL A   1      32.517  27.620  24.165  1.00  0.00     0.012 A 
ATOM     21  C   UNL A   1      32.144  26.290  22.194  1.00  0.00     0.012 A 
ATOM     22  C   UNL A   1      33.263  26.574  24.721  1.00  0.00     0.047 A 
ATOM     23  C   UNL A   1      32.927  25.268  22.734  1.00  0.00     0.047 A 
BRANCH  19  24
ATOM     24  C   UNL A   1      31.046  28.502  22.360  1.00  0.00     0.029 C 
ATOM     25  O   UNL A   1      26.158  28.322  23.583  1.00  0.00    -0.261 OA
ATOM     26  C   UNL A   1      27.284  28.554  23.150  1.00  0.00     0.290 C 
ATOM     27  N   UNL A   1      27.603  29.526  22.267  1.00  0.00    -0.282 N 
ATOM     28  S   UNL A   1      28.718  27.661  23.601  1.00  0.00    -0.022 SA
ATOM     29  C   UNL A   1      28.910  29.656  21.897  1.00  0.00     0.265 C 
ATOM     30  H   UNL A   1      26.911  30.125  21.901  1.00  0.00     0.174 HD
ATOM     31  C   UNL A   1      29.728  28.618  22.578  1.00  0.00     0.083 C 
ATOM     32  O   UNL A   1      29.332  30.489  21.116  1.00  0.00    -0.268 OA
ENDBRANCH  19  24
ENDBRANCH  17  18
ENDBRANCH  16  17
ENDBRANCH  12  16
ENDBRANCH   6  11
ENDBRANCH   1   5
BRANCH   3  33
ATOM     33  C   UNL A   1      43.884  18.908  25.211  1.00  0.00     0.118 C 
BRANCH  33  34
ATOM     34  C   UNL A   1      45.415  18.844  25.074  1.00  0.00     0.042 C 
BRANCH  34  35
ATOM     35  C   UNL A   1      46.024  20.213  24.879  1.00  0.00     0.118 C 
BRANCH  35  36
ATOM     36  N   UNL A   1      45.545  20.881  23.658  1.00  0.00    -0.352 N 
ATOM     37  C   UNL A   1      44.780  22.031  23.547  1.00  0.00     0.251 C 
ATOM     38  H   UNL A   1      45.803  20.454  22.809  1.00  0.00     0.163 HD
ATOM     39  O   UNL A   1      44.173  22.299  22.519  1.00  0.00    -0.269 OA
BRANCH  37  40
ATOM     40  C   UNL A   1      44.730  22.932  24.707  1.00  0.00     0.039 A 
ATOM     41  C   UNL A   1      45.821  23.212  25.532  1.00  0.00     0.014 A 
ATOM     42  C   UNL A   1      43.527  23.592  24.880  1.00  0.00     0.014 A 
ATOM     43  C   UNL A   1      45.674  24.211  26.493  1.00  0.00     0.010 A 
ATOM     44  C   UNL A   1      43.541  24.792  25.506  1.00  0.00     0.010 A 
ATOM     45  C   UNL A   1      44.514  24.995  26.463  1.00  0.00    -0.014 A 
BRANCH  45  46
ATOM     46  C   UNL A   1      44.219  26.060  27.401  1.00  0.00     0.031 A 
ATOM     47  C   UNL A   1      45.110  27.237  27.310  1.00  0.00     0.074 A 
ATOM     48  C   UNL A   1      43.053  26.082  28.088  1.00  0.00     0.049 A 
ATOM     49  N   UNL A   1      45.960  27.645  28.190  1.00  0.00    -0.248 NA
ATOM     50  C   UNL A   1      45.162  27.973  26.038  1.00  0.00     0.031 C 
ATOM     51  C   UNL A   1      41.905  25.160  28.024  1.00  0.00     0.029 A 
ATOM     52  N   UNL A   1      42.597  27.045  28.926  1.00  0.00    -0.354 N 
ATOM     53  C   UNL A   1      46.515  28.808  27.672  1.00  0.00     0.074 A 
ATOM     54  C   UNL A   1      46.135  28.854  26.283  1.00  0.00     0.031 C 
ATOM     55  C   UNL A   1      40.819  25.738  28.583  1.00  0.00     0.029 A 
ATOM     56  C   UNL A   1      41.237  26.977  29.205  1.00  0.00     0.049 A 
ATOM     57  H   UNL A   1      43.183  27.739  29.307  1.00  0.00     0.167 HD
ATOM     58  C   UNL A   1      47.035  29.762  28.493  1.00  0.00     0.037 A 
ATOM     59  C   UNL A   1      40.523  27.923  29.861  1.00  0.00     0.037 A 
ATOM     60  C   UNL A   1      47.235  29.251  29.828  1.00  0.00     0.049 A 
ATOM     61  C   UNL A   1      41.507  28.738  30.629  1.00  0.00     0.074 A 
ATOM     62  C   UNL A   1      47.960  28.198  30.356  1.00  0.00     0.029 A 
ATOM     63  N   UNL A   1      46.307  29.572  30.791  1.00  0.00    -0.354 N 
ATOM     64  N   UNL A   1      42.215  28.260  31.620  1.00  0.00    -0.248 NA
ATOM     65  C   UNL A   1      42.078  29.900  29.958  1.00  0.00     0.031 C 
ATOM     66  C   UNL A   1      47.093  27.612  31.328  1.00  0.00     0.029 A 
ATOM     67  C   UNL A   1      45.939  28.392  31.394  1.00  0.00     0.049 A 
ATOM     68  H   UNL A   1      45.970  30.472  31.007  1.00  0.00     0.167 HD
ATOM     69  C   UNL A   1      43.488  28.786  31.440  1.00  0.00     0.074 A 
ATOM     70  C   UNL A   1      43.328  29.831  30.428  1.00  0.00     0.031 C 
ATOM     71  C   UNL A   1      44.604  28.132  31.882  1.00  0.00     0.037 A 
BRANCH  58  72
ATOM     72  C   UNL A   1      47.018  31.237  28.197  1.00  0.00     0.064 A 
ATOM     73  C   UNL A   1      48.201  31.981  28.363  1.00  0.00     0.173 A 
ATOM     74  C   UNL A   1      45.835  31.992  28.050  1.00  0.00     0.173 A 
ATOM     75  F   UNL A   1      49.380  31.361  28.529  1.00  0.00    -0.203 F 
ATOM     76  C   UNL A   1      48.187  33.375  28.455  1.00  0.00     0.198 A 
ATOM     77  C   UNL A   1      45.832  33.384  28.086  1.00  0.00     0.198 A 
ATOM     78  F   UNL A   1      44.627  31.420  27.986  1.00  0.00    -0.203 F 
ATOM     79  F   UNL A   1      49.317  34.034  28.742  1.00  0.00    -0.200 F 
ATOM     80  C   UNL A   1      47.002  34.075  28.322  1.00  0.00     0.200 A 
ATOM     81  F   UNL A   1      44.670  34.044  27.972  1.00  0.00    -0.200 F 
ATOM     82  F   UNL A   1      46.975  35.405  28.474  1.00  0.00    -0.200 F 
ENDBRANCH  58  72
BRANCH  59  83
ATOM     83  C   UNL A   1      39.144  28.376  29.552  1.00  0.00     0.064 A 
ATOM     84  C   UNL A   1      38.184  28.530  30.564  1.00  0.00     0.173 A 
ATOM     85  C   UNL A   1      38.813  28.917  28.291  1.00  0.00     0.173 A 
ATOM     86  F   UNL A   1      38.438  28.087  31.804  1.00  0.00    -0.203 F 
ATOM     87  C   UNL A   1      36.977  29.201  30.334  1.00  0.00     0.198 A 
ATOM     88  C   UNL A   1      37.606  29.580  28.062  1.00  0.00     0.198 A 
ATOM     89  F   UNL A   1      39.693  28.893  27.281  1.00  0.00    -0.203 F 
ATOM     90  F   UNL A   1      36.108  29.378  31.341  1.00  0.00    -0.200 F 
ATOM     91  C   UNL A   1      36.694  29.733  29.087  1.00  0.00     0.200 A 
ATOM     92  F   UNL A   1      37.364  30.123  26.861  1.00  0.00    -0.200 F 
ATOM     93  F   UNL A   1      35.564  30.426  28.884  1.00  0.00    -0.200 F 
ENDBRANCH  59  83
BRANCH  71  94
ATOM     94  C   UNL A   1      44.426  26.906  32.740  1.00  0.00     0.064 A 
ATOM     95  C   UNL A   1      44.124  26.946  34.113  1.00  0.00     0.173 A 
ATOM     96  C   UNL A   1      44.385  25.653  32.117  1.00  0.00     0.173 A 
ATOM     97  F   UNL A   1      44.031  28.108  34.764  1.00  0.00    -0.203 F 
ATOM     98  C   UNL A   1      43.837  25.787  34.833  1.00  0.00     0.198 A 
ATOM     99  C   UNL A   1      44.066  24.499  32.830  1.00  0.00     0.198 A 
ATOM    100  F   UNL A   1      44.602  25.553  30.797  1.00  0.00    -0.203 F 
ATOM    101  F   UNL A   1      43.555  25.860  36.142  1.00  0.00    -0.200 F 
ATOM    102  C   UNL A   1      43.802  24.564  34.189  1.00  0.00     0.200 A 
ATOM    103  F   UNL A   1      43.981  23.325  32.189  1.00  0.00    -0.200 F 
ATOM    104  F   UNL A   1      43.484  23.453  34.868  1.00  0.00    -0.200 F 
ENDBRANCH  71  94
ENDBRANCH  45  46
ENDBRANCH  37  40
ENDBRANCH  35  36
ENDBRANCH  34  35
ENDBRANCH  33  34
ENDBRANCH   3  33
TORSDOF 15
ENDMDL
MODEL 3
REMARK VINA RESULT:     -13.1      5.687     12.388
REMARK SMILES O=C1NC(=O)/C(=C/c2ccc(OCc3cn(-c4ccc(C(=O)NCCCNC(=O)c5ccc(-c6c7nc(c(-c8c(F)c(F)c(F)c(F)c8F)c8ccc([nH]8)c(-c8c(F)c(F)c(F)c(F)c8F)c8nc(c(-c9c(F)c(F)c(F)c(F)c9F)c9ccc6[nH]9)C=C8)C=C7)cc5)cc4)nn3)cc2)S1
REMARK SMILES IDX 21 1 22 2 23 3 20 5 17 6 18 7 94 8 19 9 93 10 16 11 14 12
REMARK SMILES IDX 15 13 96 14 95 15 13 16 12 17 11 18 8 19 9 20 98 21 10 22
REMARK SMILES IDX 97 23 7 24 1 25 2 26 3 27 99 28 4 29 6 31 5 32 24 33 25 34
REMARK SMILES IDX 26 35 27 36 28 37 29 39 30 40 31 41 92 42 32 43 91 44 33 45
REMARK SMILES IDX 34 46 35 47 85 48 36 49 90 50 84 51 86 52 37 53 89 54 83 55
REMARK SMILES IDX 82 56 38 58 70 59 50 60 69 61 51 62 54 63 68 64 87 65 52 66
REMARK SMILES IDX 53 67 67 69 88 70 55 71 39 72 40 73 48 74 41 75 42 76 46 77
REMARK SMILES IDX 49 78 43 79 44 80 47 81 45 82 71 83 72 84 80 85 73 86 74 87
REMARK SMILES IDX 78 88 81 89 75 90 76 91 79 92 77 93 56 94 57 95 65 96 58 97
REMARK SMILES IDX 59 98 63 99 66 100 60 101 61 102 64 103 62 104
REMARK H PARENT 23 4 3 30 27 38 86 57 54 68
REMARK Flexibility Score: inf
ROOT
ATOM      1  C   UNL A   1      37.554  32.462  34.117  1.00  0.00     0.251 C 
ATOM      2  O   UNL A   1      37.699  32.692  35.316  1.00  0.00    -0.269 OA
ATOM      3  N   UNL A   1      36.428  31.773  33.726  1.00  0.00    -0.352 N 
ATOM      4  H   UNL A   1      35.863  31.471  34.475  1.00  0.00     0.163 HD
ENDROOT
BRANCH   1   5
ATOM      5  C   UNL A   1      38.557  32.984  33.144  1.00  0.00     0.039 A 
ATOM      6  C   UNL A   1      40.269  33.948  31.150  1.00  0.00     0.066 A 
ATOM      7  C   UNL A   1      39.146  34.696  31.521  1.00  0.00     0.029 A 
ATOM      8  C   UNL A   1      40.584  32.771  31.819  1.00  0.00     0.029 A 
ATOM      9  C   UNL A   1      38.277  34.195  32.497  1.00  0.00     0.016 A 
ATOM     10  C   UNL A   1      39.757  32.336  32.846  1.00  0.00     0.016 A 
BRANCH   6  11
ATOM     11  N   UNL A   1      41.100  34.387  30.104  1.00  0.00    -0.220 N 
ATOM     12  C   UNL A   1      41.937  35.328  28.327  1.00  0.00     0.120 A 
ATOM     13  C   UNL A   1      40.804  35.290  29.108  1.00  0.00     0.144 A 
ATOM     14  N   UNL A   1      42.876  34.501  28.888  1.00  0.00    -0.131 NA
ATOM     15  N   UNL A   1      42.370  33.963  29.982  1.00  0.00    -0.062 NA
BRANCH  12  16
ATOM     16  C   UNL A   1      42.274  36.166  27.137  1.00  0.00     0.289 C 
BRANCH  16  17
ATOM     17  O   UNL A   1      43.506  36.902  27.224  1.00  0.00    -0.487 OA
BRANCH  17  18
ATOM     18  C   UNL A   1      43.529  38.049  27.968  1.00  0.00     0.119 A 
ATOM     19  C   UNL A   1      43.473  40.606  29.135  1.00  0.00    -0.024 A 
ATOM     20  C   UNL A   1      42.354  40.120  28.455  1.00  0.00     0.012 A 
ATOM     21  C   UNL A   1      44.576  39.769  29.312  1.00  0.00     0.012 A 
ATOM     22  C   UNL A   1      42.388  38.849  27.868  1.00  0.00     0.047 A 
ATOM     23  C   UNL A   1      44.586  38.486  28.762  1.00  0.00     0.047 A 
BRANCH  19  24
ATOM     24  C   UNL A   1      43.495  41.967  29.675  1.00  0.00     0.029 C 
ATOM     25  O   UNL A   1      41.905  42.559  34.423  1.00  0.00    -0.261 OA
ATOM     26  C   UNL A   1      42.317  42.654  33.270  1.00  0.00     0.290 C 
ATOM     27  N   UNL A   1      42.628  43.808  32.636  1.00  0.00    -0.282 N 
ATOM     28  S   UNL A   1      42.590  41.294  32.205  1.00  0.00    -0.022 SA
ATOM     29  C   UNL A   1      43.085  43.734  31.353  1.00  0.00     0.265 C 
ATOM     30  H   UNL A   1      42.527  44.677  33.089  1.00  0.00     0.174 HD
ATOM     31  C   UNL A   1      43.116  42.314  30.914  1.00  0.00     0.083 C 
ATOM     32  O   UNL A   1      43.403  44.692  30.672  1.00  0.00    -0.268 OA
ENDBRANCH  19  24
ENDBRANCH  17  18
ENDBRANCH  16  17
ENDBRANCH  12  16
ENDBRANCH   6  11
ENDBRANCH   1   5
BRANCH   3  33
ATOM     33  C   UNL A   1      35.919  31.411  32.410  1.00  0.00     0.118 C 
BRANCH  33  34
ATOM     34  C   UNL A   1      34.792  32.351  31.950  1.00  0.00     0.042 C 
BRANCH  34  35
ATOM     35  C   UNL A   1      35.292  33.414  31.001  1.00  0.00     0.118 C 
BRANCH  35  36
ATOM     36  N   UNL A   1      34.821  33.213  29.621  1.00  0.00    -0.352 N 
ATOM     37  C   UNL A   1      35.433  32.512  28.594  1.00  0.00     0.251 C 
ATOM     38  H   UNL A   1      33.957  33.630  29.399  1.00  0.00     0.163 HD
ATOM     39  O   UNL A   1      35.122  32.690  27.423  1.00  0.00    -0.269 OA
BRANCH  37  40
ATOM     40  C   UNL A   1      36.467  31.532  28.956  1.00  0.00     0.039 A 
ATOM     41  C   UNL A   1      36.276  30.149  28.945  1.00  0.00     0.014 A 
ATOM     42  C   UNL A   1      37.713  32.071  29.217  1.00  0.00     0.014 A 
ATOM     43  C   UNL A   1      37.389  29.335  29.150  1.00  0.00     0.010 A 
ATOM     44  C   UNL A   1      38.802  31.296  29.001  1.00  0.00     0.010 A 
ATOM     45  C   UNL A   1      38.655  29.935  29.177  1.00  0.00    -0.014 A 
BRANCH  45  46
ATOM     46  C   UNL A   1      39.897  29.220  29.390  1.00  0.00     0.031 A 
ATOM     47  C   UNL A   1      40.232  28.957  30.805  1.00  0.00     0.074 A 
ATOM     48  C   UNL A   1      40.530  28.600  28.365  1.00  0.00     0.049 A 
ATOM     49  N   UNL A   1      41.214  29.450  31.482  1.00  0.00    -0.248 NA
ATOM     50  C   UNL A   1      39.293  28.158  31.606  1.00  0.00     0.031 C 
ATOM     51  C   UNL A   1      40.132  28.474  26.952  1.00  0.00     0.029 A 
ATOM     52  N   UNL A   1      41.639  27.824  28.418  1.00  0.00    -0.354 N 
ATOM     53  C   UNL A   1      41.137  28.869  32.741  1.00  0.00     0.074 A 
ATOM     54  C   UNL A   1      39.843  28.241  32.819  1.00  0.00     0.031 C 
ATOM     55  C   UNL A   1      40.837  27.483  26.363  1.00  0.00     0.029 A 
ATOM     56  C   UNL A   1      41.855  27.039  27.291  1.00  0.00     0.049 A 
ATOM     57  H   UNL A   1      42.246  27.817  29.194  1.00  0.00     0.167 HD
ATOM     58  C   UNL A   1      42.245  28.744  33.523  1.00  0.00     0.037 A 
ATOM     59  C   UNL A   1      42.784  26.059  27.185  1.00  0.00     0.037 A 
ATOM     60  C   UNL A   1      43.326  29.566  33.035  1.00  0.00     0.049 A 
ATOM     61  C   UNL A   1      43.803  26.326  28.240  1.00  0.00     0.074 A 
ATOM     62  C   UNL A   1      43.472  30.921  32.799  1.00  0.00     0.029 A 
ATOM     63  N   UNL A   1      44.325  28.962  32.307  1.00  0.00    -0.354 N 
ATOM     64  N   UNL A   1      44.580  27.378  28.236  1.00  0.00    -0.248 NA
ATOM     65  C   UNL A   1      43.583  25.718  29.547  1.00  0.00     0.031 C 
ATOM     66  C   UNL A   1      44.167  31.000  31.554  1.00  0.00     0.029 A 
ATOM     67  C   UNL A   1      44.478  29.699  31.157  1.00  0.00     0.049 A 
ATOM     68  H   UNL A   1      44.831  28.156  32.560  1.00  0.00     0.167 HD
ATOM     69  C   UNL A   1      44.614  27.807  29.556  1.00  0.00     0.074 A 
ATOM     70  C   UNL A   1      44.022  26.713  30.326  1.00  0.00     0.031 C 
ATOM     71  C   UNL A   1      44.823  29.118  29.880  1.00  0.00     0.037 A 
BRANCH  58  72
ATOM     72  C   UNL A   1      42.476  27.617  34.493  1.00  0.00     0.064 A 
ATOM     73  C   UNL A   1      43.035  26.414  34.023  1.00  0.00     0.173 A 
ATOM     74  C   UNL A   1      41.903  27.563  35.782  1.00  0.00     0.173 A 
ATOM     75  F   UNL A   1      43.592  26.350  32.803  1.00  0.00    -0.203 F 
ATOM     76  C   UNL A   1      42.954  25.229  34.757  1.00  0.00     0.198 A 
ATOM     77  C   UNL A   1      41.873  26.392  36.534  1.00  0.00     0.198 A 
ATOM     78  F   UNL A   1      41.246  28.601  36.314  1.00  0.00    -0.203 F 
ATOM     79  F   UNL A   1      43.384  24.081  34.216  1.00  0.00    -0.200 F 
ATOM     80  C   UNL A   1      42.367  25.217  36.009  1.00  0.00     0.200 A 
ATOM     81  F   UNL A   1      41.284  26.398  37.739  1.00  0.00    -0.200 F 
ATOM     82  F   UNL A   1      42.230  24.070  36.686  1.00  0.00    -0.200 F 
ENDBRANCH  58  72
BRANCH  59  83
ATOM     83  C   UNL A   1      42.627  24.748  26.507  1.00  0.00     0.064 A 
ATOM     84  C   UNL A   1      43.417  24.400  25.402  1.00  0.00     0.173 A 
ATOM     85  C   UNL A   1      41.878  23.705  27.092  1.00  0.00     0.173 A 
ATOM     86  F   UNL A   1      44.196  25.321  24.816  1.00  0.00    -0.203 F 
ATOM     87  C   UNL A   1      43.470  23.085  24.922  1.00  0.00     0.198 A 
ATOM     88  C   UNL A   1      41.927  22.396  26.609  1.00  0.00     0.198 A 
ATOM     89  F   UNL A   1      41.154  23.914  28.201  1.00  0.00    -0.203 F 
ATOM     90  F   UNL A   1      44.280  22.780  23.898  1.00  0.00    -0.200 F 
ATOM     91  C   UNL A   1      42.732  22.084  25.532  1.00  0.00     0.200 A 
ATOM     92  F   UNL A   1      41.238  21.430  27.233  1.00  0.00    -0.200 F 
ATOM     93  F   UNL A   1      42.829  20.815  25.109  1.00  0.00    -0.200 F 
ENDBRANCH  59  83
BRANCH  71  94
ATOM     94  C   UNL A   1      45.203  30.078  28.783  1.00  0.00     0.064 A 
ATOM     95  C   UNL A   1      44.276  30.859  28.067  1.00  0.00     0.173 A 
ATOM     96  C   UNL A   1      46.560  30.349  28.570  1.00  0.00     0.173 A 
ATOM     97  F   UNL A   1      42.964  30.746  28.289  1.00  0.00    -0.203 F 
ATOM     98  C   UNL A   1      44.688  31.830  27.155  1.00  0.00     0.198 A 
ATOM     99  C   UNL A   1      46.970  31.342  27.682  1.00  0.00     0.198 A 
ATOM    100  F   UNL A   1      47.494  29.684  29.266  1.00  0.00    -0.203 F 
ATOM    101  F   UNL A   1      43.778  32.555  26.488  1.00  0.00    -0.200 F 
ATOM    102  C   UNL A   1      46.036  32.075  26.968  1.00  0.00     0.200 A 
ATOM    103  F   UNL A   1      48.277  31.612  27.546  1.00  0.00    -0.200 F 
ATOM    104  F   UNL A   1      46.435  33.037  26.125  1.00  0.00    -0.200 F 
ENDBRANCH  71  94
ENDBRANCH  45  46
ENDBRANCH  37  40
ENDBRANCH  35  36
ENDBRANCH  34  35
ENDBRANCH  33  34
ENDBRANCH   3  33
TORSDOF 15
ENDMDL
