MODEL 1
REMARK VINA RESULT:     -12.1      0.000      0.000
REMARK SMILES COc1cc(Br)c(OC)c(C(=O)N2CCC[C@@H]2C(=O)NCCCNC(=O)c2ccc(-c3c4nc(c(-c5c(F)c(F)c(F)c(F)c5F)c5ccc([nH]5)c(-c5c(F)c(F)c(F)c(F)c5F)c5nc(c(-c6c(F)c(F)c(F)c(F)c6F)c6ccc3[nH]6)C=C5)C=C4)cc2)c1
REMARK SMILES IDX 21 1 20 2 18 3 19 4 17 6 13 7 14 8 15 9 16 10 11 11 12 12
REMARK SMILES IDX 10 13 3 14 4 15 90 16 5 17 6 18 7 19 2 20 1 21 8 22 9 23
REMARK SMILES IDX 22 24 23 25 24 26 25 27 26 29 27 30 28 31 89 32 29 33 88 34
REMARK SMILES IDX 30 35 31 36 32 37 82 38 33 39 87 40 81 41 83 42 34 43 86 44
REMARK SMILES IDX 80 45 79 46 35 48 67 49 47 50 66 51 48 52 51 53 65 54 84 55
REMARK SMILES IDX 49 56 50 57 64 59 85 60 52 61 36 62 37 63 45 64 38 65 39 66
REMARK SMILES IDX 43 67 46 68 40 69 41 70 44 71 42 72 68 73 69 74 77 75 70 76
REMARK SMILES IDX 71 77 75 78 78 79 72 80 73 81 76 82 74 83 53 84 54 85 62 86
REMARK SMILES IDX 55 87 56 88 60 89 63 90 57 91 58 92 61 93 59 94
REMARK H PARENT 20 5 24 28 83 47 51 58
REMARK Flexibility Score: inf
ROOT
ATOM      1  C   UNL A   1      31.620  30.621  26.834  1.00  0.00     0.117 C 
ENDROOT
BRANCH   1   2
ATOM      2  N   UNL A   1      32.662  30.036  26.026  1.00  0.00    -0.354 N 
ATOM      3  C   UNL A   1      32.592  28.987  25.154  1.00  0.00     0.242 C 
ATOM      4  O   UNL A   1      33.669  28.554  24.729  1.00  0.00    -0.273 OA
ATOM      5  H   UNL A   1      33.549  30.453  26.115  1.00  0.00     0.163 HD
BRANCH   3   6
ATOM      6  C   UNL A   1      31.272  28.229  24.881  1.00  0.00     0.174 C 
ATOM      7  N   UNL A   1      31.372  26.773  24.732  1.00  0.00    -0.326 N 
ATOM      8  C   UNL A   1      30.396  26.324  23.754  1.00  0.00     0.121 C 
ATOM      9  C   UNL A   1      30.395  27.444  22.730  1.00  0.00     0.024 C 
ATOM     10  C   UNL A   1      30.633  28.709  23.562  1.00  0.00     0.037 C 
BRANCH   7  11
ATOM     11  C   UNL A   1      31.816  26.004  25.806  1.00  0.00     0.258 C 
ATOM     12  O   UNL A   1      31.647  26.411  26.952  1.00  0.00    -0.269 OA
BRANCH  11  13
ATOM     13  C   UNL A   1      32.736  24.826  25.510  1.00  0.00     0.086 A 
ATOM     14  C   UNL A   1      35.050  24.036  25.395  1.00  0.00     0.121 A 
ATOM     15  C   UNL A   1      34.607  22.730  25.496  1.00  0.00     0.066 A 
ATOM     16  C   UNL A   1      34.116  25.062  25.391  1.00  0.00     0.064 A 
ATOM     17  C   UNL A   1      33.229  22.444  25.550  1.00  0.00     0.064 A 
ATOM     18  Br  UNL A   1      32.870  20.570  25.609  1.00  0.00    -0.047 Br
ATOM     19  C   UNL A   1      32.269  23.483  25.551  1.00  0.00     0.146 A 
BRANCH  14  20
ATOM     20  O   UNL A   1      36.351  24.449  25.393  1.00  0.00    -0.497 OA
ATOM     21  C   UNL A   1      37.332  23.429  25.530  1.00  0.00     0.278 C 
ENDBRANCH  14  20
BRANCH  19  22
ATOM     22  O   UNL A   1      30.910  23.364  25.522  1.00  0.00    -0.495 OA
ATOM     23  C   UNL A   1      30.149  22.922  26.628  1.00  0.00     0.278 C 
ENDBRANCH  19  22
ENDBRANCH  11  13
ENDBRANCH   7  11
ENDBRANCH   3   6
ENDBRANCH   1   2
BRANCH   1  24
ATOM     24  C   UNL A   1      31.532  32.127  26.696  1.00  0.00     0.042 C 
BRANCH  24  25
ATOM     25  C   UNL A   1      32.763  32.837  27.217  1.00  0.00     0.118 C 
BRANCH  25  26
ATOM     26  N   UNL A   1      32.483  34.214  27.617  1.00  0.00    -0.352 N 
ATOM     27  C   UNL A   1      33.006  34.958  28.642  1.00  0.00     0.251 C 
ATOM     28  H   UNL A   1      31.816  34.679  27.064  1.00  0.00     0.163 HD
ATOM     29  O   UNL A   1      32.497  36.037  28.942  1.00  0.00    -0.269 OA
BRANCH  27  30
ATOM     30  C   UNL A   1      34.165  34.456  29.406  1.00  0.00     0.039 A 
ATOM     31  C   UNL A   1      33.950  33.846  30.643  1.00  0.00     0.014 A 
ATOM     32  C   UNL A   1      35.462  34.581  28.901  1.00  0.00     0.014 A 
ATOM     33  C   UNL A   1      35.029  33.299  31.339  1.00  0.00     0.010 A 
ATOM     34  C   UNL A   1      36.515  33.938  29.537  1.00  0.00     0.010 A 
ATOM     35  C   UNL A   1      36.313  33.303  30.770  1.00  0.00    -0.014 A 
BRANCH  35  36
ATOM     36  C   UNL A   1      37.462  32.661  31.451  1.00  0.00     0.031 A 
ATOM     37  C   UNL A   1      38.162  31.498  30.807  1.00  0.00     0.074 A 
ATOM     38  C   UNL A   1      37.823  33.077  32.679  1.00  0.00     0.049 A 
ATOM     39  N   UNL A   1      39.137  30.758  31.270  1.00  0.00    -0.248 NA
ATOM     40  C   UNL A   1      37.679  31.087  29.479  1.00  0.00     0.031 C 
ATOM     41  C   UNL A   1      37.177  34.156  33.430  1.00  0.00     0.029 A 
ATOM     42  N   UNL A   1      38.813  32.634  33.519  1.00  0.00    -0.354 N 
ATOM     43  C   UNL A   1      39.366  29.788  30.303  1.00  0.00     0.074 A 
ATOM     44  C   UNL A   1      38.388  29.991  29.258  1.00  0.00     0.031 C 
ATOM     45  C   UNL A   1      37.803  34.307  34.607  1.00  0.00     0.029 A 
ATOM     46  C   UNL A   1      38.864  33.310  34.714  1.00  0.00     0.049 A 
ATOM     47  H   UNL A   1      39.427  31.900  33.288  1.00  0.00     0.167 HD
ATOM     48  C   UNL A   1      40.322  28.830  30.278  1.00  0.00     0.037 A 
ATOM     49  C   UNL A   1      39.668  33.137  35.778  1.00  0.00     0.037 A 
ATOM     50  C   UNL A   1      41.305  28.651  31.314  1.00  0.00     0.049 A 
ATOM     51  C   UNL A   1      40.726  32.067  35.727  1.00  0.00     0.074 A 
ATOM     52  C   UNL A   1      42.364  27.762  31.354  1.00  0.00     0.029 A 
ATOM     53  N   UNL A   1      41.342  29.370  32.501  1.00  0.00    -0.354 N 
ATOM     54  N   UNL A   1      40.990  31.211  34.771  1.00  0.00    -0.248 NA
ATOM     55  C   UNL A   1      41.601  31.948  36.901  1.00  0.00     0.031 C 
ATOM     56  C   UNL A   1      43.001  27.899  32.592  1.00  0.00     0.029 A 
ATOM     57  C   UNL A   1      42.384  28.920  33.295  1.00  0.00     0.049 A 
ATOM     58  H   UNL A   1      40.718  30.093  32.743  1.00  0.00     0.167 HD
ATOM     59  C   UNL A   1      42.076  30.467  35.213  1.00  0.00     0.074 A 
ATOM     60  C   UNL A   1      42.431  30.988  36.518  1.00  0.00     0.031 C 
ATOM     61  C   UNL A   1      42.722  29.449  34.593  1.00  0.00     0.037 A 
BRANCH  48  62
ATOM     62  C   UNL A   1      40.342  27.900  29.097  1.00  0.00     0.064 A 
ATOM     63  C   UNL A   1      41.106  28.172  27.951  1.00  0.00     0.173 A 
ATOM     64  C   UNL A   1      39.596  26.712  29.118  1.00  0.00     0.173 A 
ATOM     65  F   UNL A   1      41.830  29.298  27.872  1.00  0.00    -0.203 F 
ATOM     66  C   UNL A   1      41.088  27.312  26.855  1.00  0.00     0.198 A 
ATOM     67  C   UNL A   1      39.610  25.835  28.036  1.00  0.00     0.198 A 
ATOM     68  F   UNL A   1      38.852  26.398  30.190  1.00  0.00    -0.203 F 
ATOM     69  F   UNL A   1      41.772  27.627  25.747  1.00  0.00    -0.200 F 
ATOM     70  C   UNL A   1      40.346  26.141  26.900  1.00  0.00     0.200 A 
ATOM     71  F   UNL A   1      38.905  24.697  28.088  1.00  0.00    -0.200 F 
ATOM     72  F   UNL A   1      40.332  25.314  25.848  1.00  0.00    -0.200 F 
ENDBRANCH  48  62
BRANCH  49  73
ATOM     73  C   UNL A   1      39.516  34.016  36.967  1.00  0.00     0.064 A 
ATOM     74  C   UNL A   1      38.774  33.602  38.080  1.00  0.00     0.173 A 
ATOM     75  C   UNL A   1      40.130  35.277  37.024  1.00  0.00     0.173 A 
ATOM     76  F   UNL A   1      38.155  32.413  38.067  1.00  0.00    -0.203 F 
ATOM     77  C   UNL A   1      38.637  34.421  39.200  1.00  0.00     0.198 A 
ATOM     78  C   UNL A   1      40.018  36.081  38.155  1.00  0.00     0.198 A 
ATOM     79  F   UNL A   1      40.861  35.716  35.989  1.00  0.00    -0.203 F 
ATOM     80  F   UNL A   1      37.889  34.017  40.235  1.00  0.00    -0.200 F 
ATOM     81  C   UNL A   1      39.266  35.657  39.240  1.00  0.00     0.200 A 
ATOM     82  F   UNL A   1      40.645  37.265  38.198  1.00  0.00    -0.200 F 
ATOM     83  F   UNL A   1      39.145  36.438  40.322  1.00  0.00    -0.200 F 
ENDBRANCH  49  73
BRANCH  61  84
ATOM     84  C   UNL A   1      43.903  28.850  35.302  1.00  0.00     0.064 A 
ATOM     85  C   UNL A   1      43.763  27.781  36.201  1.00  0.00     0.173 A 
ATOM     86  C   UNL A   1      45.200  29.323  35.044  1.00  0.00     0.173 A 
ATOM     87  F   UNL A   1      42.545  27.301  36.493  1.00  0.00    -0.203 F 
ATOM     88  C   UNL A   1      44.873  27.228  36.834  1.00  0.00     0.198 A 
ATOM     89  C   UNL A   1      46.310  28.744  35.652  1.00  0.00     0.198 A 
ATOM     90  F   UNL A   1      45.391  30.338  34.188  1.00  0.00    -0.203 F 
ATOM     91  F   UNL A   1      44.710  26.243  37.728  1.00  0.00    -0.200 F 
ATOM     92  C   UNL A   1      46.145  27.703  36.553  1.00  0.00     0.200 A 
ATOM     93  F   UNL A   1      47.539  29.194  35.365  1.00  0.00    -0.200 F 
ATOM     94  F   UNL A   1      47.212  27.163  37.155  1.00  0.00    -0.200 F 
ENDBRANCH  61  84
ENDBRANCH  35  36
ENDBRANCH  27  30
ENDBRANCH  25  26
ENDBRANCH  24  25
ENDBRANCH   1  24
TORSDOF 14
ENDMDL
MODEL 2
REMARK VINA RESULT:     -12.0      0.126      1.943
REMARK SMILES COc1cc(Br)c(OC)c(C(=O)N2CCC[C@@H]2C(=O)NCCCNC(=O)c2ccc(-c3c4nc(c(-c5c(F)c(F)c(F)c(F)c5F)c5ccc([nH]5)c(-c5c(F)c(F)c(F)c(F)c5F)c5nc(c(-c6c(F)c(F)c(F)c(F)c6F)c6ccc3[nH]6)C=C5)C=C4)cc2)c1
REMARK SMILES IDX 21 1 20 2 18 3 19 4 17 6 13 7 14 8 15 9 16 10 11 11 12 12
REMARK SMILES IDX 10 13 3 14 4 15 90 16 5 17 6 18 7 19 2 20 1 21 8 22 9 23
REMARK SMILES IDX 22 24 23 25 24 26 25 27 26 29 27 30 28 31 89 32 29 33 88 34
REMARK SMILES IDX 30 35 31 36 32 37 82 38 33 39 87 40 81 41 83 42 34 43 86 44
REMARK SMILES IDX 80 45 79 46 35 48 67 49 47 50 66 51 48 52 51 53 65 54 84 55
REMARK SMILES IDX 49 56 50 57 64 59 85 60 52 61 36 62 37 63 45 64 38 65 39 66
REMARK SMILES IDX 43 67 46 68 40 69 41 70 44 71 42 72 68 73 69 74 77 75 70 76
REMARK SMILES IDX 71 77 75 78 78 79 72 80 73 81 76 82 74 83 53 84 54 85 62 86
REMARK SMILES IDX 55 87 56 88 60 89 63 90 57 91 58 92 61 93 59 94
REMARK H PARENT 20 5 24 28 83 47 51 58
REMARK Flexibility Score: inf
ROOT
ATOM      1  C   UNL A   1      31.650  30.553  26.838  1.00  0.00     0.117 C 
ENDROOT
BRANCH   1   2
ATOM      2  N   UNL A   1      32.706  30.015  26.016  1.00  0.00    -0.354 N 
ATOM      3  C   UNL A   1      32.656  29.004  25.098  1.00  0.00     0.242 C 
ATOM      4  O   UNL A   1      33.742  28.602  24.666  1.00  0.00    -0.273 OA
ATOM      5  H   UNL A   1      33.587  30.436  26.132  1.00  0.00     0.163 HD
BRANCH   3   6
ATOM      6  C   UNL A   1      31.348  28.245  24.778  1.00  0.00     0.174 C 
ATOM      7  N   UNL A   1      31.450  26.787  24.653  1.00  0.00    -0.326 N 
ATOM      8  C   UNL A   1      30.516  26.327  23.640  1.00  0.00     0.121 C 
ATOM      9  C   UNL A   1      30.562  27.434  22.602  1.00  0.00     0.024 C 
ATOM     10  C   UNL A   1      30.768  28.708  23.427  1.00  0.00     0.037 C 
BRANCH   7  11
ATOM     11  C   UNL A   1      31.845  26.031  25.755  1.00  0.00     0.258 C 
ATOM     12  O   UNL A   1      31.622  26.451  26.888  1.00  0.00    -0.269 OA
BRANCH  11  13
ATOM     13  C   UNL A   1      32.781  24.853  25.515  1.00  0.00     0.086 A 
ATOM     14  C   UNL A   1      35.101  24.073  25.501  1.00  0.00     0.121 A 
ATOM     15  C   UNL A   1      34.660  22.766  25.611  1.00  0.00     0.066 A 
ATOM     16  C   UNL A   1      34.163  25.094  25.443  1.00  0.00     0.064 A 
ATOM     17  C   UNL A   1      33.282  22.474  25.620  1.00  0.00     0.064 A 
ATOM     18  Br  UNL A   1      32.930  20.601  25.701  1.00  0.00    -0.047 Br
ATOM     19  C   UNL A   1      32.319  23.508  25.565  1.00  0.00     0.146 A 
BRANCH  14  20
ATOM     20  O   UNL A   1      36.399  24.492  25.539  1.00  0.00    -0.497 OA
ATOM     21  C   UNL A   1      37.389  23.478  25.420  1.00  0.00     0.278 C 
ENDBRANCH  14  20
BRANCH  19  22
ATOM     22  O   UNL A   1      30.962  23.382  25.488  1.00  0.00    -0.495 OA
ATOM     23  C   UNL A   1      30.165  22.943  26.570  1.00  0.00     0.278 C 
ENDBRANCH  19  22
ENDBRANCH  11  13
ENDBRANCH   7  11
ENDBRANCH   3   6
ENDBRANCH   1   2
BRANCH   1  24
ATOM     24  C   UNL A   1      31.522  32.058  26.735  1.00  0.00     0.042 C 
BRANCH  24  25
ATOM     25  C   UNL A   1      32.769  32.786  27.187  1.00  0.00     0.118 C 
BRANCH  25  26
ATOM     26  N   UNL A   1      32.495  34.164  27.587  1.00  0.00    -0.352 N 
ATOM     27  C   UNL A   1      33.025  34.908  28.609  1.00  0.00     0.251 C 
ATOM     28  H   UNL A   1      31.826  34.631  27.037  1.00  0.00     0.163 HD
ATOM     29  O   UNL A   1      32.520  35.989  28.910  1.00  0.00    -0.269 OA
BRANCH  27  30
ATOM     30  C   UNL A   1      34.187  34.404  29.367  1.00  0.00     0.039 A 
ATOM     31  C   UNL A   1      33.971  33.735  30.574  1.00  0.00     0.014 A 
ATOM     32  C   UNL A   1      35.487  34.584  28.888  1.00  0.00     0.014 A 
ATOM     33  C   UNL A   1      35.054  33.187  31.262  1.00  0.00     0.010 A 
ATOM     34  C   UNL A   1      36.547  33.942  29.511  1.00  0.00     0.010 A 
ATOM     35  C   UNL A   1      36.346  33.249  30.712  1.00  0.00    -0.014 A 
BRANCH  35  36
ATOM     36  C   UNL A   1      37.502  32.609  31.382  1.00  0.00     0.031 A 
ATOM     37  C   UNL A   1      38.204  31.453  30.726  1.00  0.00     0.074 A 
ATOM     38  C   UNL A   1      37.868  33.018  32.611  1.00  0.00     0.049 A 
ATOM     39  N   UNL A   1      39.186  30.715  31.178  1.00  0.00    -0.248 NA
ATOM     40  C   UNL A   1      37.715  31.049  29.398  1.00  0.00     0.031 C 
ATOM     41  C   UNL A   1      37.221  34.088  33.373  1.00  0.00     0.029 A 
ATOM     42  N   UNL A   1      38.865  32.574  33.442  1.00  0.00    -0.354 N 
ATOM     43  C   UNL A   1      39.413  29.753  30.203  1.00  0.00     0.074 A 
ATOM     44  C   UNL A   1      38.428  29.958  29.166  1.00  0.00     0.031 C 
ATOM     45  C   UNL A   1      37.854  34.235  34.547  1.00  0.00     0.029 A 
ATOM     46  C   UNL A   1      38.920  33.243  34.641  1.00  0.00     0.049 A 
ATOM     47  H   UNL A   1      39.482  31.845  33.202  1.00  0.00     0.167 HD
ATOM     48  C   UNL A   1      40.375  28.800  30.165  1.00  0.00     0.037 A 
ATOM     49  C   UNL A   1      39.732  33.067  35.699  1.00  0.00     0.037 A 
ATOM     50  C   UNL A   1      41.364  28.619  31.194  1.00  0.00     0.049 A 
ATOM     51  C   UNL A   1      40.795  32.002  35.635  1.00  0.00     0.074 A 
ATOM     52  C   UNL A   1      42.428  27.735  31.222  1.00  0.00     0.029 A 
ATOM     53  N   UNL A   1      41.404  29.330  32.386  1.00  0.00    -0.354 N 
ATOM     54  N   UNL A   1      41.057  31.154  34.671  1.00  0.00    -0.248 NA
ATOM     55  C   UNL A   1      41.678  31.879  36.802  1.00  0.00     0.031 C 
ATOM     56  C   UNL A   1      43.072  27.867  32.457  1.00  0.00     0.029 A 
ATOM     57  C   UNL A   1      42.454  28.881  33.171  1.00  0.00     0.049 A 
ATOM     58  H   UNL A   1      40.778  30.048  32.636  1.00  0.00     0.167 HD
ATOM     59  C   UNL A   1      42.150  30.413  35.102  1.00  0.00     0.074 A 
ATOM     60  C   UNL A   1      42.510  30.926  36.408  1.00  0.00     0.031 C 
ATOM     61  C   UNL A   1      42.798  29.402  34.471  1.00  0.00     0.037 A 
BRANCH  48  62
ATOM     62  C   UNL A   1      40.392  27.879  28.979  1.00  0.00     0.064 A 
ATOM     63  C   UNL A   1      39.670  26.675  28.962  1.00  0.00     0.173 A 
ATOM     64  C   UNL A   1      41.133  28.210  27.834  1.00  0.00     0.173 A 
ATOM     65  F   UNL A   1      38.953  26.302  30.033  1.00  0.00    -0.203 F 
ATOM     66  C   UNL A   1      39.723  25.820  27.865  1.00  0.00     0.198 A 
ATOM     67  C   UNL A   1      41.153  27.371  26.722  1.00  0.00     0.198 A 
ATOM     68  F   UNL A   1      41.838  29.351  27.790  1.00  0.00    -0.203 F 
ATOM     69  F   UNL A   1      39.078  24.645  27.900  1.00  0.00    -0.200 F 
ATOM     70  C   UNL A   1      40.458  26.171  26.743  1.00  0.00     0.200 A 
ATOM     71  F   UNL A   1      41.852  27.720  25.634  1.00  0.00    -0.200 F 
ATOM     72  F   UNL A   1      40.506  25.349  25.686  1.00  0.00    -0.200 F 
ENDBRANCH  48  62
BRANCH  49  73
ATOM     73  C   UNL A   1      39.583  33.937  36.894  1.00  0.00     0.064 A 
ATOM     74  C   UNL A   1      40.197  35.194  36.953  1.00  0.00     0.173 A 
ATOM     75  C   UNL A   1      38.803  33.540  37.991  1.00  0.00     0.173 A 
ATOM     76  F   UNL A   1      40.966  35.612  35.936  1.00  0.00    -0.203 F 
ATOM     77  C   UNL A   1      40.052  36.017  38.069  1.00  0.00     0.198 A 
ATOM     78  C   UNL A   1      38.633  34.375  39.093  1.00  0.00     0.198 A 
ATOM     79  F   UNL A   1      38.184  32.350  37.981  1.00  0.00    -0.203 F 
ATOM     80  F   UNL A   1      40.683  37.197  38.115  1.00  0.00    -0.200 F 
ATOM     81  C   UNL A   1      39.263  35.610  39.135  1.00  0.00     0.200 A 
ATOM     82  F   UNL A   1      37.853  33.987  40.112  1.00  0.00    -0.200 F 
ATOM     83  F   UNL A   1      39.113  36.406  40.202  1.00  0.00    -0.200 F 
ENDBRANCH  49  73
BRANCH  61  84
ATOM     84  C   UNL A   1      43.986  28.804  35.168  1.00  0.00     0.064 A 
ATOM     85  C   UNL A   1      45.285  29.297  34.973  1.00  0.00     0.173 A 
ATOM     86  C   UNL A   1      43.816  27.750  36.080  1.00  0.00     0.173 A 
ATOM     87  F   UNL A   1      45.504  30.294  34.101  1.00  0.00    -0.203 F 
ATOM     88  C   UNL A   1      46.371  28.740  35.643  1.00  0.00     0.198 A 
ATOM     89  C   UNL A   1      44.899  27.220  36.775  1.00  0.00     0.198 A 
ATOM     90  F   UNL A   1      42.593  27.245  36.310  1.00  0.00    -0.203 F 
ATOM     91  F   UNL A   1      47.609  29.193  35.401  1.00  0.00    -0.200 F 
ATOM     92  C   UNL A   1      46.176  27.709  36.549  1.00  0.00     0.200 A 
ATOM     93  F   UNL A   1      44.705  26.235  37.663  1.00  0.00    -0.200 F 
ATOM     94  F   UNL A   1      47.221  27.181  37.201  1.00  0.00    -0.200 F 
ENDBRANCH  61  84
ENDBRANCH  35  36
ENDBRANCH  27  30
ENDBRANCH  25  26
ENDBRANCH  24  25
ENDBRANCH   1  24
TORSDOF 14
ENDMDL
MODEL 3
REMARK VINA RESULT:     -12.0      0.807      2.255
REMARK SMILES COc1cc(Br)c(OC)c(C(=O)N2CCC[C@@H]2C(=O)NCCCNC(=O)c2ccc(-c3c4nc(c(-c5c(F)c(F)c(F)c(F)c5F)c5ccc([nH]5)c(-c5c(F)c(F)c(F)c(F)c5F)c5nc(c(-c6c(F)c(F)c(F)c(F)c6F)c6ccc3[nH]6)C=C5)C=C4)cc2)c1
REMARK SMILES IDX 21 1 20 2 18 3 19 4 17 6 13 7 14 8 15 9 16 10 11 11 12 12
REMARK SMILES IDX 10 13 3 14 4 15 90 16 5 17 6 18 7 19 2 20 1 21 8 22 9 23
REMARK SMILES IDX 22 24 23 25 24 26 25 27 26 29 27 30 28 31 89 32 29 33 88 34
REMARK SMILES IDX 30 35 31 36 32 37 82 38 33 39 87 40 81 41 83 42 34 43 86 44
REMARK SMILES IDX 80 45 79 46 35 48 67 49 47 50 66 51 48 52 51 53 65 54 84 55
REMARK SMILES IDX 49 56 50 57 64 59 85 60 52 61 36 62 37 63 45 64 38 65 39 66
REMARK SMILES IDX 43 67 46 68 40 69 41 70 44 71 42 72 68 73 69 74 77 75 70 76
REMARK SMILES IDX 71 77 75 78 78 79 72 80 73 81 76 82 74 83 53 84 54 85 62 86
REMARK SMILES IDX 55 87 56 88 60 89 63 90 57 91 58 92 61 93 59 94
REMARK H PARENT 20 5 24 28 83 47 51 58
REMARK Flexibility Score: inf
ROOT
ATOM      1  C   UNL A   1      31.690  30.641  26.912  1.00  0.00     0.117 C 
ENDROOT
BRANCH   1   2
ATOM      2  N   UNL A   1      32.646  30.150  25.950  1.00  0.00    -0.354 N 
ATOM      3  C   UNL A   1      32.456  29.293  24.903  1.00  0.00     0.242 C 
ATOM      4  O   UNL A   1      33.476  28.877  24.343  1.00  0.00    -0.273 OA
ATOM      5  H   UNL A   1      33.565  30.481  26.063  1.00  0.00     0.163 HD
BRANCH   3   6
ATOM      6  C   UNL A   1      31.070  28.693  24.571  1.00  0.00     0.174 C 
ATOM      7  N   UNL A   1      30.962  27.230  24.618  1.00  0.00    -0.326 N 
ATOM      8  C   UNL A   1      30.032  26.787  23.594  1.00  0.00     0.121 C 
ATOM      9  C   UNL A   1      30.303  27.741  22.446  1.00  0.00     0.024 C 
ATOM     10  C   UNL A   1      30.647  29.065  23.136  1.00  0.00     0.037 C 
BRANCH   7  11
ATOM     11  C   UNL A   1      31.175  26.566  25.825  1.00  0.00     0.258 C 
ATOM     12  O   UNL A   1      31.281  27.215  26.862  1.00  0.00    -0.269 OA
BRANCH  11  13
ATOM     13  C   UNL A   1      31.541  25.088  25.772  1.00  0.00     0.086 A 
ATOM     14  C   UNL A   1      30.745  22.789  26.035  1.00  0.00     0.121 A 
ATOM     15  C   UNL A   1      31.812  22.335  25.281  1.00  0.00     0.066 A 
ATOM     16  C   UNL A   1      30.628  24.149  26.281  1.00  0.00     0.064 A 
ATOM     17  C   UNL A   1      32.788  23.235  24.808  1.00  0.00     0.064 A 
ATOM     18  Br  UNL A   1      34.195  22.360  23.862  1.00  0.00    -0.047 Br
ATOM     19  C   UNL A   1      32.675  24.624  25.049  1.00  0.00     0.146 A 
BRANCH  14  20
ATOM     20  O   UNL A   1      29.708  22.034  26.502  1.00  0.00    -0.497 OA
ATOM     21  C   UNL A   1      28.942  22.605  27.555  1.00  0.00     0.278 C 
ENDBRANCH  14  20
BRANCH  19  22
ATOM     22  O   UNL A   1      33.569  25.602  24.726  1.00  0.00    -0.495 OA
ATOM     23  C   UNL A   1      33.958  25.885  23.396  1.00  0.00     0.278 C 
ENDBRANCH  19  22
ENDBRANCH  11  13
ENDBRANCH   7  11
ENDBRANCH   3   6
ENDBRANCH   1   2
BRANCH   1  24
ATOM     24  C   UNL A   1      31.509  32.143  26.861  1.00  0.00     0.042 C 
BRANCH  24  25
ATOM     25  C   UNL A   1      32.769  32.900  27.223  1.00  0.00     0.118 C 
BRANCH  25  26
ATOM     26  N   UNL A   1      32.494  34.272  27.638  1.00  0.00    -0.352 N 
ATOM     27  C   UNL A   1      33.021  35.005  28.670  1.00  0.00     0.251 C 
ATOM     28  H   UNL A   1      31.826  34.745  27.092  1.00  0.00     0.163 HD
ATOM     29  O   UNL A   1      32.515  36.082  28.981  1.00  0.00    -0.269 OA
BRANCH  27  30
ATOM     30  C   UNL A   1      34.181  34.492  29.425  1.00  0.00     0.039 A 
ATOM     31  C   UNL A   1      33.965  33.853  30.647  1.00  0.00     0.014 A 
ATOM     32  C   UNL A   1      35.478  34.635  28.927  1.00  0.00     0.014 A 
ATOM     33  C   UNL A   1      35.045  33.296  31.334  1.00  0.00     0.010 A 
ATOM     34  C   UNL A   1      36.533  33.984  29.551  1.00  0.00     0.010 A 
ATOM     35  C   UNL A   1      36.331  33.320  30.769  1.00  0.00    -0.014 A 
BRANCH  35  36
ATOM     36  C   UNL A   1      37.482  32.670  31.439  1.00  0.00     0.031 A 
ATOM     37  C   UNL A   1      38.180  31.515  30.777  1.00  0.00     0.074 A 
ATOM     38  C   UNL A   1      37.845  33.069  32.672  1.00  0.00     0.049 A 
ATOM     39  N   UNL A   1      39.157  30.769  31.228  1.00  0.00    -0.248 NA
ATOM     40  C   UNL A   1      37.695  31.122  29.445  1.00  0.00     0.031 C 
ATOM     41  C   UNL A   1      37.200  34.137  33.439  1.00  0.00     0.029 A 
ATOM     42  N   UNL A   1      38.837  32.614  33.504  1.00  0.00    -0.354 N 
ATOM     43  C   UNL A   1      39.384  29.812  30.247  1.00  0.00     0.074 A 
ATOM     44  C   UNL A   1      38.404  30.030  29.208  1.00  0.00     0.031 C 
ATOM     45  C   UNL A   1      37.829  34.272  34.616  1.00  0.00     0.029 A 
ATOM     46  C   UNL A   1      38.890  33.274  34.707  1.00  0.00     0.049 A 
ATOM     47  H   UNL A   1      39.451  31.883  33.261  1.00  0.00     0.167 HD
ATOM     48  C   UNL A   1      40.341  28.856  30.207  1.00  0.00     0.037 A 
ATOM     49  C   UNL A   1      39.697  33.087  35.767  1.00  0.00     0.037 A 
ATOM     50  C   UNL A   1      41.325  28.662  31.238  1.00  0.00     0.049 A 
ATOM     51  C   UNL A   1      40.755  32.018  35.700  1.00  0.00     0.074 A 
ATOM     52  C   UNL A   1      42.385  27.773  31.264  1.00  0.00     0.029 A 
ATOM     53  N   UNL A   1      41.364  29.365  32.435  1.00  0.00    -0.354 N 
ATOM     54  N   UNL A   1      41.017  31.174  34.731  1.00  0.00    -0.248 NA
ATOM     55  C   UNL A   1      41.633  31.883  36.869  1.00  0.00     0.031 C 
ATOM     56  C   UNL A   1      43.024  27.893  32.502  1.00  0.00     0.029 A 
ATOM     57  C   UNL A   1      42.408  28.905  33.221  1.00  0.00     0.049 A 
ATOM     58  H   UNL A   1      40.741  30.084  32.688  1.00  0.00     0.167 HD
ATOM     59  C   UNL A   1      42.104  30.425  35.161  1.00  0.00     0.074 A 
ATOM     60  C   UNL A   1      42.462  30.928  36.472  1.00  0.00     0.031 C 
ATOM     61  C   UNL A   1      42.750  29.416  34.526  1.00  0.00     0.037 A 
BRANCH  48  62
ATOM     62  C   UNL A   1      40.358  27.942  29.014  1.00  0.00     0.064 A 
ATOM     63  C   UNL A   1      41.107  28.237  27.864  1.00  0.00     0.173 A 
ATOM     64  C   UNL A   1      39.625  26.746  29.026  1.00  0.00     0.173 A 
ATOM     65  F   UNL A   1      41.819  29.372  27.793  1.00  0.00    -0.203 F 
ATOM     66  C   UNL A   1      41.087  27.392  26.757  1.00  0.00     0.198 A 
ATOM     67  C   UNL A   1      39.637  25.883  27.932  1.00  0.00     0.198 A 
ATOM     68  F   UNL A   1      38.894  26.409  30.100  1.00  0.00    -0.203 F 
ATOM     69  F   UNL A   1      41.756  27.729  25.646  1.00  0.00    -0.200 F 
ATOM     70  C   UNL A   1      40.357  26.213  26.793  1.00  0.00     0.200 A 
ATOM     71  F   UNL A   1      38.944  24.738  27.976  1.00  0.00    -0.200 F 
ATOM     72  F   UNL A   1      40.341  25.399  25.730  1.00  0.00    -0.200 F 
ENDBRANCH  48  62
BRANCH  49  73
ATOM     73  C   UNL A   1      39.548  33.949  36.968  1.00  0.00     0.064 A 
ATOM     74  C   UNL A   1      40.157  35.209  37.032  1.00  0.00     0.173 A 
ATOM     75  C   UNL A   1      38.772  33.543  38.065  1.00  0.00     0.173 A 
ATOM     76  F   UNL A   1      40.921  35.636  36.016  1.00  0.00    -0.203 F 
ATOM     77  C   UNL A   1      40.010  36.024  38.153  1.00  0.00     0.198 A 
ATOM     78  C   UNL A   1      38.602  34.371  39.172  1.00  0.00     0.198 A 
ATOM     79  F   UNL A   1      38.159  32.350  38.050  1.00  0.00    -0.203 F 
ATOM     80  F   UNL A   1      40.636  37.207  38.204  1.00  0.00    -0.200 F 
ATOM     81  C   UNL A   1      39.227  35.608  39.220  1.00  0.00     0.200 A 
ATOM     82  F   UNL A   1      37.827  33.973  40.190  1.00  0.00    -0.200 F 
ATOM     83  F   UNL A   1      39.077  36.397  40.291  1.00  0.00    -0.200 F 
ENDBRANCH  49  73
BRANCH  61  84
ATOM     84  C   UNL A   1      43.932  28.807  35.223  1.00  0.00     0.064 A 
ATOM     85  C   UNL A   1      45.237  29.279  35.017  1.00  0.00     0.173 A 
ATOM     86  C   UNL A   1      43.751  27.765  36.147  1.00  0.00     0.173 A 
ATOM     87  F   UNL A   1      45.467  30.264  34.134  1.00  0.00    -0.203 F 
ATOM     88  C   UNL A   1      46.318  28.713  35.688  1.00  0.00     0.198 A 
ATOM     89  C   UNL A   1      44.830  27.226  36.842  1.00  0.00     0.198 A 
ATOM     90  F   UNL A   1      42.523  27.281  36.388  1.00  0.00    -0.203 F 
ATOM     91  F   UNL A   1      47.562  29.145  35.435  1.00  0.00    -0.200 F 
ATOM     92  C   UNL A   1      46.113  27.694  36.605  1.00  0.00     0.200 A 
ATOM     93  F   UNL A   1      44.626  26.253  37.740  1.00  0.00    -0.200 F 
ATOM     94  F   UNL A   1      47.153  27.157  37.257  1.00  0.00    -0.200 F 
ENDBRANCH  61  84
ENDBRANCH  35  36
ENDBRANCH  27  30
ENDBRANCH  25  26
ENDBRANCH  24  25
ENDBRANCH   1  24
TORSDOF 14
ENDMDL
