MODEL 1
REMARK VINA RESULT:     -12.6      0.000      0.000
REMARK SMILES C[C@H]1[C@@H](C(=O)NCCCNC(=O)c2ccc(-c3c4nc(c(-c5c(F)c(F)c(F)c(F)c5F)c5ccc([nH]5)c(-c5c(F)c(F)c(F)c(F)c5F)c5nc(c(-c6c(F)c(F)c(F)c(F)c6F)c6ccc3[nH]6)C=C5)C=C4)cc2)CCN1C(=O)N1CCn2cnnc2C1
REMARK SMILES IDX 8 1 7 2 6 3 4 4 5 5 3 7 1 8 2 9 78 10 76 11 77 12 79 13
REMARK SMILES IDX 80 14 81 15 82 16 89 17 83 18 88 19 84 20 87 21 85 22 86 23
REMARK SMILES IDX 9 24 10 25 11 26 12 28 13 29 14 30 75 31 15 32 74 33 16 34
REMARK SMILES IDX 17 35 18 36 68 37 19 38 73 39 67 40 69 41 20 42 72 43 66 44
REMARK SMILES IDX 65 45 21 47 53 48 33 49 52 50 34 51 37 52 51 53 70 54 35 55
REMARK SMILES IDX 36 56 50 58 71 59 38 60 22 61 23 62 31 63 24 64 25 65 29 66
REMARK SMILES IDX 32 67 26 68 27 69 30 70 28 71 54 72 55 73 63 74 56 75 57 76
REMARK SMILES IDX 61 77 64 78 58 79 59 80 62 81 60 82 39 83 40 84 48 85 41 86
REMARK SMILES IDX 42 87 46 88 49 89 43 90 44 91 47 92 45 93
REMARK H PARENT 6 6 10 27 69 46 37 57
REMARK Flexibility Score: inf
ROOT
ATOM      1  C   UNL A   1      32.829  29.262  23.691  1.00  0.00     0.042 C 
ENDROOT
BRANCH   1   2
ATOM      2  C   UNL A   1      33.986  28.788  22.809  1.00  0.00     0.117 C 
BRANCH   2   3
ATOM      3  N   UNL A   1      33.528  27.703  21.968  1.00  0.00    -0.356 N 
ATOM      4  C   UNL A   1      33.413  26.369  22.186  1.00  0.00     0.225 C 
ATOM      5  O   UNL A   1      33.278  25.697  21.158  1.00  0.00    -0.275 OA
ATOM      6  H   UNL A   1      33.248  27.987  21.068  1.00  0.00     0.163 HD
BRANCH   4   7
ATOM      7  C   UNL A   1      33.282  25.745  23.589  1.00  0.00     0.102 C 
ATOM      8  C   UNL A   1      34.777  23.589  23.231  1.00  0.00     0.032 C 
ATOM      9  C   UNL A   1      33.576  24.248  23.876  1.00  0.00     0.096 C 
ATOM     10  N   UNL A   1      32.322  23.552  23.565  1.00  0.00    -0.321 N 
ATOM     11  C   UNL A   1      31.774  25.777  23.963  1.00  0.00     0.037 C 
ATOM     12  C   UNL A   1      31.250  24.494  23.322  1.00  0.00     0.122 C 
BRANCH  10  13
ATOM     13  C   UNL A   1      32.144  22.206  23.366  1.00  0.00     0.320 C 
ATOM     14  O   UNL A   1      32.209  21.690  22.252  1.00  0.00    -0.248 OA
BRANCH  13  15
ATOM     15  N   UNL A   1      31.892  21.457  24.507  1.00  0.00    -0.315 N 
ATOM     16  C   UNL A   1      31.565  22.168  25.752  1.00  0.00     0.144 C 
ATOM     17  C   UNL A   1      32.634  20.198  24.664  1.00  0.00     0.199 C 
ATOM     18  C   UNL A   1      32.644  22.048  26.843  1.00  0.00     0.146 C 
ATOM     19  C   UNL A   1      33.907  20.588  25.323  1.00  0.00     0.152 A 
ATOM     20  N   UNL A   1      33.881  21.534  26.310  1.00  0.00    -0.314 N 
ATOM     21  N   UNL A   1      35.154  20.340  25.001  1.00  0.00    -0.134 NA
ATOM     22  C   UNL A   1      35.155  21.939  26.490  1.00  0.00     0.226 A 
ATOM     23  N   UNL A   1      35.946  21.196  25.746  1.00  0.00    -0.139 NA
ENDBRANCH  13  15
ENDBRANCH  10  13
ENDBRANCH   4   7
ENDBRANCH   2   3
ENDBRANCH   1   2
BRANCH   1  24
ATOM     24  C   UNL A   1      33.160  29.314  25.175  1.00  0.00     0.118 C 
BRANCH  24  25
ATOM     25  N   UNL A   1      32.752  30.574  25.767  1.00  0.00    -0.352 N 
ATOM     26  C   UNL A   1      33.221  31.236  26.874  1.00  0.00     0.251 C 
ATOM     27  H   UNL A   1      32.016  31.030  25.296  1.00  0.00     0.163 HD
ATOM     28  O   UNL A   1      32.540  32.151  27.338  1.00  0.00    -0.269 OA
BRANCH  26  29
ATOM     29  C   UNL A   1      34.508  30.886  27.531  1.00  0.00     0.039 A 
ATOM     30  C   UNL A   1      34.672  29.580  28.010  1.00  0.00     0.014 A 
ATOM     31  C   UNL A   1      35.515  31.824  27.775  1.00  0.00     0.014 A 
ATOM     32  C   UNL A   1      35.831  29.218  28.705  1.00  0.00     0.010 A 
ATOM     33  C   UNL A   1      36.716  31.437  28.375  1.00  0.00     0.010 A 
ATOM     34  C   UNL A   1      36.876  30.140  28.880  1.00  0.00    -0.014 A 
BRANCH  34  35
ATOM     35  C   UNL A   1      38.104  29.774  29.638  1.00  0.00     0.031 A 
ATOM     36  C   UNL A   1      38.332  30.317  31.026  1.00  0.00     0.074 A 
ATOM     37  C   UNL A   1      39.031  28.974  29.075  1.00  0.00     0.049 A 
ATOM     38  N   UNL A   1      39.347  30.132  31.835  1.00  0.00    -0.248 NA
ATOM     39  C   UNL A   1      37.295  31.209  31.570  1.00  0.00     0.031 C 
ATOM     40  C   UNL A   1      38.960  28.425  27.722  1.00  0.00     0.029 A 
ATOM     41  N   UNL A   1      40.215  28.488  29.570  1.00  0.00    -0.354 N 
ATOM     42  C   UNL A   1      39.077  30.893  32.966  1.00  0.00     0.074 A 
ATOM     43  C   UNL A   1      37.835  31.591  32.717  1.00  0.00     0.031 C 
ATOM     44  C   UNL A   1      40.038  27.655  27.503  1.00  0.00     0.029 A 
ATOM     45  C   UNL A   1      40.891  27.681  28.688  1.00  0.00     0.049 A 
ATOM     46  H   UNL A   1      40.548  28.698  30.472  1.00  0.00     0.167 HD
ATOM     47  C   UNL A   1      39.781  30.983  34.120  1.00  0.00     0.037 A 
ATOM     48  C   UNL A   1      42.067  27.036  28.817  1.00  0.00     0.037 A 
ATOM     49  C   UNL A   1      41.001  30.265  34.383  1.00  0.00     0.049 A 
ATOM     50  C   UNL A   1      42.821  27.134  30.115  1.00  0.00     0.074 A 
ATOM     51  C   UNL A   1      41.759  30.243  35.541  1.00  0.00     0.029 A 
ATOM     52  N   UNL A   1      41.640  29.438  33.471  1.00  0.00    -0.354 N 
ATOM     53  N   UNL A   1      42.520  27.805  31.200  1.00  0.00    -0.248 NA
ATOM     54  C   UNL A   1      44.075  26.373  30.211  1.00  0.00     0.031 C 
ATOM     55  C   UNL A   1      42.879  29.435  35.316  1.00  0.00     0.029 A 
ATOM     56  C   UNL A   1      42.793  28.914  34.035  1.00  0.00     0.049 A 
ATOM     57  H   UNL A   1      41.322  29.251  32.558  1.00  0.00     0.167 HD
ATOM     58  C   UNL A   1      43.531  27.534  32.111  1.00  0.00     0.074 A 
ATOM     59  C   UNL A   1      44.444  26.617  31.460  1.00  0.00     0.031 C 
ATOM     60  C   UNL A   1      43.693  28.003  33.372  1.00  0.00     0.037 A 
BRANCH  47  61
ATOM     61  C   UNL A   1      39.240  31.883  35.194  1.00  0.00     0.064 A 
ATOM     62  C   UNL A   1      38.462  31.383  36.251  1.00  0.00     0.173 A 
ATOM     63  C   UNL A   1      39.523  33.257  35.186  1.00  0.00     0.173 A 
ATOM     64  F   UNL A   1      38.153  30.078  36.302  1.00  0.00    -0.203 F 
ATOM     65  C   UNL A   1      37.961  32.229  37.237  1.00  0.00     0.198 A 
ATOM     66  C   UNL A   1      39.046  34.096  36.190  1.00  0.00     0.198 A 
ATOM     67  F   UNL A   1      40.268  33.788  34.204  1.00  0.00    -0.203 F 
ATOM     68  F   UNL A   1      37.174  31.735  38.204  1.00  0.00    -0.200 F 
ATOM     69  C   UNL A   1      38.258  33.583  37.209  1.00  0.00     0.200 A 
ATOM     70  F   UNL A   1      39.346  35.402  36.170  1.00  0.00    -0.200 F 
ATOM     71  F   UNL A   1      37.778  34.395  38.162  1.00  0.00    -0.200 F 
ENDBRANCH  47  61
BRANCH  48  72
ATOM     72  C   UNL A   1      42.586  26.214  27.693  1.00  0.00     0.064 A 
ATOM     73  C   UNL A   1      43.520  26.738  26.788  1.00  0.00     0.173 A 
ATOM     74  C   UNL A   1      42.166  24.889  27.504  1.00  0.00     0.173 A 
ATOM     75  F   UNL A   1      43.939  28.005  26.916  1.00  0.00    -0.203 F 
ATOM     76  C   UNL A   1      44.001  25.973  25.727  1.00  0.00     0.198 A 
ATOM     77  C   UNL A   1      42.669  24.117  26.460  1.00  0.00     0.198 A 
ATOM     78  F   UNL A   1      41.280  24.339  28.346  1.00  0.00    -0.203 F 
ATOM     79  F   UNL A   1      44.862  26.511  24.853  1.00  0.00    -0.200 F 
ATOM     80  C   UNL A   1      43.581  24.661  25.567  1.00  0.00     0.200 A 
ATOM     81  F   UNL A   1      42.276  22.843  26.321  1.00  0.00    -0.200 F 
ATOM     82  F   UNL A   1      44.051  23.923  24.553  1.00  0.00    -0.200 F 
ENDBRANCH  48  72
BRANCH  60  83
ATOM     83  C   UNL A   1      44.888  27.516  34.137  1.00  0.00     0.064 A 
ATOM     84  C   UNL A   1      46.107  28.212  34.117  1.00  0.00     0.173 A 
ATOM     85  C   UNL A   1      44.808  26.355  34.920  1.00  0.00     0.173 A 
ATOM     86  F   UNL A   1      46.239  29.320  33.371  1.00  0.00    -0.203 F 
ATOM     87  C   UNL A   1      47.209  27.744  34.827  1.00  0.00     0.198 A 
ATOM     88  C   UNL A   1      45.904  25.907  35.653  1.00  0.00     0.198 A 
ATOM     89  F   UNL A   1      43.664  25.658  34.980  1.00  0.00    -0.203 F 
ATOM     90  F   UNL A   1      48.379  28.395  34.749  1.00  0.00    -0.200 F 
ATOM     91  C   UNL A   1      47.106  26.597  35.599  1.00  0.00     0.200 A 
ATOM     92  F   UNL A   1      45.798  24.805  36.408  1.00  0.00    -0.200 F 
ATOM     93  F   UNL A   1      48.167  26.149  36.283  1.00  0.00    -0.200 F 
ENDBRANCH  60  83
ENDBRANCH  34  35
ENDBRANCH  26  29
ENDBRANCH  24  25
ENDBRANCH   1  24
TORSDOF 12
ENDMDL
MODEL 2
REMARK VINA RESULT:     -12.5      1.878      2.882
REMARK SMILES C[C@H]1[C@@H](C(=O)NCCCNC(=O)c2ccc(-c3c4nc(c(-c5c(F)c(F)c(F)c(F)c5F)c5ccc([nH]5)c(-c5c(F)c(F)c(F)c(F)c5F)c5nc(c(-c6c(F)c(F)c(F)c(F)c6F)c6ccc3[nH]6)C=C5)C=C4)cc2)CCN1C(=O)N1CCn2cnnc2C1
REMARK SMILES IDX 8 1 7 2 6 3 4 4 5 5 3 7 1 8 2 9 78 10 76 11 77 12 79 13
REMARK SMILES IDX 80 14 81 15 82 16 89 17 83 18 88 19 84 20 87 21 85 22 86 23
REMARK SMILES IDX 9 24 10 25 11 26 12 28 13 29 14 30 75 31 15 32 74 33 16 34
REMARK SMILES IDX 17 35 18 36 68 37 19 38 73 39 67 40 69 41 20 42 72 43 66 44
REMARK SMILES IDX 65 45 21 47 53 48 33 49 52 50 34 51 37 52 51 53 70 54 35 55
REMARK SMILES IDX 36 56 50 58 71 59 38 60 22 61 23 62 31 63 24 64 25 65 29 66
REMARK SMILES IDX 32 67 26 68 27 69 30 70 28 71 54 72 55 73 63 74 56 75 57 76
REMARK SMILES IDX 61 77 64 78 58 79 59 80 62 81 60 82 39 83 40 84 48 85 41 86
REMARK SMILES IDX 42 87 46 88 49 89 43 90 44 91 47 92 45 93
REMARK H PARENT 6 6 10 27 69 46 37 57
REMARK Flexibility Score: inf
ROOT
ATOM      1  C   UNL A   1      31.033  31.944  26.495  1.00  0.00     0.042 C 
ENDROOT
BRANCH   1   2
ATOM      2  C   UNL A   1      31.044  30.830  25.448  1.00  0.00     0.117 C 
BRANCH   2   3
ATOM      3  N   UNL A   1      32.357  30.223  25.413  1.00  0.00    -0.356 N 
ATOM      4  C   UNL A   1      32.859  29.178  24.706  1.00  0.00     0.225 C 
ATOM      5  O   UNL A   1      33.928  28.737  25.143  1.00  0.00    -0.275 OA
ATOM      6  H   UNL A   1      33.009  30.647  26.016  1.00  0.00     0.163 HD
BRANCH   4   7
ATOM      7  C   UNL A   1      32.259  28.686  23.375  1.00  0.00     0.102 C 
ATOM      8  C   UNL A   1      30.294  27.190  24.328  1.00  0.00     0.032 C 
ATOM      9  C   UNL A   1      31.352  27.431  23.273  1.00  0.00     0.096 C 
ATOM     10  N   UNL A   1      32.283  26.304  23.148  1.00  0.00    -0.321 N 
ATOM     11  C   UNL A   1      33.443  28.209  22.489  1.00  0.00     0.037 C 
ATOM     12  C   UNL A   1      33.641  26.769  22.956  1.00  0.00     0.122 C 
BRANCH  10  13
ATOM     13  C   UNL A   1      32.007  24.971  23.326  1.00  0.00     0.320 C 
ATOM     14  O   UNL A   1      31.079  24.407  22.751  1.00  0.00    -0.248 OA
BRANCH  13  15
ATOM     15  N   UNL A   1      32.850  24.294  24.198  1.00  0.00    -0.315 N 
ATOM     16  C   UNL A   1      32.998  22.840  24.038  1.00  0.00     0.144 C 
ATOM     17  C   UNL A   1      32.942  24.800  25.574  1.00  0.00     0.199 C 
ATOM     18  C   UNL A   1      32.403  22.018  25.196  1.00  0.00     0.146 C 
ATOM     19  C   UNL A   1      31.826  24.137  26.297  1.00  0.00     0.152 A 
ATOM     20  N   UNL A   1      31.550  22.825  26.033  1.00  0.00    -0.314 N 
ATOM     21  N   UNL A   1      30.867  24.635  27.042  1.00  0.00    -0.134 NA
ATOM     22  C   UNL A   1      30.325  22.578  26.542  1.00  0.00     0.226 A 
ATOM     23  N   UNL A   1      29.916  23.642  27.200  1.00  0.00    -0.139 NA
ENDBRANCH  13  15
ENDBRANCH  10  13
ENDBRANCH   4   7
ENDBRANCH   2   3
ENDBRANCH   1   2
BRANCH   1  24
ATOM     24  C   UNL A   1      32.416  32.443  26.886  1.00  0.00     0.118 C 
BRANCH  24  25
ATOM     25  N   UNL A   1      32.376  33.821  27.336  1.00  0.00    -0.352 N 
ATOM     26  C   UNL A   1      33.024  34.443  28.374  1.00  0.00     0.251 C 
ATOM     27  H   UNL A   1      31.786  34.409  26.809  1.00  0.00     0.163 HD
ATOM     28  O   UNL A   1      32.625  35.553  28.730  1.00  0.00    -0.269 OA
BRANCH  26  29
ATOM     29  C   UNL A   1      34.174  33.825  29.085  1.00  0.00     0.039 A 
ATOM     30  C   UNL A   1      35.465  34.253  28.751  1.00  0.00     0.014 A 
ATOM     31  C   UNL A   1      34.028  32.775  29.996  1.00  0.00     0.014 A 
ATOM     32  C   UNL A   1      36.586  33.652  29.333  1.00  0.00     0.010 A 
ATOM     33  C   UNL A   1      35.140  32.246  30.656  1.00  0.00     0.010 A 
ATOM     34  C   UNL A   1      36.436  32.652  30.307  1.00  0.00    -0.014 A 
BRANCH  34  35
ATOM     35  C   UNL A   1      37.621  31.988  30.915  1.00  0.00     0.031 A 
ATOM     36  C   UNL A   1      38.087  32.376  32.296  1.00  0.00     0.074 A 
ATOM     37  C   UNL A   1      38.300  31.053  30.222  1.00  0.00     0.049 A 
ATOM     38  N   UNL A   1      39.110  31.929  32.985  1.00  0.00    -0.248 NA
ATOM     39  C   UNL A   1      37.320  33.425  32.986  1.00  0.00     0.031 C 
ATOM     40  C   UNL A   1      37.990  30.623  28.859  1.00  0.00     0.029 A 
ATOM     41  N   UNL A   1      39.393  30.298  30.567  1.00  0.00    -0.354 N 
ATOM     42  C   UNL A   1      39.113  32.652  34.172  1.00  0.00     0.074 A 
ATOM     43  C   UNL A   1      38.032  33.608  34.087  1.00  0.00     0.031 C 
ATOM     44  C   UNL A   1      38.853  29.663  28.493  1.00  0.00     0.029 A 
ATOM     45  C   UNL A   1      39.797  29.431  29.582  1.00  0.00     0.049 A 
ATOM     46  H   UNL A   1      39.846  30.372  31.438  1.00  0.00     0.167 HD
ATOM     47  C   UNL A   1      39.924  32.514  35.249  1.00  0.00     0.037 A 
ATOM     48  C   UNL A   1      40.815  28.547  29.558  1.00  0.00     0.037 A 
ATOM     49  C   UNL A   1      40.980  31.542  35.350  1.00  0.00     0.049 A 
ATOM     50  C   UNL A   1      41.688  28.398  30.773  1.00  0.00     0.074 A 
ATOM     51  C   UNL A   1      41.820  31.284  36.420  1.00  0.00     0.029 A 
ATOM     52  N   UNL A   1      41.341  30.664  34.338  1.00  0.00    -0.354 N 
ATOM     53  N   UNL A   1      41.638  29.042  31.913  1.00  0.00    -0.248 NA
ATOM     54  C   UNL A   1      42.755  27.388  30.701  1.00  0.00     0.031 C 
ATOM     55  C   UNL A   1      42.715  30.277  36.041  1.00  0.00     0.029 A 
ATOM     56  C   UNL A   1      42.403  29.875  34.753  1.00  0.00     0.049 A 
ATOM     57  H   UNL A   1      40.908  30.609  33.456  1.00  0.00     0.167 HD
ATOM     58  C   UNL A   1      42.648  28.504  32.701  1.00  0.00     0.074 A 
ATOM     59  C   UNL A   1      43.280  27.465  31.915  1.00  0.00     0.031 C 
ATOM     60  C   UNL A   1      43.022  28.844  33.959  1.00  0.00     0.037 A 
BRANCH  47  61
ATOM     61  C   UNL A   1      39.689  33.432  36.415  1.00  0.00     0.064 A 
ATOM     62  C   UNL A   1      38.840  33.074  37.475  1.00  0.00     0.173 A 
ATOM     63  C   UNL A   1      40.340  34.673  36.491  1.00  0.00     0.173 A 
ATOM     64  F   UNL A   1      38.184  31.903  37.448  1.00  0.00    -0.203 F 
ATOM     65  C   UNL A   1      38.625  33.937  38.546  1.00  0.00     0.198 A 
ATOM     66  C   UNL A   1      40.147  35.520  37.579  1.00  0.00     0.198 A 
ATOM     67  F   UNL A   1      41.168  35.063  35.510  1.00  0.00    -0.203 F 
ATOM     68  F   UNL A   1      37.766  33.595  39.518  1.00  0.00    -0.200 F 
ATOM     69  C   UNL A   1      39.283  35.156  38.601  1.00  0.00     0.200 A 
ATOM     70  F   UNL A   1      40.794  36.692  37.638  1.00  0.00    -0.200 F 
ATOM     71  F   UNL A   1      39.079  35.983  39.636  1.00  0.00    -0.200 F 
ENDBRANCH  47  61
BRANCH  48  72
ATOM     72  C   UNL A   1      41.040  27.714  28.348  1.00  0.00     0.064 A 
ATOM     73  C   UNL A   1      41.889  28.149  27.320  1.00  0.00     0.173 A 
ATOM     74  C   UNL A   1      40.420  26.465  28.198  1.00  0.00     0.173 A 
ATOM     75  F   UNL A   1      42.490  29.344  27.409  1.00  0.00    -0.203 F 
ATOM     76  C   UNL A   1      42.094  27.375  26.180  1.00  0.00     0.198 A 
ATOM     77  C   UNL A   1      40.649  25.679  27.070  1.00  0.00     0.198 A 
ATOM     78  F   UNL A   1      39.606  26.000  29.155  1.00  0.00    -0.203 F 
ATOM     79  F   UNL A   1      42.878  27.832  25.195  1.00  0.00    -0.200 F 
ATOM     80  C   UNL A   1      41.480  26.137  26.059  1.00  0.00     0.200 A 
ATOM     81  F   UNL A   1      40.069  24.475  26.966  1.00  0.00    -0.200 F 
ATOM     82  F   UNL A   1      41.686  25.388  24.967  1.00  0.00    -0.200 F 
ENDBRANCH  48  72
BRANCH  60  83
ATOM     83  C   UNL A   1      44.151  28.067  34.571  1.00  0.00     0.064 A 
ATOM     84  C   UNL A   1      45.474  28.531  34.520  1.00  0.00     0.173 A 
ATOM     85  C   UNL A   1      43.904  26.859  35.239  1.00  0.00     0.173 A 
ATOM     86  F   UNL A   1      45.764  29.674  33.879  1.00  0.00    -0.203 F 
ATOM     87  C   UNL A   1      46.512  27.797  35.087  1.00  0.00     0.198 A 
ATOM     88  C   UNL A   1      44.940  26.143  35.832  1.00  0.00     0.198 A 
ATOM     89  F   UNL A   1      42.656  26.376  35.323  1.00  0.00    -0.203 F 
ATOM     90  F   UNL A   1      47.775  28.232  34.978  1.00  0.00    -0.200 F 
ATOM     91  C   UNL A   1      46.244  26.608  35.747  1.00  0.00     0.200 A 
ATOM     92  F   UNL A   1      44.678  25.000  36.480  1.00  0.00    -0.200 F 
ATOM     93  F   UNL A   1      47.244  25.903  36.295  1.00  0.00    -0.200 F 
ENDBRANCH  60  83
ENDBRANCH  34  35
ENDBRANCH  26  29
ENDBRANCH  24  25
ENDBRANCH   1  24
TORSDOF 12
ENDMDL
MODEL 3
REMARK VINA RESULT:     -12.5      0.934      2.173
REMARK SMILES C[C@H]1[C@@H](C(=O)NCCCNC(=O)c2ccc(-c3c4nc(c(-c5c(F)c(F)c(F)c(F)c5F)c5ccc([nH]5)c(-c5c(F)c(F)c(F)c(F)c5F)c5nc(c(-c6c(F)c(F)c(F)c(F)c6F)c6ccc3[nH]6)C=C5)C=C4)cc2)CCN1C(=O)N1CCn2cnnc2C1
REMARK SMILES IDX 8 1 7 2 6 3 4 4 5 5 3 7 1 8 2 9 78 10 76 11 77 12 79 13
REMARK SMILES IDX 80 14 81 15 82 16 89 17 83 18 88 19 84 20 87 21 85 22 86 23
REMARK SMILES IDX 9 24 10 25 11 26 12 28 13 29 14 30 75 31 15 32 74 33 16 34
REMARK SMILES IDX 17 35 18 36 68 37 19 38 73 39 67 40 69 41 20 42 72 43 66 44
REMARK SMILES IDX 65 45 21 47 53 48 33 49 52 50 34 51 37 52 51 53 70 54 35 55
REMARK SMILES IDX 36 56 50 58 71 59 38 60 22 61 23 62 31 63 24 64 25 65 29 66
REMARK SMILES IDX 32 67 26 68 27 69 30 70 28 71 54 72 55 73 63 74 56 75 57 76
REMARK SMILES IDX 61 77 64 78 58 79 59 80 62 81 60 82 39 83 40 84 48 85 41 86
REMARK SMILES IDX 42 87 46 88 49 89 43 90 44 91 47 92 45 93
REMARK H PARENT 6 6 10 27 69 46 37 57
REMARK Flexibility Score: inf
ROOT
ATOM      1  C   UNL A   1      33.184  29.328  24.321  1.00  0.00     0.042 C 
ENDROOT
BRANCH   1   2
ATOM      2  C   UNL A   1      32.058  28.635  23.552  1.00  0.00     0.117 C 
BRANCH   2   3
ATOM      3  N   UNL A   1      32.621  27.909  22.434  1.00  0.00    -0.356 N 
ATOM      4  C   UNL A   1      32.898  26.594  22.249  1.00  0.00     0.225 C 
ATOM      5  O   UNL A   1      33.653  26.363  21.298  1.00  0.00    -0.275 OA
ATOM      6  H   UNL A   1      32.848  28.478  21.662  1.00  0.00     0.163 HD
BRANCH   4   7
ATOM      7  C   UNL A   1      32.203  25.461  23.030  1.00  0.00     0.102 C 
ATOM      8  C   UNL A   1      33.354  25.812  25.388  1.00  0.00     0.032 C 
ATOM      9  C   UNL A   1      32.773  24.876  24.350  1.00  0.00     0.096 C 
ATOM     10  N   UNL A   1      33.732  23.851  23.923  1.00  0.00    -0.321 N 
ATOM     11  C   UNL A   1      32.273  24.187  22.144  1.00  0.00     0.037 C 
ATOM     12  C   UNL A   1      33.644  23.617  22.497  1.00  0.00     0.122 C 
BRANCH  10  13
ATOM     13  C   UNL A   1      34.711  23.259  24.682  1.00  0.00     0.320 C 
ATOM     14  O   UNL A   1      35.811  23.778  24.860  1.00  0.00    -0.248 OA
BRANCH  13  15
ATOM     15  N   UNL A   1      34.379  22.033  25.243  1.00  0.00    -0.315 N 
ATOM     16  C   UNL A   1      33.571  21.096  24.448  1.00  0.00     0.144 C 
ATOM     17  C   UNL A   1      34.159  21.996  26.696  1.00  0.00     0.199 C 
ATOM     18  C   UNL A   1      32.153  20.866  25.001  1.00  0.00     0.146 C 
ATOM     19  C   UNL A   1      32.727  22.352  26.872  1.00  0.00     0.152 A 
ATOM     20  N   UNL A   1      31.806  21.853  25.994  1.00  0.00    -0.314 N 
ATOM     21  N   UNL A   1      32.153  23.259  27.626  1.00  0.00    -0.134 NA
ATOM     22  C   UNL A   1      30.681  22.578  26.161  1.00  0.00     0.226 A 
ATOM     23  N   UNL A   1      30.851  23.398  27.176  1.00  0.00    -0.139 NA
ENDBRANCH  13  15
ENDBRANCH  10  13
ENDBRANCH   4   7
ENDBRANCH   2   3
ENDBRANCH   1   2
BRANCH   1  24
ATOM     24  C   UNL A   1      32.941  29.434  25.818  1.00  0.00     0.118 C 
BRANCH  24  25
ATOM     25  N   UNL A   1      32.739  30.811  26.228  1.00  0.00    -0.352 N 
ATOM     26  C   UNL A   1      33.372  31.561  27.187  1.00  0.00     0.251 C 
ATOM     27  H   UNL A   1      32.029  31.286  25.736  1.00  0.00     0.163 HD
ATOM     28  O   UNL A   1      32.847  32.617  27.542  1.00  0.00    -0.269 OA
BRANCH  26  29
ATOM     29  C   UNL A   1      34.654  31.144  27.814  1.00  0.00     0.039 A 
ATOM     30  C   UNL A   1      34.748  29.843  28.324  1.00  0.00     0.014 A 
ATOM     31  C   UNL A   1      35.727  32.019  28.001  1.00  0.00     0.014 A 
ATOM     32  C   UNL A   1      35.904  29.423  28.991  1.00  0.00     0.010 A 
ATOM     33  C   UNL A   1      36.919  31.570  28.574  1.00  0.00     0.010 A 
ATOM     34  C   UNL A   1      37.011  30.278  29.109  1.00  0.00    -0.014 A 
BRANCH  34  35
ATOM     35  C   UNL A   1      38.237  29.851  29.839  1.00  0.00     0.031 A 
ATOM     36  C   UNL A   1      38.508  30.357  31.233  1.00  0.00     0.074 A 
ATOM     37  C   UNL A   1      39.124  29.030  29.244  1.00  0.00     0.049 A 
ATOM     38  N   UNL A   1      39.529  30.118  32.021  1.00  0.00    -0.248 NA
ATOM     39  C   UNL A   1      37.514  31.275  31.812  1.00  0.00     0.031 C 
ATOM     40  C   UNL A   1      39.011  28.511  27.881  1.00  0.00     0.029 A 
ATOM     41  N   UNL A   1      40.297  28.490  29.709  1.00  0.00    -0.354 N 
ATOM     42  C   UNL A   1      39.305  30.865  33.171  1.00  0.00     0.074 A 
ATOM     43  C   UNL A   1      38.086  31.613  32.957  1.00  0.00     0.031 C 
ATOM     44  C   UNL A   1      40.056  27.707  27.629  1.00  0.00     0.029 A 
ATOM     45  C   UNL A   1      40.928  27.678  28.799  1.00  0.00     0.049 A 
ATOM     46  H   UNL A   1      40.653  28.669  30.609  1.00  0.00     0.167 HD
ATOM     47  C   UNL A   1      40.031  30.905  34.315  1.00  0.00     0.037 A 
ATOM     48  C   UNL A   1      42.082  26.987  28.896  1.00  0.00     0.037 A 
ATOM     49  C   UNL A   1      41.227  30.137  34.542  1.00  0.00     0.049 A 
ATOM     50  C   UNL A   1      42.860  27.030  30.182  1.00  0.00     0.074 A 
ATOM     51  C   UNL A   1      42.003  30.063  35.686  1.00  0.00     0.029 A 
ATOM     52  N   UNL A   1      41.820  29.306  33.603  1.00  0.00    -0.354 N 
ATOM     53  N   UNL A   1      42.601  27.689  31.285  1.00  0.00    -0.248 NA
ATOM     54  C   UNL A   1      44.086  26.222  30.241  1.00  0.00     0.031 C 
ATOM     55  C   UNL A   1      43.088  29.219  35.426  1.00  0.00     0.029 A 
ATOM     56  C   UNL A   1      42.962  28.729  34.136  1.00  0.00     0.049 A 
ATOM     57  H   UNL A   1      41.481  29.149  32.692  1.00  0.00     0.167 HD
ATOM     58  C   UNL A   1      43.617  27.362  32.173  1.00  0.00     0.074 A 
ATOM     59  C   UNL A   1      44.484  26.426  31.488  1.00  0.00     0.031 C 
ATOM     60  C   UNL A   1      43.816  27.799  33.441  1.00  0.00     0.037 A 
BRANCH  47  61
ATOM     61  C   UNL A   1      39.542  31.802  35.416  1.00  0.00     0.064 A 
ATOM     62  C   UNL A   1      39.976  33.133  35.528  1.00  0.00     0.173 A 
ATOM     63  C   UNL A   1      38.608  31.338  36.354  1.00  0.00     0.173 A 
ATOM     64  F   UNL A   1      40.876  33.624  34.663  1.00  0.00    -0.203 F 
ATOM     65  C   UNL A   1      39.520  33.952  36.558  1.00  0.00     0.198 A 
ATOM     66  C   UNL A   1      38.131  32.170  37.365  1.00  0.00     0.198 A 
ATOM     67  F   UNL A   1      38.153  30.078  36.291  1.00  0.00    -0.203 F 
ATOM     68  F   UNL A   1      39.993  35.202  36.676  1.00  0.00    -0.200 F 
ATOM     69  C   UNL A   1      38.593  33.473  37.471  1.00  0.00     0.200 A 
ATOM     70  F   UNL A   1      37.224  31.710  38.238  1.00  0.00    -0.200 F 
ATOM     71  F   UNL A   1      38.153  34.265  38.459  1.00  0.00    -0.200 F 
ENDBRANCH  47  61
BRANCH  48  72
ATOM     72  C   UNL A   1      42.551  26.170  27.746  1.00  0.00     0.064 A 
ATOM     73  C   UNL A   1      42.050  24.879  27.527  1.00  0.00     0.173 A 
ATOM     74  C   UNL A   1      43.500  26.663  26.840  1.00  0.00     0.173 A 
ATOM     75  F   UNL A   1      41.154  24.355  28.376  1.00  0.00    -0.203 F 
ATOM     76  C   UNL A   1      42.495  24.106  26.457  1.00  0.00     0.198 A 
ATOM     77  C   UNL A   1      43.923  25.901  25.754  1.00  0.00     0.198 A 
ATOM     78  F   UNL A   1      44.005  27.895  27.000  1.00  0.00    -0.203 F 
ATOM     79  F   UNL A   1      42.030  22.860  26.294  1.00  0.00    -0.200 F 
ATOM     80  C   UNL A   1      43.426  24.620  25.566  1.00  0.00     0.200 A 
ATOM     81  F   UNL A   1      44.808  26.409  24.884  1.00  0.00    -0.200 F 
ATOM     82  F   UNL A   1      43.846  23.881  24.531  1.00  0.00    -0.200 F 
ENDBRANCH  48  72
BRANCH  60  83
ATOM     83  C   UNL A   1      45.005  27.252  34.175  1.00  0.00     0.064 A 
ATOM     84  C   UNL A   1      46.248  27.903  34.148  1.00  0.00     0.173 A 
ATOM     85  C   UNL A   1      44.894  26.079  34.935  1.00  0.00     0.173 A 
ATOM     86  F   UNL A   1      46.409  29.021  33.423  1.00  0.00    -0.203 F 
ATOM     87  C   UNL A   1      47.344  27.381  34.829  1.00  0.00     0.198 A 
ATOM     88  C   UNL A   1      45.984  25.576  35.641  1.00  0.00     0.198 A 
ATOM     89  F   UNL A   1      43.726  25.423  35.000  1.00  0.00    -0.203 F 
ATOM     90  F   UNL A   1      48.535  27.989  34.745  1.00  0.00    -0.200 F 
ATOM     91  C   UNL A   1      47.210  26.222  35.580  1.00  0.00     0.200 A 
ATOM     92  F   UNL A   1      45.850  24.463  36.375  1.00  0.00    -0.200 F 
ATOM     93  F   UNL A   1      48.265  25.721  36.237  1.00  0.00    -0.200 F 
ENDBRANCH  60  83
ENDBRANCH  34  35
ENDBRANCH  26  29
ENDBRANCH  24  25
ENDBRANCH   1  24
TORSDOF 12
ENDMDL
