MODEL 1
REMARK VINA RESULT:     -13.9      0.000      0.000
REMARK SMILES Cc1ccc(F)cc1NC(=O)c1nn(C)cc1C(=O)NCCCNC(=O)c1ccc(-c2c3nc(c(-c4c(F)c(F)c(F)c(F)c4F)c4ccc([nH]4)c(-c4c(F)c(F)c(F)c(F)c4F)c4nc(c(-c5c(F)c(F)c(F)c(F)c5F)c5ccc2[nH]5)C=C4)C=C3)cc1
REMARK SMILES IDX 22 1 21 2 20 3 18 4 19 5 17 7 12 8 13 9 14 10 16 11 15 12
REMARK SMILES IDX 10 13 9 14 11 16 8 17 1 18 2 19 3 20 4 21 7 22 5 23 6 24
REMARK SMILES IDX 23 25 24 26 25 27 26 29 27 30 28 31 89 32 29 33 88 34 30 35
REMARK SMILES IDX 31 36 32 37 82 38 33 39 87 40 81 41 83 42 34 43 86 44 80 45
REMARK SMILES IDX 79 46 35 48 67 49 47 50 66 51 48 52 51 53 65 54 84 55 49 56
REMARK SMILES IDX 50 57 64 59 85 60 52 61 36 62 37 63 45 64 38 65 39 66 43 67
REMARK SMILES IDX 46 68 40 69 41 70 44 71 42 72 68 73 69 74 77 75 70 76 71 77
REMARK SMILES IDX 75 78 78 79 72 80 73 81 76 82 74 83 53 84 54 85 62 86 55 87
REMARK SMILES IDX 56 88 60 89 63 90 57 91 58 92 61 93 59 94
REMARK H PARENT 20 6 9 15 24 28 83 47 51 58
REMARK Flexibility Score: inf
ROOT
ATOM      1  C   UNL A   1      36.232  23.669  25.803  1.00  0.00     0.042 C 
ENDROOT
BRANCH   1   2
ATOM      2  C   UNL A   1      35.771  22.337  26.400  1.00  0.00     0.118 C 
BRANCH   2   3
ATOM      3  N   UNL A   1      34.746  22.502  27.405  1.00  0.00    -0.352 N 
ATOM      4  C   UNL A   1      33.380  22.455  27.314  1.00  0.00     0.255 C 
ATOM      5  O   UNL A   1      32.760  22.460  28.372  1.00  0.00    -0.269 OA
ATOM      6  H   UNL A   1      35.088  22.679  28.311  1.00  0.00     0.163 HD
BRANCH   4   7
ATOM      7  C   UNL A   1      32.704  22.437  26.022  1.00  0.00     0.090 A 
ATOM      8  C   UNL A   1      31.413  23.012  25.751  1.00  0.00     0.163 A 
ATOM      9  N   UNL A   1      31.048  22.828  24.465  1.00  0.00    -0.167 NA
ATOM     10  N   UNL A   1      32.087  22.199  23.914  1.00  0.00    -0.274 N 
ATOM     11  C   UNL A   1      33.109  21.973  24.784  1.00  0.00     0.123 A 
ATOM     12  C   UNL A   1      32.079  21.876  22.508  1.00  0.00     0.173 C 
BRANCH   8  13
ATOM     13  C   UNL A   1      30.543  23.757  26.667  1.00  0.00     0.277 C 
ATOM     14  N   UNL A   1      30.570  25.141  26.716  1.00  0.00    -0.320 N 
ATOM     15  H   UNL A   1      29.972  25.516  27.403  1.00  0.00     0.170 HD
ATOM     16  O   UNL A   1      29.770  23.177  27.435  1.00  0.00    -0.267 OA
BRANCH  14  17
ATOM     17  C   UNL A   1      31.272  26.129  25.991  1.00  0.00     0.047 A 
ATOM     18  C   UNL A   1      29.368  26.273  24.243  1.00  0.00     0.046 C 
ATOM     19  C   UNL A   1      30.660  26.733  24.869  1.00  0.00    -0.027 A 
ATOM     20  C   UNL A   1      31.288  27.835  24.244  1.00  0.00     0.008 A 
ATOM     21  C   UNL A   1      32.511  28.316  24.698  1.00  0.00     0.039 A 
ATOM     22  C   UNL A   1      32.554  26.559  26.353  1.00  0.00     0.065 A 
ATOM     23  C   UNL A   1      33.142  27.657  25.736  1.00  0.00     0.125 A 
ATOM     24  F   UNL A   1      34.335  28.091  26.164  1.00  0.00    -0.207 F 
ENDBRANCH  14  17
ENDBRANCH   8  13
ENDBRANCH   4   7
ENDBRANCH   2   3
ENDBRANCH   1   2
BRANCH   1  25
ATOM     25  C   UNL A   1      37.485  23.437  24.990  1.00  0.00     0.118 C 
BRANCH  25  26
ATOM     26  N   UNL A   1      38.461  22.655  25.753  1.00  0.00    -0.352 N 
ATOM     27  C   UNL A   1      39.554  23.049  26.482  1.00  0.00     0.251 C 
ATOM     28  H   UNL A   1      38.308  21.684  25.739  1.00  0.00     0.163 HD
ATOM     29  O   UNL A   1      40.402  22.227  26.796  1.00  0.00    -0.269 OA
BRANCH  27  30
ATOM     30  C   UNL A   1      39.666  24.441  26.937  1.00  0.00     0.039 A 
ATOM     31  C   UNL A   1      40.371  25.387  26.177  1.00  0.00     0.014 A 
ATOM     32  C   UNL A   1      39.185  24.768  28.198  1.00  0.00     0.014 A 
ATOM     33  C   UNL A   1      40.633  26.638  26.723  1.00  0.00     0.010 A 
ATOM     34  C   UNL A   1      39.273  26.034  28.658  1.00  0.00     0.010 A 
ATOM     35  C   UNL A   1      40.104  26.914  27.978  1.00  0.00    -0.014 A 
BRANCH  35  36
ATOM     36  C   UNL A   1      40.357  28.084  28.778  1.00  0.00     0.031 A 
ATOM     37  C   UNL A   1      39.382  29.167  28.715  1.00  0.00     0.074 A 
ATOM     38  C   UNL A   1      41.259  27.877  29.764  1.00  0.00     0.049 A 
ATOM     39  N   UNL A   1      39.610  30.364  29.105  1.00  0.00    -0.248 NA
ATOM     40  C   UNL A   1      38.035  28.978  28.180  1.00  0.00     0.031 C 
ATOM     41  C   UNL A   1      41.457  28.563  31.028  1.00  0.00     0.029 A 
ATOM     42  N   UNL A   1      42.280  26.908  29.752  1.00  0.00    -0.354 N 
ATOM     43  C   UNL A   1      38.382  30.974  29.240  1.00  0.00     0.074 A 
ATOM     44  C   UNL A   1      37.464  30.143  28.499  1.00  0.00     0.031 C 
ATOM     45  C   UNL A   1      42.690  28.265  31.487  1.00  0.00     0.029 A 
ATOM     46  C   UNL A   1      43.354  27.473  30.460  1.00  0.00     0.049 A 
ATOM     47  H   UNL A   1      42.249  26.017  29.333  1.00  0.00     0.167 HD
ATOM     48  C   UNL A   1      38.274  31.988  30.145  1.00  0.00     0.037 A 
ATOM     49  C   UNL A   1      44.450  27.860  29.737  1.00  0.00     0.037 A 
ATOM     50  C   UNL A   1      39.569  32.181  30.810  1.00  0.00     0.049 A 
ATOM     51  C   UNL A   1      44.556  29.364  29.702  1.00  0.00     0.074 A 
ATOM     52  C   UNL A   1      40.060  31.721  32.022  1.00  0.00     0.029 A 
ATOM     53  N   UNL A   1      40.679  32.549  30.053  1.00  0.00    -0.354 N 
ATOM     54  N   UNL A   1      43.532  30.170  29.792  1.00  0.00    -0.248 NA
ATOM     55  C   UNL A   1      45.830  30.068  29.672  1.00  0.00     0.031 C 
ATOM     56  C   UNL A   1      41.479  31.748  31.958  1.00  0.00     0.029 A 
ATOM     57  C   UNL A   1      41.851  32.223  30.711  1.00  0.00     0.049 A 
ATOM     58  H   UNL A   1      40.635  32.983  29.170  1.00  0.00     0.167 HD
ATOM     59  C   UNL A   1      43.979  31.458  29.909  1.00  0.00     0.074 A 
ATOM     60  C   UNL A   1      45.424  31.343  29.807  1.00  0.00     0.031 C 
ATOM     61  C   UNL A   1      43.146  32.521  30.117  1.00  0.00     0.037 A 
BRANCH  48  62
ATOM     62  C   UNL A   1      36.981  32.578  30.666  1.00  0.00     0.064 A 
ATOM     63  C   UNL A   1      36.243  33.488  29.875  1.00  0.00     0.173 A 
ATOM     64  C   UNL A   1      36.407  32.300  31.922  1.00  0.00     0.173 A 
ATOM     65  F   UNL A   1      36.617  33.797  28.627  1.00  0.00    -0.203 F 
ATOM     66  C   UNL A   1      35.079  34.116  30.328  1.00  0.00     0.198 A 
ATOM     67  C   UNL A   1      35.262  32.957  32.392  1.00  0.00     0.198 A 
ATOM     68  F   UNL A   1      36.889  31.342  32.720  1.00  0.00    -0.203 F 
ATOM     69  F   UNL A   1      34.429  34.967  29.522  1.00  0.00    -0.200 F 
ATOM     70  C   UNL A   1      34.599  33.866  31.594  1.00  0.00     0.200 A 
ATOM     71  F   UNL A   1      34.799  32.688  33.620  1.00  0.00    -0.200 F 
ATOM     72  F   UNL A   1      33.490  34.475  32.034  1.00  0.00    -0.200 F 
ENDBRANCH  48  62
BRANCH  49  73
ATOM     73  C   UNL A   1      44.719  26.898  28.614  1.00  0.00     0.064 A 
ATOM     74  C   UNL A   1      44.450  27.374  27.310  1.00  0.00     0.173 A 
ATOM     75  C   UNL A   1      45.658  25.862  28.732  1.00  0.00     0.173 A 
ATOM     76  F   UNL A   1      43.545  28.350  27.133  1.00  0.00    -0.203 F 
ATOM     77  C   UNL A   1      45.225  26.986  26.219  1.00  0.00     0.198 A 
ATOM     78  C   UNL A   1      46.408  25.448  27.622  1.00  0.00     0.198 A 
ATOM     79  F   UNL A   1      45.950  25.342  29.933  1.00  0.00    -0.203 F 
ATOM     80  F   UNL A   1      45.063  27.596  25.034  1.00  0.00    -0.200 F 
ATOM     81  C   UNL A   1      46.232  26.052  26.385  1.00  0.00     0.200 A 
ATOM     82  F   UNL A   1      47.369  24.524  27.772  1.00  0.00    -0.200 F 
ATOM     83  F   UNL A   1      47.053  25.768  25.365  1.00  0.00    -0.200 F 
ENDBRANCH  49  73
BRANCH  61  84
ATOM     84  C   UNL A   1      43.507  33.966  29.879  1.00  0.00     0.064 A 
ATOM     85  C   UNL A   1      43.644  34.529  28.600  1.00  0.00     0.173 A 
ATOM     86  C   UNL A   1      43.552  34.888  30.956  1.00  0.00     0.173 A 
ATOM     87  F   UNL A   1      43.481  33.798  27.490  1.00  0.00    -0.203 F 
ATOM     88  C   UNL A   1      43.889  35.891  28.416  1.00  0.00     0.198 A 
ATOM     89  C   UNL A   1      43.711  36.256  30.761  1.00  0.00     0.198 A 
ATOM     90  F   UNL A   1      43.407  34.498  32.231  1.00  0.00    -0.203 F 
ATOM     91  F   UNL A   1      44.076  36.364  27.177  1.00  0.00    -0.200 F 
ATOM     92  C   UNL A   1      43.905  36.755  29.492  1.00  0.00     0.200 A 
ATOM     93  F   UNL A   1      43.649  37.087  31.812  1.00  0.00    -0.200 F 
ATOM     94  F   UNL A   1      44.085  38.069  29.305  1.00  0.00    -0.200 F 
ENDBRANCH  61  84
ENDBRANCH  35  36
ENDBRANCH  27  30
ENDBRANCH  25  26
ENDBRANCH   1  25
TORSDOF 12
ENDMDL
MODEL 2
REMARK VINA RESULT:     -13.8      3.213      8.784
REMARK SMILES Cc1ccc(F)cc1NC(=O)c1nn(C)cc1C(=O)NCCCNC(=O)c1ccc(-c2c3nc(c(-c4c(F)c(F)c(F)c(F)c4F)c4ccc([nH]4)c(-c4c(F)c(F)c(F)c(F)c4F)c4nc(c(-c5c(F)c(F)c(F)c(F)c5F)c5ccc2[nH]5)C=C4)C=C3)cc1
REMARK SMILES IDX 22 1 21 2 20 3 18 4 19 5 17 7 12 8 13 9 14 10 16 11 15 12
REMARK SMILES IDX 10 13 9 14 11 16 8 17 1 18 2 19 3 20 4 21 7 22 5 23 6 24
REMARK SMILES IDX 23 25 24 26 25 27 26 29 27 30 28 31 89 32 29 33 88 34 30 35
REMARK SMILES IDX 31 36 32 37 82 38 33 39 87 40 81 41 83 42 34 43 86 44 80 45
REMARK SMILES IDX 79 46 35 48 67 49 47 50 66 51 48 52 51 53 65 54 84 55 49 56
REMARK SMILES IDX 50 57 64 59 85 60 52 61 36 62 37 63 45 64 38 65 39 66 43 67
REMARK SMILES IDX 46 68 40 69 41 70 44 71 42 72 68 73 69 74 77 75 70 76 71 77
REMARK SMILES IDX 75 78 78 79 72 80 73 81 76 82 74 83 53 84 54 85 62 86 55 87
REMARK SMILES IDX 56 88 60 89 63 90 57 91 58 92 61 93 59 94
REMARK H PARENT 20 6 9 15 24 28 83 47 51 58
REMARK Flexibility Score: inf
ROOT
ATOM      1  C   UNL A   1      32.628  28.938  27.135  1.00  0.00     0.042 C 
ENDROOT
BRANCH   1   2
ATOM      2  C   UNL A   1      32.256  27.644  26.406  1.00  0.00     0.118 C 
BRANCH   2   3
ATOM      3  N   UNL A   1      33.405  26.816  26.118  1.00  0.00    -0.352 N 
ATOM      4  C   UNL A   1      33.496  25.503  25.739  1.00  0.00     0.255 C 
ATOM      5  O   UNL A   1      34.605  25.109  25.394  1.00  0.00    -0.269 OA
ATOM      6  H   UNL A   1      34.271  27.275  26.209  1.00  0.00     0.163 HD
BRANCH   4   7
ATOM      7  C   UNL A   1      32.339  24.617  25.783  1.00  0.00     0.090 A 
ATOM      8  C   UNL A   1      31.711  24.013  24.638  1.00  0.00     0.163 A 
ATOM      9  N   UNL A   1      30.656  23.251  24.996  1.00  0.00    -0.167 NA
ATOM     10  N   UNL A   1      30.634  23.323  26.328  1.00  0.00    -0.274 N 
ATOM     11  C   UNL A   1      31.630  24.091  26.847  1.00  0.00     0.123 A 
ATOM     12  C   UNL A   1      29.653  22.578  27.079  1.00  0.00     0.173 C 
BRANCH   8  13
ATOM     13  C   UNL A   1      32.107  24.112  23.230  1.00  0.00     0.277 C 
ATOM     14  N   UNL A   1      31.873  25.263  22.497  1.00  0.00    -0.320 N 
ATOM     15  H   UNL A   1      32.144  25.184  21.553  1.00  0.00     0.170 HD
ATOM     16  O   UNL A   1      32.648  23.168  22.646  1.00  0.00    -0.267 OA
BRANCH  14  17
ATOM     17  C   UNL A   1      31.326  26.526  22.814  1.00  0.00     0.047 A 
ATOM     18  C   UNL A   1      33.655  27.641  22.614  1.00  0.00     0.046 C 
ATOM     19  C   UNL A   1      32.156  27.670  22.778  1.00  0.00    -0.027 A 
ATOM     20  C   UNL A   1      31.579  28.952  22.929  1.00  0.00     0.008 A 
ATOM     21  C   UNL A   1      30.214  29.104  23.141  1.00  0.00     0.039 A 
ATOM     22  C   UNL A   1      29.977  26.701  23.142  1.00  0.00     0.065 A 
ATOM     23  C   UNL A   1      29.429  27.973  23.267  1.00  0.00     0.125 A 
ATOM     24  F   UNL A   1      28.116  28.103  23.501  1.00  0.00    -0.207 F 
ENDBRANCH  14  17
ENDBRANCH   8  13
ENDBRANCH   4   7
ENDBRANCH   2   3
ENDBRANCH   1   2
BRANCH   1  25
ATOM     25  C   UNL A   1      33.887  29.505  26.521  1.00  0.00     0.118 C 
BRANCH  25  26
ATOM     26  N   UNL A   1      34.187  30.827  27.079  1.00  0.00    -0.352 N 
ATOM     27  C   UNL A   1      35.103  31.217  28.020  1.00  0.00     0.251 C 
ATOM     28  H   UNL A   1      33.636  31.557  26.717  1.00  0.00     0.163 HD
ATOM     29  O   UNL A   1      34.994  32.310  28.557  1.00  0.00    -0.269 OA
BRANCH  27  30
ATOM     30  C   UNL A   1      36.248  30.350  28.330  1.00  0.00     0.039 A 
ATOM     31  C   UNL A   1      36.278  29.606  29.519  1.00  0.00     0.014 A 
ATOM     32  C   UNL A   1      37.357  30.391  27.497  1.00  0.00     0.014 A 
ATOM     33  C   UNL A   1      37.450  28.954  29.884  1.00  0.00     0.010 A 
ATOM     34  C   UNL A   1      38.432  29.614  27.748  1.00  0.00     0.010 A 
ATOM     35  C   UNL A   1      38.518  29.011  28.997  1.00  0.00    -0.014 A 
BRANCH  35  36
ATOM     36  C   UNL A   1      39.853  28.524  29.227  1.00  0.00     0.031 A 
ATOM     37  C   UNL A   1      40.142  27.145  28.853  1.00  0.00     0.074 A 
ATOM     38  C   UNL A   1      40.762  29.510  29.408  1.00  0.00     0.049 A 
ATOM     39  N   UNL A   1      41.154  26.482  29.269  1.00  0.00    -0.248 NA
ATOM     40  C   UNL A   1      39.275  26.378  27.959  1.00  0.00     0.031 C 
ATOM     41  C   UNL A   1      42.198  29.525  29.203  1.00  0.00     0.029 A 
ATOM     42  N   UNL A   1      40.485  30.801  29.896  1.00  0.00    -0.354 N 
ATOM     43  C   UNL A   1      41.286  25.397  28.430  1.00  0.00     0.074 A 
ATOM     44  C   UNL A   1      40.016  25.285  27.754  1.00  0.00     0.031 C 
ATOM     45  C   UNL A   1      42.714  30.577  29.870  1.00  0.00     0.029 A 
ATOM     46  C   UNL A   1      41.624  31.191  30.619  1.00  0.00     0.049 A 
ATOM     47  H   UNL A   1      39.662  31.324  29.758  1.00  0.00     0.167 HD
ATOM     48  C   UNL A   1      42.534  24.872  28.265  1.00  0.00     0.037 A 
ATOM     49  C   UNL A   1      41.519  31.236  31.983  1.00  0.00     0.037 A 
ATOM     50  C   UNL A   1      43.493  25.652  29.056  1.00  0.00     0.049 A 
ATOM     51  C   UNL A   1      42.322  30.126  32.613  1.00  0.00     0.074 A 
ATOM     52  C   UNL A   1      44.347  26.687  28.709  1.00  0.00     0.029 A 
ATOM     53  N   UNL A   1      43.354  25.707  30.441  1.00  0.00    -0.354 N 
ATOM     54  N   UNL A   1      42.574  28.984  32.028  1.00  0.00    -0.248 NA
ATOM     55  C   UNL A   1      42.990  30.262  33.899  1.00  0.00     0.031 C 
ATOM     56  C   UNL A   1      44.661  27.410  29.891  1.00  0.00     0.029 A 
ATOM     57  C   UNL A   1      44.001  26.816  30.955  1.00  0.00     0.049 A 
ATOM     58  H   UNL A   1      42.863  25.046  30.981  1.00  0.00     0.167 HD
ATOM     59  C   UNL A   1      43.469  28.277  32.784  1.00  0.00     0.074 A 
ATOM     60  C   UNL A   1      43.682  29.110  33.954  1.00  0.00     0.031 C 
ATOM     61  C   UNL A   1      44.000  27.082  32.386  1.00  0.00     0.037 A 
BRANCH  48  62
ATOM     62  C   UNL A   1      42.950  23.901  27.182  1.00  0.00     0.064 A 
ATOM     63  C   UNL A   1      42.619  22.530  27.287  1.00  0.00     0.173 A 
ATOM     64  C   UNL A   1      43.672  24.237  26.019  1.00  0.00     0.173 A 
ATOM     65  F   UNL A   1      41.872  22.064  28.296  1.00  0.00    -0.203 F 
ATOM     66  C   UNL A   1      43.034  21.576  26.354  1.00  0.00     0.198 A 
ATOM     67  C   UNL A   1      44.120  23.277  25.103  1.00  0.00     0.198 A 
ATOM     68  F   UNL A   1      43.919  25.508  25.688  1.00  0.00    -0.203 F 
ATOM     69  F   UNL A   1      42.681  20.293  26.516  1.00  0.00    -0.200 F 
ATOM     70  C   UNL A   1      43.802  21.945  25.272  1.00  0.00     0.200 A 
ATOM     71  F   UNL A   1      44.851  23.657  24.047  1.00  0.00    -0.200 F 
ATOM     72  F   UNL A   1      44.209  21.030  24.382  1.00  0.00    -0.200 F 
ENDBRANCH  48  62
BRANCH  49  73
ATOM     73  C   UNL A   1      40.164  31.733  32.400  1.00  0.00     0.064 A 
ATOM     74  C   UNL A   1      39.791  33.005  31.909  1.00  0.00     0.173 A 
ATOM     75  C   UNL A   1      39.125  30.856  32.750  1.00  0.00     0.173 A 
ATOM     76  F   UNL A   1      40.741  33.895  31.579  1.00  0.00    -0.203 F 
ATOM     77  C   UNL A   1      38.468  33.302  31.589  1.00  0.00     0.198 A 
ATOM     78  C   UNL A   1      37.792  31.177  32.461  1.00  0.00     0.198 A 
ATOM     79  F   UNL A   1      39.400  29.641  33.244  1.00  0.00    -0.203 F 
ATOM     80  F   UNL A   1      38.176  34.448  30.953  1.00  0.00    -0.200 F 
ATOM     81  C   UNL A   1      37.474  32.371  31.827  1.00  0.00     0.200 A 
ATOM     82  F   UNL A   1      36.820  30.287  32.713  1.00  0.00    -0.200 F 
ATOM     83  F   UNL A   1      36.222  32.608  31.410  1.00  0.00    -0.200 F 
ENDBRANCH  49  73
BRANCH  61  84
ATOM     84  C   UNL A   1      44.671  26.085  33.298  1.00  0.00     0.064 A 
ATOM     85  C   UNL A   1      43.973  25.281  34.212  1.00  0.00     0.173 A 
ATOM     86  C   UNL A   1      46.047  25.777  33.146  1.00  0.00     0.173 A 
ATOM     87  F   UNL A   1      42.644  25.367  34.352  1.00  0.00    -0.203 F 
ATOM     88  C   UNL A   1      44.615  24.304  34.976  1.00  0.00     0.198 A 
ATOM     89  C   UNL A   1      46.663  24.746  33.846  1.00  0.00     0.198 A 
ATOM     90  F   UNL A   1      46.833  26.443  32.287  1.00  0.00    -0.203 F 
ATOM     91  F   UNL A   1      43.913  23.610  35.881  1.00  0.00    -0.200 F 
ATOM     92  C   UNL A   1      45.953  24.025  34.780  1.00  0.00     0.200 A 
ATOM     93  F   UNL A   1      47.944  24.441  33.589  1.00  0.00    -0.200 F 
ATOM     94  F   UNL A   1      46.551  23.049  35.475  1.00  0.00    -0.200 F 
ENDBRANCH  61  84
ENDBRANCH  35  36
ENDBRANCH  27  30
ENDBRANCH  25  26
ENDBRANCH   1  25
TORSDOF 12
ENDMDL
MODEL 3
REMARK VINA RESULT:     -13.7      3.333      8.908
REMARK SMILES Cc1ccc(F)cc1NC(=O)c1nn(C)cc1C(=O)NCCCNC(=O)c1ccc(-c2c3nc(c(-c4c(F)c(F)c(F)c(F)c4F)c4ccc([nH]4)c(-c4c(F)c(F)c(F)c(F)c4F)c4nc(c(-c5c(F)c(F)c(F)c(F)c5F)c5ccc2[nH]5)C=C4)C=C3)cc1
REMARK SMILES IDX 22 1 21 2 20 3 18 4 19 5 17 7 12 8 13 9 14 10 16 11 15 12
REMARK SMILES IDX 10 13 9 14 11 16 8 17 1 18 2 19 3 20 4 21 7 22 5 23 6 24
REMARK SMILES IDX 23 25 24 26 25 27 26 29 27 30 28 31 89 32 29 33 88 34 30 35
REMARK SMILES IDX 31 36 32 37 82 38 33 39 87 40 81 41 83 42 34 43 86 44 80 45
REMARK SMILES IDX 79 46 35 48 67 49 47 50 66 51 48 52 51 53 65 54 84 55 49 56
REMARK SMILES IDX 50 57 64 59 85 60 52 61 36 62 37 63 45 64 38 65 39 66 43 67
REMARK SMILES IDX 46 68 40 69 41 70 44 71 42 72 68 73 69 74 77 75 70 76 71 77
REMARK SMILES IDX 75 78 78 79 72 80 73 81 76 82 74 83 53 84 54 85 62 86 55 87
REMARK SMILES IDX 56 88 60 89 63 90 57 91 58 92 61 93 59 94
REMARK H PARENT 20 6 9 15 24 28 83 47 51 58
REMARK Flexibility Score: inf
ROOT
ATOM      1  C   UNL A   1      32.505  29.150  26.564  1.00  0.00     0.042 C 
ENDROOT
BRANCH   1   2
ATOM      2  C   UNL A   1      32.161  27.688  26.267  1.00  0.00     0.118 C 
BRANCH   2   3
ATOM      3  N   UNL A   1      33.333  26.870  26.063  1.00  0.00    -0.352 N 
ATOM      4  C   UNL A   1      33.461  25.541  25.753  1.00  0.00     0.255 C 
ATOM      5  O   UNL A   1      34.588  25.152  25.469  1.00  0.00    -0.269 OA
ATOM      6  H   UNL A   1      34.187  27.349  26.162  1.00  0.00     0.163 HD
BRANCH   4   7
ATOM      7  C   UNL A   1      32.319  24.636  25.800  1.00  0.00     0.090 A 
ATOM      8  C   UNL A   1      31.717  23.999  24.659  1.00  0.00     0.163 A 
ATOM      9  N   UNL A   1      30.670  23.226  25.018  1.00  0.00    -0.167 NA
ATOM     10  N   UNL A   1      30.628  23.325  26.348  1.00  0.00    -0.274 N 
ATOM     11  C   UNL A   1      31.604  24.120  26.864  1.00  0.00     0.123 A 
ATOM     12  C   UNL A   1      29.650  22.578  27.101  1.00  0.00     0.173 C 
BRANCH   8  13
ATOM     13  C   UNL A   1      32.131  24.076  23.254  1.00  0.00     0.277 C 
ATOM     14  N   UNL A   1      31.900  25.214  22.500  1.00  0.00    -0.320 N 
ATOM     15  H   UNL A   1      32.184  25.120  21.561  1.00  0.00     0.170 HD
ATOM     16  O   UNL A   1      32.684  23.125  22.694  1.00  0.00    -0.267 OA
BRANCH  14  17
ATOM     17  C   UNL A   1      31.343  26.479  22.788  1.00  0.00     0.047 A 
ATOM     18  C   UNL A   1      33.651  27.617  22.502  1.00  0.00     0.046 C 
ATOM     19  C   UNL A   1      32.156  27.632  22.698  1.00  0.00    -0.027 A 
ATOM     20  C   UNL A   1      31.565  28.910  22.822  1.00  0.00     0.008 A 
ATOM     21  C   UNL A   1      30.203  29.052  23.058  1.00  0.00     0.039 A 
ATOM     22  C   UNL A   1      29.999  26.647  23.141  1.00  0.00     0.065 A 
ATOM     23  C   UNL A   1      29.437  27.915  23.238  1.00  0.00     0.125 A 
ATOM     24  F   UNL A   1      28.128  28.036  23.496  1.00  0.00    -0.207 F 
ENDBRANCH  14  17
ENDBRANCH   8  13
ENDBRANCH   4   7
ENDBRANCH   2   3
ENDBRANCH   1   2
BRANCH   1  25
ATOM     25  C   UNL A   1      34.005  29.325  26.504  1.00  0.00     0.118 C 
BRANCH  25  26
ATOM     26  N   UNL A   1      34.385  30.681  26.910  1.00  0.00    -0.352 N 
ATOM     27  C   UNL A   1      35.355  31.120  27.774  1.00  0.00     0.251 C 
ATOM     28  H   UNL A   1      33.855  31.397  26.493  1.00  0.00     0.163 HD
ATOM     29  O   UNL A   1      35.317  32.267  28.197  1.00  0.00    -0.269 OA
BRANCH  27  30
ATOM     30  C   UNL A   1      36.470  30.234  28.134  1.00  0.00     0.039 A 
ATOM     31  C   UNL A   1      36.517  29.623  29.396  1.00  0.00     0.014 A 
ATOM     32  C   UNL A   1      37.542  30.127  27.259  1.00  0.00     0.014 A 
ATOM     33  C   UNL A   1      37.673  28.955  29.785  1.00  0.00     0.010 A 
ATOM     34  C   UNL A   1      38.589  29.328  27.553  1.00  0.00     0.010 A 
ATOM     35  C   UNL A   1      38.702  28.860  28.857  1.00  0.00    -0.014 A 
BRANCH  35  36
ATOM     36  C   UNL A   1      40.021  28.333  29.088  1.00  0.00     0.031 A 
ATOM     37  C   UNL A   1      40.267  26.945  28.717  1.00  0.00     0.074 A 
ATOM     38  C   UNL A   1      40.960  29.291  29.266  1.00  0.00     0.049 A 
ATOM     39  N   UNL A   1      41.258  26.252  29.135  1.00  0.00    -0.248 NA
ATOM     40  C   UNL A   1      39.377  26.203  27.825  1.00  0.00     0.031 C 
ATOM     41  C   UNL A   1      42.396  29.261  29.060  1.00  0.00     0.029 A 
ATOM     42  N   UNL A   1      40.724  30.592  29.750  1.00  0.00    -0.354 N 
ATOM     43  C   UNL A   1      41.357  25.162  28.298  1.00  0.00     0.074 A 
ATOM     44  C   UNL A   1      40.084  25.087  27.623  1.00  0.00     0.031 C 
ATOM     45  C   UNL A   1      42.944  30.299  29.725  1.00  0.00     0.029 A 
ATOM     46  C   UNL A   1      41.874  30.948  30.473  1.00  0.00     0.049 A 
ATOM     47  H   UNL A   1      39.917  31.139  29.612  1.00  0.00     0.167 HD
ATOM     48  C   UNL A   1      42.588  24.598  28.135  1.00  0.00     0.037 A 
ATOM     49  C   UNL A   1      41.771  30.999  31.836  1.00  0.00     0.037 A 
ATOM     50  C   UNL A   1      43.571  25.350  28.923  1.00  0.00     0.049 A 
ATOM     51  C   UNL A   1      42.540  29.867  32.468  1.00  0.00     0.074 A 
ATOM     52  C   UNL A   1      44.456  26.358  28.573  1.00  0.00     0.029 A 
ATOM     53  N   UNL A   1      43.434  25.413  30.308  1.00  0.00    -0.354 N 
ATOM     54  N   UNL A   1      42.756  28.717  31.886  1.00  0.00    -0.248 NA
ATOM     55  C   UNL A   1      43.212  29.986  33.754  1.00  0.00     0.031 C 
ATOM     56  C   UNL A   1      44.793  27.074  29.753  1.00  0.00     0.029 A 
ATOM     57  C   UNL A   1      44.115  26.503  30.818  1.00  0.00     0.049 A 
ATOM     58  H   UNL A   1      42.923  24.769  30.850  1.00  0.00     0.167 HD
ATOM     59  C   UNL A   1      43.629  27.984  32.644  1.00  0.00     0.074 A 
ATOM     60  C   UNL A   1      43.868  28.814  33.812  1.00  0.00     0.031 C 
ATOM     61  C   UNL A   1      44.124  26.773  32.249  1.00  0.00     0.037 A 
BRANCH  48  62
ATOM     62  C   UNL A   1      42.974  23.611  27.054  1.00  0.00     0.064 A 
ATOM     63  C   UNL A   1      42.639  22.244  27.183  1.00  0.00     0.173 A 
ATOM     64  C   UNL A   1      43.669  23.930  25.870  1.00  0.00     0.173 A 
ATOM     65  F   UNL A   1      41.914  21.794  28.216  1.00  0.00    -0.203 F 
ATOM     66  C   UNL A   1      43.027  21.276  26.252  1.00  0.00     0.198 A 
ATOM     67  C   UNL A   1      44.091  22.956  24.956  1.00  0.00     0.198 A 
ATOM     68  F   UNL A   1      43.914  25.196  25.518  1.00  0.00    -0.203 F 
ATOM     69  F   UNL A   1      42.672  19.997  26.439  1.00  0.00    -0.200 F 
ATOM     70  C   UNL A   1      43.771  21.629  25.148  1.00  0.00     0.200 A 
ATOM     71  F   UNL A   1      44.798  23.320  23.877  1.00  0.00    -0.200 F 
ATOM     72  F   UNL A   1      44.152  20.701  24.260  1.00  0.00    -0.200 F 
ENDBRANCH  48  62
BRANCH  49  73
ATOM     73  C   UNL A   1      40.432  31.539  32.253  1.00  0.00     0.064 A 
ATOM     74  C   UNL A   1      39.551  30.615  32.861  1.00  0.00     0.173 A 
ATOM     75  C   UNL A   1      40.238  32.896  32.554  1.00  0.00     0.173 A 
ATOM     76  F   UNL A   1      39.674  29.305  32.593  1.00  0.00    -0.203 F 
ATOM     77  C   UNL A   1      38.672  31.004  33.870  1.00  0.00     0.198 A 
ATOM     78  C   UNL A   1      39.324  33.285  33.543  1.00  0.00     0.198 A 
ATOM     79  F   UNL A   1      41.019  33.834  31.998  1.00  0.00    -0.203 F 
ATOM     80  F   UNL A   1      37.987  30.074  34.553  1.00  0.00    -0.200 F 
ATOM     81  C   UNL A   1      38.589  32.334  34.239  1.00  0.00     0.200 A 
ATOM     82  F   UNL A   1      39.221  34.578  33.887  1.00  0.00    -0.200 F 
ATOM     83  F   UNL A   1      37.834  32.691  35.287  1.00  0.00    -0.200 F 
ENDBRANCH  49  73
BRANCH  61  84
ATOM     84  C   UNL A   1      44.764  25.758  33.163  1.00  0.00     0.064 A 
ATOM     85  C   UNL A   1      46.137  25.463  33.151  1.00  0.00     0.173 A 
ATOM     86  C   UNL A   1      44.026  25.170  34.222  1.00  0.00     0.173 A 
ATOM     87  F   UNL A   1      46.976  26.059  32.295  1.00  0.00    -0.203 F 
ATOM     88  C   UNL A   1      46.710  24.585  34.072  1.00  0.00     0.198 A 
ATOM     89  C   UNL A   1      44.619  24.364  35.188  1.00  0.00     0.198 A 
ATOM     90  F   UNL A   1      42.711  25.385  34.376  1.00  0.00    -0.203 F 
ATOM     91  F   UNL A   1      48.013  24.288  33.975  1.00  0.00    -0.200 F 
ATOM     92  C   UNL A   1      45.957  24.051  35.099  1.00  0.00     0.200 A 
ATOM     93  F   UNL A   1      43.887  23.916  36.218  1.00  0.00    -0.200 F 
ATOM     94  F   UNL A   1      46.525  23.253  36.012  1.00  0.00    -0.200 F 
ENDBRANCH  61  84
ENDBRANCH  35  36
ENDBRANCH  27  30
ENDBRANCH  25  26
ENDBRANCH   1  25
TORSDOF 12
ENDMDL
