MODEL 1
REMARK VINA RESULT:     -12.8      0.000      0.000
REMARK SMILES O=C(COc1ccccc1C[NH+]1CCC2(CC[NH2+]CC2)CC1)NCCCNC(=O)c1ccc(-c2c3nc(c(-c4c(F)c(F)c(F)c(F)c4F)c4ccc([nH]4)c(-c4c(F)c(F)c(F)c(F)c4F)c4nc(c(-c5c(F)c(F)c(F)c(F)c5F)c5ccc2[nH]5)C=C4)C=C3)cc1
REMARK SMILES IDX 24 1 23 2 1 3 2 4 3 6 4 7 5 8 6 9 10 10 7 11 9 12 8 13 11 14
REMARK SMILES IDX 12 15 13 16 22 17 14 19 21 20 15 21 16 22 20 23 17 24 19 25
REMARK SMILES IDX 18 26 25 29 26 30 27 31 28 32 29 34 30 35 31 36 92 37 32 38
REMARK SMILES IDX 91 39 33 40 34 41 35 42 85 43 36 44 90 45 84 46 86 47 37 48
REMARK SMILES IDX 89 49 83 50 82 51 38 53 70 54 50 55 69 56 51 57 54 58 68 59
REMARK SMILES IDX 87 60 52 61 53 62 67 64 88 65 55 66 39 67 40 68 48 69 41 70
REMARK SMILES IDX 42 71 46 72 49 73 43 74 44 75 47 76 45 77 71 78 72 79 80 80
REMARK SMILES IDX 73 81 74 82 78 83 81 84 75 85 76 86 79 87 77 88 56 89 57 90
REMARK SMILES IDX 65 91 58 92 59 93 63 94 66 95 60 96 61 97 64 98 62 99
REMARK H PARENT 23 5 12 18 18 27 18 28 27 33 86 52 54 63
REMARK Flexibility Score: inf
ROOT
ATOM      1  C   UNL A   1      32.003  29.825  27.255  1.00  0.00     0.117 C 
ENDROOT
BRANCH   1   2
ATOM      2  N   UNL A   1      32.450  28.811  26.316  1.00  0.00    -0.353 N 
ATOM      3  O   UNL A   1      34.657  28.767  26.975  1.00  0.00    -0.271 OA
ATOM      4  C   UNL A   1      33.702  28.225  26.428  1.00  0.00     0.257 C 
ATOM      5  H   UNL A   1      31.852  28.533  25.585  1.00  0.00     0.163 HD
BRANCH   4   6
ATOM      6  C   UNL A   1      33.786  26.809  25.844  1.00  0.00     0.329 C 
BRANCH   6   7
ATOM      7  O   UNL A   1      33.868  26.866  24.414  1.00  0.00    -0.483 OA
BRANCH   7   8
ATOM      8  C   UNL A   1      33.683  25.642  23.817  1.00  0.00     0.128 A 
ATOM      9  C   UNL A   1      34.605  24.640  24.136  1.00  0.00     0.047 A 
ATOM     10  C   UNL A   1      32.747  25.444  22.783  1.00  0.00     0.048 A 
ATOM     11  C   UNL A   1      34.568  23.412  23.475  1.00  0.00     0.004 A 
ATOM     12  C   UNL A   1      32.687  24.178  22.175  1.00  0.00     0.013 A 
ATOM     13  C   UNL A   1      33.595  23.174  22.509  1.00  0.00     0.001 A 
BRANCH  10  14
ATOM     14  C   UNL A   1      31.852  26.537  22.245  1.00  0.00     0.302 C 
BRANCH  14  15
ATOM     15  N   UNL A   1      31.443  27.609  23.161  1.00  0.00    -0.331 N 
ATOM     16  C   UNL A   1      31.691  28.977  22.737  1.00  0.00     0.263 C 
ATOM     17  C   UNL A   1      30.156  27.454  23.826  1.00  0.00     0.263 C 
ATOM     18  H   UNL A   1      32.135  27.443  23.892  1.00  0.00     0.348 HD
ATOM     19  C   UNL A   1      30.576  29.613  21.918  1.00  0.00     0.069 C 
ATOM     20  C   UNL A   1      28.968  28.085  23.093  1.00  0.00     0.069 C 
ATOM     21  C   UNL A   1      29.207  29.540  22.620  1.00  0.00    -0.008 C 
ATOM     22  C   UNL A   1      29.138  30.534  23.805  1.00  0.00     0.069 C 
ATOM     23  C   UNL A   1      28.092  29.923  21.618  1.00  0.00     0.069 C 
ATOM     24  C   UNL A   1      29.144  31.998  23.345  1.00  0.00     0.261 C 
ATOM     25  C   UNL A   1      28.154  31.397  21.216  1.00  0.00     0.261 C 
ATOM     26  N   UNL A   1      28.075  32.277  22.382  1.00  0.00    -0.346 N 
ATOM     27  H   UNL A   1      28.156  33.245  22.072  1.00  0.00     0.346 HD
ATOM     28  H   UNL A   1      27.181  32.114  22.844  1.00  0.00     0.346 HD
ENDBRANCH  14  15
ENDBRANCH  10  14
ENDBRANCH   7   8
ENDBRANCH   6   7
ENDBRANCH   4   6
ENDBRANCH   1   2
BRANCH   1  29
ATOM     29  C   UNL A   1      32.026  31.250  26.726  1.00  0.00     0.042 C 
BRANCH  29  30
ATOM     30  C   UNL A   1      33.022  32.203  27.375  1.00  0.00     0.118 C 
BRANCH  30  31
ATOM     31  N   UNL A   1      32.529  33.553  27.617  1.00  0.00    -0.352 N 
ATOM     32  C   UNL A   1      33.033  34.564  28.412  1.00  0.00     0.251 C 
ATOM     33  H   UNL A   1      31.703  33.781  27.134  1.00  0.00     0.163 HD
ATOM     34  O   UNL A   1      32.450  35.640  28.471  1.00  0.00    -0.269 OA
BRANCH  32  35
ATOM     35  C   UNL A   1      34.231  34.331  29.257  1.00  0.00     0.039 A 
ATOM     36  C   UNL A   1      34.051  33.803  30.541  1.00  0.00     0.014 A 
ATOM     37  C   UNL A   1      35.521  34.558  28.780  1.00  0.00     0.014 A 
ATOM     38  C   UNL A   1      35.158  33.374  31.280  1.00  0.00     0.010 A 
ATOM     39  C   UNL A   1      36.615  34.044  29.472  1.00  0.00     0.010 A 
ATOM     40  C   UNL A   1      36.444  33.417  30.717  1.00  0.00    -0.014 A 
BRANCH  40  41
ATOM     41  C   UNL A   1      37.607  32.761  31.372  1.00  0.00     0.031 A 
ATOM     42  C   UNL A   1      38.291  31.589  30.724  1.00  0.00     0.074 A 
ATOM     43  C   UNL A   1      37.981  33.152  32.608  1.00  0.00     0.049 A 
ATOM     44  N   UNL A   1      39.230  30.810  31.201  1.00  0.00    -0.248 NA
ATOM     45  C   UNL A   1      37.836  31.224  29.375  1.00  0.00     0.031 C 
ATOM     46  C   UNL A   1      37.364  34.232  33.380  1.00  0.00     0.029 A 
ATOM     47  N   UNL A   1      38.960  32.670  33.444  1.00  0.00    -0.354 N 
ATOM     48  C   UNL A   1      39.458  29.851  30.223  1.00  0.00     0.074 A 
ATOM     49  C   UNL A   1      38.528  30.118  29.146  1.00  0.00     0.031 C 
ATOM     50  C   UNL A   1      37.990  34.347  34.562  1.00  0.00     0.029 A 
ATOM     51  C   UNL A   1      39.023  33.321  34.653  1.00  0.00     0.049 A 
ATOM     52  H   UNL A   1      39.560  31.929  33.201  1.00  0.00     0.167 HD
ATOM     53  C   UNL A   1      40.373  28.852  30.214  1.00  0.00     0.037 A 
ATOM     54  C   UNL A   1      39.814  33.109  35.723  1.00  0.00     0.037 A 
ATOM     55  C   UNL A   1      41.323  28.609  31.267  1.00  0.00     0.049 A 
ATOM     56  C   UNL A   1      40.829  32.001  35.682  1.00  0.00     0.074 A 
ATOM     57  C   UNL A   1      42.340  27.670  31.311  1.00  0.00     0.029 A 
ATOM     58  N   UNL A   1      41.376  29.311  32.461  1.00  0.00    -0.354 N 
ATOM     59  N   UNL A   1      41.079  31.144  34.723  1.00  0.00    -0.248 NA
ATOM     60  C   UNL A   1      41.674  31.832  36.873  1.00  0.00     0.031 C 
ATOM     61  C   UNL A   1      42.983  27.779  32.549  1.00  0.00     0.029 A 
ATOM     62  C   UNL A   1      42.395  28.812  33.259  1.00  0.00     0.049 A 
ATOM     63  H   UNL A   1      40.778  30.053  32.708  1.00  0.00     0.167 HD
ATOM     64  C   UNL A   1      42.121  30.350  35.183  1.00  0.00     0.074 A 
ATOM     65  C   UNL A   1      42.469  30.837  36.502  1.00  0.00     0.031 C 
ATOM     66  C   UNL A   1      42.733  29.309  34.568  1.00  0.00     0.037 A 
BRANCH  53  67
ATOM     67  C   UNL A   1      40.397  27.947  29.017  1.00  0.00     0.064 A 
ATOM     68  C   UNL A   1      39.652  26.759  28.979  1.00  0.00     0.173 A 
ATOM     69  C   UNL A   1      41.144  28.291  27.880  1.00  0.00     0.173 A 
ATOM     70  F   UNL A   1      38.932  26.381  30.045  1.00  0.00    -0.203 F 
ATOM     71  C   UNL A   1      39.678  25.932  27.859  1.00  0.00     0.198 A 
ATOM     72  C   UNL A   1      41.144  27.476  26.750  1.00  0.00     0.198 A 
ATOM     73  F   UNL A   1      41.868  29.420  27.861  1.00  0.00    -0.203 F 
ATOM     74  F   UNL A   1      38.997  24.778  27.864  1.00  0.00    -0.200 F 
ATOM     75  C   UNL A   1      40.418  26.295  26.743  1.00  0.00     0.200 A 
ATOM     76  F   UNL A   1      41.850  27.834  25.668  1.00  0.00    -0.200 F 
ATOM     77  F   UNL A   1      40.436  25.502  25.663  1.00  0.00    -0.200 F 
ENDBRANCH  53  67
BRANCH  54  78
ATOM     78  C   UNL A   1      39.692  33.979  36.922  1.00  0.00     0.064 A 
ATOM     79  C   UNL A   1      38.897  33.591  38.009  1.00  0.00     0.173 A 
ATOM     80  C   UNL A   1      40.358  35.210  37.005  1.00  0.00     0.173 A 
ATOM     81  F   UNL A   1      38.222  32.433  37.965  1.00  0.00    -0.203 F 
ATOM     82  C   UNL A   1      38.759  34.409  39.129  1.00  0.00     0.198 A 
ATOM     83  C   UNL A   1      40.240  36.015  38.136  1.00  0.00     0.198 A 
ATOM     84  F   UNL A   1      41.132  35.624  35.992  1.00  0.00    -0.203 F 
ATOM     85  F   UNL A   1      37.960  34.033  40.136  1.00  0.00    -0.200 F 
ATOM     86  C   UNL A   1      39.435  35.618  39.193  1.00  0.00     0.200 A 
ATOM     87  F   UNL A   1      40.903  37.178  38.201  1.00  0.00    -0.200 F 
ATOM     88  F   UNL A   1      39.305  36.403  40.271  1.00  0.00    -0.200 F 
ENDBRANCH  54  78
BRANCH  66  89
ATOM     89  C   UNL A   1      43.858  28.642  35.302  1.00  0.00     0.064 A 
ATOM     90  C   UNL A   1      45.185  29.068  35.153  1.00  0.00     0.173 A 
ATOM     91  C   UNL A   1      43.600  27.589  36.193  1.00  0.00     0.173 A 
ATOM     92  F   UNL A   1      45.484  30.060  34.301  1.00  0.00    -0.203 F 
ATOM     93  C   UNL A   1      46.217  28.450  35.853  1.00  0.00     0.198 A 
ATOM     94  C   UNL A   1      44.630  26.990  36.911  1.00  0.00     0.198 A 
ATOM     95  F   UNL A   1      42.346  27.147  36.374  1.00  0.00    -0.203 F 
ATOM     96  F   UNL A   1      47.484  28.843  35.663  1.00  0.00    -0.200 F 
ATOM     97  C   UNL A   1      45.939  27.415  36.736  1.00  0.00     0.200 A 
ATOM     98  F   UNL A   1      44.359  25.999  37.771  1.00  0.00    -0.200 F 
ATOM     99  F   UNL A   1      46.933  26.825  37.413  1.00  0.00    -0.200 F 
ENDBRANCH  66  89
ENDBRANCH  40  41
ENDBRANCH  32  35
ENDBRANCH  30  31
ENDBRANCH  29  30
ENDBRANCH   1  29
TORSDOF 14
ENDMDL
MODEL 2
REMARK VINA RESULT:     -12.6      1.393      8.184
REMARK SMILES O=C(COc1ccccc1C[NH+]1CCC2(CC[NH2+]CC2)CC1)NCCCNC(=O)c1ccc(-c2c3nc(c(-c4c(F)c(F)c(F)c(F)c4F)c4ccc([nH]4)c(-c4c(F)c(F)c(F)c(F)c4F)c4nc(c(-c5c(F)c(F)c(F)c(F)c5F)c5ccc2[nH]5)C=C4)C=C3)cc1
REMARK SMILES IDX 24 1 23 2 1 3 2 4 3 6 4 7 5 8 6 9 10 10 7 11 9 12 8 13 11 14
REMARK SMILES IDX 12 15 13 16 22 17 14 19 21 20 15 21 16 22 20 23 17 24 19 25
REMARK SMILES IDX 18 26 25 29 26 30 27 31 28 32 29 34 30 35 31 36 92 37 32 38
REMARK SMILES IDX 91 39 33 40 34 41 35 42 85 43 36 44 90 45 84 46 86 47 37 48
REMARK SMILES IDX 89 49 83 50 82 51 38 53 70 54 50 55 69 56 51 57 54 58 68 59
REMARK SMILES IDX 87 60 52 61 53 62 67 64 88 65 55 66 39 67 40 68 48 69 41 70
REMARK SMILES IDX 42 71 46 72 49 73 43 74 44 75 47 76 45 77 71 78 72 79 80 80
REMARK SMILES IDX 73 81 74 82 78 83 81 84 75 85 76 86 79 87 77 88 56 89 57 90
REMARK SMILES IDX 65 91 58 92 59 93 63 94 66 95 60 96 61 97 64 98 62 99
REMARK H PARENT 23 5 12 18 18 27 18 28 27 33 86 52 54 63
REMARK Flexibility Score: inf
ROOT
ATOM      1  C   UNL A   1      32.185  30.352  26.557  1.00  0.00     0.117 C 
ENDROOT
BRANCH   1   2
ATOM      2  N   UNL A   1      32.790  30.188  25.247  1.00  0.00    -0.353 N 
ATOM      3  O   UNL A   1      33.548  28.034  25.552  1.00  0.00    -0.271 OA
ATOM      4  C   UNL A   1      33.221  28.949  24.801  1.00  0.00     0.257 C 
ATOM      5  H   UNL A   1      32.897  30.974  24.663  1.00  0.00     0.163 HD
BRANCH   4   6
ATOM      6  C   UNL A   1      33.217  28.794  23.275  1.00  0.00     0.329 C 
BRANCH   6   7
ATOM      7  O   UNL A   1      32.503  27.611  22.896  1.00  0.00    -0.483 OA
BRANCH   7   8
ATOM      8  C   UNL A   1      31.140  27.781  22.901  1.00  0.00     0.128 A 
ATOM      9  C   UNL A   1      30.654  28.988  22.385  1.00  0.00     0.047 A 
ATOM     10  C   UNL A   1      30.273  26.893  23.567  1.00  0.00     0.048 A 
ATOM     11  C   UNL A   1      29.296  29.295  22.474  1.00  0.00     0.004 A 
ATOM     12  C   UNL A   1      28.900  27.195  23.588  1.00  0.00     0.013 A 
ATOM     13  C   UNL A   1      28.416  28.389  23.056  1.00  0.00     0.001 A 
BRANCH  10  14
ATOM     14  C   UNL A   1      30.747  25.671  24.320  1.00  0.00     0.302 C 
BRANCH  14  15
ATOM     15  N   UNL A   1      32.056  25.107  23.969  1.00  0.00    -0.331 N 
ATOM     16  C   UNL A   1      32.904  24.662  25.063  1.00  0.00     0.263 C 
ATOM     17  C   UNL A   1      32.102  24.207  22.825  1.00  0.00     0.263 C 
ATOM     18  H   UNL A   1      32.498  25.967  23.642  1.00  0.00     0.348 HD
ATOM     19  C   UNL A   1      32.695  23.218  25.499  1.00  0.00     0.069 C 
ATOM     20  C   UNL A   1      31.928  22.723  23.160  1.00  0.00     0.069 C 
ATOM     21  C   UNL A   1      32.811  22.222  24.329  1.00  0.00    -0.008 C 
ATOM     22  C   UNL A   1      34.286  22.057  23.887  1.00  0.00     0.069 C 
ATOM     23  C   UNL A   1      32.296  20.835  24.780  1.00  0.00     0.069 C 
ATOM     24  C   UNL A   1      35.141  21.352  24.948  1.00  0.00     0.261 C 
ATOM     25  C   UNL A   1      33.204  20.189  25.826  1.00  0.00     0.261 C 
ATOM     26  N   UNL A   1      34.578  20.057  25.339  1.00  0.00    -0.346 N 
ATOM     27  H   UNL A   1      35.154  19.656  26.079  1.00  0.00     0.346 HD
ATOM     28  H   UNL A   1      34.567  19.453  24.516  1.00  0.00     0.346 HD
ENDBRANCH  14  15
ENDBRANCH  10  14
ENDBRANCH   7   8
ENDBRANCH   6   7
ENDBRANCH   4   6
ENDBRANCH   1   2
BRANCH   1  29
ATOM     29  C   UNL A   1      31.768  31.773  26.903  1.00  0.00     0.042 C 
BRANCH  29  30
ATOM     30  C   UNL A   1      32.886  32.740  27.272  1.00  0.00     0.118 C 
BRANCH  30  31
ATOM     31  N   UNL A   1      32.452  34.069  27.683  1.00  0.00    -0.352 N 
ATOM     32  C   UNL A   1      32.993  34.947  28.601  1.00  0.00     0.251 C 
ATOM     33  H   UNL A   1      31.640  34.394  27.232  1.00  0.00     0.163 HD
ATOM     34  O   UNL A   1      32.458  36.032  28.796  1.00  0.00    -0.269 OA
BRANCH  32  35
ATOM     35  C   UNL A   1      34.173  34.555  29.412  1.00  0.00     0.039 A 
ATOM     36  C   UNL A   1      33.963  34.064  30.706  1.00  0.00     0.014 A 
ATOM     37  C   UNL A   1      35.467  34.599  28.894  1.00  0.00     0.014 A 
ATOM     38  C   UNL A   1      35.023  33.490  31.414  1.00  0.00     0.010 A 
ATOM     39  C   UNL A   1      36.501  33.942  29.557  1.00  0.00     0.010 A 
ATOM     40  C   UNL A   1      36.284  33.352  30.812  1.00  0.00    -0.014 A 
BRANCH  40  41
ATOM     41  C   UNL A   1      37.366  32.545  31.438  1.00  0.00     0.031 A 
ATOM     42  C   UNL A   1      37.893  32.897  32.802  1.00  0.00     0.074 A 
ATOM     43  C   UNL A   1      37.953  31.557  30.731  1.00  0.00     0.049 A 
ATOM     44  N   UNL A   1      38.914  32.396  33.450  1.00  0.00    -0.248 NA
ATOM     45  C   UNL A   1      37.201  33.980  33.516  1.00  0.00     0.031 C 
ATOM     46  C   UNL A   1      37.585  31.151  29.373  1.00  0.00     0.029 A 
ATOM     47  N   UNL A   1      39.001  30.726  31.048  1.00  0.00    -0.354 N 
ATOM     48  C   UNL A   1      39.002  33.118  34.633  1.00  0.00     0.074 A 
ATOM     49  C   UNL A   1      37.959  34.121  34.593  1.00  0.00     0.031 C 
ATOM     50  C   UNL A   1      38.374  30.138  28.984  1.00  0.00     0.029 A 
ATOM     51  C   UNL A   1      39.335  29.850  30.044  1.00  0.00     0.049 A 
ATOM     52  H   UNL A   1      39.469  30.755  31.914  1.00  0.00     0.167 HD
ATOM     53  C   UNL A   1      39.859  32.947  35.669  1.00  0.00     0.037 A 
ATOM     54  C   UNL A   1      40.313  28.926  29.975  1.00  0.00     0.037 A 
ATOM     55  C   UNL A   1      40.871  31.925  35.727  1.00  0.00     0.049 A 
ATOM     56  C   UNL A   1      41.243  28.748  31.143  1.00  0.00     0.074 A 
ATOM     57  C   UNL A   1      41.734  31.623  36.767  1.00  0.00     0.029 A 
ATOM     58  N   UNL A   1      41.156  31.036  34.701  1.00  0.00    -0.354 N 
ATOM     59  N   UNL A   1      41.271  29.393  32.283  1.00  0.00    -0.248 NA
ATOM     60  C   UNL A   1      42.278  27.712  31.014  1.00  0.00     0.031 C 
ATOM     61  C   UNL A   1      42.568  30.578  36.356  1.00  0.00     0.029 A 
ATOM     62  C   UNL A   1      42.197  30.199  35.076  1.00  0.00     0.049 A 
ATOM     63  H   UNL A   1      40.691  31.004  33.835  1.00  0.00     0.167 HD
ATOM     64  C   UNL A   1      42.306  28.829  33.015  1.00  0.00     0.074 A 
ATOM     65  C   UNL A   1      42.874  27.777  32.196  1.00  0.00     0.031 C 
ATOM     66  C   UNL A   1      42.749  29.154  34.253  1.00  0.00     0.037 A 
BRANCH  53  67
ATOM     67  C   UNL A   1      39.731  33.883  36.835  1.00  0.00     0.064 A 
ATOM     68  C   UNL A   1      40.383  35.125  36.854  1.00  0.00     0.173 A 
ATOM     69  C   UNL A   1      38.918  33.550  37.929  1.00  0.00     0.173 A 
ATOM     70  F   UNL A   1      41.181  35.483  35.837  1.00  0.00    -0.203 F 
ATOM     71  C   UNL A   1      40.251  35.987  37.938  1.00  0.00     0.198 A 
ATOM     72  C   UNL A   1      38.765  34.428  38.999  1.00  0.00     0.198 A 
ATOM     73  F   UNL A   1      38.267  32.378  37.958  1.00  0.00    -0.203 F 
ATOM     74  F   UNL A   1      40.921  37.147  37.956  1.00  0.00    -0.200 F 
ATOM     75  C   UNL A   1      39.436  35.641  39.007  1.00  0.00     0.200 A 
ATOM     76  F   UNL A   1      37.968  34.099  40.026  1.00  0.00    -0.200 F 
ATOM     77  F   UNL A   1      39.304  36.476  40.047  1.00  0.00    -0.200 F 
ENDBRANCH  53  67
BRANCH  54  78
ATOM     78  C   UNL A   1      40.453  28.081  28.761  1.00  0.00     0.064 A 
ATOM     79  C   UNL A   1      41.240  28.505  27.681  1.00  0.00     0.173 A 
ATOM     80  C   UNL A   1      39.804  26.842  28.651  1.00  0.00     0.173 A 
ATOM     81  F   UNL A   1      41.860  29.693  27.731  1.00  0.00    -0.203 F 
ATOM     82  C   UNL A   1      41.361  27.729  26.530  1.00  0.00     0.198 A 
ATOM     83  C   UNL A   1      39.947  26.056  27.510  1.00  0.00     0.198 A 
ATOM     84  F   UNL A   1      39.042  26.393  29.657  1.00  0.00    -0.203 F 
ATOM     85  F   UNL A   1      42.086  28.178  25.496  1.00  0.00    -0.200 F 
ATOM     86  C   UNL A   1      40.718  26.503  26.447  1.00  0.00     0.200 A 
ATOM     87  F   UNL A   1      39.334  24.867  27.437  1.00  0.00    -0.200 F 
ATOM     88  F   UNL A   1      40.837  25.756  25.342  1.00  0.00    -0.200 F 
ENDBRANCH  54  78
BRANCH  66  89
ATOM     89  C   UNL A   1      43.886  28.350  34.810  1.00  0.00     0.064 A 
ATOM     90  C   UNL A   1      43.665  27.156  35.512  1.00  0.00     0.173 A 
ATOM     91  C   UNL A   1      45.212  28.759  34.608  1.00  0.00     0.173 A 
ATOM     92  F   UNL A   1      42.414  26.732  35.745  1.00  0.00    -0.203 F 
ATOM     93  C   UNL A   1      44.730  26.412  36.010  1.00  0.00     0.198 A 
ATOM     94  C   UNL A   1      46.277  27.999  35.084  1.00  0.00     0.198 A 
ATOM     95  F   UNL A   1      45.477  29.892  33.940  1.00  0.00    -0.203 F 
ATOM     96  F   UNL A   1      44.496  25.297  36.716  1.00  0.00    -0.200 F 
ATOM     97  C   UNL A   1      46.036  26.831  35.791  1.00  0.00     0.200 A 
ATOM     98  F   UNL A   1      47.537  28.400  34.863  1.00  0.00    -0.200 F 
ATOM     99  F   UNL A   1      47.060  26.110  36.266  1.00  0.00    -0.200 F 
ENDBRANCH  66  89
ENDBRANCH  40  41
ENDBRANCH  32  35
ENDBRANCH  30  31
ENDBRANCH  29  30
ENDBRANCH   1  29
TORSDOF 14
ENDMDL
MODEL 3
REMARK VINA RESULT:     -12.6      0.533      7.282
REMARK SMILES O=C(COc1ccccc1C[NH+]1CCC2(CC[NH2+]CC2)CC1)NCCCNC(=O)c1ccc(-c2c3nc(c(-c4c(F)c(F)c(F)c(F)c4F)c4ccc([nH]4)c(-c4c(F)c(F)c(F)c(F)c4F)c4nc(c(-c5c(F)c(F)c(F)c(F)c5F)c5ccc2[nH]5)C=C4)C=C3)cc1
REMARK SMILES IDX 24 1 23 2 1 3 2 4 3 6 4 7 5 8 6 9 10 10 7 11 9 12 8 13 11 14
REMARK SMILES IDX 12 15 13 16 22 17 14 19 21 20 15 21 16 22 20 23 17 24 19 25
REMARK SMILES IDX 18 26 25 29 26 30 27 31 28 32 29 34 30 35 31 36 92 37 32 38
REMARK SMILES IDX 91 39 33 40 34 41 35 42 85 43 36 44 90 45 84 46 86 47 37 48
REMARK SMILES IDX 89 49 83 50 82 51 38 53 70 54 50 55 69 56 51 57 54 58 68 59
REMARK SMILES IDX 87 60 52 61 53 62 67 64 88 65 55 66 39 67 40 68 48 69 41 70
REMARK SMILES IDX 42 71 46 72 49 73 43 74 44 75 47 76 45 77 71 78 72 79 80 80
REMARK SMILES IDX 73 81 74 82 78 83 81 84 75 85 76 86 79 87 77 88 56 89 57 90
REMARK SMILES IDX 65 91 58 92 59 93 63 94 66 95 60 96 61 97 64 98 62 99
REMARK H PARENT 23 5 12 18 18 27 18 28 27 33 86 52 54 63
REMARK Flexibility Score: inf
ROOT
ATOM      1  C   UNL A   1      31.771  30.195  26.884  1.00  0.00     0.117 C 
ENDROOT
BRANCH   1   2
ATOM      2  N   UNL A   1      32.606  29.329  26.070  1.00  0.00    -0.353 N 
ATOM      3  O   UNL A   1      34.260  28.976  27.633  1.00  0.00    -0.271 OA
ATOM      4  C   UNL A   1      33.667  28.626  26.618  1.00  0.00     0.257 C 
ATOM      5  H   UNL A   1      32.414  29.240  25.108  1.00  0.00     0.163 HD
BRANCH   4   6
ATOM      6  C   UNL A   1      34.019  27.335  25.867  1.00  0.00     0.329 C 
BRANCH   6   7
ATOM      7  O   UNL A   1      33.366  27.308  24.592  1.00  0.00    -0.483 OA
BRANCH   7   8
ATOM      8  C   UNL A   1      33.312  26.050  24.042  1.00  0.00     0.128 A 
ATOM      9  C   UNL A   1      34.321  25.156  24.416  1.00  0.00     0.047 A 
ATOM     10  C   UNL A   1      32.419  25.721  23.004  1.00  0.00     0.048 A 
ATOM     11  C   UNL A   1      34.415  23.905  23.805  1.00  0.00     0.004 A 
ATOM     12  C   UNL A   1      32.494  24.432  22.447  1.00  0.00     0.013 A 
ATOM     13  C   UNL A   1      33.489  23.535  22.835  1.00  0.00     0.001 A 
BRANCH  10  14
ATOM     14  C   UNL A   1      31.433  26.699  22.408  1.00  0.00     0.302 C 
BRANCH  14  15
ATOM     15  N   UNL A   1      30.971  27.812  23.246  1.00  0.00    -0.331 N 
ATOM     16  C   UNL A   1      31.345  29.155  22.835  1.00  0.00     0.263 C 
ATOM     17  C   UNL A   1      29.604  27.740  23.746  1.00  0.00     0.263 C 
ATOM     18  H   UNL A   1      31.556  27.627  24.062  1.00  0.00     0.348 HD
ATOM     19  C   UNL A   1      30.377  29.829  21.870  1.00  0.00     0.069 C 
ATOM     20  C   UNL A   1      28.554  28.414  22.859  1.00  0.00     0.069 C 
ATOM     21  C   UNL A   1      28.929  29.843  22.395  1.00  0.00    -0.008 C 
ATOM     22  C   UNL A   1      28.766  30.868  23.545  1.00  0.00     0.069 C 
ATOM     23  C   UNL A   1      27.971  30.260  21.253  1.00  0.00     0.069 C 
ATOM     24  C   UNL A   1      28.910  32.318  23.064  1.00  0.00     0.261 C 
ATOM     25  C   UNL A   1      28.163  31.718  20.838  1.00  0.00     0.261 C 
ATOM     26  N   UNL A   1      27.987  32.629  21.970  1.00  0.00    -0.346 N 
ATOM     27  H   UNL A   1      28.159  33.584  21.656  1.00  0.00     0.346 HD
ATOM     28  H   UNL A   1      27.034  32.524  22.318  1.00  0.00     0.346 HD
ENDBRANCH  14  15
ENDBRANCH  10  14
ENDBRANCH   7   8
ENDBRANCH   6   7
ENDBRANCH   4   6
ENDBRANCH   1   2
BRANCH   1  29
ATOM     29  C   UNL A   1      31.837  31.672  26.534  1.00  0.00     0.042 C 
BRANCH  29  30
ATOM     30  C   UNL A   1      32.883  32.501  27.268  1.00  0.00     0.118 C 
BRANCH  30  31
ATOM     31  N   UNL A   1      32.475  33.855  27.617  1.00  0.00    -0.352 N 
ATOM     32  C   UNL A   1      33.033  34.763  28.497  1.00  0.00     0.251 C 
ATOM     33  H   UNL A   1      31.671  34.176  27.149  1.00  0.00     0.163 HD
ATOM     34  O   UNL A   1      32.520  35.866  28.640  1.00  0.00    -0.269 OA
BRANCH  32  35
ATOM     35  C   UNL A   1      34.203  34.384  29.328  1.00  0.00     0.039 A 
ATOM     36  C   UNL A   1      33.973  33.825  30.590  1.00  0.00     0.014 A 
ATOM     37  C   UNL A   1      35.509  34.507  28.856  1.00  0.00     0.014 A 
ATOM     38  C   UNL A   1      35.035  33.264  31.308  1.00  0.00     0.010 A 
ATOM     39  C   UNL A   1      36.549  33.865  29.523  1.00  0.00     0.010 A 
ATOM     40  C   UNL A   1      36.319  33.208  30.743  1.00  0.00    -0.014 A 
BRANCH  40  41
ATOM     41  C   UNL A   1      37.415  32.420  31.368  1.00  0.00     0.031 A 
ATOM     42  C   UNL A   1      37.933  32.777  32.734  1.00  0.00     0.074 A 
ATOM     43  C   UNL A   1      38.022  31.446  30.658  1.00  0.00     0.049 A 
ATOM     44  N   UNL A   1      38.963  32.293  33.382  1.00  0.00    -0.248 NA
ATOM     45  C   UNL A   1      37.219  33.844  33.451  1.00  0.00     0.031 C 
ATOM     46  C   UNL A   1      37.663  31.038  29.298  1.00  0.00     0.029 A 
ATOM     47  N   UNL A   1      39.085  30.634  30.975  1.00  0.00    -0.354 N 
ATOM     48  C   UNL A   1      39.034  33.012  34.568  1.00  0.00     0.074 A 
ATOM     49  C   UNL A   1      37.973  33.995  34.530  1.00  0.00     0.031 C 
ATOM     50  C   UNL A   1      38.472  30.041  28.907  1.00  0.00     0.029 A 
ATOM     51  C   UNL A   1      39.437  29.767  29.968  1.00  0.00     0.049 A 
ATOM     52  H   UNL A   1      39.550  30.669  31.841  1.00  0.00     0.167 HD
ATOM     53  C   UNL A   1      39.892  32.854  35.604  1.00  0.00     0.037 A 
ATOM     54  C   UNL A   1      40.432  28.863  29.897  1.00  0.00     0.037 A 
ATOM     55  C   UNL A   1      40.924  31.851  35.660  1.00  0.00     0.049 A 
ATOM     56  C   UNL A   1      41.363  28.698  31.066  1.00  0.00     0.074 A 
ATOM     57  C   UNL A   1      41.791  31.562  36.701  1.00  0.00     0.029 A 
ATOM     58  N   UNL A   1      41.228  30.971  34.632  1.00  0.00    -0.354 N 
ATOM     59  N   UNL A   1      41.377  29.339  32.209  1.00  0.00    -0.248 NA
ATOM     60  C   UNL A   1      42.418  27.683  30.935  1.00  0.00     0.031 C 
ATOM     61  C   UNL A   1      42.645  30.534  36.288  1.00  0.00     0.029 A 
ATOM     62  C   UNL A   1      42.283  30.153  35.006  1.00  0.00     0.049 A 
ATOM     63  H   UNL A   1      40.764  30.934  33.765  1.00  0.00     0.167 HD
ATOM     64  C   UNL A   1      42.422  28.792  32.940  1.00  0.00     0.074 A 
ATOM     65  C   UNL A   1      43.011  27.754  32.119  1.00  0.00     0.031 C 
ATOM     66  C   UNL A   1      42.857  29.122  34.180  1.00  0.00     0.037 A 
BRANCH  53  67
ATOM     67  C   UNL A   1      39.745  33.783  36.773  1.00  0.00     0.064 A 
ATOM     68  C   UNL A   1      38.953  33.449  37.881  1.00  0.00     0.173 A 
ATOM     69  C   UNL A   1      40.435  35.004  36.802  1.00  0.00     0.173 A 
ATOM     70  F   UNL A   1      38.265  32.298  37.896  1.00  0.00    -0.203 F 
ATOM     71  C   UNL A   1      38.831  34.317  38.963  1.00  0.00     0.198 A 
ATOM     72  C   UNL A   1      40.334  35.857  37.899  1.00  0.00     0.198 A 
ATOM     73  F   UNL A   1      41.212  35.369  35.771  1.00  0.00    -0.203 F 
ATOM     74  F   UNL A   1      38.030  33.999  39.989  1.00  0.00    -0.200 F 
ATOM     75  C   UNL A   1      39.527  35.517  38.974  1.00  0.00     0.200 A 
ATOM     76  F   UNL A   1      41.016  37.011  37.914  1.00  0.00    -0.200 F 
ATOM     77  F   UNL A   1      39.415  36.348  40.019  1.00  0.00    -0.200 F 
ENDBRANCH  53  67
BRANCH  54  78
ATOM     78  C   UNL A   1      40.590  28.025  28.680  1.00  0.00     0.064 A 
ATOM     79  C   UNL A   1      41.379  28.463  27.608  1.00  0.00     0.173 A 
ATOM     80  C   UNL A   1      39.958  26.779  28.560  1.00  0.00     0.173 A 
ATOM     81  F   UNL A   1      41.984  29.658  27.667  1.00  0.00    -0.203 F 
ATOM     82  C   UNL A   1      41.517  27.694  26.453  1.00  0.00     0.198 A 
ATOM     83  C   UNL A   1      40.117  25.999  27.417  1.00  0.00     0.198 A 
ATOM     84  F   UNL A   1      39.194  26.316  29.560  1.00  0.00    -0.203 F 
ATOM     85  F   UNL A   1      42.243  28.155  25.427  1.00  0.00    -0.200 F 
ATOM     86  C   UNL A   1      40.890  26.460  26.361  1.00  0.00     0.200 A 
ATOM     87  F   UNL A   1      39.519  24.803  27.335  1.00  0.00    -0.200 F 
ATOM     88  F   UNL A   1      41.025  25.719  25.253  1.00  0.00    -0.200 F 
ENDBRANCH  54  78
BRANCH  66  89
ATOM     89  C   UNL A   1      44.008  28.337  34.737  1.00  0.00     0.064 A 
ATOM     90  C   UNL A   1      43.809  27.136  35.431  1.00  0.00     0.173 A 
ATOM     91  C   UNL A   1      45.326  28.774  34.541  1.00  0.00     0.173 A 
ATOM     92  F   UNL A   1      42.565  26.685  35.657  1.00  0.00    -0.203 F 
ATOM     93  C   UNL A   1      44.887  26.410  35.929  1.00  0.00     0.198 A 
ATOM     94  C   UNL A   1      46.404  28.033  35.016  1.00  0.00     0.198 A 
ATOM     95  F   UNL A   1      45.570  29.916  33.879  1.00  0.00    -0.203 F 
ATOM     96  F   UNL A   1      44.672  25.287  36.627  1.00  0.00    -0.200 F 
ATOM     97  C   UNL A   1      46.184  26.856  35.716  1.00  0.00     0.200 A 
ATOM     98  F   UNL A   1      47.656  28.459  34.801  1.00  0.00    -0.200 F 
ATOM     99  F   UNL A   1      47.221  26.153  36.190  1.00  0.00    -0.200 F 
ENDBRANCH  66  89
ENDBRANCH  40  41
ENDBRANCH  32  35
ENDBRANCH  30  31
ENDBRANCH  29  30
ENDBRANCH   1  29
TORSDOF 14
ENDMDL
