MODEL 1
REMARK VINA RESULT:     -12.3      0.000      0.000
REMARK SMILES C[C@@H](CNc1cccc(F)c1C(=O)NCCCNC(=O)c1ccc(-c2c3nc(c(-c4c(F)c(F)c(F)c(F)c4F)c4ccc([nH]4)c(-c4c(F)c(F)c(F)c(F)c4F)c4nc(c(-c5c(F)c(F)c(F)c(F)c5F)c5ccc2[nH]5)C=C4)C=C3)cc1)[NH+]1CCCCC1
REMARK SMILES IDX 15 1 14 2 12 3 13 4 11 6 5 7 6 8 7 9 9 10 8 11 10 12 4 13
REMARK SMILES IDX 3 15 2 16 1 17 84 18 85 19 89 20 86 22 88 23 87 24 16 25
REMARK SMILES IDX 17 26 18 27 19 28 20 30 21 31 22 32 83 33 23 34 82 35 24 36
REMARK SMILES IDX 25 37 26 38 76 39 27 40 81 41 75 42 77 43 28 44 80 45 74 46
REMARK SMILES IDX 73 47 29 49 61 50 41 51 60 52 42 53 45 54 59 55 78 56 43 57
REMARK SMILES IDX 44 58 58 60 79 61 46 62 30 63 31 64 39 65 32 66 33 67 37 68
REMARK SMILES IDX 40 69 34 70 35 71 38 72 36 73 62 74 63 75 71 76 64 77 65 78
REMARK SMILES IDX 69 79 72 80 66 81 67 82 70 83 68 84 47 85 48 86 56 87 49 88
REMARK SMILES IDX 50 89 54 90 57 91 51 92 52 93 55 94 53 95
REMARK H PARENT 14 5 4 14 84 21 18 29 77 48 45 59
REMARK Flexibility Score: inf
ROOT
ATOM      1  C   UNL A   1      36.764  20.884  24.683  1.00  0.00     0.118 C 
ENDROOT
BRANCH   1   2
ATOM      2  N   UNL A   1      35.710  20.903  25.684  1.00  0.00    -0.352 N 
ATOM      3  C   UNL A   1      34.411  20.456  25.691  1.00  0.00     0.256 C 
ATOM      4  O   UNL A   1      33.759  20.700  26.711  1.00  0.00    -0.269 OA
ATOM      5  H   UNL A   1      35.983  21.322  26.532  1.00  0.00     0.163 HD
BRANCH   3   6
ATOM      6  C   UNL A   1      33.800  19.615  24.621  1.00  0.00     0.098 A 
ATOM      7  C   UNL A   1      32.743  20.170  23.840  1.00  0.00     0.050 A 
ATOM      8  C   UNL A   1      32.152  19.365  22.850  1.00  0.00     0.027 A 
ATOM      9  C   UNL A   1      32.563  18.050  22.635  1.00  0.00     0.005 A 
ATOM     10  C   UNL A   1      34.227  18.313  24.354  1.00  0.00     0.138 A 
ATOM     11  C   UNL A   1      33.599  17.524  23.393  1.00  0.00     0.040 A 
ATOM     12  F   UNL A   1      35.271  17.769  24.991  1.00  0.00    -0.206 F 
BRANCH   7  13
ATOM     13  N   UNL A   1      32.240  21.441  24.105  1.00  0.00    -0.378 N 
ATOM     14  H   UNL A   1      31.978  21.640  25.033  1.00  0.00     0.160 HD
BRANCH  13  15
ATOM     15  C   UNL A   1      32.069  22.501  23.119  1.00  0.00     0.177 C 
BRANCH  15  16
ATOM     16  C   UNL A   1      33.025  23.727  23.323  1.00  0.00     0.200 C 
ATOM     17  C   UNL A   1      34.493  23.328  23.113  1.00  0.00     0.077 C 
BRANCH  16  18
ATOM     18  N   UNL A   1      32.875  24.570  24.546  1.00  0.00    -0.331 N 
ATOM     19  C   UNL A   1      33.747  25.755  24.493  1.00  0.00     0.262 C 
ATOM     20  C   UNL A   1      31.489  24.948  24.838  1.00  0.00     0.262 C 
ATOM     21  H   UNL A   1      33.175  23.981  25.323  1.00  0.00     0.348 HD
ATOM     22  C   UNL A   1      33.649  26.609  25.761  1.00  0.00     0.062 C 
ATOM     23  C   UNL A   1      31.343  25.762  26.122  1.00  0.00     0.062 C 
ATOM     24  C   UNL A   1      32.209  27.011  26.047  1.00  0.00     0.012 C 
ENDBRANCH  16  18
ENDBRANCH  15  16
ENDBRANCH  13  15
ENDBRANCH   7  13
ENDBRANCH   3   6
ENDBRANCH   1   2
BRANCH   1  25
ATOM     25  C   UNL A   1      37.779  19.785  25.003  1.00  0.00     0.042 C 
BRANCH  25  26
ATOM     26  C   UNL A   1      39.008  20.296  25.753  1.00  0.00     0.118 C 
BRANCH  26  27
ATOM     27  N   UNL A   1      40.015  19.258  25.930  1.00  0.00    -0.352 N 
ATOM     28  C   UNL A   1      41.370  19.374  26.126  1.00  0.00     0.251 C 
ATOM     29  H   UNL A   1      39.673  18.335  25.905  1.00  0.00     0.163 HD
ATOM     30  O   UNL A   1      42.086  18.381  26.039  1.00  0.00    -0.269 OA
BRANCH  28  31
ATOM     31  C   UNL A   1      41.978  20.691  26.424  1.00  0.00     0.039 A 
ATOM     32  C   UNL A   1      42.282  21.548  25.362  1.00  0.00     0.014 A 
ATOM     33  C   UNL A   1      42.277  21.071  27.735  1.00  0.00     0.014 A 
ATOM     34  C   UNL A   1      42.821  22.812  25.619  1.00  0.00     0.010 A 
ATOM     35  C   UNL A   1      42.751  22.356  27.996  1.00  0.00     0.010 A 
ATOM     36  C   UNL A   1      43.024  23.240  26.940  1.00  0.00    -0.014 A 
BRANCH  36  37
ATOM     37  C   UNL A   1      43.488  24.618  27.242  1.00  0.00     0.031 A 
ATOM     38  C   UNL A   1      42.535  25.642  27.789  1.00  0.00     0.074 A 
ATOM     39  C   UNL A   1      44.757  24.967  26.952  1.00  0.00     0.049 A 
ATOM     40  N   UNL A   1      42.736  26.912  28.033  1.00  0.00    -0.248 NA
ATOM     41  C   UNL A   1      41.168  25.185  28.079  1.00  0.00     0.031 C 
ATOM     42  C   UNL A   1      45.764  24.071  26.383  1.00  0.00     0.029 A 
ATOM     43  N   UNL A   1      45.411  26.166  27.081  1.00  0.00    -0.354 N 
ATOM     44  C   UNL A   1      41.523  27.406  28.490  1.00  0.00     0.074 A 
ATOM     45  C   UNL A   1      40.577  26.313  28.445  1.00  0.00     0.031 C 
ATOM     46  C   UNL A   1      46.916  24.745  26.235  1.00  0.00     0.029 A 
ATOM     47  C   UNL A   1      46.716  26.129  26.652  1.00  0.00     0.049 A 
ATOM     48  H   UNL A   1      44.987  26.976  27.446  1.00  0.00     0.167 HD
ATOM     49  C   UNL A   1      41.233  28.655  28.928  1.00  0.00     0.037 A 
ATOM     50  C   UNL A   1      47.645  27.102  26.588  1.00  0.00     0.037 A 
ATOM     51  C   UNL A   1      42.187  29.731  28.990  1.00  0.00     0.049 A 
ATOM     52  C   UNL A   1      47.293  28.489  27.049  1.00  0.00     0.074 A 
ATOM     53  C   UNL A   1      42.008  31.010  29.488  1.00  0.00     0.029 A 
ATOM     54  N   UNL A   1      43.495  29.659  28.534  1.00  0.00    -0.354 N 
ATOM     55  N   UNL A   1      46.160  28.929  27.541  1.00  0.00    -0.248 NA
ATOM     56  C   UNL A   1      48.341  29.514  26.944  1.00  0.00     0.031 C 
ATOM     57  C   UNL A   1      43.188  31.729  29.277  1.00  0.00     0.029 A 
ATOM     58  C   UNL A   1      44.123  30.883  28.703  1.00  0.00     0.049 A 
ATOM     59  H   UNL A   1      43.915  28.856  28.147  1.00  0.00     0.167 HD
ATOM     60  C   UNL A   1      46.360  30.275  27.816  1.00  0.00     0.074 A 
ATOM     61  C   UNL A   1      47.729  30.578  27.450  1.00  0.00     0.031 C 
ATOM     62  C   UNL A   1      45.484  31.174  28.327  1.00  0.00     0.037 A 
BRANCH  49  63
ATOM     63  C   UNL A   1      39.826  28.932  29.377  1.00  0.00     0.064 A 
ATOM     64  C   UNL A   1      39.435  28.666  30.699  1.00  0.00     0.173 A 
ATOM     65  C   UNL A   1      38.849  29.403  28.488  1.00  0.00     0.173 A 
ATOM     66  F   UNL A   1      40.327  28.205  31.589  1.00  0.00    -0.203 F 
ATOM     67  C   UNL A   1      38.119  28.857  31.110  1.00  0.00     0.198 A 
ATOM     68  C   UNL A   1      37.540  29.623  28.911  1.00  0.00     0.198 A 
ATOM     69  F   UNL A   1      39.170  29.679  27.215  1.00  0.00    -0.203 F 
ATOM     70  F   UNL A   1      37.763  28.568  32.369  1.00  0.00    -0.200 F 
ATOM     71  C   UNL A   1      37.174  29.342  30.219  1.00  0.00     0.200 A 
ATOM     72  F   UNL A   1      36.635  30.115  28.054  1.00  0.00    -0.200 F 
ATOM     73  F   UNL A   1      35.911  29.541  30.620  1.00  0.00    -0.200 F 
ENDBRANCH  49  63
BRANCH  50  74
ATOM     74  C   UNL A   1      49.005  26.771  26.089  1.00  0.00     0.064 A 
ATOM     75  C   UNL A   1      50.000  26.282  26.949  1.00  0.00     0.173 A 
ATOM     76  C   UNL A   1      49.355  27.008  24.753  1.00  0.00     0.173 A 
ATOM     77  F   UNL A   1      49.716  26.045  28.239  1.00  0.00    -0.203 F 
ATOM     78  C   UNL A   1      51.303  26.077  26.499  1.00  0.00     0.198 A 
ATOM     79  C   UNL A   1      50.652  26.778  24.299  1.00  0.00     0.198 A 
ATOM     80  F   UNL A   1      48.433  27.457  23.890  1.00  0.00    -0.203 F 
ATOM     81  F   UNL A   1      52.246  25.658  27.353  1.00  0.00    -0.200 F 
ATOM     82  C   UNL A   1      51.627  26.325  25.175  1.00  0.00     0.200 A 
ATOM     83  F   UNL A   1      50.957  27.000  23.014  1.00  0.00    -0.200 F 
ATOM     84  F   UNL A   1      52.880  26.131  24.743  1.00  0.00    -0.200 F 
ENDBRANCH  50  74
BRANCH  62  85
ATOM     85  C   UNL A   1      45.963  32.582  28.529  1.00  0.00     0.064 A 
ATOM     86  C   UNL A   1      46.522  32.975  29.755  1.00  0.00     0.173 A 
ATOM     87  C   UNL A   1      45.768  33.566  27.550  1.00  0.00     0.173 A 
ATOM     88  F   UNL A   1      46.723  32.072  30.726  1.00  0.00    -0.203 F 
ATOM     89  C   UNL A   1      46.841  34.307  30.003  1.00  0.00     0.198 A 
ATOM     90  C   UNL A   1      46.113  34.893  27.791  1.00  0.00     0.198 A 
ATOM     91  F   UNL A   1      45.249  33.238  26.356  1.00  0.00    -0.203 F 
ATOM     92  F   UNL A   1      47.329  34.667  31.199  1.00  0.00    -0.200 F 
ATOM     93  C   UNL A   1      46.636  35.265  29.022  1.00  0.00     0.200 A 
ATOM     94  F   UNL A   1      45.935  35.815  26.835  1.00  0.00    -0.200 F 
ATOM     95  F   UNL A   1      46.941  36.547  29.261  1.00  0.00    -0.200 F 
ENDBRANCH  62  85
ENDBRANCH  36  37
ENDBRANCH  28  31
ENDBRANCH  26  27
ENDBRANCH  25  26
ENDBRANCH   1  25
TORSDOF 14
ENDMDL
MODEL 2
REMARK VINA RESULT:     -12.2      5.898     11.440
REMARK SMILES C[C@@H](CNc1cccc(F)c1C(=O)NCCCNC(=O)c1ccc(-c2c3nc(c(-c4c(F)c(F)c(F)c(F)c4F)c4ccc([nH]4)c(-c4c(F)c(F)c(F)c(F)c4F)c4nc(c(-c5c(F)c(F)c(F)c(F)c5F)c5ccc2[nH]5)C=C4)C=C3)cc1)[NH+]1CCCCC1
REMARK SMILES IDX 15 1 14 2 12 3 13 4 11 6 5 7 6 8 7 9 9 10 8 11 10 12 4 13
REMARK SMILES IDX 3 15 2 16 1 17 84 18 85 19 89 20 86 22 88 23 87 24 16 25
REMARK SMILES IDX 17 26 18 27 19 28 20 30 21 31 22 32 83 33 23 34 82 35 24 36
REMARK SMILES IDX 25 37 26 38 76 39 27 40 81 41 75 42 77 43 28 44 80 45 74 46
REMARK SMILES IDX 73 47 29 49 61 50 41 51 60 52 42 53 45 54 59 55 78 56 43 57
REMARK SMILES IDX 44 58 58 60 79 61 46 62 30 63 31 64 39 65 32 66 33 67 37 68
REMARK SMILES IDX 40 69 34 70 35 71 38 72 36 73 62 74 63 75 71 76 64 77 65 78
REMARK SMILES IDX 69 79 72 80 66 81 67 82 70 83 68 84 47 85 48 86 56 87 49 88
REMARK SMILES IDX 50 89 54 90 57 91 51 92 52 93 55 94 53 95
REMARK H PARENT 14 5 4 14 84 21 18 29 77 48 45 59
REMARK Flexibility Score: inf
ROOT
ATOM      1  C   UNL A   1      31.385  30.698  26.485  1.00  0.00     0.118 C 
ENDROOT
BRANCH   1   2
ATOM      2  N   UNL A   1      32.315  30.188  25.491  1.00  0.00    -0.352 N 
ATOM      3  C   UNL A   1      32.256  29.151  24.592  1.00  0.00     0.256 C 
ATOM      4  O   UNL A   1      33.277  28.950  23.927  1.00  0.00    -0.269 OA
ATOM      5  H   UNL A   1      33.162  30.689  25.454  1.00  0.00     0.163 HD
BRANCH   3   6
ATOM      6  C   UNL A   1      31.029  28.355  24.299  1.00  0.00     0.098 A 
ATOM      7  C   UNL A   1      30.872  27.087  24.934  1.00  0.00     0.050 A 
ATOM      8  C   UNL A   1      29.727  26.329  24.635  1.00  0.00     0.027 A 
ATOM      9  C   UNL A   1      28.767  26.779  23.729  1.00  0.00     0.005 A 
ATOM     10  C   UNL A   1      30.031  28.806  23.434  1.00  0.00     0.138 A 
ATOM     11  C   UNL A   1      28.924  28.018  23.126  1.00  0.00     0.040 A 
ATOM     12  F   UNL A   1      30.077  30.023  22.879  1.00  0.00    -0.206 F 
BRANCH   7  13
ATOM     13  N   UNL A   1      31.866  26.565  25.758  1.00  0.00    -0.378 N 
ATOM     14  H   UNL A   1      32.535  27.193  26.113  1.00  0.00     0.160 HD
BRANCH  13  15
ATOM     15  C   UNL A   1      31.995  25.162  26.135  1.00  0.00     0.177 C 
BRANCH  15  16
ATOM     16  C   UNL A   1      33.360  24.510  25.724  1.00  0.00     0.200 C 
ATOM     17  C   UNL A   1      34.403  25.582  25.372  1.00  0.00     0.077 C 
BRANCH  16  18
ATOM     18  N   UNL A   1      33.366  23.413  24.712  1.00  0.00    -0.331 N 
ATOM     19  C   UNL A   1      32.679  22.213  25.215  1.00  0.00     0.262 C 
ATOM     20  C   UNL A   1      32.840  23.812  23.402  1.00  0.00     0.262 C 
ATOM     21  H   UNL A   1      34.350  23.185  24.560  1.00  0.00     0.348 HD
ATOM     22  C   UNL A   1      32.718  21.054  24.213  1.00  0.00     0.062 C 
ATOM     23  C   UNL A   1      32.904  22.697  22.361  1.00  0.00     0.062 C 
ATOM     24  C   UNL A   1      32.153  21.473  22.862  1.00  0.00     0.012 C 
ENDBRANCH  16  18
ENDBRANCH  15  16
ENDBRANCH  13  15
ENDBRANCH   7  13
ENDBRANCH   3   6
ENDBRANCH   1   2
BRANCH   1  25
ATOM     25  C   UNL A   1      31.415  32.227  26.504  1.00  0.00     0.042 C 
BRANCH  25  26
ATOM     26  C   UNL A   1      32.599  32.801  27.280  1.00  0.00     0.118 C 
BRANCH  26  27
ATOM     27  N   UNL A   1      32.404  34.203  27.624  1.00  0.00    -0.352 N 
ATOM     28  C   UNL A   1      32.998  34.956  28.609  1.00  0.00     0.251 C 
ATOM     29  H   UNL A   1      31.747  34.683  27.069  1.00  0.00     0.163 HD
ATOM     30  O   UNL A   1      32.547  36.063  28.885  1.00  0.00    -0.269 OA
BRANCH  28  31
ATOM     31  C   UNL A   1      34.167  34.435  29.353  1.00  0.00     0.039 A 
ATOM     32  C   UNL A   1      33.960  33.840  30.601  1.00  0.00     0.014 A 
ATOM     33  C   UNL A   1      35.463  34.557  28.844  1.00  0.00     0.014 A 
ATOM     34  C   UNL A   1      35.043  33.307  31.307  1.00  0.00     0.010 A 
ATOM     35  C   UNL A   1      36.532  33.966  29.515  1.00  0.00     0.010 A 
ATOM     36  C   UNL A   1      36.332  33.331  30.751  1.00  0.00    -0.014 A 
BRANCH  36  37
ATOM     37  C   UNL A   1      37.477  32.671  31.429  1.00  0.00     0.031 A 
ATOM     38  C   UNL A   1      38.170  31.501  30.792  1.00  0.00     0.074 A 
ATOM     39  C   UNL A   1      37.845  33.084  32.657  1.00  0.00     0.049 A 
ATOM     40  N   UNL A   1      39.128  30.748  31.268  1.00  0.00    -0.248 NA
ATOM     41  C   UNL A   1      37.710  31.111  29.451  1.00  0.00     0.031 C 
ATOM     42  C   UNL A   1      37.224  34.185  33.395  1.00  0.00     0.029 A 
ATOM     43  N   UNL A   1      38.817  32.620  33.508  1.00  0.00    -0.354 N 
ATOM     44  C   UNL A   1      39.375  29.789  30.295  1.00  0.00     0.074 A 
ATOM     45  C   UNL A   1      38.435  30.025  29.221  1.00  0.00     0.031 C 
ATOM     46  C   UNL A   1      37.845  34.328  34.576  1.00  0.00     0.029 A 
ATOM     47  C   UNL A   1      38.875  33.301  34.700  1.00  0.00     0.049 A 
ATOM     48  H   UNL A   1      39.416  31.871  33.285  1.00  0.00     0.167 HD
ATOM     49  C   UNL A   1      40.316  28.816  30.292  1.00  0.00     0.037 A 
ATOM     50  C   UNL A   1      39.658  33.112  35.780  1.00  0.00     0.037 A 
ATOM     51  C   UNL A   1      41.262  28.602  31.356  1.00  0.00     0.049 A 
ATOM     52  C   UNL A   1      40.675  32.005  35.767  1.00  0.00     0.074 A 
ATOM     53  C   UNL A   1      42.302  27.690  31.411  1.00  0.00     0.029 A 
ATOM     54  N   UNL A   1      41.280  29.303  32.552  1.00  0.00    -0.354 N 
ATOM     55  N   UNL A   1      40.944  31.146  34.815  1.00  0.00    -0.248 NA
ATOM     56  C   UNL A   1      41.493  31.836  36.977  1.00  0.00     0.031 C 
ATOM     57  C   UNL A   1      42.909  27.798  32.666  1.00  0.00     0.029 A 
ATOM     58  C   UNL A   1      42.288  28.817  33.370  1.00  0.00     0.049 A 
ATOM     59  H   UNL A   1      40.667  30.038  32.787  1.00  0.00     0.167 HD
ATOM     60  C   UNL A   1      41.968  30.344  35.301  1.00  0.00     0.074 A 
ATOM     61  C   UNL A   1      42.284  30.828  36.629  1.00  0.00     0.031 C 
ATOM     62  C   UNL A   1      42.588  29.302  34.695  1.00  0.00     0.037 A 
BRANCH  49  63
ATOM     63  C   UNL A   1      40.376  27.902  29.100  1.00  0.00     0.064 A 
ATOM     64  C   UNL A   1      41.132  28.252  27.971  1.00  0.00     0.173 A 
ATOM     65  C   UNL A   1      39.639  26.709  29.051  1.00  0.00     0.173 A 
ATOM     66  F   UNL A   1      41.849  29.386  27.961  1.00  0.00    -0.203 F 
ATOM     67  C   UNL A   1      41.143  27.445  26.837  1.00  0.00     0.198 A 
ATOM     68  C   UNL A   1      39.678  25.889  27.926  1.00  0.00     0.198 A 
ATOM     69  F   UNL A   1      38.904  26.324  30.105  1.00  0.00    -0.203 F 
ATOM     70  F   UNL A   1      41.850  27.815  25.760  1.00  0.00    -0.200 F 
ATOM     71  C   UNL A   1      40.422  26.261  26.817  1.00  0.00     0.200 A 
ATOM     72  F   UNL A   1      38.999  24.733  27.919  1.00  0.00    -0.200 F 
ATOM     73  F   UNL A   1      40.447  25.477  25.730  1.00  0.00    -0.200 F 
ENDBRANCH  49  63
BRANCH  50  74
ATOM     74  C   UNL A   1      39.516  34.024  36.944  1.00  0.00     0.064 A 
ATOM     75  C   UNL A   1      40.183  35.257  36.992  1.00  0.00     0.173 A 
ATOM     76  C   UNL A   1      38.766  33.642  38.064  1.00  0.00     0.173 A 
ATOM     77  F   UNL A   1      40.918  35.664  35.947  1.00  0.00    -0.203 F 
ATOM     78  C   UNL A   1      40.132  36.057  38.132  1.00  0.00     0.198 A 
ATOM     79  C   UNL A   1      38.696  34.456  39.193  1.00  0.00     0.198 A 
ATOM     80  F   UNL A   1      38.095  32.481  38.057  1.00  0.00    -0.203 F 
ATOM     81  F   UNL A   1      40.820  37.207  38.171  1.00  0.00    -0.200 F 
ATOM     82  C   UNL A   1      39.389  35.656  39.230  1.00  0.00     0.200 A 
ATOM     83  F   UNL A   1      37.961  34.074  40.246  1.00  0.00    -0.200 F 
ATOM     84  F   UNL A   1      39.343  36.425  40.327  1.00  0.00    -0.200 F 
ENDBRANCH  50  74
BRANCH  62  85
ATOM     85  C   UNL A   1      43.677  28.599  35.451  1.00  0.00     0.064 A 
ATOM     86  C   UNL A   1      43.363  27.614  36.400  1.00  0.00     0.173 A 
ATOM     87  C   UNL A   1      45.020  28.978  35.317  1.00  0.00     0.173 A 
ATOM     88  F   UNL A   1      42.091  27.222  36.572  1.00  0.00    -0.203 F 
ATOM     89  C   UNL A   1      44.350  27.055  37.206  1.00  0.00     0.198 A 
ATOM     90  C   UNL A   1      46.009  28.397  36.105  1.00  0.00     0.198 A 
ATOM     91  F   UNL A   1      45.372  29.906  34.414  1.00  0.00    -0.203 F 
ATOM     92  F   UNL A   1      44.020  26.151  38.139  1.00  0.00    -0.200 F 
ATOM     93  C   UNL A   1      45.672  27.447  37.059  1.00  0.00     0.200 A 
ATOM     94  F   UNL A   1      47.289  28.761  35.948  1.00  0.00    -0.200 F 
ATOM     95  F   UNL A   1      46.622  26.911  37.837  1.00  0.00    -0.200 F 
ENDBRANCH  62  85
ENDBRANCH  36  37
ENDBRANCH  28  31
ENDBRANCH  26  27
ENDBRANCH  25  26
ENDBRANCH   1  25
TORSDOF 14
ENDMDL
MODEL 3
REMARK VINA RESULT:     -12.2      0.365      1.285
REMARK SMILES C[C@@H](CNc1cccc(F)c1C(=O)NCCCNC(=O)c1ccc(-c2c3nc(c(-c4c(F)c(F)c(F)c(F)c4F)c4ccc([nH]4)c(-c4c(F)c(F)c(F)c(F)c4F)c4nc(c(-c5c(F)c(F)c(F)c(F)c5F)c5ccc2[nH]5)C=C4)C=C3)cc1)[NH+]1CCCCC1
REMARK SMILES IDX 15 1 14 2 12 3 13 4 11 6 5 7 6 8 7 9 9 10 8 11 10 12 4 13
REMARK SMILES IDX 3 15 2 16 1 17 84 18 85 19 89 20 86 22 88 23 87 24 16 25
REMARK SMILES IDX 17 26 18 27 19 28 20 30 21 31 22 32 83 33 23 34 82 35 24 36
REMARK SMILES IDX 25 37 26 38 76 39 27 40 81 41 75 42 77 43 28 44 80 45 74 46
REMARK SMILES IDX 73 47 29 49 61 50 41 51 60 52 42 53 45 54 59 55 78 56 43 57
REMARK SMILES IDX 44 58 58 60 79 61 46 62 30 63 31 64 39 65 32 66 33 67 37 68
REMARK SMILES IDX 40 69 34 70 35 71 38 72 36 73 62 74 63 75 71 76 64 77 65 78
REMARK SMILES IDX 69 79 72 80 66 81 67 82 70 83 68 84 47 85 48 86 56 87 49 88
REMARK SMILES IDX 50 89 54 90 57 91 51 92 52 93 55 94 53 95
REMARK H PARENT 14 5 4 14 84 21 18 29 77 48 45 59
REMARK Flexibility Score: inf
ROOT
ATOM      1  C   UNL A   1      36.805  20.791  24.663  1.00  0.00     0.118 C 
ENDROOT
BRANCH   1   2
ATOM      2  N   UNL A   1      35.761  20.838  25.672  1.00  0.00    -0.352 N 
ATOM      3  C   UNL A   1      34.450  20.426  25.690  1.00  0.00     0.256 C 
ATOM      4  O   UNL A   1      33.813  20.687  26.715  1.00  0.00    -0.269 OA
ATOM      5  H   UNL A   1      36.052  21.249  26.518  1.00  0.00     0.163 HD
BRANCH   3   6
ATOM      6  C   UNL A   1      33.808  19.603  24.624  1.00  0.00     0.098 A 
ATOM      7  C   UNL A   1      32.772  20.193  23.841  1.00  0.00     0.050 A 
ATOM      8  C   UNL A   1      32.152  19.406  22.855  1.00  0.00     0.027 A 
ATOM      9  C   UNL A   1      32.513  18.075  22.647  1.00  0.00     0.005 A 
ATOM     10  C   UNL A   1      34.186  18.285  24.364  1.00  0.00     0.138 A 
ATOM     11  C   UNL A   1      33.529  17.515  23.407  1.00  0.00     0.040 A 
ATOM     12  F   UNL A   1      35.210  17.706  25.003  1.00  0.00    -0.206 F 
BRANCH   7  13
ATOM     13  N   UNL A   1      32.317  21.483  24.099  1.00  0.00    -0.378 N 
ATOM     14  H   UNL A   1      32.356  21.799  25.031  1.00  0.00     0.160 HD
BRANCH  13  15
ATOM     15  C   UNL A   1      31.786  22.404  23.101  1.00  0.00     0.177 C 
BRANCH  15  16
ATOM     16  C   UNL A   1      32.579  23.751  22.985  1.00  0.00     0.200 C 
ATOM     17  C   UNL A   1      34.088  23.524  23.158  1.00  0.00     0.077 C 
BRANCH  16  18
ATOM     18  N   UNL A   1      32.127  24.932  23.779  1.00  0.00    -0.331 N 
ATOM     19  C   UNL A   1      30.671  24.908  23.997  1.00  0.00     0.262 C 
ATOM     20  C   UNL A   1      32.847  25.105  25.044  1.00  0.00     0.262 C 
ATOM     21  H   UNL A   1      32.357  25.748  23.211  1.00  0.00     0.348 HD
ATOM     22  C   UNL A   1      30.177  26.138  24.766  1.00  0.00     0.062 C 
ATOM     23  C   UNL A   1      32.415  26.348  25.819  1.00  0.00     0.062 C 
ATOM     24  C   UNL A   1      30.918  26.300  26.086  1.00  0.00     0.012 C 
ENDBRANCH  16  18
ENDBRANCH  15  16
ENDBRANCH  13  15
ENDBRANCH   7  13
ENDBRANCH   3   6
ENDBRANCH   1   2
BRANCH   1  25
ATOM     25  C   UNL A   1      37.821  19.699  25.001  1.00  0.00     0.042 C 
BRANCH  25  26
ATOM     26  C   UNL A   1      39.045  20.220  25.751  1.00  0.00     0.118 C 
BRANCH  26  27
ATOM     27  N   UNL A   1      40.054  19.187  25.942  1.00  0.00    -0.352 N 
ATOM     28  C   UNL A   1      41.408  19.309  26.143  1.00  0.00     0.251 C 
ATOM     29  H   UNL A   1      39.716  18.262  25.924  1.00  0.00     0.163 HD
ATOM     30  O   UNL A   1      42.128  18.317  26.068  1.00  0.00    -0.269 OA
BRANCH  28  31
ATOM     31  C   UNL A   1      42.011  20.631  26.431  1.00  0.00     0.039 A 
ATOM     32  C   UNL A   1      42.352  21.463  25.360  1.00  0.00     0.014 A 
ATOM     33  C   UNL A   1      42.269  21.039  27.742  1.00  0.00     0.014 A 
ATOM     34  C   UNL A   1      42.887  22.730  25.607  1.00  0.00     0.010 A 
ATOM     35  C   UNL A   1      42.740  22.327  27.989  1.00  0.00     0.010 A 
ATOM     36  C   UNL A   1      43.049  23.188  26.924  1.00  0.00    -0.014 A 
BRANCH  36  37
ATOM     37  C   UNL A   1      43.508  24.571  27.210  1.00  0.00     0.031 A 
ATOM     38  C   UNL A   1      42.550  25.599  27.739  1.00  0.00     0.074 A 
ATOM     39  C   UNL A   1      44.777  24.919  26.920  1.00  0.00     0.049 A 
ATOM     40  N   UNL A   1      42.747  26.873  27.968  1.00  0.00    -0.248 NA
ATOM     41  C   UNL A   1      41.183  25.142  28.029  1.00  0.00     0.031 C 
ATOM     42  C   UNL A   1      45.790  24.019  26.367  1.00  0.00     0.029 A 
ATOM     43  N   UNL A   1      45.428  26.122  27.036  1.00  0.00    -0.354 N 
ATOM     44  C   UNL A   1      41.530  27.369  28.413  1.00  0.00     0.074 A 
ATOM     45  C   UNL A   1      40.587  26.273  28.378  1.00  0.00     0.031 C 
ATOM     46  C   UNL A   1      46.940  24.693  26.215  1.00  0.00     0.029 A 
ATOM     47  C   UNL A   1      46.735  26.082  26.614  1.00  0.00     0.049 A 
ATOM     48  H   UNL A   1      45.000  26.935  27.390  1.00  0.00     0.167 HD
ATOM     49  C   UNL A   1      41.235  28.623  28.833  1.00  0.00     0.037 A 
ATOM     50  C   UNL A   1      47.661  27.057  26.541  1.00  0.00     0.037 A 
ATOM     51  C   UNL A   1      42.186  29.703  28.886  1.00  0.00     0.049 A 
ATOM     52  C   UNL A   1      47.303  28.448  26.983  1.00  0.00     0.074 A 
ATOM     53  C   UNL A   1      42.001  30.987  29.366  1.00  0.00     0.029 A 
ATOM     54  N   UNL A   1      43.496  29.627  28.436  1.00  0.00    -0.354 N 
ATOM     55  N   UNL A   1      46.168  28.892  27.464  1.00  0.00    -0.248 NA
ATOM     56  C   UNL A   1      48.349  29.475  26.869  1.00  0.00     0.031 C 
ATOM     57  C   UNL A   1      43.181  31.706  29.151  1.00  0.00     0.029 A 
ATOM     58  C   UNL A   1      44.120  30.855  28.592  1.00  0.00     0.049 A 
ATOM     59  H   UNL A   1      43.920  28.821  28.062  1.00  0.00     0.167 HD
ATOM     60  C   UNL A   1      46.363  30.242  27.722  1.00  0.00     0.074 A 
ATOM     61  C   UNL A   1      47.732  30.543  27.359  1.00  0.00     0.031 C 
ATOM     62  C   UNL A   1      45.483  31.146  28.218  1.00  0.00     0.037 A 
BRANCH  49  63
ATOM     63  C   UNL A   1      39.825  28.902  29.273  1.00  0.00     0.064 A 
ATOM     64  C   UNL A   1      39.429  28.651  30.596  1.00  0.00     0.173 A 
ATOM     65  C   UNL A   1      38.851  29.359  28.373  1.00  0.00     0.173 A 
ATOM     66  F   UNL A   1      40.318  28.204  31.496  1.00  0.00    -0.203 F 
ATOM     67  C   UNL A   1      38.111  28.844  30.999  1.00  0.00     0.198 A 
ATOM     68  C   UNL A   1      37.540  29.581  28.788  1.00  0.00     0.198 A 
ATOM     69  F   UNL A   1      39.177  29.620  27.098  1.00  0.00    -0.203 F 
ATOM     70  F   UNL A   1      37.750  28.570  32.260  1.00  0.00    -0.200 F 
ATOM     71  C   UNL A   1      37.169  29.315  30.097  1.00  0.00     0.200 A 
ATOM     72  F   UNL A   1      36.637  30.060  27.920  1.00  0.00    -0.200 F 
ATOM     73  F   UNL A   1      35.903  29.516  30.491  1.00  0.00    -0.200 F 
ENDBRANCH  49  63
BRANCH  50  74
ATOM     74  C   UNL A   1      49.025  26.723  26.052  1.00  0.00     0.064 A 
ATOM     75  C   UNL A   1      50.015  26.242  26.922  1.00  0.00     0.173 A 
ATOM     76  C   UNL A   1      49.382  26.950  24.717  1.00  0.00     0.173 A 
ATOM     77  F   UNL A   1      49.724  26.014  28.211  1.00  0.00    -0.203 F 
ATOM     78  C   UNL A   1      51.320  26.034  26.481  1.00  0.00     0.198 A 
ATOM     79  C   UNL A   1      50.681  26.718  24.272  1.00  0.00     0.198 A 
ATOM     80  F   UNL A   1      48.464  27.391  23.845  1.00  0.00    -0.203 F 
ATOM     81  F   UNL A   1      52.259  25.622  27.344  1.00  0.00    -0.200 F 
ATOM     82  C   UNL A   1      51.652  26.272  25.156  1.00  0.00     0.200 A 
ATOM     83  F   UNL A   1      50.994  26.930  22.986  1.00  0.00    -0.200 F 
ATOM     84  F   UNL A   1      52.908  26.075  24.733  1.00  0.00    -0.200 F 
ENDBRANCH  50  74
BRANCH  62  85
ATOM     85  C   UNL A   1      45.957  32.557  28.403  1.00  0.00     0.064 A 
ATOM     86  C   UNL A   1      45.841  33.489  27.360  1.00  0.00     0.173 A 
ATOM     87  C   UNL A   1      46.624  32.955  29.569  1.00  0.00     0.173 A 
ATOM     88  F   UNL A   1      45.217  33.155  26.221  1.00  0.00    -0.203 F 
ATOM     89  C   UNL A   1      46.401  34.759  27.469  1.00  0.00     0.198 A 
ATOM     90  C   UNL A   1      47.160  34.234  29.686  1.00  0.00     0.198 A 
ATOM     91  F   UNL A   1      46.749  32.104  30.600  1.00  0.00    -0.203 F 
ATOM     92  F   UNL A   1      46.321  35.616  26.441  1.00  0.00    -0.200 F 
ATOM     93  C   UNL A   1      47.061  35.130  28.630  1.00  0.00     0.200 A 
ATOM     94  F   UNL A   1      47.778  34.600  30.817  1.00  0.00    -0.200 F 
ATOM     95  F   UNL A   1      47.602  36.351  28.734  1.00  0.00    -0.200 F 
ENDBRANCH  62  85
ENDBRANCH  36  37
ENDBRANCH  28  31
ENDBRANCH  26  27
ENDBRANCH  25  26
ENDBRANCH   1  25
TORSDOF 14
ENDMDL
