MODEL 1
REMARK VINA RESULT:     -12.0      0.000      0.000
REMARK SMILES C[C@@](NC(=O)CN1CSCC1=O)(C(=O)NCCCNC(=O)c1ccc(-c2c3nc(c(-c4c(F)c(F)c(F)c(F)c4F)c4ccc([nH]4)c(-c4c(F)c(F)c(F)c(F)c4F)c4nc(c(-c5c(F)c(F)c(F)c(F)c5F)c5ccc2[nH]5)C=C4)C=C3)cc1)C(F)(F)F
REMARK SMILES IDX 16 1 15 2 13 3 14 4 2 6 1 7 3 8 4 9 5 11 6 12 7 13 8 14
REMARK SMILES IDX 11 15 9 16 10 17 12 18 85 19 86 20 87 21 88 22 17 23 18 24
REMARK SMILES IDX 19 25 20 26 21 28 22 29 23 30 84 31 24 32 83 33 25 34 26 35
REMARK SMILES IDX 27 36 77 37 28 38 82 39 76 40 78 41 29 42 81 43 75 44 74 45
REMARK SMILES IDX 30 47 62 48 42 49 61 50 43 51 46 52 60 53 79 54 44 55 45 56
REMARK SMILES IDX 59 58 80 59 47 60 31 61 32 62 40 63 33 64 34 65 38 66 41 67
REMARK SMILES IDX 35 68 36 69 39 70 37 71 63 72 64 73 72 74 65 75 66 76 70 77
REMARK SMILES IDX 73 78 67 79 68 80 71 81 69 82 48 83 49 84 57 85 50 86 51 87
REMARK SMILES IDX 55 88 58 89 52 90 53 91 56 92 54 93
REMARK H PARENT 15 5 3 10 19 27 78 46 46 57
REMARK Flexibility Score: inf
ROOT
ATOM      1  C   UNL A   1      32.136  27.815  27.067  1.00  0.00     0.117 C 
ENDROOT
BRANCH   1   2
ATOM      2  N   UNL A   1      31.028  26.966  26.638  1.00  0.00    -0.354 N 
ATOM      3  C   UNL A   1      31.006  25.947  25.712  1.00  0.00     0.254 C 
ATOM      4  O   UNL A   1      29.943  25.337  25.591  1.00  0.00    -0.272 OA
ATOM      5  H   UNL A   1      30.165  27.151  27.077  1.00  0.00     0.163 HD
BRANCH   3   6
ATOM      6  C   UNL A   1      32.187  25.724  24.756  1.00  0.00     0.212 C 
ATOM      7  C   UNL A   1      31.662  24.771  23.646  1.00  0.00     0.056 C 
BRANCH   6   8
ATOM      8  N   UNL A   1      32.640  26.997  24.122  1.00  0.00    -0.333 N 
ATOM      9  C   UNL A   1      32.024  27.899  23.309  1.00  0.00     0.240 C 
ATOM     10  H   UNL A   1      33.573  27.230  24.333  1.00  0.00     0.164 HD
ATOM     11  O   UNL A   1      32.548  29.022  23.310  1.00  0.00    -0.273 OA
BRANCH   9  12
ATOM     12  C   UNL A   1      30.682  27.698  22.571  1.00  0.00     0.220 C 
BRANCH  12  13
ATOM     13  N   UNL A   1      29.592  28.654  22.706  1.00  0.00    -0.323 N 
ATOM     14  C   UNL A   1      29.548  29.793  21.822  1.00  0.00     0.190 C 
ATOM     15  C   UNL A   1      28.342  28.225  23.127  1.00  0.00     0.233 C 
ATOM     16  S   UNL A   1      28.029  30.690  22.162  1.00  0.00    -0.130 SA
ATOM     17  C   UNL A   1      27.303  29.325  23.082  1.00  0.00     0.171 C 
ATOM     18  O   UNL A   1      28.115  27.095  23.545  1.00  0.00    -0.274 OA
ENDBRANCH  12  13
ENDBRANCH   9  12
ENDBRANCH   6   8
BRANCH   6  19
ATOM     19  C   UNL A   1      33.328  24.957  25.457  1.00  0.00     0.420 C 
ATOM     20  F   UNL A   1      32.958  24.390  26.626  1.00  0.00    -0.168 F 
ATOM     21  F   UNL A   1      33.743  23.933  24.658  1.00  0.00    -0.168 F 
ATOM     22  F   UNL A   1      34.415  25.723  25.688  1.00  0.00    -0.168 F 
ENDBRANCH   6  19
ENDBRANCH   3   6
ENDBRANCH   1   2
BRANCH   1  23
ATOM     23  C   UNL A   1      31.788  29.296  27.173  1.00  0.00     0.042 C 
BRANCH  23  24
ATOM     24  C   UNL A   1      32.764  30.269  26.519  1.00  0.00     0.118 C 
BRANCH  24  25
ATOM     25  N   UNL A   1      32.601  31.664  26.897  1.00  0.00    -0.352 N 
ATOM     26  C   UNL A   1      33.480  32.437  27.626  1.00  0.00     0.251 C 
ATOM     27  H   UNL A   1      31.772  32.104  26.600  1.00  0.00     0.163 HD
ATOM     28  O   UNL A   1      33.229  33.593  27.946  1.00  0.00    -0.269 OA
BRANCH  26  29
ATOM     29  C   UNL A   1      34.762  31.831  28.030  1.00  0.00     0.039 A 
ATOM     30  C   UNL A   1      35.893  32.639  28.146  1.00  0.00     0.014 A 
ATOM     31  C   UNL A   1      34.809  30.477  28.373  1.00  0.00     0.014 A 
ATOM     32  C   UNL A   1      37.055  32.107  28.705  1.00  0.00     0.010 A 
ATOM     33  C   UNL A   1      35.952  29.962  28.979  1.00  0.00     0.010 A 
ATOM     34  C   UNL A   1      37.074  30.781  29.175  1.00  0.00    -0.014 A 
BRANCH  34  35
ATOM     35  C   UNL A   1      38.229  30.276  29.959  1.00  0.00     0.031 A 
ATOM     36  C   UNL A   1      38.470  30.733  31.366  1.00  0.00     0.074 A 
ATOM     37  C   UNL A   1      39.100  29.439  29.361  1.00  0.00     0.049 A 
ATOM     38  N   UNL A   1      39.419  30.380  32.195  1.00  0.00    -0.248 NA
ATOM     39  C   UNL A   1      37.537  31.731  31.908  1.00  0.00     0.031 C 
ATOM     40  C   UNL A   1      39.011  28.980  27.973  1.00  0.00     0.029 A 
ATOM     41  N   UNL A   1      40.232  28.828  29.839  1.00  0.00    -0.354 N 
ATOM     42  C   UNL A   1      39.196  31.106  33.357  1.00  0.00     0.074 A 
ATOM     43  C   UNL A   1      38.056  31.963  33.105  1.00  0.00     0.031 C 
ATOM     44  C   UNL A   1      40.024  28.136  27.723  1.00  0.00     0.029 A 
ATOM     45  C   UNL A   1      40.850  28.015  28.920  1.00  0.00     0.049 A 
ATOM     46  H   UNL A   1      40.568  28.958  30.756  1.00  0.00     0.167 HD
ATOM     47  C   UNL A   1      39.868  31.044  34.532  1.00  0.00     0.037 A 
ATOM     48  C   UNL A   1      41.956  27.256  29.030  1.00  0.00     0.037 A 
ATOM     49  C   UNL A   1      40.997  30.186  34.778  1.00  0.00     0.049 A 
ATOM     50  C   UNL A   1      42.686  27.212  30.345  1.00  0.00     0.074 A 
ATOM     51  C   UNL A   1      41.704  30.004  35.954  1.00  0.00     0.029 A 
ATOM     52  N   UNL A   1      41.595  29.373  33.824  1.00  0.00    -0.354 N 
ATOM     53  N   UNL A   1      42.406  27.827  31.468  1.00  0.00    -0.248 NA
ATOM     54  C   UNL A   1      43.882  26.361  30.410  1.00  0.00     0.031 C 
ATOM     55  C   UNL A   1      42.758  29.120  35.700  1.00  0.00     0.029 A 
ATOM     56  C   UNL A   1      42.679  28.711  34.379  1.00  0.00     0.049 A 
ATOM     57  H   UNL A   1      41.292  29.282  32.892  1.00  0.00     0.167 HD
ATOM     58  C   UNL A   1      43.372  27.421  32.377  1.00  0.00     0.074 A 
ATOM     59  C   UNL A   1      44.237  26.491  31.681  1.00  0.00     0.031 C 
ATOM     60  C   UNL A   1      43.531  27.787  33.672  1.00  0.00     0.037 A 
BRANCH  47  61
ATOM     61  C   UNL A   1      39.390  31.926  35.649  1.00  0.00     0.064 A 
ATOM     62  C   UNL A   1      38.437  31.481  36.578  1.00  0.00     0.173 A 
ATOM     63  C   UNL A   1      39.922  33.213  35.821  1.00  0.00     0.173 A 
ATOM     64  F   UNL A   1      37.892  30.262  36.453  1.00  0.00    -0.203 F 
ATOM     65  C   UNL A   1      38.012  32.303  37.618  1.00  0.00     0.198 A 
ATOM     66  C   UNL A   1      39.516  34.021  36.880  1.00  0.00     0.198 A 
ATOM     67  F   UNL A   1      40.842  33.684  34.967  1.00  0.00    -0.203 F 
ATOM     68  F   UNL A   1      37.067  31.872  38.466  1.00  0.00    -0.200 F 
ATOM     69  C   UNL A   1      38.557  33.568  37.773  1.00  0.00     0.200 A 
ATOM     70  F   UNL A   1      40.054  35.238  37.037  1.00  0.00    -0.200 F 
ATOM     71  F   UNL A   1      38.153  34.354  38.781  1.00  0.00    -0.200 F 
ENDBRANCH  47  61
BRANCH  48  72
ATOM     72  C   UNL A   1      42.422  26.451  27.873  1.00  0.00     0.064 A 
ATOM     73  C   UNL A   1      43.367  26.965  26.973  1.00  0.00     0.173 A 
ATOM     74  C   UNL A   1      41.934  25.158  27.637  1.00  0.00     0.173 A 
ATOM     75  F   UNL A   1      43.850  28.204  27.145  1.00  0.00    -0.203 F 
ATOM     76  C   UNL A   1      43.790  26.224  25.871  1.00  0.00     0.198 A 
ATOM     77  C   UNL A   1      42.378  24.407  26.551  1.00  0.00     0.198 A 
ATOM     78  F   UNL A   1      41.034  24.618  28.473  1.00  0.00    -0.203 F 
ATOM     79  F   UNL A   1      44.659  26.757  25.002  1.00  0.00    -0.200 F 
ATOM     80  C   UNL A   1      43.298  24.944  25.664  1.00  0.00     0.200 A 
ATOM     81  F   UNL A   1      41.912  23.164  26.364  1.00  0.00    -0.200 F 
ATOM     82  F   UNL A   1      43.707  24.230  24.606  1.00  0.00    -0.200 F 
ENDBRANCH  48  72
BRANCH  60  83
ATOM     83  C   UNL A   1      44.671  27.167  34.428  1.00  0.00     0.064 A 
ATOM     84  C   UNL A   1      45.925  27.790  34.505  1.00  0.00     0.173 A 
ATOM     85  C   UNL A   1      44.494  25.957  35.114  1.00  0.00     0.173 A 
ATOM     86  F   UNL A   1      46.149  28.941  33.852  1.00  0.00    -0.203 F 
ATOM     87  C   UNL A   1      46.967  27.212  35.224  1.00  0.00     0.198 A 
ATOM     88  C   UNL A   1      45.529  25.397  35.857  1.00  0.00     0.198 A 
ATOM     89  F   UNL A   1      43.312  25.323  35.076  1.00  0.00    -0.203 F 
ATOM     90  F   UNL A   1      48.171  27.802  35.247  1.00  0.00    -0.200 F 
ATOM     91  C   UNL A   1      46.767  26.021  35.906  1.00  0.00     0.200 A 
ATOM     92  F   UNL A   1      45.331  24.253  36.525  1.00  0.00    -0.200 F 
ATOM     93  F   UNL A   1      47.769  25.470  36.603  1.00  0.00    -0.200 F 
ENDBRANCH  60  83
ENDBRANCH  34  35
ENDBRANCH  26  29
ENDBRANCH  24  25
ENDBRANCH  23  24
ENDBRANCH   1  23
TORSDOF 14
ENDMDL
MODEL 2
REMARK VINA RESULT:     -11.9      2.309      3.526
REMARK SMILES C[C@@](NC(=O)CN1CSCC1=O)(C(=O)NCCCNC(=O)c1ccc(-c2c3nc(c(-c4c(F)c(F)c(F)c(F)c4F)c4ccc([nH]4)c(-c4c(F)c(F)c(F)c(F)c4F)c4nc(c(-c5c(F)c(F)c(F)c(F)c5F)c5ccc2[nH]5)C=C4)C=C3)cc1)C(F)(F)F
REMARK SMILES IDX 16 1 15 2 13 3 14 4 2 6 1 7 3 8 4 9 5 11 6 12 7 13 8 14
REMARK SMILES IDX 11 15 9 16 10 17 12 18 85 19 86 20 87 21 88 22 17 23 18 24
REMARK SMILES IDX 19 25 20 26 21 28 22 29 23 30 84 31 24 32 83 33 25 34 26 35
REMARK SMILES IDX 27 36 77 37 28 38 82 39 76 40 78 41 29 42 81 43 75 44 74 45
REMARK SMILES IDX 30 47 62 48 42 49 61 50 43 51 46 52 60 53 79 54 44 55 45 56
REMARK SMILES IDX 59 58 80 59 47 60 31 61 32 62 40 63 33 64 34 65 38 66 41 67
REMARK SMILES IDX 35 68 36 69 39 70 37 71 63 72 64 73 72 74 65 75 66 76 70 77
REMARK SMILES IDX 73 78 67 79 68 80 71 81 69 82 48 83 49 84 57 85 50 86 51 87
REMARK SMILES IDX 55 88 58 89 52 90 53 91 56 92 54 93
REMARK H PARENT 15 5 3 10 19 27 78 46 46 57
REMARK Flexibility Score: inf
ROOT
ATOM      1  C   UNL A   1      31.817  30.475  25.758  1.00  0.00     0.117 C 
ENDROOT
BRANCH   1   2
ATOM      2  N   UNL A   1      32.933  29.864  25.041  1.00  0.00    -0.354 N 
ATOM      3  C   UNL A   1      32.929  28.875  24.083  1.00  0.00     0.254 C 
ATOM      4  O   UNL A   1      34.018  28.590  23.583  1.00  0.00    -0.272 OA
ATOM      5  H   UNL A   1      33.824  30.212  25.279  1.00  0.00     0.163 HD
BRANCH   3   6
ATOM      6  C   UNL A   1      31.665  28.048  23.807  1.00  0.00     0.212 C 
ATOM      7  C   UNL A   1      32.130  26.823  22.973  1.00  0.00     0.056 C 
BRANCH   6   8
ATOM      8  N   UNL A   1      31.032  27.559  25.068  1.00  0.00    -0.333 N 
ATOM      9  C   UNL A   1      31.482  26.784  26.093  1.00  0.00     0.240 C 
ATOM     10  H   UNL A   1      30.099  27.856  25.179  1.00  0.00     0.164 HD
ATOM     11  O   UNL A   1      30.846  26.918  27.147  1.00  0.00    -0.273 OA
BRANCH   9  12
ATOM     12  C   UNL A   1      32.774  25.937  26.098  1.00  0.00     0.220 C 
BRANCH  12  13
ATOM     13  N   UNL A   1      32.773  24.551  25.647  1.00  0.00    -0.323 N 
ATOM     14  C   UNL A   1      33.852  24.089  24.809  1.00  0.00     0.190 C 
ATOM     15  C   UNL A   1      32.226  23.562  26.451  1.00  0.00     0.233 C 
ATOM     16  S   UNL A   1      33.621  22.327  24.544  1.00  0.00    -0.130 SA
ATOM     17  C   UNL A   1      32.431  22.172  25.884  1.00  0.00     0.171 C 
ATOM     18  O   UNL A   1      31.594  23.789  27.476  1.00  0.00    -0.274 OA
ENDBRANCH  12  13
ENDBRANCH   9  12
ENDBRANCH   6   8
BRANCH   6  19
ATOM     19  C   UNL A   1      30.686  28.823  22.899  1.00  0.00     0.420 C 
ATOM     20  F   UNL A   1      31.299  29.667  22.041  1.00  0.00    -0.168 F 
ATOM     21  F   UNL A   1      29.990  27.941  22.127  1.00  0.00    -0.168 F 
ATOM     22  F   UNL A   1      29.766  29.526  23.593  1.00  0.00    -0.168 F 
ENDBRANCH   6  19
ENDBRANCH   3   6
ENDBRANCH   1   2
BRANCH   1  23
ATOM     23  C   UNL A   1      32.172  30.997  27.145  1.00  0.00     0.042 C 
BRANCH  23  24
ATOM     24  C   UNL A   1      33.195  32.128  27.201  1.00  0.00     0.118 C 
BRANCH  24  25
ATOM     25  N   UNL A   1      32.646  33.454  27.440  1.00  0.00    -0.352 N 
ATOM     26  C   UNL A   1      33.065  34.371  28.381  1.00  0.00     0.251 C 
ATOM     27  H   UNL A   1      31.893  33.726  26.866  1.00  0.00     0.163 HD
ATOM     28  O   UNL A   1      32.501  35.446  28.546  1.00  0.00    -0.269 OA
BRANCH  26  29
ATOM     29  C   UNL A   1      34.233  34.025  29.212  1.00  0.00     0.039 A 
ATOM     30  C   UNL A   1      34.044  33.296  30.385  1.00  0.00     0.014 A 
ATOM     31  C   UNL A   1      35.517  34.356  28.770  1.00  0.00     0.014 A 
ATOM     32  C   UNL A   1      35.157  32.809  31.070  1.00  0.00     0.010 A 
ATOM     33  C   UNL A   1      36.625  33.826  29.425  1.00  0.00     0.010 A 
ATOM     34  C   UNL A   1      36.452  33.024  30.564  1.00  0.00    -0.014 A 
BRANCH  34  35
ATOM     35  C   UNL A   1      37.621  32.335  31.166  1.00  0.00     0.031 A 
ATOM     36  C   UNL A   1      38.132  32.717  32.522  1.00  0.00     0.074 A 
ATOM     37  C   UNL A   1      38.258  31.391  30.444  1.00  0.00     0.049 A 
ATOM     38  N   UNL A   1      39.129  32.207  33.200  1.00  0.00    -0.248 NA
ATOM     39  C   UNL A   1      37.451  33.830  33.198  1.00  0.00     0.031 C 
ATOM     40  C   UNL A   1      37.897  30.983  29.085  1.00  0.00     0.029 A 
ATOM     41  N   UNL A   1      39.342  30.607  30.748  1.00  0.00    -0.354 N 
ATOM     42  C   UNL A   1      39.191  32.930  34.383  1.00  0.00     0.074 A 
ATOM     43  C   UNL A   1      38.169  33.953  34.305  1.00  0.00     0.031 C 
ATOM     44  C   UNL A   1      38.723  30.004  28.685  1.00  0.00     0.029 A 
ATOM     45  C   UNL A   1      39.689  29.733  29.745  1.00  0.00     0.049 A 
ATOM     46  H   UNL A   1      39.826  30.663  31.605  1.00  0.00     0.167 HD
ATOM     47  C   UNL A   1      40.012  32.741  35.445  1.00  0.00     0.037 A 
ATOM     48  C   UNL A   1      40.672  28.815  29.689  1.00  0.00     0.037 A 
ATOM     49  C   UNL A   1      41.022  31.718  35.519  1.00  0.00     0.049 A 
ATOM     50  C   UNL A   1      41.572  28.632  30.880  1.00  0.00     0.074 A 
ATOM     51  C   UNL A   1      41.858  31.405  36.576  1.00  0.00     0.029 A 
ATOM     52  N   UNL A   1      41.343  30.848  34.485  1.00  0.00    -0.354 N 
ATOM     53  N   UNL A   1      41.556  29.255  32.033  1.00  0.00    -0.248 NA
ATOM     54  C   UNL A   1      42.622  27.610  30.765  1.00  0.00     0.031 C 
ATOM     55  C   UNL A   1      42.718  30.381  36.167  1.00  0.00     0.029 A 
ATOM     56  C   UNL A   1      42.384  30.019  34.872  1.00  0.00     0.049 A 
ATOM     57  H   UNL A   1      40.897  30.825  33.609  1.00  0.00     0.167 HD
ATOM     58  C   UNL A   1      42.573  28.688  32.788  1.00  0.00     0.074 A 
ATOM     59  C   UNL A   1      43.175  27.656  31.969  1.00  0.00     0.031 C 
ATOM     60  C   UNL A   1      42.974  28.996  34.045  1.00  0.00     0.037 A 
BRANCH  47  61
ATOM     61  C   UNL A   1      39.843  33.658  36.622  1.00  0.00     0.064 A 
ATOM     62  C   UNL A   1      40.516  34.887  36.695  1.00  0.00     0.173 A 
ATOM     63  C   UNL A   1      38.967  33.327  37.666  1.00  0.00     0.173 A 
ATOM     64  F   UNL A   1      41.372  35.247  35.726  1.00  0.00    -0.203 F 
ATOM     65  C   UNL A   1      40.342  35.736  37.785  1.00  0.00     0.198 A 
ATOM     66  C   UNL A   1      38.772  34.192  38.739  1.00  0.00     0.198 A 
ATOM     67  F   UNL A   1      38.291  32.169  37.641  1.00  0.00    -0.203 F 
ATOM     68  F   UNL A   1      41.030  36.884  37.854  1.00  0.00    -0.200 F 
ATOM     69  C   UNL A   1      39.464  35.392  38.801  1.00  0.00     0.200 A 
ATOM     70  F   UNL A   1      37.913  33.865  39.715  1.00  0.00    -0.200 F 
ATOM     71  F   UNL A   1      39.291  36.215  39.845  1.00  0.00    -0.200 F 
ENDBRANCH  47  61
BRANCH  48  72
ATOM     72  C   UNL A   1      40.835  27.977  28.474  1.00  0.00     0.064 A 
ATOM     73  C   UNL A   1      41.616  28.419  27.395  1.00  0.00     0.173 A 
ATOM     74  C   UNL A   1      40.216  26.725  28.361  1.00  0.00     0.173 A 
ATOM     75  F   UNL A   1      42.213  29.617  27.448  1.00  0.00    -0.203 F 
ATOM     76  C   UNL A   1      41.753  27.647  26.243  1.00  0.00     0.198 A 
ATOM     77  C   UNL A   1      40.375  25.942  27.219  1.00  0.00     0.198 A 
ATOM     78  F   UNL A   1      39.464  26.254  29.368  1.00  0.00    -0.203 F 
ATOM     79  F   UNL A   1      42.467  28.113  25.209  1.00  0.00    -0.200 F 
ATOM     80  C   UNL A   1      41.136  26.409  26.157  1.00  0.00     0.200 A 
ATOM     81  F   UNL A   1      39.792  24.738  27.148  1.00  0.00    -0.200 F 
ATOM     82  F   UNL A   1      41.271  25.666  25.050  1.00  0.00    -0.200 F 
ENDBRANCH  48  72
BRANCH  60  83
ATOM     83  C   UNL A   1      44.106  28.195  34.622  1.00  0.00     0.064 A 
ATOM     84  C   UNL A   1      45.436  28.627  34.521  1.00  0.00     0.173 A 
ATOM     85  C   UNL A   1      43.851  27.003  35.316  1.00  0.00     0.173 A 
ATOM     86  F   UNL A   1      45.732  29.752  33.852  1.00  0.00    -0.203 F 
ATOM     87  C   UNL A   1      46.474  27.882  35.076  1.00  0.00     0.198 A 
ATOM     88  C   UNL A   1      44.888  26.277  35.895  1.00  0.00     0.198 A 
ATOM     89  F   UNL A   1      42.596  26.548  35.445  1.00  0.00    -0.203 F 
ATOM     90  F   UNL A   1      47.742  28.291  34.928  1.00  0.00    -0.200 F 
ATOM     91  C   UNL A   1      46.199  26.713  35.769  1.00  0.00     0.200 A 
ATOM     92  F   UNL A   1      44.620  25.154  36.576  1.00  0.00    -0.200 F 
ATOM     93  F   UNL A   1      47.198  26.003  36.309  1.00  0.00    -0.200 F 
ENDBRANCH  60  83
ENDBRANCH  34  35
ENDBRANCH  26  29
ENDBRANCH  24  25
ENDBRANCH  23  24
ENDBRANCH   1  23
TORSDOF 14
ENDMDL
MODEL 3
REMARK VINA RESULT:     -11.9      2.300      3.691
REMARK SMILES C[C@@](NC(=O)CN1CSCC1=O)(C(=O)NCCCNC(=O)c1ccc(-c2c3nc(c(-c4c(F)c(F)c(F)c(F)c4F)c4ccc([nH]4)c(-c4c(F)c(F)c(F)c(F)c4F)c4nc(c(-c5c(F)c(F)c(F)c(F)c5F)c5ccc2[nH]5)C=C4)C=C3)cc1)C(F)(F)F
REMARK SMILES IDX 16 1 15 2 13 3 14 4 2 6 1 7 3 8 4 9 5 11 6 12 7 13 8 14
REMARK SMILES IDX 11 15 9 16 10 17 12 18 85 19 86 20 87 21 88 22 17 23 18 24
REMARK SMILES IDX 19 25 20 26 21 28 22 29 23 30 84 31 24 32 83 33 25 34 26 35
REMARK SMILES IDX 27 36 77 37 28 38 82 39 76 40 78 41 29 42 81 43 75 44 74 45
REMARK SMILES IDX 30 47 62 48 42 49 61 50 43 51 46 52 60 53 79 54 44 55 45 56
REMARK SMILES IDX 59 58 80 59 47 60 31 61 32 62 40 63 33 64 34 65 38 66 41 67
REMARK SMILES IDX 35 68 36 69 39 70 37 71 63 72 64 73 72 74 65 75 66 76 70 77
REMARK SMILES IDX 73 78 67 79 68 80 71 81 69 82 48 83 49 84 57 85 50 86 51 87
REMARK SMILES IDX 55 88 58 89 52 90 53 91 56 92 54 93
REMARK H PARENT 15 5 3 10 19 27 78 46 46 57
REMARK Flexibility Score: inf
ROOT
ATOM      1  C   UNL A   1      31.790  30.459  25.747  1.00  0.00     0.117 C 
ENDROOT
BRANCH   1   2
ATOM      2  N   UNL A   1      32.894  29.859  25.002  1.00  0.00    -0.354 N 
ATOM      3  C   UNL A   1      32.875  28.865  24.048  1.00  0.00     0.254 C 
ATOM      4  O   UNL A   1      33.953  28.592  23.518  1.00  0.00    -0.272 OA
ATOM      5  H   UNL A   1      33.786  30.218  25.213  1.00  0.00     0.163 HD
BRANCH   3   6
ATOM      6  C   UNL A   1      31.613  28.023  23.811  1.00  0.00     0.212 C 
ATOM      7  C   UNL A   1      32.074  26.787  22.989  1.00  0.00     0.056 C 
BRANCH   6   8
ATOM      8  N   UNL A   1      31.009  27.550  25.092  1.00  0.00    -0.333 N 
ATOM      9  C   UNL A   1      31.492  26.816  26.131  1.00  0.00     0.240 C 
ATOM     10  H   UNL A   1      30.070  27.824  25.207  1.00  0.00     0.164 HD
ATOM     11  O   UNL A   1      30.865  26.961  27.189  1.00  0.00    -0.273 OA
BRANCH   9  12
ATOM     12  C   UNL A   1      32.807  26.005  26.143  1.00  0.00     0.220 C 
BRANCH  12  13
ATOM     13  N   UNL A   1      32.851  24.626  25.674  1.00  0.00    -0.323 N 
ATOM     14  C   UNL A   1      33.975  24.194  24.880  1.00  0.00     0.190 C 
ATOM     15  C   UNL A   1      32.286  23.616  26.438  1.00  0.00     0.233 C 
ATOM     16  S   UNL A   1      33.788  22.433  24.581  1.00  0.00    -0.130 SA
ATOM     17  C   UNL A   1      32.541  22.238  25.863  1.00  0.00     0.171 C 
ATOM     18  O   UNL A   1      31.604  23.818  27.437  1.00  0.00    -0.274 OA
ENDBRANCH  12  13
ENDBRANCH   9  12
ENDBRANCH   6   8
BRANCH   6  19
ATOM     19  C   UNL A   1      30.611  28.772  22.908  1.00  0.00     0.420 C 
ATOM     20  F   UNL A   1      31.196  29.645  22.061  1.00  0.00    -0.168 F 
ATOM     21  F   UNL A   1      29.948  27.874  22.125  1.00  0.00    -0.168 F 
ATOM     22  F   UNL A   1      29.664  29.435  23.607  1.00  0.00    -0.168 F 
ENDBRANCH   6  19
ENDBRANCH   3   6
ENDBRANCH   1   2
BRANCH   1  23
ATOM     23  C   UNL A   1      32.169  30.955  27.138  1.00  0.00     0.042 C 
BRANCH  23  24
ATOM     24  C   UNL A   1      33.197  32.081  27.198  1.00  0.00     0.118 C 
BRANCH  24  25
ATOM     25  N   UNL A   1      32.653  33.409  27.432  1.00  0.00    -0.352 N 
ATOM     26  C   UNL A   1      33.073  34.328  28.371  1.00  0.00     0.251 C 
ATOM     27  H   UNL A   1      31.902  33.683  26.856  1.00  0.00     0.163 HD
ATOM     28  O   UNL A   1      32.513  35.405  28.532  1.00  0.00    -0.269 OA
BRANCH  26  29
ATOM     29  C   UNL A   1      34.238  33.979  29.206  1.00  0.00     0.039 A 
ATOM     30  C   UNL A   1      34.050  33.209  30.353  1.00  0.00     0.014 A 
ATOM     31  C   UNL A   1      35.520  34.351  28.792  1.00  0.00     0.014 A 
ATOM     32  C   UNL A   1      35.165  32.723  31.036  1.00  0.00     0.010 A 
ATOM     33  C   UNL A   1      36.631  33.823  29.444  1.00  0.00     0.010 A 
ATOM     34  C   UNL A   1      36.461  32.982  30.554  1.00  0.00    -0.014 A 
BRANCH  34  35
ATOM     35  C   UNL A   1      37.637  32.298  31.149  1.00  0.00     0.031 A 
ATOM     36  C   UNL A   1      38.159  32.688  32.499  1.00  0.00     0.074 A 
ATOM     37  C   UNL A   1      38.269  31.352  30.426  1.00  0.00     0.049 A 
ATOM     38  N   UNL A   1      39.163  32.183  33.171  1.00  0.00    -0.248 NA
ATOM     39  C   UNL A   1      37.482  33.803  33.175  1.00  0.00     0.031 C 
ATOM     40  C   UNL A   1      37.897  30.937  29.072  1.00  0.00     0.029 A 
ATOM     41  N   UNL A   1      39.358  30.572  30.724  1.00  0.00    -0.354 N 
ATOM     42  C   UNL A   1      39.235  32.912  34.349  1.00  0.00     0.074 A 
ATOM     43  C   UNL A   1      38.210  33.933  34.276  1.00  0.00     0.031 C 
ATOM     44  C   UNL A   1      38.722  29.958  28.670  1.00  0.00     0.029 A 
ATOM     45  C   UNL A   1      39.698  29.694  29.722  1.00  0.00     0.049 A 
ATOM     46  H   UNL A   1      39.849  30.634  31.576  1.00  0.00     0.167 HD
ATOM     47  C   UNL A   1      40.065  32.730  35.404  1.00  0.00     0.037 A 
ATOM     48  C   UNL A   1      40.682  28.778  29.662  1.00  0.00     0.037 A 
ATOM     49  C   UNL A   1      41.079  31.710  35.474  1.00  0.00     0.049 A 
ATOM     50  C   UNL A   1      41.593  28.603  30.846  1.00  0.00     0.074 A 
ATOM     51  C   UNL A   1      41.925  31.404  36.525  1.00  0.00     0.029 A 
ATOM     52  N   UNL A   1      41.392  30.836  34.442  1.00  0.00    -0.354 N 
ATOM     53  N   UNL A   1      41.586  29.231  31.995  1.00  0.00    -0.248 NA
ATOM     54  C   UNL A   1      42.645  27.583  30.726  1.00  0.00     0.031 C 
ATOM     55  C   UNL A   1      42.783  30.379  36.114  1.00  0.00     0.029 A 
ATOM     56  C   UNL A   1      42.438  30.011  34.823  1.00  0.00     0.049 A 
ATOM     57  H   UNL A   1      40.938  30.807  33.570  1.00  0.00     0.167 HD
ATOM     58  C   UNL A   1      42.611  28.670  32.744  1.00  0.00     0.074 A 
ATOM     59  C   UNL A   1      43.208  27.635  31.925  1.00  0.00     0.031 C 
ATOM     60  C   UNL A   1      43.023  28.984  33.996  1.00  0.00     0.037 A 
BRANCH  47  61
ATOM     61  C   UNL A   1      39.904  33.653  36.578  1.00  0.00     0.064 A 
ATOM     62  C   UNL A   1      40.611  34.862  36.661  1.00  0.00     0.173 A 
ATOM     63  C   UNL A   1      39.005  33.346  37.610  1.00  0.00     0.173 A 
ATOM     64  F   UNL A   1      41.489  35.198  35.704  1.00  0.00    -0.203 F 
ATOM     65  C   UNL A   1      40.444  35.717  37.747  1.00  0.00     0.198 A 
ATOM     66  C   UNL A   1      38.818  34.217  38.680  1.00  0.00     0.198 A 
ATOM     67  F   UNL A   1      38.298  32.207  37.576  1.00  0.00    -0.203 F 
ATOM     68  F   UNL A   1      41.163  36.845  37.826  1.00  0.00    -0.200 F 
ATOM     69  C   UNL A   1      39.543  35.398  38.752  1.00  0.00     0.200 A 
ATOM     70  F   UNL A   1      37.937  33.915  39.643  1.00  0.00    -0.200 F 
ATOM     71  F   UNL A   1      39.377  36.226  39.793  1.00  0.00    -0.200 F 
ENDBRANCH  47  61
BRANCH  48  72
ATOM     72  C   UNL A   1      40.836  27.935  28.449  1.00  0.00     0.064 A 
ATOM     73  C   UNL A   1      41.625  28.363  27.370  1.00  0.00     0.173 A 
ATOM     74  C   UNL A   1      40.201  26.690  28.338  1.00  0.00     0.173 A 
ATOM     75  F   UNL A   1      42.238  29.554  27.421  1.00  0.00    -0.203 F 
ATOM     76  C   UNL A   1      41.753  27.587  26.220  1.00  0.00     0.198 A 
ATOM     77  C   UNL A   1      40.352  25.902  27.199  1.00  0.00     0.198 A 
ATOM     78  F   UNL A   1      39.442  26.232  29.345  1.00  0.00    -0.203 F 
ATOM     79  F   UNL A   1      42.475  28.040  25.187  1.00  0.00    -0.200 F 
ATOM     80  C   UNL A   1      41.121  26.356  26.137  1.00  0.00     0.200 A 
ATOM     81  F   UNL A   1      39.753  24.706  27.130  1.00  0.00    -0.200 F 
ATOM     82  F   UNL A   1      41.247  25.608  25.032  1.00  0.00    -0.200 F 
ENDBRANCH  48  72
BRANCH  60  83
ATOM     83  C   UNL A   1      44.161  28.189  34.566  1.00  0.00     0.064 A 
ATOM     84  C   UNL A   1      43.946  26.982  35.247  1.00  0.00     0.173 A 
ATOM     85  C   UNL A   1      45.485  28.621  34.396  1.00  0.00     0.173 A 
ATOM     86  F   UNL A   1      42.697  26.535  35.450  1.00  0.00    -0.203 F 
ATOM     87  C   UNL A   1      45.013  26.246  35.754  1.00  0.00     0.198 A 
ATOM     88  C   UNL A   1      46.552  27.867  34.879  1.00  0.00     0.198 A 
ATOM     89  F   UNL A   1      45.747  29.766  33.749  1.00  0.00    -0.203 F 
ATOM     90  F   UNL A   1      44.780  25.118  36.441  1.00  0.00    -0.200 F 
ATOM     91  C   UNL A   1      46.315  26.685  35.564  1.00  0.00     0.200 A 
ATOM     92  F   UNL A   1      47.810  28.286  34.683  1.00  0.00    -0.200 F 
ATOM     93  F   UNL A   1      47.340  25.972  36.047  1.00  0.00    -0.200 F 
ENDBRANCH  60  83
ENDBRANCH  34  35
ENDBRANCH  26  29
ENDBRANCH  24  25
ENDBRANCH  23  24
ENDBRANCH   1  23
TORSDOF 14
ENDMDL
