MODEL 1
REMARK VINA RESULT:     -11.4      0.000      0.000
REMARK SMILES CS(=O)(=O)c1ccc(C(=O)NCCCNC(=O)c2ccc(-c3c4nc(c(-c5c(F)c(F)c(F)c(F)c5F)c5ccc([nH]5)c(-c5c(F)c(F)c(F)c(F)c5F)c5nc(c(-c6c(F)c(F)c(F)c(F)c6F)c6ccc3[nH]6)C=C5)C=C4)cc2)o1
REMARK SMILES IDX 13 1 12 2 11 3 9 4 10 5 8 7 5 8 6 9 81 10 7 11 2 12 1 13
REMARK SMILES IDX 3 14 4 15 14 16 15 17 16 18 17 20 18 21 19 22 80 23 20 24
REMARK SMILES IDX 79 25 21 26 22 27 23 28 73 29 24 30 78 31 72 32 74 33 25 34
REMARK SMILES IDX 77 35 71 36 70 37 26 39 58 40 38 41 57 42 39 43 42 44 56 45
REMARK SMILES IDX 75 46 40 47 41 48 55 50 76 51 43 52 27 53 28 54 36 55 29 56
REMARK SMILES IDX 30 57 34 58 37 59 31 60 32 61 35 62 33 63 59 64 60 65 68 66
REMARK SMILES IDX 61 67 62 68 66 69 69 70 63 71 64 72 67 73 65 74 44 75 45 76
REMARK SMILES IDX 53 77 46 78 47 79 51 80 54 81 48 82 49 83 52 84 50 85
REMARK H PARENT 11 6 15 19 74 38 42 49
REMARK Flexibility Score: inf
ROOT
ATOM      1  C   UNL A   1      31.420  31.737  26.860  1.00  0.00     0.042 C 
ENDROOT
BRANCH   1   2
ATOM      2  C   UNL A   1      31.696  30.236  26.905  1.00  0.00     0.118 C 
BRANCH   2   3
ATOM      3  N   UNL A   1      32.703  29.834  25.943  1.00  0.00    -0.349 N 
ATOM      4  C   UNL A   1      32.601  29.275  24.691  1.00  0.00     0.287 C 
ATOM      5  O   UNL A   1      33.663  29.181  24.069  1.00  0.00    -0.266 OA
ATOM      6  H   UNL A   1      33.628  29.991  26.240  1.00  0.00     0.163 HD
BRANCH   4   7
ATOM      7  C   UNL A   1      31.331  28.834  24.138  1.00  0.00     0.193 A 
ATOM      8  C   UNL A   1      29.345  29.262  23.184  1.00  0.00     0.218 A 
ATOM      9  C   UNL A   1      29.471  27.886  23.296  1.00  0.00     0.064 A 
ATOM     10  O   UNL A   1      30.480  29.827  23.716  1.00  0.00    -0.440 OA
ATOM     11  C   UNL A   1      30.733  27.617  23.879  1.00  0.00     0.058 A 
BRANCH   8  12
ATOM     12  S   UNL A   1      28.038  30.266  22.493  1.00  0.00     0.208 S 
ATOM     13  C   UNL A   1      28.609  31.924  22.745  1.00  0.00     0.167 C 
ATOM     14  O   UNL A   1      26.889  30.023  23.344  1.00  0.00    -0.221 OA
ATOM     15  O   UNL A   1      28.027  29.962  21.077  1.00  0.00    -0.221 OA
ENDBRANCH   8  12
ENDBRANCH   4   7
ENDBRANCH   2   3
ENDBRANCH   1   2
BRANCH   1  16
ATOM     16  C   UNL A   1      32.685  32.596  26.784  1.00  0.00     0.118 C 
BRANCH  16  17
ATOM     17  N   UNL A   1      32.495  33.913  27.379  1.00  0.00    -0.352 N 
ATOM     18  C   UNL A   1      33.078  34.496  28.475  1.00  0.00     0.251 C 
ATOM     19  H   UNL A   1      31.836  34.480  26.916  1.00  0.00     0.163 HD
ATOM     20  O   UNL A   1      32.611  35.544  28.914  1.00  0.00    -0.269 OA
BRANCH  18  21
ATOM     21  C   UNL A   1      34.252  33.890  29.143  1.00  0.00     0.039 A 
ATOM     22  C   UNL A   1      35.527  34.363  28.810  1.00  0.00     0.014 A 
ATOM     23  C   UNL A   1      34.120  32.817  30.028  1.00  0.00     0.014 A 
ATOM     24  C   UNL A   1      36.661  33.799  29.402  1.00  0.00     0.010 A 
ATOM     25  C   UNL A   1      35.248  32.292  30.662  1.00  0.00     0.010 A 
ATOM     26  C   UNL A   1      36.529  32.777  30.354  1.00  0.00    -0.014 A 
BRANCH  26  27
ATOM     27  C   UNL A   1      37.717  32.206  31.039  1.00  0.00     0.031 A 
ATOM     28  C   UNL A   1      38.542  31.141  30.372  1.00  0.00     0.074 A 
ATOM     29  C   UNL A   1      38.019  32.607  32.289  1.00  0.00     0.049 A 
ATOM     30  N   UNL A   1      39.556  30.461  30.846  1.00  0.00    -0.248 NA
ATOM     31  C   UNL A   1      38.164  30.778  28.998  1.00  0.00     0.031 C 
ATOM     32  C   UNL A   1      37.281  33.612  33.055  1.00  0.00     0.029 A 
ATOM     33  N   UNL A   1      39.021  32.209  33.140  1.00  0.00    -0.354 N 
ATOM     34  C   UNL A   1      39.923  29.578  29.838  1.00  0.00     0.074 A 
ATOM     35  C   UNL A   1      39.002  29.783  28.740  1.00  0.00     0.031 C 
ATOM     36  C   UNL A   1      37.867  33.767  34.253  1.00  0.00     0.029 A 
ATOM     37  C   UNL A   1      38.996  32.846  34.355  1.00  0.00     0.049 A 
ATOM     38  H   UNL A   1      39.692  31.530  32.900  1.00  0.00     0.167 HD
ATOM     39  C   UNL A   1      40.945  28.689  29.825  1.00  0.00     0.037 A 
ATOM     40  C   UNL A   1      39.790  32.701  35.433  1.00  0.00     0.037 A 
ATOM     41  C   UNL A   1      41.880  28.506  30.904  1.00  0.00     0.049 A 
ATOM     42  C   UNL A   1      40.916  31.707  35.391  1.00  0.00     0.074 A 
ATOM     43  C   UNL A   1      42.977  27.663  30.964  1.00  0.00     0.029 A 
ATOM     44  N   UNL A   1      41.830  29.183  32.114  1.00  0.00    -0.354 N 
ATOM     45  N   UNL A   1      41.276  30.905  34.418  1.00  0.00    -0.248 NA
ATOM     46  C   UNL A   1      41.748  31.599  36.598  1.00  0.00     0.031 C 
ATOM     47  C   UNL A   1      43.572  27.807  32.222  1.00  0.00     0.029 A 
ATOM     48  C   UNL A   1      42.870  28.768  32.931  1.00  0.00     0.049 A 
ATOM     49  H   UNL A   1      41.156  29.858  32.357  1.00  0.00     0.167 HD
ATOM     50  C   UNL A   1      42.388  30.218  34.883  1.00  0.00     0.074 A 
ATOM     51  C   UNL A   1      42.652  30.704  36.222  1.00  0.00     0.031 C 
ATOM     52  C   UNL A   1      43.126  29.269  34.256  1.00  0.00     0.037 A 
BRANCH  39  53
ATOM     53  C   UNL A   1      41.112  27.842  28.598  1.00  0.00     0.064 A 
ATOM     54  C   UNL A   1      40.373  26.663  28.415  1.00  0.00     0.173 A 
ATOM     55  C   UNL A   1      41.984  28.237  27.572  1.00  0.00     0.173 A 
ATOM     56  F   UNL A   1      39.534  26.238  29.372  1.00  0.00    -0.203 F 
ATOM     57  C   UNL A   1      40.519  25.898  27.261  1.00  0.00     0.198 A 
ATOM     58  C   UNL A   1      42.108  27.482  26.408  1.00  0.00     0.198 A 
ATOM     59  F   UNL A   1      42.709  29.358  27.694  1.00  0.00    -0.203 F 
ATOM     60  F   UNL A   1      39.833  24.755  27.126  1.00  0.00    -0.200 F 
ATOM     61  C   UNL A   1      41.381  26.311  26.257  1.00  0.00     0.200 A 
ATOM     62  F   UNL A   1      42.933  27.888  25.433  1.00  0.00    -0.200 F 
ATOM     63  F   UNL A   1      41.515  25.578  25.142  1.00  0.00    -0.200 F 
ENDBRANCH  39  53
BRANCH  40  64
ATOM     64  C   UNL A   1      39.566  33.544  36.634  1.00  0.00     0.064 A 
ATOM     65  C   UNL A   1      38.774  33.081  37.693  1.00  0.00     0.173 A 
ATOM     66  C   UNL A   1      40.136  34.819  36.751  1.00  0.00     0.173 A 
ATOM     67  F   UNL A   1      38.191  31.876  37.615  1.00  0.00    -0.203 F 
ATOM     68  C   UNL A   1      38.549  33.868  38.821  1.00  0.00     0.198 A 
ATOM     69  C   UNL A   1      39.931  35.595  37.889  1.00  0.00     0.198 A 
ATOM     70  F   UNL A   1      40.905  35.304  35.765  1.00  0.00    -0.203 F 
ATOM     71  F   UNL A   1      37.758  33.416  39.803  1.00  0.00    -0.200 F 
ATOM     72  C   UNL A   1      39.133  35.123  38.920  1.00  0.00     0.200 A 
ATOM     73  F   UNL A   1      40.506  36.802  37.988  1.00  0.00    -0.200 F 
ATOM     74  F   UNL A   1      38.921  35.876  40.007  1.00  0.00    -0.200 F 
ENDBRANCH  40  64
BRANCH  52  75
ATOM     75  C   UNL A   1      44.309  28.721  34.995  1.00  0.00     0.064 A 
ATOM     76  C   UNL A   1      45.570  29.329  34.914  1.00  0.00     0.173 A 
ATOM     77  C   UNL A   1      44.170  27.598  35.824  1.00  0.00     0.173 A 
ATOM     78  F   UNL A   1      45.756  30.396  34.123  1.00  0.00    -0.203 F 
ATOM     79  C   UNL A   1      46.655  28.819  35.622  1.00  0.00     0.198 A 
ATOM     80  C   UNL A   1      45.251  27.105  36.549  1.00  0.00     0.198 A 
ATOM     81  F   UNL A   1      42.983  26.984  35.937  1.00  0.00    -0.203 F 
ATOM     82  F   UNL A   1      47.861  29.391  35.501  1.00  0.00    -0.200 F 
ATOM     83  C   UNL A   1      46.493  27.713  36.443  1.00  0.00     0.200 A 
ATOM     84  F   UNL A   1      45.091  26.042  37.348  1.00  0.00    -0.200 F 
ATOM     85  F   UNL A   1      47.538  27.226  37.127  1.00  0.00    -0.200 F 
ENDBRANCH  52  75
ENDBRANCH  26  27
ENDBRANCH  18  21
ENDBRANCH  16  17
ENDBRANCH   1  16
TORSDOF 11
ENDMDL
MODEL 2
REMARK VINA RESULT:     -11.4      5.915     10.178
REMARK SMILES CS(=O)(=O)c1ccc(C(=O)NCCCNC(=O)c2ccc(-c3c4nc(c(-c5c(F)c(F)c(F)c(F)c5F)c5ccc([nH]5)c(-c5c(F)c(F)c(F)c(F)c5F)c5nc(c(-c6c(F)c(F)c(F)c(F)c6F)c6ccc3[nH]6)C=C5)C=C4)cc2)o1
REMARK SMILES IDX 13 1 12 2 11 3 9 4 10 5 8 7 5 8 6 9 81 10 7 11 2 12 1 13
REMARK SMILES IDX 3 14 4 15 14 16 15 17 16 18 17 20 18 21 19 22 80 23 20 24
REMARK SMILES IDX 79 25 21 26 22 27 23 28 73 29 24 30 78 31 72 32 74 33 25 34
REMARK SMILES IDX 77 35 71 36 70 37 26 39 58 40 38 41 57 42 39 43 42 44 56 45
REMARK SMILES IDX 75 46 40 47 41 48 55 50 76 51 43 52 27 53 28 54 36 55 29 56
REMARK SMILES IDX 30 57 34 58 37 59 31 60 32 61 35 62 33 63 59 64 60 65 68 66
REMARK SMILES IDX 61 67 62 68 66 69 69 70 63 71 64 72 67 73 65 74 44 75 45 76
REMARK SMILES IDX 53 77 46 78 47 79 51 80 54 81 48 82 49 83 52 84 50 85
REMARK H PARENT 11 6 15 19 74 38 42 49
REMARK Flexibility Score: inf
ROOT
ATOM      1  C   UNL A   1      40.897  21.205  27.578  1.00  0.00     0.042 C 
ENDROOT
BRANCH   1   2
ATOM      2  C   UNL A   1      42.064  20.249  27.816  1.00  0.00     0.118 C 
BRANCH   2   3
ATOM      3  N   UNL A   1      41.925  19.017  27.065  1.00  0.00    -0.349 N 
ATOM      4  C   UNL A   1      42.725  18.429  26.114  1.00  0.00     0.287 C 
ATOM      5  O   UNL A   1      42.383  17.295  25.767  1.00  0.00    -0.266 OA
ATOM      6  H   UNL A   1      41.109  18.507  27.275  1.00  0.00     0.163 HD
BRANCH   4   7
ATOM      7  C   UNL A   1      43.895  19.094  25.565  1.00  0.00     0.193 A 
ATOM      8  C   UNL A   1      44.884  20.866  24.606  1.00  0.00     0.218 A 
ATOM      9  C   UNL A   1      45.860  19.906  24.823  1.00  0.00     0.064 A 
ATOM     10  O   UNL A   1      43.688  20.351  25.048  1.00  0.00    -0.440 OA
ATOM     11  C   UNL A   1      45.239  18.797  25.447  1.00  0.00     0.058 A 
BRANCH   8  12
ATOM     12  S   UNL A   1      44.992  22.510  23.913  1.00  0.00     0.208 S 
ATOM     13  C   UNL A   1      44.079  23.506  25.060  1.00  0.00     0.167 C 
ATOM     14  O   UNL A   1      44.264  22.437  22.661  1.00  0.00    -0.221 OA
ATOM     15  O   UNL A   1      46.395  22.861  23.971  1.00  0.00    -0.221 OA
ENDBRANCH   8  12
ENDBRANCH   4   7
ENDBRANCH   2   3
ENDBRANCH   1   2
BRANCH   1  16
ATOM     16  C   UNL A   1      40.793  21.707  26.136  1.00  0.00     0.118 C 
BRANCH  16  17
ATOM     17  N   UNL A   1      39.418  22.000  25.751  1.00  0.00    -0.352 N 
ATOM     18  C   UNL A   1      38.599  23.051  26.077  1.00  0.00     0.251 C 
ATOM     19  H   UNL A   1      39.008  21.331  25.157  1.00  0.00     0.163 HD
ATOM     20  O   UNL A   1      37.403  22.984  25.801  1.00  0.00    -0.269 OA
BRANCH  18  21
ATOM     21  C   UNL A   1      39.120  24.259  26.756  1.00  0.00     0.039 A 
ATOM     22  C   UNL A   1      39.915  25.146  26.021  1.00  0.00     0.014 A 
ATOM     23  C   UNL A   1      38.901  24.488  28.116  1.00  0.00     0.014 A 
ATOM     24  C   UNL A   1      40.445  26.285  26.634  1.00  0.00     0.010 A 
ATOM     25  C   UNL A   1      39.383  25.654  28.714  1.00  0.00     0.010 A 
ATOM     26  C   UNL A   1      40.160  26.562  27.980  1.00  0.00    -0.014 A 
BRANCH  26  27
ATOM     27  C   UNL A   1      40.663  27.798  28.633  1.00  0.00     0.031 A 
ATOM     28  C   UNL A   1      42.113  27.924  29.011  1.00  0.00     0.074 A 
ATOM     29  C   UNL A   1      39.800  28.786  28.941  1.00  0.00     0.049 A 
ATOM     30  N   UNL A   1      42.718  28.882  29.667  1.00  0.00    -0.248 NA
ATOM     31  C   UNL A   1      42.996  26.815  28.618  1.00  0.00     0.031 C 
ATOM     32  C   UNL A   1      38.365  28.773  28.653  1.00  0.00     0.029 A 
ATOM     33  N   UNL A   1      40.002  29.987  29.573  1.00  0.00    -0.354 N 
ATOM     34  C   UNL A   1      44.044  28.484  29.781  1.00  0.00     0.074 A 
ATOM     35  C   UNL A   1      44.149  27.182  29.159  1.00  0.00     0.031 C 
ATOM     36  C   UNL A   1      37.821  29.921  29.088  1.00  0.00     0.029 A 
ATOM     37  C   UNL A   1      38.858  30.731  29.718  1.00  0.00     0.049 A 
ATOM     38  H   UNL A   1      40.885  30.287  29.892  1.00  0.00     0.167 HD
ATOM     39  C   UNL A   1      45.081  29.153  30.340  1.00  0.00     0.037 A 
ATOM     40  C   UNL A   1      38.665  31.930  30.301  1.00  0.00     0.037 A 
ATOM     41  C   UNL A   1      44.984  30.461  30.932  1.00  0.00     0.049 A 
ATOM     42  C   UNL A   1      39.834  32.649  30.914  1.00  0.00     0.074 A 
ATOM     43  C   UNL A   1      45.989  31.239  31.481  1.00  0.00     0.029 A 
ATOM     44  N   UNL A   1      43.808  31.189  31.046  1.00  0.00    -0.354 N 
ATOM     45  N   UNL A   1      41.090  32.279  30.983  1.00  0.00    -0.248 NA
ATOM     46  C   UNL A   1      39.558  33.955  31.530  1.00  0.00     0.031 C 
ATOM     47  C   UNL A   1      45.417  32.424  31.956  1.00  0.00     0.029 A 
ATOM     48  C   UNL A   1      44.062  32.402  31.668  1.00  0.00     0.049 A 
ATOM     49  H   UNL A   1      42.925  30.890  30.733  1.00  0.00     0.167 HD
ATOM     50  C   UNL A   1      41.757  33.314  31.623  1.00  0.00     0.074 A 
ATOM     51  C   UNL A   1      40.770  34.333  31.914  1.00  0.00     0.031 C 
ATOM     52  C   UNL A   1      43.071  33.410  31.941  1.00  0.00     0.037 A 
BRANCH  39  53
ATOM     53  C   UNL A   1      46.422  28.480  30.337  1.00  0.00     0.064 A 
ATOM     54  C   UNL A   1      47.326  28.652  29.278  1.00  0.00     0.173 A 
ATOM     55  C   UNL A   1      46.826  27.692  31.425  1.00  0.00     0.173 A 
ATOM     56  F   UNL A   1      46.982  29.387  28.210  1.00  0.00    -0.203 F 
ATOM     57  C   UNL A   1      48.578  28.041  29.298  1.00  0.00     0.198 A 
ATOM     58  C   UNL A   1      48.089  27.103  31.453  1.00  0.00     0.198 A 
ATOM     59  F   UNL A   1      46.002  27.500  32.465  1.00  0.00    -0.203 F 
ATOM     60  F   UNL A   1      49.409  28.187  28.258  1.00  0.00    -0.200 F 
ATOM     61  C   UNL A   1      48.960  27.274  30.388  1.00  0.00     0.200 A 
ATOM     62  F   UNL A   1      48.462  26.370  32.512  1.00  0.00    -0.200 F 
ATOM     63  F   UNL A   1      50.168  26.692  30.409  1.00  0.00    -0.200 F 
ENDBRANCH  39  53
BRANCH  40  64
ATOM     64  C   UNL A   1      37.312  32.542  30.302  1.00  0.00     0.064 A 
ATOM     65  C   UNL A   1      36.947  33.468  29.317  1.00  0.00     0.173 A 
ATOM     66  C   UNL A   1      36.362  32.215  31.280  1.00  0.00     0.173 A 
ATOM     67  F   UNL A   1      37.831  33.827  28.375  1.00  0.00    -0.203 F 
ATOM     68  C   UNL A   1      35.683  34.055  29.315  1.00  0.00     0.198 A 
ATOM     69  C   UNL A   1      35.091  32.784  31.263  1.00  0.00     0.198 A 
ATOM     70  F   UNL A   1      36.664  31.330  32.241  1.00  0.00    -0.203 F 
ATOM     71  F   UNL A   1      35.371  34.965  28.383  1.00  0.00    -0.200 F 
ATOM     72  C   UNL A   1      34.754  33.708  30.286  1.00  0.00     0.200 A 
ATOM     73  F   UNL A   1      34.191  32.438  32.195  1.00  0.00    -0.200 F 
ATOM     74  F   UNL A   1      33.538  34.269  30.280  1.00  0.00    -0.200 F 
ENDBRANCH  40  64
BRANCH  52  75
ATOM     75  C   UNL A   1      43.525  34.675  32.606  1.00  0.00     0.064 A 
ATOM     76  C   UNL A   1      43.632  34.772  34.001  1.00  0.00     0.173 A 
ATOM     77  C   UNL A   1      43.894  35.788  31.836  1.00  0.00     0.173 A 
ATOM     78  F   UNL A   1      43.276  33.740  34.779  1.00  0.00    -0.203 F 
ATOM     79  C   UNL A   1      44.074  35.947  34.602  1.00  0.00     0.198 A 
ATOM     80  C   UNL A   1      44.358  36.953  32.440  1.00  0.00     0.198 A 
ATOM     81  F   UNL A   1      43.812  35.741  30.498  1.00  0.00    -0.203 F 
ATOM     82  F   UNL A   1      44.132  36.034  35.938  1.00  0.00    -0.200 F 
ATOM     83  C   UNL A   1      44.442  37.033  33.822  1.00  0.00     0.200 A 
ATOM     84  F   UNL A   1      44.722  37.998  31.685  1.00  0.00    -0.200 F 
ATOM     85  F   UNL A   1      44.872  38.162  34.403  1.00  0.00    -0.200 F 
ENDBRANCH  52  75
ENDBRANCH  26  27
ENDBRANCH  18  21
ENDBRANCH  16  17
ENDBRANCH   1  16
TORSDOF 11
ENDMDL
MODEL 3
REMARK VINA RESULT:     -11.3      2.718      4.174
REMARK SMILES CS(=O)(=O)c1ccc(C(=O)NCCCNC(=O)c2ccc(-c3c4nc(c(-c5c(F)c(F)c(F)c(F)c5F)c5ccc([nH]5)c(-c5c(F)c(F)c(F)c(F)c5F)c5nc(c(-c6c(F)c(F)c(F)c(F)c6F)c6ccc3[nH]6)C=C5)C=C4)cc2)o1
REMARK SMILES IDX 13 1 12 2 11 3 9 4 10 5 8 7 5 8 6 9 81 10 7 11 2 12 1 13
REMARK SMILES IDX 3 14 4 15 14 16 15 17 16 18 17 20 18 21 19 22 80 23 20 24
REMARK SMILES IDX 79 25 21 26 22 27 23 28 73 29 24 30 78 31 72 32 74 33 25 34
REMARK SMILES IDX 77 35 71 36 70 37 26 39 58 40 38 41 57 42 39 43 42 44 56 45
REMARK SMILES IDX 75 46 40 47 41 48 55 50 76 51 43 52 27 53 28 54 36 55 29 56
REMARK SMILES IDX 30 57 34 58 37 59 31 60 32 61 35 62 33 63 59 64 60 65 68 66
REMARK SMILES IDX 61 67 62 68 66 69 69 70 63 71 64 72 67 73 65 74 44 75 45 76
REMARK SMILES IDX 53 77 46 78 47 79 51 80 54 81 48 82 49 83 52 84 50 85
REMARK H PARENT 11 6 15 19 74 38 42 49
REMARK Flexibility Score: inf
ROOT
ATOM      1  C   UNL A   1      33.356  28.951  23.260  1.00  0.00     0.042 C 
ENDROOT
BRANCH   1   2
ATOM      2  C   UNL A   1      32.199  28.065  22.804  1.00  0.00     0.118 C 
BRANCH   2   3
ATOM      3  N   UNL A   1      32.644  26.973  21.961  1.00  0.00    -0.349 N 
ATOM      4  C   UNL A   1      33.111  25.715  22.262  1.00  0.00     0.287 C 
ATOM      5  O   UNL A   1      33.278  24.970  21.292  1.00  0.00    -0.266 OA
ATOM      6  H   UNL A   1      32.605  27.168  20.996  1.00  0.00     0.163 HD
BRANCH   4   7
ATOM      7  C   UNL A   1      33.380  25.292  23.626  1.00  0.00     0.193 A 
ATOM      8  C   UNL A   1      32.859  24.105  25.458  1.00  0.00     0.218 A 
ATOM      9  C   UNL A   1      34.051  24.765  25.709  1.00  0.00     0.064 A 
ATOM     10  O   UNL A   1      32.453  24.448  24.190  1.00  0.00    -0.440 OA
ATOM     11  C   UNL A   1      34.390  25.498  24.546  1.00  0.00     0.058 A 
BRANCH   8  12
ATOM     12  S   UNL A   1      31.909  22.977  26.468  1.00  0.00     0.208 S 
ATOM     13  C   UNL A   1      33.125  22.239  27.524  1.00  0.00     0.167 C 
ATOM     14  O   UNL A   1      31.410  21.977  25.544  1.00  0.00    -0.221 OA
ATOM     15  O   UNL A   1      31.025  23.814  27.251  1.00  0.00    -0.221 OA
ENDBRANCH   8  12
ENDBRANCH   4   7
ENDBRANCH   2   3
ENDBRANCH   1   2
BRANCH   1  16
ATOM     16  C   UNL A   1      33.531  29.008  24.780  1.00  0.00     0.118 C 
BRANCH  16  17
ATOM     17  N   UNL A   1      32.854  30.154  25.371  1.00  0.00    -0.352 N 
ATOM     18  C   UNL A   1      33.090  30.832  26.541  1.00  0.00     0.251 C 
ATOM     19  H   UNL A   1      32.100  30.502  24.843  1.00  0.00     0.163 HD
ATOM     20  O   UNL A   1      32.258  31.644  26.939  1.00  0.00    -0.269 OA
BRANCH  18  21
ATOM     21  C   UNL A   1      34.318  30.603  27.335  1.00  0.00     0.039 A 
ATOM     22  C   UNL A   1      34.541  29.328  27.865  1.00  0.00     0.014 A 
ATOM     23  C   UNL A   1      35.206  31.641  27.627  1.00  0.00     0.014 A 
ATOM     24  C   UNL A   1      35.678  29.079  28.641  1.00  0.00     0.010 A 
ATOM     25  C   UNL A   1      36.370  31.381  28.353  1.00  0.00     0.010 A 
ATOM     26  C   UNL A   1      36.616  30.099  28.868  1.00  0.00    -0.014 A 
BRANCH  26  27
ATOM     27  C   UNL A   1      37.860  29.840  29.638  1.00  0.00     0.031 A 
ATOM     28  C   UNL A   1      38.921  28.929  29.087  1.00  0.00     0.074 A 
ATOM     29  C   UNL A   1      38.007  30.380  30.863  1.00  0.00     0.049 A 
ATOM     30  N   UNL A   1      40.028  28.511  29.649  1.00  0.00    -0.248 NA
ATOM     31  C   UNL A   1      38.699  28.400  27.732  1.00  0.00     0.031 C 
ATOM     32  C   UNL A   1      37.038  31.258  31.521  1.00  0.00     0.029 A 
ATOM     33  N   UNL A   1      39.024  30.261  31.778  1.00  0.00    -0.354 N 
ATOM     34  C   UNL A   1      40.622  27.658  28.728  1.00  0.00     0.074 A 
ATOM     35  C   UNL A   1      39.737  27.589  27.585  1.00  0.00     0.031 C 
ATOM     36  C   UNL A   1      37.516  31.614  32.724  1.00  0.00     0.029 A 
ATOM     37  C   UNL A   1      38.804  30.962  32.938  1.00  0.00     0.049 A 
ATOM     38  H   UNL A   1      39.833  29.724  31.617  1.00  0.00     0.167 HD
ATOM     39  C   UNL A   1      41.806  27.006  28.821  1.00  0.00     0.037 A 
ATOM     40  C   UNL A   1      39.554  31.062  34.052  1.00  0.00     0.037 A 
ATOM     41  C   UNL A   1      42.701  27.098  29.945  1.00  0.00     0.049 A 
ATOM     42  C   UNL A   1      40.862  30.326  34.129  1.00  0.00     0.074 A 
ATOM     43  C   UNL A   1      43.944  26.512  30.111  1.00  0.00     0.029 A 
ATOM     44  N   UNL A   1      42.448  27.831  31.095  1.00  0.00    -0.354 N 
ATOM     45  N   UNL A   1      41.431  29.553  33.236  1.00  0.00    -0.248 NA
ATOM     46  C   UNL A   1      41.635  30.479  35.370  1.00  0.00     0.031 C 
ATOM     47  C   UNL A   1      44.430  26.864  31.374  1.00  0.00     0.029 A 
ATOM     48  C   UNL A   1      43.508  27.702  31.980  1.00  0.00     0.049 A 
ATOM     49  H   UNL A   1      41.638  28.365  31.260  1.00  0.00     0.167 HD
ATOM     50  C   UNL A   1      42.636  29.150  33.793  1.00  0.00     0.074 A 
ATOM     51  C   UNL A   1      42.723  29.771  35.099  1.00  0.00     0.031 C 
ATOM     52  C   UNL A   1      43.585  28.336  33.270  1.00  0.00     0.037 A 
BRANCH  39  53
ATOM     53  C   UNL A   1      42.208  26.131  27.671  1.00  0.00     0.064 A 
ATOM     54  C   UNL A   1      43.128  26.566  26.706  1.00  0.00     0.173 A 
ATOM     55  C   UNL A   1      41.704  24.826  27.558  1.00  0.00     0.173 A 
ATOM     56  F   UNL A   1      43.631  27.808  26.765  1.00  0.00    -0.203 F 
ATOM     57  C   UNL A   1      43.512  25.735  25.656  1.00  0.00     0.198 A 
ATOM     58  C   UNL A   1      42.109  23.989  26.521  1.00  0.00     0.198 A 
ATOM     59  F   UNL A   1      40.826  24.359  28.457  1.00  0.00    -0.203 F 
ATOM     60  F   UNL A   1      44.362  26.186  24.724  1.00  0.00    -0.200 F 
ATOM     61  C   UNL A   1      43.008  24.446  25.569  1.00  0.00     0.200 A 
ATOM     62  F   UNL A   1      41.630  22.740  26.443  1.00  0.00    -0.200 F 
ATOM     63  F   UNL A   1      43.384  23.645  24.562  1.00  0.00    -0.200 F 
ENDBRANCH  39  53
BRANCH  40  64
ATOM     64  C   UNL A   1      39.098  31.919  35.175  1.00  0.00     0.064 A 
ATOM     65  C   UNL A   1      39.366  33.294  35.177  1.00  0.00     0.173 A 
ATOM     66  C   UNL A   1      38.387  31.388  36.260  1.00  0.00     0.173 A 
ATOM     67  F   UNL A   1      40.062  33.841  34.171  1.00  0.00    -0.203 F 
ATOM     68  C   UNL A   1      38.952  34.106  36.231  1.00  0.00     0.198 A 
ATOM     69  C   UNL A   1      37.952  32.204  37.302  1.00  0.00     0.198 A 
ATOM     70  F   UNL A   1      38.102  30.078  36.301  1.00  0.00    -0.203 F 
ATOM     71  F   UNL A   1      39.253  35.411  36.227  1.00  0.00    -0.200 F 
ATOM     72  C   UNL A   1      38.240  33.561  37.290  1.00  0.00     0.200 A 
ATOM     73  F   UNL A   1      37.253  31.678  38.317  1.00  0.00    -0.200 F 
ATOM     74  F   UNL A   1      37.837  34.343  38.300  1.00  0.00    -0.200 F 
ENDBRANCH  40  64
BRANCH  52  75
ATOM     75  C   UNL A   1      44.817  28.102  34.092  1.00  0.00     0.064 A 
ATOM     76  C   UNL A   1      44.921  27.006  34.961  1.00  0.00     0.173 A 
ATOM     77  C   UNL A   1      45.920  28.961  33.978  1.00  0.00     0.173 A 
ATOM     78  F   UNL A   1      43.887  26.166  35.115  1.00  0.00    -0.203 F 
ATOM     79  C   UNL A   1      46.079  26.791  35.703  1.00  0.00     0.198 A 
ATOM     80  C   UNL A   1      47.085  28.730  34.703  1.00  0.00     0.198 A 
ATOM     81  F   UNL A   1      45.869  30.020  33.157  1.00  0.00    -0.203 F 
ATOM     82  F   UNL A   1      46.144  25.761  36.558  1.00  0.00    -0.200 F 
ATOM     83  C   UNL A   1      47.161  27.649  35.569  1.00  0.00     0.200 A 
ATOM     84  F   UNL A   1      48.132  29.553  34.566  1.00  0.00    -0.200 F 
ATOM     85  F   UNL A   1      48.277  27.437  36.281  1.00  0.00    -0.200 F 
ENDBRANCH  52  75
ENDBRANCH  26  27
ENDBRANCH  18  21
ENDBRANCH  16  17
ENDBRANCH   1  16
TORSDOF 11
ENDMDL
