MODEL 1
REMARK VINA RESULT:      -9.9      0.000      0.000
REMARK SMILES COC[C@@H](C)CC(=O)N1CC(CC(=O)NCCCNC(=O)c2ccc(-c3c4nc(c(-c5c(F)c(F)c(F)c(F)c5F)c5ccc([nH]5)c(-c5c(F)c(F)c(F)c(F)c5F)c5nc(c(-c6c(F)c(F)c(F)c(F)c6F)c6ccc3[nH]6)C=C5)C=C4)cc2)C1
REMARK SMILES IDX 13 1 14 2 15 3 12 5 11 6 7 7 8 8 9 9 10 10 85 11 6 12 4 13
REMARK SMILES IDX 5 14 3 15 2 16 1 17 16 18 17 19 18 20 19 21 20 22 21 24
REMARK SMILES IDX 22 25 23 26 84 27 24 28 83 29 25 30 26 31 27 32 77 33 28 34
REMARK SMILES IDX 82 35 76 36 78 37 29 38 81 39 75 40 74 41 30 43 62 44 42 45
REMARK SMILES IDX 61 46 43 47 46 48 60 49 79 50 44 51 45 52 59 54 80 55 47 56
REMARK SMILES IDX 31 57 32 58 40 59 33 60 34 61 38 62 41 63 35 64 36 65 39 66
REMARK SMILES IDX 37 67 63 68 64 69 72 70 65 71 66 72 70 73 73 74 67 75 68 76
REMARK SMILES IDX 71 77 69 78 48 79 49 80 57 81 50 82 51 83 55 84 58 85 52 86
REMARK SMILES IDX 53 87 56 88 54 89
REMARK H PARENT 15 4 19 23 78 42 46 53
REMARK Flexibility Score: inf
ROOT
ATOM      1  C   UNL A   1      44.365  18.844  25.182  1.00  0.00     0.220 C 
ATOM      2  O   UNL A   1      45.293  18.076  25.442  1.00  0.00    -0.275 OA
ATOM      3  N   UNL A   1      43.227  18.734  25.924  1.00  0.00    -0.356 N 
ATOM      4  H   UNL A   1      43.286  18.082  26.661  1.00  0.00     0.163 HD
ENDROOT
BRANCH   1   5
ATOM      5  C   UNL A   1      44.492  19.845  24.043  1.00  0.00     0.107 C 
BRANCH   5   6
ATOM      6  C   UNL A   1      45.374  21.037  24.407  1.00  0.00     0.037 C 
ATOM      7  C   UNL A   1      45.475  24.174  25.457  1.00  0.00     0.222 C 
ATOM      8  O   UNL A   1      46.584  24.360  25.950  1.00  0.00    -0.275 OA
ATOM      9  N   UNL A   1      44.953  22.921  25.224  1.00  0.00    -0.342 N 
ATOM     10  C   UNL A   1      45.354  21.643  25.821  1.00  0.00     0.125 C 
ATOM     11  C   UNL A   1      44.805  22.352  23.900  1.00  0.00     0.125 C 
BRANCH   7  12
ATOM     12  C   UNL A   1      44.496  25.322  25.208  1.00  0.00     0.106 C 
BRANCH  12  13
ATOM     13  C   UNL A   1      44.761  26.704  25.841  1.00  0.00     0.021 C 
ATOM     14  C   UNL A   1      43.580  27.632  25.516  1.00  0.00     0.010 C 
BRANCH  13  15
ATOM     15  C   UNL A   1      46.076  27.343  25.366  1.00  0.00     0.163 C 
BRANCH  15  16
ATOM     16  O   UNL A   1      45.906  28.712  25.001  1.00  0.00    -0.384 OA
ATOM     17  C   UNL A   1      46.597  29.608  25.861  1.00  0.00     0.194 C 
ENDBRANCH  15  16
ENDBRANCH  13  15
ENDBRANCH  12  13
ENDBRANCH   7  12
ENDBRANCH   5   6
ENDBRANCH   1   5
BRANCH   3  18
ATOM     18  C   UNL A   1      41.942  19.406  25.823  1.00  0.00     0.117 C 
BRANCH  18  19
ATOM     19  C   UNL A   1      41.852  20.604  26.766  1.00  0.00     0.042 C 
BRANCH  19  20
ATOM     20  C   UNL A   1      41.543  21.950  26.126  1.00  0.00     0.118 C 
BRANCH  20  21
ATOM     21  N   UNL A   1      40.141  22.094  25.774  1.00  0.00    -0.352 N 
ATOM     22  C   UNL A   1      39.211  23.045  26.126  1.00  0.00     0.251 C 
ATOM     23  H   UNL A   1      39.796  21.388  25.180  1.00  0.00     0.163 HD
ATOM     24  O   UNL A   1      38.033  22.839  25.842  1.00  0.00    -0.269 OA
BRANCH  22  25
ATOM     25  C   UNL A   1      39.569  24.288  26.861  1.00  0.00     0.039 A 
ATOM     26  C   UNL A   1      40.241  25.300  26.159  1.00  0.00     0.014 A 
ATOM     27  C   UNL A   1      39.325  24.462  28.225  1.00  0.00     0.014 A 
ATOM     28  C   UNL A   1      40.607  26.489  26.799  1.00  0.00     0.010 A 
ATOM     29  C   UNL A   1      39.625  25.679  28.848  1.00  0.00     0.010 A 
ATOM     30  C   UNL A   1      40.281  26.701  28.145  1.00  0.00    -0.014 A 
BRANCH  30  31
ATOM     31  C   UNL A   1      40.657  27.962  28.839  1.00  0.00     0.031 A 
ATOM     32  C   UNL A   1      42.047  28.140  29.388  1.00  0.00     0.074 A 
ATOM     33  C   UNL A   1      39.742  28.934  29.020  1.00  0.00     0.049 A 
ATOM     34  N   UNL A   1      42.554  29.141  30.064  1.00  0.00    -0.248 NA
ATOM     35  C   UNL A   1      42.987  27.031  29.164  1.00  0.00     0.031 C 
ATOM     36  C   UNL A   1      38.350  28.876  28.574  1.00  0.00     0.029 A 
ATOM     37  N   UNL A   1      39.844  30.156  29.639  1.00  0.00    -0.354 N 
ATOM     38  C   UNL A   1      43.862  28.775  30.359  1.00  0.00     0.074 A 
ATOM     39  C   UNL A   1      44.054  27.440  29.834  1.00  0.00     0.031 C 
ATOM     40  C   UNL A   1      37.732  30.017  28.920  1.00  0.00     0.029 A 
ATOM     41  C   UNL A   1      38.670  30.869  29.647  1.00  0.00     0.049 A 
ATOM     42  H   UNL A   1      40.679  30.489  30.040  1.00  0.00     0.167 HD
ATOM     43  C   UNL A   1      44.821  29.492  30.993  1.00  0.00     0.037 A 
ATOM     44  C   UNL A   1      38.378  32.067  30.192  1.00  0.00     0.037 A 
ATOM     45  C   UNL A   1      44.635  30.825  31.506  1.00  0.00     0.049 A 
ATOM     46  C   UNL A   1      39.454  32.838  30.910  1.00  0.00     0.074 A 
ATOM     47  C   UNL A   1      45.563  31.656  32.108  1.00  0.00     0.029 A 
ATOM     48  N   UNL A   1      43.432  31.517  31.490  1.00  0.00    -0.354 N 
ATOM     49  N   UNL A   1      40.707  32.516  31.117  1.00  0.00    -0.248 NA
ATOM     50  C   UNL A   1      39.074  34.145  31.466  1.00  0.00     0.031 C 
ATOM     51  C   UNL A   1      44.909  32.826  32.510  1.00  0.00     0.029 A 
ATOM     52  C   UNL A   1      43.587  32.752  32.100  1.00  0.00     0.049 A 
ATOM     53  H   UNL A   1      42.592  31.180  31.101  1.00  0.00     0.167 HD
ATOM     54  C   UNL A   1      41.272  33.586  31.801  1.00  0.00     0.074 A 
ATOM     55  C   UNL A   1      40.227  34.575  31.961  1.00  0.00     0.031 C 
ATOM     56  C   UNL A   1      42.541  33.733  32.254  1.00  0.00     0.037 A 
BRANCH  43  57
ATOM     57  C   UNL A   1      46.161  28.837  31.183  1.00  0.00     0.064 A 
ATOM     58  C   UNL A   1      47.188  28.962  30.234  1.00  0.00     0.173 A 
ATOM     59  C   UNL A   1      46.429  28.087  32.339  1.00  0.00     0.173 A 
ATOM     60  F   UNL A   1      46.984  29.661  29.106  1.00  0.00    -0.203 F 
ATOM     61  C   UNL A   1      48.413  28.326  30.413  1.00  0.00     0.198 A 
ATOM     62  C   UNL A   1      47.669  27.483  32.532  1.00  0.00     0.198 A 
ATOM     63  F   UNL A   1      45.489  27.942  33.285  1.00  0.00    -0.203 F 
ATOM     64  F   UNL A   1      49.355  28.407  29.462  1.00  0.00    -0.200 F 
ATOM     65  C   UNL A   1      48.655  27.592  31.564  1.00  0.00     0.200 A 
ATOM     66  F   UNL A   1      47.905  26.787  33.653  1.00  0.00    -0.200 F 
ATOM     67  F   UNL A   1      49.835  26.980  31.736  1.00  0.00    -0.200 F 
ENDBRANCH  43  57
BRANCH  44  68
ATOM     68  C   UNL A   1      37.003  32.618  30.063  1.00  0.00     0.064 A 
ATOM     69  C   UNL A   1      36.069  32.477  31.098  1.00  0.00     0.173 A 
ATOM     70  C   UNL A   1      36.597  33.302  28.907  1.00  0.00     0.173 A 
ATOM     71  F   UNL A   1      36.401  31.809  32.213  1.00  0.00    -0.203 F 
ATOM     72  C   UNL A   1      34.778  32.987  30.978  1.00  0.00     0.198 A 
ATOM     73  C   UNL A   1      35.316  33.838  28.801  1.00  0.00     0.198 A 
ATOM     74  F   UNL A   1      37.452  33.465  27.888  1.00  0.00    -0.203 F 
ATOM     75  F   UNL A   1      33.892  32.802  31.966  1.00  0.00    -0.200 F 
ATOM     76  C   UNL A   1      34.405  33.675  29.833  1.00  0.00     0.200 A 
ATOM     77  F   UNL A   1      34.964  34.513  27.698  1.00  0.00    -0.200 F 
ATOM     78  F   UNL A   1      33.167  34.173  29.723  1.00  0.00    -0.200 F 
ENDBRANCH  44  68
BRANCH  56  79
ATOM     79  C   UNL A   1      42.889  35.026  32.937  1.00  0.00     0.064 A 
ATOM     80  C   UNL A   1      43.413  36.119  32.231  1.00  0.00     0.173 A 
ATOM     81  C   UNL A   1      42.653  35.187  34.312  1.00  0.00     0.173 A 
ATOM     82  F   UNL A   1      43.671  36.014  30.919  1.00  0.00    -0.203 F 
ATOM     83  C   UNL A   1      43.710  37.316  32.880  1.00  0.00     0.198 A 
ATOM     84  C   UNL A   1      42.920  36.396  34.950  1.00  0.00     0.198 A 
ATOM     85  F   UNL A   1      42.147  34.178  35.035  1.00  0.00    -0.203 F 
ATOM     86  F   UNL A   1      44.256  38.330  32.194  1.00  0.00    -0.200 F 
ATOM     87  C   UNL A   1      43.456  37.456  34.236  1.00  0.00     0.200 A 
ATOM     88  F   UNL A   1      42.658  36.534  36.258  1.00  0.00    -0.200 F 
ATOM     89  F   UNL A   1      43.733  38.611  34.855  1.00  0.00    -0.200 F 
ENDBRANCH  56  79
ENDBRANCH  30  31
ENDBRANCH  22  25
ENDBRANCH  20  21
ENDBRANCH  19  20
ENDBRANCH  18  19
ENDBRANCH   3  18
TORSDOF 15
ENDMDL
MODEL 2
REMARK VINA RESULT:      -9.8      3.554      6.499
REMARK SMILES COC[C@@H](C)CC(=O)N1CC(CC(=O)NCCCNC(=O)c2ccc(-c3c4nc(c(-c5c(F)c(F)c(F)c(F)c5F)c5ccc([nH]5)c(-c5c(F)c(F)c(F)c(F)c5F)c5nc(c(-c6c(F)c(F)c(F)c(F)c6F)c6ccc3[nH]6)C=C5)C=C4)cc2)C1
REMARK SMILES IDX 13 1 14 2 15 3 12 5 11 6 7 7 8 8 9 9 10 10 85 11 6 12 4 13
REMARK SMILES IDX 5 14 3 15 2 16 1 17 16 18 17 19 18 20 19 21 20 22 21 24
REMARK SMILES IDX 22 25 23 26 84 27 24 28 83 29 25 30 26 31 27 32 77 33 28 34
REMARK SMILES IDX 82 35 76 36 78 37 29 38 81 39 75 40 74 41 30 43 62 44 42 45
REMARK SMILES IDX 61 46 43 47 46 48 60 49 79 50 44 51 45 52 59 54 80 55 47 56
REMARK SMILES IDX 31 57 32 58 40 59 33 60 34 61 38 62 41 63 35 64 36 65 39 66
REMARK SMILES IDX 37 67 63 68 64 69 72 70 65 71 66 72 70 73 73 74 67 75 68 76
REMARK SMILES IDX 71 77 69 78 48 79 49 80 57 81 50 82 51 83 55 84 58 85 52 86
REMARK SMILES IDX 53 87 56 88 54 89
REMARK H PARENT 15 4 19 23 78 42 46 53
REMARK Flexibility Score: inf
ROOT
ATOM      1  C   UNL A   1      32.108  24.425  25.977  1.00  0.00     0.220 C 
ATOM      2  O   UNL A   1      31.304  24.689  26.872  1.00  0.00    -0.275 OA
ATOM      3  N   UNL A   1      33.363  24.947  26.081  1.00  0.00    -0.356 N 
ATOM      4  H   UNL A   1      33.528  25.439  26.918  1.00  0.00     0.163 HD
ENDROOT
BRANCH   1   5
ATOM      5  C   UNL A   1      31.683  23.576  24.788  1.00  0.00     0.107 C 
BRANCH   5   6
ATOM      6  C   UNL A   1      31.561  22.095  25.140  1.00  0.00     0.037 C 
ATOM      7  C   UNL A   1      33.089  19.165  25.309  1.00  0.00     0.222 C 
ATOM      8  O   UNL A   1      32.474  18.476  26.119  1.00  0.00    -0.275 OA
ATOM      9  N   UNL A   1      32.955  20.533  25.225  1.00  0.00    -0.342 N 
ATOM     10  C   UNL A   1      32.434  21.460  26.235  1.00  0.00     0.125 C 
ATOM     11  C   UNL A   1      32.272  21.203  24.137  1.00  0.00     0.125 C 
BRANCH   7  12
ATOM     12  C   UNL A   1      34.192  18.583  24.423  1.00  0.00     0.106 C 
BRANCH  12  13
ATOM     13  C   UNL A   1      33.815  17.725  23.197  1.00  0.00     0.021 C 
ATOM     14  C   UNL A   1      32.339  17.976  22.852  1.00  0.00     0.010 C 
BRANCH  13  15
ATOM     15  C   UNL A   1      34.054  16.222  23.417  1.00  0.00     0.163 C 
BRANCH  15  16
ATOM     16  O   UNL A   1      34.162  15.893  24.802  1.00  0.00    -0.384 OA
ATOM     17  C   UNL A   1      33.010  15.233  25.309  1.00  0.00     0.194 C 
ENDBRANCH  15  16
ENDBRANCH  13  15
ENDBRANCH  12  13
ENDBRANCH   7  12
ENDBRANCH   5   6
ENDBRANCH   1   5
BRANCH   3  18
ATOM     18  C   UNL A   1      34.501  24.908  25.177  1.00  0.00     0.117 C 
BRANCH  18  19
ATOM     19  C   UNL A   1      35.673  24.133  25.774  1.00  0.00     0.042 C 
BRANCH  19  20
ATOM     20  C   UNL A   1      36.792  23.751  24.816  1.00  0.00     0.118 C 
BRANCH  20  21
ATOM     21  N   UNL A   1      37.663  22.720  25.353  1.00  0.00    -0.352 N 
ATOM     22  C   UNL A   1      38.781  22.803  26.152  1.00  0.00     0.251 C 
ATOM     23  H   UNL A   1      37.409  21.802  25.103  1.00  0.00     0.163 HD
ATOM     24  O   UNL A   1      39.452  21.788  26.318  1.00  0.00    -0.269 OA
BRANCH  22  25
ATOM     25  C   UNL A   1      39.223  24.073  26.788  1.00  0.00     0.039 A 
ATOM     26  C   UNL A   1      40.038  24.936  26.042  1.00  0.00     0.014 A 
ATOM     27  C   UNL A   1      38.916  24.409  28.109  1.00  0.00     0.014 A 
ATOM     28  C   UNL A   1      40.489  26.143  26.589  1.00  0.00     0.010 A 
ATOM     29  C   UNL A   1      39.304  25.647  28.632  1.00  0.00     0.010 A 
ATOM     30  C   UNL A   1      40.105  26.522  27.882  1.00  0.00    -0.014 A 
BRANCH  30  31
ATOM     31  C   UNL A   1      40.570  27.804  28.478  1.00  0.00     0.031 A 
ATOM     32  C   UNL A   1      42.014  27.983  28.861  1.00  0.00     0.074 A 
ATOM     33  C   UNL A   1      39.691  28.796  28.719  1.00  0.00     0.049 A 
ATOM     34  N   UNL A   1      42.604  29.003  29.435  1.00  0.00    -0.248 NA
ATOM     35  C   UNL A   1      42.912  26.852  28.581  1.00  0.00     0.031 C 
ATOM     36  C   UNL A   1      38.257  28.741  28.434  1.00  0.00     0.029 A 
ATOM     37  N   UNL A   1      39.873  30.041  29.273  1.00  0.00    -0.354 N 
ATOM     38  C   UNL A   1      43.932  28.630  29.598  1.00  0.00     0.074 A 
ATOM     39  C   UNL A   1      44.051  27.273  29.110  1.00  0.00     0.031 C 
ATOM     40  C   UNL A   1      37.693  29.904  28.799  1.00  0.00     0.029 A 
ATOM     41  C   UNL A   1      38.715  30.771  29.381  1.00  0.00     0.049 A 
ATOM     42  H   UNL A   1      40.752  30.377  29.563  1.00  0.00     0.167 HD
ATOM     43  C   UNL A   1      44.964  29.357  30.092  1.00  0.00     0.037 A 
ATOM     44  C   UNL A   1      38.498  31.994  29.905  1.00  0.00     0.037 A 
ATOM     45  C   UNL A   1      44.849  30.713  30.567  1.00  0.00     0.049 A 
ATOM     46  C   UNL A   1      39.655  32.776  30.467  1.00  0.00     0.074 A 
ATOM     47  C   UNL A   1      45.847  31.554  31.027  1.00  0.00     0.029 A 
ATOM     48  N   UNL A   1      43.659  31.421  30.655  1.00  0.00    -0.354 N 
ATOM     49  N   UNL A   1      40.920  32.444  30.547  1.00  0.00    -0.248 NA
ATOM     50  C   UNL A   1      39.353  34.111  31.007  1.00  0.00     0.031 C 
ATOM     51  C   UNL A   1      45.254  32.747  31.450  1.00  0.00     0.029 A 
ATOM     52  C   UNL A   1      43.894  32.677  31.193  1.00  0.00     0.049 A 
ATOM     53  H   UNL A   1      42.778  31.082  30.376  1.00  0.00     0.167 HD
ATOM     54  C   UNL A   1      41.568  33.532  31.119  1.00  0.00     0.074 A 
ATOM     55  C   UNL A   1      40.558  34.542  31.353  1.00  0.00     0.031 C 
ATOM     56  C   UNL A   1      42.882  33.679  31.422  1.00  0.00     0.037 A 
BRANCH  43  57
ATOM     57  C   UNL A   1      46.309  28.691  30.159  1.00  0.00     0.064 A 
ATOM     58  C   UNL A   1      47.203  28.717  29.076  1.00  0.00     0.173 A 
ATOM     59  C   UNL A   1      46.719  28.031  31.328  1.00  0.00     0.173 A 
ATOM     60  F   UNL A   1      46.860  29.326  27.931  1.00  0.00    -0.203 F 
ATOM     61  C   UNL A   1      48.435  28.070  29.146  1.00  0.00     0.198 A 
ATOM     62  C   UNL A   1      47.967  27.417  31.407  1.00  0.00     0.198 A 
ATOM     63  F   UNL A   1      45.911  27.984  32.397  1.00  0.00    -0.203 F 
ATOM     64  F   UNL A   1      49.243  28.054  28.077  1.00  0.00    -0.200 F 
ATOM     65  C   UNL A   1      48.818  27.426  30.313  1.00  0.00     0.200 A 
ATOM     66  F   UNL A   1      48.342  26.809  32.541  1.00  0.00    -0.200 F 
ATOM     67  F   UNL A   1      50.004  26.805  30.379  1.00  0.00    -0.200 F 
ENDBRANCH  43  57
BRANCH  44  68
ATOM     68  C   UNL A   1      37.123  32.560  29.906  1.00  0.00     0.064 A 
ATOM     69  C   UNL A   1      36.260  32.356  30.992  1.00  0.00     0.173 A 
ATOM     70  C   UNL A   1      36.646  33.319  28.828  1.00  0.00     0.173 A 
ATOM     71  F   UNL A   1      36.661  31.616  32.037  1.00  0.00    -0.203 F 
ATOM     72  C   UNL A   1      34.969  32.880  30.994  1.00  0.00     0.198 A 
ATOM     73  C   UNL A   1      35.365  33.868  28.845  1.00  0.00     0.198 A 
ATOM     74  F   UNL A   1      37.431  33.543  27.765  1.00  0.00    -0.203 F 
ATOM     75  F   UNL A   1      34.152  32.636  32.028  1.00  0.00    -0.200 F 
ATOM     76  C   UNL A   1      34.526  33.643  29.925  1.00  0.00     0.200 A 
ATOM     77  F   UNL A   1      34.945  34.615  27.815  1.00  0.00    -0.200 F 
ATOM     78  F   UNL A   1      33.288  34.154  29.932  1.00  0.00    -0.200 F 
ENDBRANCH  44  68
BRANCH  56  79
ATOM     79  C   UNL A   1      43.317  34.992  32.008  1.00  0.00     0.064 A 
ATOM     80  C   UNL A   1      43.700  36.073  31.200  1.00  0.00     0.173 A 
ATOM     81  C   UNL A   1      43.308  35.186  33.399  1.00  0.00     0.173 A 
ATOM     82  F   UNL A   1      43.741  35.938  29.866  1.00  0.00    -0.203 F 
ATOM     83  C   UNL A   1      44.081  37.290  31.763  1.00  0.00     0.198 A 
ATOM     84  C   UNL A   1      43.657  36.414  33.956  1.00  0.00     0.198 A 
ATOM     85  F   UNL A   1      42.943  34.190  34.218  1.00  0.00    -0.203 F 
ATOM     86  F   UNL A   1      44.491  38.293  30.973  1.00  0.00    -0.200 F 
ATOM     87  C   UNL A   1      44.052  37.462  33.139  1.00  0.00     0.200 A 
ATOM     88  F   UNL A   1      43.611  36.582  35.286  1.00  0.00    -0.200 F 
ATOM     89  F   UNL A   1      44.409  38.635  33.677  1.00  0.00    -0.200 F 
ENDBRANCH  56  79
ENDBRANCH  30  31
ENDBRANCH  22  25
ENDBRANCH  20  21
ENDBRANCH  19  20
ENDBRANCH  18  19
ENDBRANCH   3  18
TORSDOF 15
ENDMDL
MODEL 3
REMARK VINA RESULT:      -9.7      4.907     10.449
REMARK SMILES COC[C@@H](C)CC(=O)N1CC(CC(=O)NCCCNC(=O)c2ccc(-c3c4nc(c(-c5c(F)c(F)c(F)c(F)c5F)c5ccc([nH]5)c(-c5c(F)c(F)c(F)c(F)c5F)c5nc(c(-c6c(F)c(F)c(F)c(F)c6F)c6ccc3[nH]6)C=C5)C=C4)cc2)C1
REMARK SMILES IDX 13 1 14 2 15 3 12 5 11 6 7 7 8 8 9 9 10 10 85 11 6 12 4 13
REMARK SMILES IDX 5 14 3 15 2 16 1 17 16 18 17 19 18 20 19 21 20 22 21 24
REMARK SMILES IDX 22 25 23 26 84 27 24 28 83 29 25 30 26 31 27 32 77 33 28 34
REMARK SMILES IDX 82 35 76 36 78 37 29 38 81 39 75 40 74 41 30 43 62 44 42 45
REMARK SMILES IDX 61 46 43 47 46 48 60 49 79 50 44 51 45 52 59 54 80 55 47 56
REMARK SMILES IDX 31 57 32 58 40 59 33 60 34 61 38 62 41 63 35 64 36 65 39 66
REMARK SMILES IDX 37 67 63 68 64 69 72 70 65 71 66 72 70 73 73 74 67 75 68 76
REMARK SMILES IDX 71 77 69 78 48 79 49 80 57 81 50 82 51 83 55 84 58 85 52 86
REMARK SMILES IDX 53 87 56 88 54 89
REMARK H PARENT 15 4 19 23 78 42 46 53
REMARK Flexibility Score: inf
ROOT
ATOM      1  C   UNL A   1      30.948  24.932  26.162  1.00  0.00     0.220 C 
ATOM      2  O   UNL A   1      29.968  24.418  26.704  1.00  0.00    -0.275 OA
ATOM      3  N   UNL A   1      31.454  26.069  26.719  1.00  0.00    -0.356 N 
ATOM      4  H   UNL A   1      31.018  26.335  27.562  1.00  0.00     0.163 HD
ENDROOT
BRANCH   1   5
ATOM      5  C   UNL A   1      31.533  24.325  24.895  1.00  0.00     0.107 C 
BRANCH   5   6
ATOM      6  C   UNL A   1      32.780  23.488  25.170  1.00  0.00     0.037 C 
ATOM      7  C   UNL A   1      34.210  20.512  24.940  1.00  0.00     0.222 C 
ATOM      8  O   UNL A   1      35.425  20.685  24.974  1.00  0.00    -0.275 OA
ATOM      9  N   UNL A   1      33.311  21.521  24.676  1.00  0.00    -0.342 N 
ATOM     10  C   UNL A   1      33.556  22.813  24.026  1.00  0.00     0.125 C 
ATOM     11  C   UNL A   1      32.441  22.098  25.681  1.00  0.00     0.125 C 
BRANCH   7  12
ATOM     12  C   UNL A   1      33.587  19.118  25.023  1.00  0.00     0.106 C 
BRANCH  12  13
ATOM     13  C   UNL A   1      33.695  18.159  23.818  1.00  0.00     0.021 C 
ATOM     14  C   UNL A   1      32.399  18.249  22.996  1.00  0.00     0.010 C 
BRANCH  13  15
ATOM     15  C   UNL A   1      33.956  16.701  24.228  1.00  0.00     0.163 C 
BRANCH  15  16
ATOM     16  O   UNL A   1      33.475  16.420  25.542  1.00  0.00    -0.384 OA
ATOM     17  C   UNL A   1      32.419  15.467  25.557  1.00  0.00     0.194 C 
ENDBRANCH  15  16
ENDBRANCH  13  15
ENDBRANCH  12  13
ENDBRANCH   7  12
ENDBRANCH   5   6
ENDBRANCH   1   5
BRANCH   3  18
ATOM     18  C   UNL A   1      32.521  26.959  26.292  1.00  0.00     0.117 C 
BRANCH  18  19
ATOM     19  C   UNL A   1      31.974  28.246  25.679  1.00  0.00     0.042 C 
BRANCH  19  20
ATOM     20  C   UNL A   1      33.000  29.306  25.300  1.00  0.00     0.118 C 
BRANCH  20  21
ATOM     21  N   UNL A   1      32.672  30.618  25.829  1.00  0.00    -0.352 N 
ATOM     22  C   UNL A   1      33.198  31.327  26.885  1.00  0.00     0.251 C 
ATOM     23  H   UNL A   1      31.947  31.081  25.349  1.00  0.00     0.163 HD
ATOM     24  O   UNL A   1      32.616  32.347  27.247  1.00  0.00    -0.269 OA
BRANCH  22  25
ATOM     25  C   UNL A   1      34.414  30.890  27.622  1.00  0.00     0.039 A 
ATOM     26  C   UNL A   1      35.373  31.861  27.946  1.00  0.00     0.014 A 
ATOM     27  C   UNL A   1      34.670  29.555  27.944  1.00  0.00     0.014 A 
ATOM     28  C   UNL A   1      36.540  31.509  28.634  1.00  0.00     0.010 A 
ATOM     29  C   UNL A   1      35.800  29.213  28.695  1.00  0.00     0.010 A 
ATOM     30  C   UNL A   1      36.753  30.184  29.038  1.00  0.00    -0.014 A 
BRANCH  30  31
ATOM     31  C   UNL A   1      37.985  29.793  29.776  1.00  0.00     0.031 A 
ATOM     32  C   UNL A   1      38.254  30.346  31.150  1.00  0.00     0.074 A 
ATOM     33  C   UNL A   1      38.888  28.977  29.200  1.00  0.00     0.049 A 
ATOM     34  N   UNL A   1      39.288  30.165  31.933  1.00  0.00    -0.248 NA
ATOM     35  C   UNL A   1      37.229  31.241  31.708  1.00  0.00     0.031 C 
ATOM     36  C   UNL A   1      38.773  28.401  27.860  1.00  0.00     0.029 A 
ATOM     37  N   UNL A   1      40.091  28.500  29.665  1.00  0.00    -0.354 N 
ATOM     38  C   UNL A   1      39.046  30.934  33.064  1.00  0.00     0.074 A 
ATOM     39  C   UNL A   1      37.793  31.624  32.844  1.00  0.00     0.031 C 
ATOM     40  C   UNL A   1      39.850  27.638  27.617  1.00  0.00     0.029 A 
ATOM     41  C   UNL A   1      40.752  27.702  28.765  1.00  0.00     0.049 A 
ATOM     42  H   UNL A   1      40.444  28.712  30.559  1.00  0.00     0.167 HD
ATOM     43  C   UNL A   1      39.790  31.044  34.192  1.00  0.00     0.037 A 
ATOM     44  C   UNL A   1      41.956  27.101  28.849  1.00  0.00     0.037 A 
ATOM     45  C   UNL A   1      41.032  30.349  34.417  1.00  0.00     0.049 A 
ATOM     46  C   UNL A   1      42.775  27.252  30.103  1.00  0.00     0.074 A 
ATOM     47  C   UNL A   1      41.826  30.346  35.550  1.00  0.00     0.029 A 
ATOM     48  N   UNL A   1      41.667  29.543  33.483  1.00  0.00    -0.354 N 
ATOM     49  N   UNL A   1      42.503  27.921  31.196  1.00  0.00    -0.248 NA
ATOM     50  C   UNL A   1      44.071  26.557  30.136  1.00  0.00     0.031 C 
ATOM     51  C   UNL A   1      42.971  29.589  35.281  1.00  0.00     0.029 A 
ATOM     52  C   UNL A   1      42.860  29.064  34.003  1.00  0.00     0.049 A 
ATOM     53  H   UNL A   1      41.321  29.341  32.584  1.00  0.00     0.167 HD
ATOM     54  C   UNL A   1      43.574  27.708  32.055  1.00  0.00     0.074 A 
ATOM     55  C   UNL A   1      44.496  26.835  31.361  1.00  0.00     0.031 C 
ATOM     56  C   UNL A   1      43.773  28.193  33.305  1.00  0.00     0.037 A 
BRANCH  43  57
ATOM     57  C   UNL A   1      39.285  31.965  35.266  1.00  0.00     0.064 A 
ATOM     58  C   UNL A   1      39.599  33.334  35.277  1.00  0.00     0.173 A 
ATOM     59  C   UNL A   1      38.460  31.477  36.292  1.00  0.00     0.173 A 
ATOM     60  F   UNL A   1      40.390  33.852  34.326  1.00  0.00    -0.203 F 
ATOM     61  C   UNL A   1      39.145  34.167  36.296  1.00  0.00     0.198 A 
ATOM     62  C   UNL A   1      37.978  32.321  37.289  1.00  0.00     0.198 A 
ATOM     63  F   UNL A   1      38.119  30.181  36.327  1.00  0.00    -0.203 F 
ATOM     64  F   UNL A   1      39.513  35.456  36.319  1.00  0.00    -0.200 F 
ATOM     65  C   UNL A   1      38.331  33.662  37.298  1.00  0.00     0.200 A 
ATOM     66  F   UNL A   1      37.177  31.834  38.248  1.00  0.00    -0.200 F 
ATOM     67  F   UNL A   1      37.893  34.465  38.278  1.00  0.00    -0.200 F 
ENDBRANCH  43  57
BRANCH  44  68
ATOM     68  C   UNL A   1      42.451  26.285  27.708  1.00  0.00     0.064 A 
ATOM     69  C   UNL A   1      43.357  26.817  26.780  1.00  0.00     0.173 A 
ATOM     70  C   UNL A   1      42.036  24.958  27.526  1.00  0.00     0.173 A 
ATOM     71  F   UNL A   1      43.765  28.090  26.896  1.00  0.00    -0.203 F 
ATOM     72  C   UNL A   1      43.819  26.057  25.707  1.00  0.00     0.198 A 
ATOM     73  C   UNL A   1      42.522  24.190  26.470  1.00  0.00     0.198 A 
ATOM     74  F   UNL A   1      41.170  24.401  28.385  1.00  0.00    -0.203 F 
ATOM     75  F   UNL A   1      44.653  26.604  24.812  1.00  0.00    -0.200 F 
ATOM     76  C   UNL A   1      43.408  24.741  25.558  1.00  0.00     0.200 A 
ATOM     77  F   UNL A   1      42.132  22.915  26.338  1.00  0.00    -0.200 F 
ATOM     78  F   UNL A   1      43.860  24.009  24.533  1.00  0.00    -0.200 F 
ENDBRANCH  44  68
BRANCH  56  79
ATOM     79  C   UNL A   1      45.020  27.765  34.026  1.00  0.00     0.064 A 
ATOM     80  C   UNL A   1      46.209  28.506  33.952  1.00  0.00     0.173 A 
ATOM     81  C   UNL A   1      45.013  26.619  34.838  1.00  0.00     0.173 A 
ATOM     82  F   UNL A   1      46.276  29.600  33.180  1.00  0.00    -0.203 F 
ATOM     83  C   UNL A   1      47.350  28.103  34.644  1.00  0.00     0.198 A 
ATOM     84  C   UNL A   1      46.145  26.238  35.554  1.00  0.00     0.198 A 
ATOM     85  F   UNL A   1      43.902  25.878  34.951  1.00  0.00    -0.203 F 
ATOM     86  F   UNL A   1      48.488  28.799  34.519  1.00  0.00    -0.200 F 
ATOM     87  C   UNL A   1      47.315  26.975  35.450  1.00  0.00     0.200 A 
ATOM     88  F   UNL A   1      46.103  25.157  36.346  1.00  0.00    -0.200 F 
ATOM     89  F   UNL A   1      48.409  26.595  36.122  1.00  0.00    -0.200 F 
ENDBRANCH  56  79
ENDBRANCH  30  31
ENDBRANCH  22  25
ENDBRANCH  20  21
ENDBRANCH  19  20
ENDBRANCH  18  19
ENDBRANCH   3  18
TORSDOF 15
ENDMDL
