MODEL 1
REMARK VINA RESULT:     -14.1      0.000      0.000
REMARK SMILES CC(=O)N[C@H]1[C@@H](Oc2ccc(C)c(C)c2)O[C@H]2CO[C@H](c3ccco3)O[C@@H]2[C@H]1OCC(=O)NCCCNC(=O)c1ccc(-c2c3nc(c(-c4c(F)c(F)c(F)c(F)c4F)c4ccc([nH]4)c(-c4c(F)c(F)c(F)c(F)c4F)c4nc(c(-c5c(F)c(F)c(F)c(F)c5F)c5ccc2[nH]5)C=C4)C=C3)cc1
REMARK SMILES IDX 34 1 33 2 31 3 32 4 30 6 29 7 28 8 5 9 6 10 16 11 27 12
REMARK SMILES IDX 17 13 26 14 18 15 20 16 19 17 4 18 1 19 2 20 3 21 7 23 8 24
REMARK SMILES IDX 9 25 15 26 10 27 13 28 11 29 14 30 12 31 21 32 22 33 25 34
REMARK SMILES IDX 23 35 24 36 35 37 36 38 37 39 38 40 39 42 40 43 41 44 102 45
REMARK SMILES IDX 42 46 101 47 43 48 44 49 45 50 95 51 46 52 100 53 94 54
REMARK SMILES IDX 96 55 47 56 99 57 93 58 92 59 48 61 80 62 60 63 79 64 61 65
REMARK SMILES IDX 64 66 78 67 97 68 62 69 63 70 77 72 98 73 65 74 49 75 50 76
REMARK SMILES IDX 58 77 51 78 52 79 56 80 59 81 53 82 54 83 57 84 55 85 81 86
REMARK SMILES IDX 82 87 90 88 83 89 84 90 88 91 91 92 85 93 86 94 89 95 87 96
REMARK SMILES IDX 66 97 67 98 75 99 68 100 69 101 73 102 76 103 70 104 71 105
REMARK SMILES IDX 74 106 72 107
REMARK H PARENT 33 5 4 22 37 41 96 60 64 71
REMARK Flexibility Score: inf
ROOT
ATOM      1  C   UNL A   1      36.807  20.591  25.158  1.00  0.00     0.117 C 
ENDROOT
BRANCH   1   2
ATOM      2  N   UNL A   1      37.142  21.966  25.476  1.00  0.00    -0.354 N 
ATOM      3  C   UNL A   1      37.062  23.073  24.691  1.00  0.00     0.246 C 
ATOM      4  O   UNL A   1      37.520  24.133  25.126  1.00  0.00    -0.272 OA
ATOM      5  H   UNL A   1      37.476  22.118  26.391  1.00  0.00     0.163 HD
BRANCH   3   6
ATOM      6  C   UNL A   1      36.400  23.000  23.313  1.00  0.00     0.260 C 
BRANCH   6   7
ATOM      7  O   UNL A   1      35.077  23.453  23.097  1.00  0.00    -0.363 OA
BRANCH   7   8
ATOM      8  C   UNL A   1      34.206  23.694  24.224  1.00  0.00     0.179 C 
ATOM      9  C   UNL A   1      33.901  25.199  24.584  1.00  0.00     0.182 C 
ATOM     10  C   UNL A   1      32.552  25.364  25.420  1.00  0.00     0.333 C 
ATOM     11  O   UNL A   1      31.575  24.336  25.301  1.00  0.00    -0.332 OA
ATOM     12  C   UNL A   1      33.007  22.726  24.264  1.00  0.00     0.184 C 
ATOM     13  C   UNL A   1      32.093  23.039  25.435  1.00  0.00     0.180 C 
ATOM     14  O   UNL A   1      33.467  21.377  24.395  1.00  0.00    -0.337 OA
ATOM     15  C   UNL A   1      30.942  22.042  25.384  1.00  0.00     0.199 C 
ATOM     16  C   UNL A   1      32.381  20.449  24.422  1.00  0.00     0.319 C 
ATOM     17  O   UNL A   1      31.446  20.722  25.462  1.00  0.00    -0.343 OA
BRANCH   9  18
ATOM     18  N   UNL A   1      34.068  26.183  23.498  1.00  0.00    -0.345 N 
ATOM     19  C   UNL A   1      32.262  25.472  21.958  1.00  0.00     0.114 C 
ATOM     20  C   UNL A   1      33.437  26.334  22.304  1.00  0.00     0.217 C 
ATOM     21  O   UNL A   1      33.844  27.200  21.529  1.00  0.00    -0.275 OA
ATOM     22  H   UNL A   1      34.765  26.857  23.670  1.00  0.00     0.164 HD
ENDBRANCH   9  18
BRANCH  10  23
ATOM     23  O   UNL A   1      31.910  26.640  25.269  1.00  0.00    -0.463 OA
BRANCH  23  24
ATOM     24  C   UNL A   1      32.548  27.767  25.725  1.00  0.00     0.123 A 
ATOM     25  C   UNL A   1      33.757  27.812  26.422  1.00  0.00     0.047 A 
ATOM     26  C   UNL A   1      31.815  28.943  25.580  1.00  0.00     0.050 A 
ATOM     27  C   UNL A   1      34.126  28.963  27.115  1.00  0.00     0.007 A 
ATOM     28  C   UNL A   1      32.195  30.124  26.242  1.00  0.00    -0.045 A 
ATOM     29  C   UNL A   1      33.324  30.109  27.080  1.00  0.00    -0.048 A 
ATOM     30  C   UNL A   1      31.335  31.340  26.040  1.00  0.00     0.045 C 
ATOM     31  C   UNL A   1      33.687  31.268  27.964  1.00  0.00     0.044 C 
ENDBRANCH  23  24
ENDBRANCH  10  23
BRANCH  16  32
ATOM     32  C   UNL A   1      32.917  19.096  24.751  1.00  0.00     0.159 A 
ATOM     33  C   UNL A   1      34.033  18.417  24.297  1.00  0.00     0.051 A 
ATOM     34  O   UNL A   1      32.223  18.301  25.622  1.00  0.00    -0.464 OA
ATOM     35  C   UNL A   1      33.977  17.127  24.867  1.00  0.00     0.042 A 
ATOM     36  C   UNL A   1      32.872  17.112  25.682  1.00  0.00     0.195 A 
ENDBRANCH  16  32
ENDBRANCH   7   8
ENDBRANCH   6   7
ENDBRANCH   3   6
ENDBRANCH   1   2
BRANCH   1  37
ATOM     37  C   UNL A   1      38.047  19.746  24.889  1.00  0.00     0.042 C 
BRANCH  37  38
ATOM     38  C   UNL A   1      39.285  20.140  25.695  1.00  0.00     0.118 C 
BRANCH  38  39
ATOM     39  N   UNL A   1      40.250  19.061  25.827  1.00  0.00    -0.352 N 
ATOM     40  C   UNL A   1      41.597  19.127  26.088  1.00  0.00     0.251 C 
ATOM     41  H   UNL A   1      39.886  18.153  25.711  1.00  0.00     0.163 HD
ATOM     42  O   UNL A   1      42.289  18.119  25.995  1.00  0.00    -0.269 OA
BRANCH  40  43
ATOM     43  C   UNL A   1      42.227  20.413  26.460  1.00  0.00     0.039 A 
ATOM     44  C   UNL A   1      42.883  21.153  25.473  1.00  0.00     0.014 A 
ATOM     45  C   UNL A   1      42.195  20.884  27.774  1.00  0.00     0.014 A 
ATOM     46  C   UNL A   1      43.437  22.401  25.785  1.00  0.00     0.010 A 
ATOM     47  C   UNL A   1      42.705  22.152  28.070  1.00  0.00     0.010 A 
ATOM     48  C   UNL A   1      43.309  22.942  27.074  1.00  0.00    -0.014 A 
BRANCH  48  49
ATOM     49  C   UNL A   1      43.722  24.348  27.375  1.00  0.00     0.031 A 
ATOM     50  C   UNL A   1      42.711  25.397  27.759  1.00  0.00     0.074 A 
ATOM     51  C   UNL A   1      45.008  24.722  27.194  1.00  0.00     0.049 A 
ATOM     52  N   UNL A   1      42.887  26.683  27.961  1.00  0.00    -0.248 NA
ATOM     53  C   UNL A   1      41.318  24.954  27.914  1.00  0.00     0.031 C 
ATOM     54  C   UNL A   1      46.095  23.842  26.759  1.00  0.00     0.029 A 
ATOM     55  N   UNL A   1      45.611  25.954  27.306  1.00  0.00    -0.354 N 
ATOM     56  C   UNL A   1      41.634  27.195  28.271  1.00  0.00     0.074 A 
ATOM     57  C   UNL A   1      40.694  26.099  28.154  1.00  0.00     0.031 C 
ATOM     58  C   UNL A   1      47.220  24.560  26.623  1.00  0.00     0.029 A 
ATOM     59  C   UNL A   1      46.937  25.955  26.946  1.00  0.00     0.049 A 
ATOM     60  H   UNL A   1      45.136  26.759  27.615  1.00  0.00     0.167 HD
ATOM     61  C   UNL A   1      41.298  28.451  28.657  1.00  0.00     0.037 A 
ATOM     62  C   UNL A   1      47.832  26.960  26.870  1.00  0.00     0.037 A 
ATOM     63  C   UNL A   1      42.226  29.544  28.798  1.00  0.00     0.049 A 
ATOM     64  C   UNL A   1      47.429  28.355  27.259  1.00  0.00     0.074 A 
ATOM     65  C   UNL A   1      41.987  30.821  29.282  1.00  0.00     0.029 A 
ATOM     66  N   UNL A   1      43.564  29.500  28.444  1.00  0.00    -0.354 N 
ATOM     67  N   UNL A   1      46.265  28.794  27.669  1.00  0.00    -0.248 NA
ATOM     68  C   UNL A   1      48.471  29.391  27.192  1.00  0.00     0.031 C 
ATOM     69  C   UNL A   1      43.167  31.563  29.169  1.00  0.00     0.029 A 
ATOM     70  C   UNL A   1      44.154  30.736  28.662  1.00  0.00     0.049 A 
ATOM     71  H   UNL A   1      44.028  28.707  28.089  1.00  0.00     0.167 HD
ATOM     72  C   UNL A   1      46.442  30.145  27.940  1.00  0.00     0.074 A 
ATOM     73  C   UNL A   1      47.829  30.452  27.660  1.00  0.00     0.031 C 
ATOM     74  C   UNL A   1      45.534  31.046  28.385  1.00  0.00     0.037 A 
BRANCH  61  75
ATOM     75  C   UNL A   1      39.855  28.712  28.987  1.00  0.00     0.064 A 
ATOM     76  C   UNL A   1      39.348  28.485  30.276  1.00  0.00     0.173 A 
ATOM     77  C   UNL A   1      38.984  29.250  28.027  1.00  0.00     0.173 A 
ATOM     78  F   UNL A   1      40.138  27.973  31.231  1.00  0.00    -0.203 F 
ATOM     79  C   UNL A   1      38.015  28.750  30.581  1.00  0.00     0.198 A 
ATOM     80  C   UNL A   1      37.660  29.544  28.344  1.00  0.00     0.198 A 
ATOM     81  F   UNL A   1      39.420  29.501  26.783  1.00  0.00    -0.203 F 
ATOM     82  F   UNL A   1      37.543  28.477  31.805  1.00  0.00    -0.200 F 
ATOM     83  C   UNL A   1      37.175  29.285  29.617  1.00  0.00     0.200 A 
ATOM     84  F   UNL A   1      36.853  30.078  27.417  1.00  0.00    -0.200 F 
ATOM     85  F   UNL A   1      35.895  29.548  29.914  1.00  0.00    -0.200 F 
ENDBRANCH  61  75
BRANCH  62  86
ATOM     86  C   UNL A   1      49.223  26.680  26.423  1.00  0.00     0.064 A 
ATOM     87  C   UNL A   1      49.594  26.853  25.083  1.00  0.00     0.173 A 
ATOM     88  C   UNL A   1      50.198  26.218  27.318  1.00  0.00     0.173 A 
ATOM     89  F   UNL A   1      48.687  27.272  24.187  1.00  0.00    -0.203 F 
ATOM     90  C   UNL A   1      50.882  26.551  24.649  1.00  0.00     0.198 A 
ATOM     91  C   UNL A   1      51.495  25.942  26.888  1.00  0.00     0.198 A 
ATOM     92  F   UNL A   1      49.894  26.043  28.612  1.00  0.00    -0.203 F 
ATOM     93  F   UNL A   1      51.197  26.678  23.352  1.00  0.00    -0.200 F 
ATOM     94  C   UNL A   1      51.832  26.099  25.552  1.00  0.00     0.200 A 
ATOM     95  F   UNL A   1      52.413  25.518  27.766  1.00  0.00    -0.200 F 
ATOM     96  F   UNL A   1      53.072  25.808  25.134  1.00  0.00    -0.200 F 
ENDBRANCH  62  86
BRANCH  74  97
ATOM     97  C   UNL A   1      46.006  32.452  28.625  1.00  0.00     0.064 A 
ATOM     98  C   UNL A   1      46.555  32.843  29.855  1.00  0.00     0.173 A 
ATOM     99  C   UNL A   1      45.948  33.408  27.599  1.00  0.00     0.173 A 
ATOM    100  F   UNL A   1      46.616  31.973  30.875  1.00  0.00    -0.203 F 
ATOM    101  C   UNL A   1      47.011  34.143  30.055  1.00  0.00     0.198 A 
ATOM    102  C   UNL A   1      46.433  34.699  27.794  1.00  0.00     0.198 A 
ATOM    103  F   UNL A   1      45.433  33.087  26.403  1.00  0.00    -0.203 F 
ATOM    104  F   UNL A   1      47.492  34.506  31.252  1.00  0.00    -0.200 F 
ATOM    105  C   UNL A   1      46.958  35.068  29.022  1.00  0.00     0.200 A 
ATOM    106  F   UNL A   1      46.392  35.586  26.790  1.00  0.00    -0.200 F 
ATOM    107  F   UNL A   1      47.409  36.315  29.213  1.00  0.00    -0.200 F 
ENDBRANCH  74  97
ENDBRANCH  48  49
ENDBRANCH  40  43
ENDBRANCH  38  39
ENDBRANCH  37  38
ENDBRANCH   1  37
TORSDOF 16
ENDMDL
MODEL 2
REMARK VINA RESULT:     -14.0      0.596      6.964
REMARK SMILES CC(=O)N[C@H]1[C@@H](Oc2ccc(C)c(C)c2)O[C@H]2CO[C@H](c3ccco3)O[C@@H]2[C@H]1OCC(=O)NCCCNC(=O)c1ccc(-c2c3nc(c(-c4c(F)c(F)c(F)c(F)c4F)c4ccc([nH]4)c(-c4c(F)c(F)c(F)c(F)c4F)c4nc(c(-c5c(F)c(F)c(F)c(F)c5F)c5ccc2[nH]5)C=C4)C=C3)cc1
REMARK SMILES IDX 34 1 33 2 31 3 32 4 30 6 29 7 28 8 5 9 6 10 16 11 27 12
REMARK SMILES IDX 17 13 26 14 18 15 20 16 19 17 4 18 1 19 2 20 3 21 7 23 8 24
REMARK SMILES IDX 9 25 15 26 10 27 13 28 11 29 14 30 12 31 21 32 22 33 25 34
REMARK SMILES IDX 23 35 24 36 35 37 36 38 37 39 38 40 39 42 40 43 41 44 102 45
REMARK SMILES IDX 42 46 101 47 43 48 44 49 45 50 95 51 46 52 100 53 94 54
REMARK SMILES IDX 96 55 47 56 99 57 93 58 92 59 48 61 80 62 60 63 79 64 61 65
REMARK SMILES IDX 64 66 78 67 97 68 62 69 63 70 77 72 98 73 65 74 49 75 50 76
REMARK SMILES IDX 58 77 51 78 52 79 56 80 59 81 53 82 54 83 57 84 55 85 81 86
REMARK SMILES IDX 82 87 90 88 83 89 84 90 88 91 91 92 85 93 86 94 89 95 87 96
REMARK SMILES IDX 66 97 67 98 75 99 68 100 69 101 73 102 76 103 70 104 71 105
REMARK SMILES IDX 74 106 72 107
REMARK H PARENT 33 5 4 22 37 41 96 60 64 71
REMARK Flexibility Score: inf
ROOT
ATOM      1  C   UNL A   1      36.980  20.455  25.000  1.00  0.00     0.117 C 
ENDROOT
BRANCH   1   2
ATOM      2  N   UNL A   1      37.247  21.835  25.358  1.00  0.00    -0.354 N 
ATOM      3  C   UNL A   1      37.082  22.962  24.616  1.00  0.00     0.246 C 
ATOM      4  O   UNL A   1      37.491  24.031  25.076  1.00  0.00    -0.272 OA
ATOM      5  H   UNL A   1      37.598  21.975  26.268  1.00  0.00     0.163 HD
BRANCH   3   6
ATOM      6  C   UNL A   1      36.384  22.899  23.254  1.00  0.00     0.260 C 
BRANCH   6   7
ATOM      7  O   UNL A   1      35.094  23.442  23.052  1.00  0.00    -0.363 OA
BRANCH   7   8
ATOM      8  C   UNL A   1      34.231  23.689  24.184  1.00  0.00     0.179 C 
ATOM      9  C   UNL A   1      33.923  25.195  24.534  1.00  0.00     0.182 C 
ATOM     10  C   UNL A   1      32.580  25.361  25.380  1.00  0.00     0.333 C 
ATOM     11  O   UNL A   1      31.607  24.328  25.278  1.00  0.00    -0.332 OA
ATOM     12  C   UNL A   1      33.037  22.716  24.242  1.00  0.00     0.184 C 
ATOM     13  C   UNL A   1      32.131  23.034  25.417  1.00  0.00     0.180 C 
ATOM     14  O   UNL A   1      33.504  21.370  24.379  1.00  0.00    -0.337 OA
ATOM     15  C   UNL A   1      30.984  22.032  25.384  1.00  0.00     0.199 C 
ATOM     16  C   UNL A   1      32.422  20.438  24.423  1.00  0.00     0.319 C 
ATOM     17  O   UNL A   1      31.494  20.714  25.468  1.00  0.00    -0.343 OA
BRANCH   9  18
ATOM     18  N   UNL A   1      34.076  26.171  23.439  1.00  0.00    -0.345 N 
ATOM     19  C   UNL A   1      32.280  25.422  21.906  1.00  0.00     0.114 C 
ATOM     20  C   UNL A   1      33.443  26.302  22.244  1.00  0.00     0.217 C 
ATOM     21  O   UNL A   1      33.839  27.166  21.461  1.00  0.00    -0.275 OA
ATOM     22  H   UNL A   1      34.765  26.855  23.605  1.00  0.00     0.164 HD
ENDBRANCH   9  18
BRANCH  10  23
ATOM     23  O   UNL A   1      31.931  26.633  25.224  1.00  0.00    -0.463 OA
BRANCH  23  24
ATOM     24  C   UNL A   1      32.556  27.763  25.691  1.00  0.00     0.123 A 
ATOM     25  C   UNL A   1      33.753  27.814  26.406  1.00  0.00     0.047 A 
ATOM     26  C   UNL A   1      31.818  28.935  25.536  1.00  0.00     0.050 A 
ATOM     27  C   UNL A   1      34.105  28.966  27.106  1.00  0.00     0.007 A 
ATOM     28  C   UNL A   1      32.182  30.117  26.204  1.00  0.00    -0.045 A 
ATOM     29  C   UNL A   1      33.298  30.108  27.060  1.00  0.00    -0.048 A 
ATOM     30  C   UNL A   1      31.319  31.329  25.990  1.00  0.00     0.045 C 
ATOM     31  C   UNL A   1      33.641  31.268  27.950  1.00  0.00     0.044 C 
ENDBRANCH  23  24
ENDBRANCH  10  23
BRANCH  16  32
ATOM     32  C   UNL A   1      32.967  19.090  24.758  1.00  0.00     0.159 A 
ATOM     33  C   UNL A   1      34.111  18.434  24.344  1.00  0.00     0.051 A 
ATOM     34  O   UNL A   1      32.251  18.272  25.591  1.00  0.00    -0.464 OA
ATOM     35  C   UNL A   1      34.054  17.137  24.896  1.00  0.00     0.042 A 
ATOM     36  C   UNL A   1      32.916  17.093  25.664  1.00  0.00     0.195 A 
ENDBRANCH  16  32
ENDBRANCH   7   8
ENDBRANCH   6   7
ENDBRANCH   3   6
ENDBRANCH   1   2
BRANCH   1  37
ATOM     37  C   UNL A   1      38.263  19.647  24.837  1.00  0.00     0.042 C 
BRANCH  37  38
ATOM     38  C   UNL A   1      39.376  19.997  25.824  1.00  0.00     0.118 C 
BRANCH  38  39
ATOM     39  N   UNL A   1      40.401  18.970  25.919  1.00  0.00    -0.352 N 
ATOM     40  C   UNL A   1      41.752  19.107  26.127  1.00  0.00     0.251 C 
ATOM     41  H   UNL A   1      40.081  18.044  25.818  1.00  0.00     0.163 HD
ATOM     42  O   UNL A   1      42.492  18.136  26.008  1.00  0.00    -0.269 OA
BRANCH  40  43
ATOM     43  C   UNL A   1      42.328  20.425  26.473  1.00  0.00     0.039 A 
ATOM     44  C   UNL A   1      42.972  21.163  25.476  1.00  0.00     0.014 A 
ATOM     45  C   UNL A   1      42.258  20.930  27.773  1.00  0.00     0.014 A 
ATOM     46  C   UNL A   1      43.474  22.438  25.762  1.00  0.00     0.010 A 
ATOM     47  C   UNL A   1      42.716  22.223  28.042  1.00  0.00     0.010 A 
ATOM     48  C   UNL A   1      43.305  23.008  27.034  1.00  0.00    -0.014 A 
BRANCH  48  49
ATOM     49  C   UNL A   1      43.662  24.436  27.302  1.00  0.00     0.031 A 
ATOM     50  C   UNL A   1      45.098  24.887  27.368  1.00  0.00     0.074 A 
ATOM     51  C   UNL A   1      42.689  25.324  27.603  1.00  0.00     0.049 A 
ATOM     52  N   UNL A   1      45.583  26.066  27.682  1.00  0.00    -0.248 NA
ATOM     53  C   UNL A   1      46.126  23.881  27.065  1.00  0.00     0.031 C 
ATOM     54  C   UNL A   1      41.255  25.030  27.650  1.00  0.00     0.029 A 
ATOM     55  N   UNL A   1      42.762  26.648  27.975  1.00  0.00    -0.354 N 
ATOM     56  C   UNL A   1      46.964  25.942  27.608  1.00  0.00     0.074 A 
ATOM     57  C   UNL A   1      47.243  24.556  27.296  1.00  0.00     0.031 C 
ATOM     58  C   UNL A   1      40.589  26.126  28.045  1.00  0.00     0.029 A 
ATOM     59  C   UNL A   1      41.545  27.201  28.294  1.00  0.00     0.049 A 
ATOM     60  H   UNL A   1      43.608  27.151  28.009  1.00  0.00     0.167 HD
ATOM     61  C   UNL A   1      47.914  26.900  27.746  1.00  0.00     0.037 A 
ATOM     62  C   UNL A   1      41.223  28.428  28.749  1.00  0.00     0.037 A 
ATOM     63  C   UNL A   1      47.649  28.287  28.034  1.00  0.00     0.049 A 
ATOM     64  C   UNL A   1      42.297  29.463  28.938  1.00  0.00     0.074 A 
ATOM     65  C   UNL A   1      48.546  29.342  28.089  1.00  0.00     0.029 A 
ATOM     66  N   UNL A   1      46.402  28.812  28.331  1.00  0.00    -0.354 N 
ATOM     67  N   UNL A   1      43.588  29.360  28.743  1.00  0.00    -0.248 NA
ATOM     68  C   UNL A   1      41.864  30.793  29.395  1.00  0.00     0.031 C 
ATOM     69  C   UNL A   1      47.849  30.493  28.472  1.00  0.00     0.029 A 
ATOM     70  C   UNL A   1      46.511  30.166  28.606  1.00  0.00     0.049 A 
ATOM     71  H   UNL A   1      45.562  28.297  28.343  1.00  0.00     0.167 HD
ATOM     72  C   UNL A   1      44.116  30.615  29.019  1.00  0.00     0.074 A 
ATOM     73  C   UNL A   1      43.005  31.467  29.384  1.00  0.00     0.031 C 
ATOM     74  C   UNL A   1      45.408  31.019  28.969  1.00  0.00     0.037 A 
BRANCH  61  75
ATOM     75  C   UNL A   1      49.348  26.487  27.557  1.00  0.00     0.064 A 
ATOM     76  C   UNL A   1      49.892  26.303  26.276  1.00  0.00     0.173 A 
ATOM     77  C   UNL A   1      50.202  26.331  28.660  1.00  0.00     0.173 A 
ATOM     78  F   UNL A   1      49.119  26.441  25.189  1.00  0.00    -0.203 F 
ATOM     79  C   UNL A   1      51.226  25.942  26.108  1.00  0.00     0.198 A 
ATOM     80  C   UNL A   1      51.543  26.002  28.487  1.00  0.00     0.198 A 
ATOM     81  F   UNL A   1      49.737  26.510  29.906  1.00  0.00    -0.203 F 
ATOM     82  F   UNL A   1      51.709  25.723  24.877  1.00  0.00    -0.200 F 
ATOM     83  C   UNL A   1      52.052  25.798  27.213  1.00  0.00     0.200 A 
ATOM     84  F   UNL A   1      52.345  25.880  29.553  1.00  0.00    -0.200 F 
ATOM     85  F   UNL A   1      53.338  25.460  27.049  1.00  0.00    -0.200 F 
ENDBRANCH  61  75
BRANCH  62  86
ATOM     86  C   UNL A   1      39.803  28.760  29.038  1.00  0.00     0.064 A 
ATOM     87  C   UNL A   1      39.260  28.540  30.311  1.00  0.00     0.173 A 
ATOM     88  C   UNL A   1      38.960  29.285  28.048  1.00  0.00     0.173 A 
ATOM     89  F   UNL A   1      40.024  28.019  31.283  1.00  0.00    -0.203 F 
ATOM     90  C   UNL A   1      37.919  28.808  30.577  1.00  0.00     0.198 A 
ATOM     91  C   UNL A   1      37.625  29.578  28.323  1.00  0.00     0.198 A 
ATOM     92  F   UNL A   1      39.435  29.520  26.816  1.00  0.00    -0.203 F 
ATOM     93  F   UNL A   1      37.413  28.541  31.789  1.00  0.00    -0.200 F 
ATOM     94  C   UNL A   1      37.104  29.330  29.583  1.00  0.00     0.200 A 
ATOM     95  F   UNL A   1      36.844  30.095  27.365  1.00  0.00    -0.200 F 
ATOM     96  F   UNL A   1      35.814  29.587  29.840  1.00  0.00    -0.200 F 
ENDBRANCH  62  86
BRANCH  74  97
ATOM     97  C   UNL A   1      45.700  32.457  29.293  1.00  0.00     0.064 A 
ATOM     98  C   UNL A   1      45.610  33.463  28.319  1.00  0.00     0.173 A 
ATOM     99  C   UNL A   1      46.035  32.839  30.602  1.00  0.00     0.173 A 
ATOM    100  F   UNL A   1      45.313  33.148  27.049  1.00  0.00    -0.203 F 
ATOM    101  C   UNL A   1      45.860  34.794  28.640  1.00  0.00     0.198 A 
ATOM    102  C   UNL A   1      46.255  34.176  30.924  1.00  0.00     0.198 A 
ATOM    103  F   UNL A   1      46.134  31.918  31.571  1.00  0.00    -0.203 F 
ATOM    104  F   UNL A   1      45.810  35.732  27.683  1.00  0.00    -0.200 F 
ATOM    105  C   UNL A   1      46.174  35.151  29.943  1.00  0.00     0.200 A 
ATOM    106  F   UNL A   1      46.545  34.520  32.186  1.00  0.00    -0.200 F 
ATOM    107  F   UNL A   1      46.403  36.436  30.251  1.00  0.00    -0.200 F 
ENDBRANCH  74  97
ENDBRANCH  48  49
ENDBRANCH  40  43
ENDBRANCH  38  39
ENDBRANCH  37  38
ENDBRANCH   1  37
TORSDOF 16
ENDMDL
MODEL 3
REMARK VINA RESULT:     -13.6      1.374      2.010
REMARK SMILES CC(=O)N[C@H]1[C@@H](Oc2ccc(C)c(C)c2)O[C@H]2CO[C@H](c3ccco3)O[C@@H]2[C@H]1OCC(=O)NCCCNC(=O)c1ccc(-c2c3nc(c(-c4c(F)c(F)c(F)c(F)c4F)c4ccc([nH]4)c(-c4c(F)c(F)c(F)c(F)c4F)c4nc(c(-c5c(F)c(F)c(F)c(F)c5F)c5ccc2[nH]5)C=C4)C=C3)cc1
REMARK SMILES IDX 34 1 33 2 31 3 32 4 30 6 29 7 28 8 5 9 6 10 16 11 27 12
REMARK SMILES IDX 17 13 26 14 18 15 20 16 19 17 4 18 1 19 2 20 3 21 7 23 8 24
REMARK SMILES IDX 9 25 15 26 10 27 13 28 11 29 14 30 12 31 21 32 22 33 25 34
REMARK SMILES IDX 23 35 24 36 35 37 36 38 37 39 38 40 39 42 40 43 41 44 102 45
REMARK SMILES IDX 42 46 101 47 43 48 44 49 45 50 95 51 46 52 100 53 94 54
REMARK SMILES IDX 96 55 47 56 99 57 93 58 92 59 48 61 80 62 60 63 79 64 61 65
REMARK SMILES IDX 64 66 78 67 97 68 62 69 63 70 77 72 98 73 65 74 49 75 50 76
REMARK SMILES IDX 58 77 51 78 52 79 56 80 59 81 53 82 54 83 57 84 55 85 81 86
REMARK SMILES IDX 82 87 90 88 83 89 84 90 88 91 91 92 85 93 86 94 89 95 87 96
REMARK SMILES IDX 66 97 67 98 75 99 68 100 69 101 73 102 76 103 70 104 71 105
REMARK SMILES IDX 74 106 72 107
REMARK H PARENT 33 5 4 22 37 41 96 60 64 71
REMARK Flexibility Score: inf
ROOT
ATOM      1  C   UNL A   1      37.025  20.714  24.740  1.00  0.00     0.117 C 
ENDROOT
BRANCH   1   2
ATOM      2  N   UNL A   1      36.976  22.163  24.802  1.00  0.00    -0.354 N 
ATOM      3  C   UNL A   1      36.153  22.964  25.528  1.00  0.00     0.246 C 
ATOM      4  O   UNL A   1      36.201  24.182  25.335  1.00  0.00    -0.272 OA
ATOM      5  H   UNL A   1      37.634  22.631  24.238  1.00  0.00     0.163 HD
BRANCH   3   6
ATOM      6  C   UNL A   1      35.207  22.363  26.572  1.00  0.00     0.260 C 
BRANCH   6   7
ATOM      7  O   UNL A   1      33.949  22.943  26.860  1.00  0.00    -0.363 OA
BRANCH   7   8
ATOM      8  C   UNL A   1      32.909  22.942  25.858  1.00  0.00     0.179 C 
ATOM      9  C   UNL A   1      32.347  24.345  25.409  1.00  0.00     0.182 C 
ATOM     10  C   UNL A   1      31.661  24.294  23.969  1.00  0.00     0.333 C 
ATOM     11  O   UNL A   1      32.060  23.251  23.087  1.00  0.00    -0.332 OA
ATOM     12  C   UNL A   1      33.170  21.920  24.734  1.00  0.00     0.184 C 
ATOM     13  C   UNL A   1      32.080  21.980  23.680  1.00  0.00     0.180 C 
ATOM     14  O   UNL A   1      33.208  20.595  25.273  1.00  0.00    -0.337 OA
ATOM     15  C   UNL A   1      32.429  20.947  22.615  1.00  0.00     0.199 C 
ATOM     16  C   UNL A   1      33.461  19.619  24.260  1.00  0.00     0.319 C 
ATOM     17  O   UNL A   1      32.509  19.661  23.201  1.00  0.00    -0.343 OA
BRANCH   9  18
ATOM     18  N   UNL A   1      33.230  25.508  25.620  1.00  0.00    -0.345 N 
ATOM     19  C   UNL A   1      31.702  27.023  26.849  1.00  0.00     0.114 C 
ATOM     20  C   UNL A   1      33.010  26.725  26.183  1.00  0.00     0.217 C 
ATOM     21  O   UNL A   1      33.912  27.562  26.146  1.00  0.00    -0.275 OA
ATOM     22  H   UNL A   1      34.149  25.378  25.294  1.00  0.00     0.164 HD
ENDBRANCH   9  18
BRANCH  10  23
ATOM     23  O   UNL A   1      31.676  25.542  23.257  1.00  0.00    -0.463 OA
BRANCH  23  24
ATOM     24  C   UNL A   1      30.647  26.431  23.447  1.00  0.00     0.123 A 
ATOM     25  C   UNL A   1      29.418  26.163  24.052  1.00  0.00     0.047 A 
ATOM     26  C   UNL A   1      30.836  27.668  22.835  1.00  0.00     0.050 A 
ATOM     27  C   UNL A   1      28.347  27.037  23.884  1.00  0.00     0.007 A 
ATOM     28  C   UNL A   1      29.774  28.580  22.692  1.00  0.00    -0.045 A 
ATOM     29  C   UNL A   1      28.496  28.223  23.157  1.00  0.00    -0.048 A 
ATOM     30  C   UNL A   1      30.066  29.884  22.005  1.00  0.00     0.045 C 
ATOM     31  C   UNL A   1      27.276  29.054  22.878  1.00  0.00     0.044 C 
ENDBRANCH  23  24
ENDBRANCH  10  23
BRANCH  16  32
ATOM     32  C   UNL A   1      33.297  18.260  24.854  1.00  0.00     0.159 A 
ATOM     33  C   UNL A   1      34.171  17.195  24.960  1.00  0.00     0.051 A 
ATOM     34  O   UNL A   1      32.083  17.907  25.379  1.00  0.00    -0.464 OA
ATOM     35  C   UNL A   1      33.435  16.125  25.513  1.00  0.00     0.042 A 
ATOM     36  C   UNL A   1      32.177  16.613  25.771  1.00  0.00     0.195 A 
ENDBRANCH  16  32
ENDBRANCH   7   8
ENDBRANCH   6   7
ENDBRANCH   3   6
ENDBRANCH   1   2
BRANCH   1  37
ATOM     37  C   UNL A   1      38.453  20.194  24.619  1.00  0.00     0.042 C 
BRANCH  37  38
ATOM     38  C   UNL A   1      39.238  20.150  25.930  1.00  0.00     0.118 C 
BRANCH  38  39
ATOM     39  N   UNL A   1      40.232  19.090  25.966  1.00  0.00    -0.352 N 
ATOM     40  C   UNL A   1      41.595  19.182  26.123  1.00  0.00     0.251 C 
ATOM     41  H   UNL A   1      39.879  18.177  25.863  1.00  0.00     0.163 HD
ATOM     42  O   UNL A   1      42.298  18.191  25.958  1.00  0.00    -0.269 OA
BRANCH  40  43
ATOM     43  C   UNL A   1      42.225  20.475  26.467  1.00  0.00     0.039 A 
ATOM     44  C   UNL A   1      42.782  21.248  25.445  1.00  0.00     0.014 A 
ATOM     45  C   UNL A   1      42.290  20.923  27.788  1.00  0.00     0.014 A 
ATOM     46  C   UNL A   1      43.333  22.502  25.734  1.00  0.00     0.010 A 
ATOM     47  C   UNL A   1      42.795  22.196  28.066  1.00  0.00     0.010 A 
ATOM     48  C   UNL A   1      43.299  23.017  27.040  1.00  0.00    -0.014 A 
BRANCH  48  49
ATOM     49  C   UNL A   1      43.705  24.426  27.333  1.00  0.00     0.031 A 
ATOM     50  C   UNL A   1      42.695  25.461  27.758  1.00  0.00     0.074 A 
ATOM     51  C   UNL A   1      44.979  24.817  27.109  1.00  0.00     0.049 A 
ATOM     52  N   UNL A   1      42.862  26.748  27.960  1.00  0.00    -0.248 NA
ATOM     53  C   UNL A   1      41.314  25.000  27.959  1.00  0.00     0.031 C 
ATOM     54  C   UNL A   1      46.061  23.953  26.631  1.00  0.00     0.029 A 
ATOM     55  N   UNL A   1      45.570  26.056  27.206  1.00  0.00    -0.354 N 
ATOM     56  C   UNL A   1      41.614  27.243  28.317  1.00  0.00     0.074 A 
ATOM     57  C   UNL A   1      40.685  26.136  28.228  1.00  0.00     0.031 C 
ATOM     58  C   UNL A   1      47.172  24.686  26.460  1.00  0.00     0.029 A 
ATOM     59  C   UNL A   1      46.883  26.076  26.800  1.00  0.00     0.049 A 
ATOM     60  H   UNL A   1      45.096  26.854  27.536  1.00  0.00     0.167 HD
ATOM     61  C   UNL A   1      41.277  28.492  28.721  1.00  0.00     0.037 A 
ATOM     62  C   UNL A   1      47.762  27.092  26.697  1.00  0.00     0.037 A 
ATOM     63  C   UNL A   1      42.196  29.597  28.835  1.00  0.00     0.049 A 
ATOM     64  C   UNL A   1      47.356  28.480  27.108  1.00  0.00     0.074 A 
ATOM     65  C   UNL A   1      41.958  30.868  29.334  1.00  0.00     0.029 A 
ATOM     66  N   UNL A   1      43.521  29.571  28.434  1.00  0.00    -0.354 N 
ATOM     67  N   UNL A   1      46.202  28.903  27.561  1.00  0.00    -0.248 NA
ATOM     68  C   UNL A   1      48.382  29.529  27.010  1.00  0.00     0.031 C 
ATOM     69  C   UNL A   1      43.124  31.626  29.183  1.00  0.00     0.029 A 
ATOM     70  C   UNL A   1      44.103  30.814  28.638  1.00  0.00     0.049 A 
ATOM     71  H   UNL A   1      43.982  28.786  28.059  1.00  0.00     0.167 HD
ATOM     72  C   UNL A   1      46.372  30.255  27.833  1.00  0.00     0.074 A 
ATOM     73  C   UNL A   1      47.743  30.580  27.505  1.00  0.00     0.031 C 
ATOM     74  C   UNL A   1      45.468  31.142  28.314  1.00  0.00     0.037 A 
BRANCH  61  75
ATOM     75  C   UNL A   1      39.843  28.734  29.104  1.00  0.00     0.064 A 
ATOM     76  C   UNL A   1      39.399  28.555  30.423  1.00  0.00     0.173 A 
ATOM     77  C   UNL A   1      38.917  29.205  28.159  1.00  0.00     0.173 A 
ATOM     78  F   UNL A   1      40.243  28.108  31.364  1.00  0.00    -0.203 F 
ATOM     79  C   UNL A   1      38.075  28.802  30.774  1.00  0.00     0.198 A 
ATOM     80  C   UNL A   1      37.602  29.482  28.521  1.00  0.00     0.198 A 
ATOM     81  F   UNL A   1      39.292  29.409  26.887  1.00  0.00    -0.203 F 
ATOM     82  F   UNL A   1      37.664  28.575  32.030  1.00  0.00    -0.200 F 
ATOM     83  C   UNL A   1      37.179  29.271  29.826  1.00  0.00     0.200 A 
ATOM     84  F   UNL A   1      36.741  29.953  27.609  1.00  0.00    -0.200 F 
ATOM     85  F   UNL A   1      35.907  29.517  30.168  1.00  0.00    -0.200 F 
ENDBRANCH  61  75
BRANCH  62  86
ATOM     86  C   UNL A   1      49.139  26.832  26.201  1.00  0.00     0.064 A 
ATOM     87  C   UNL A   1      49.458  27.006  24.847  1.00  0.00     0.173 A 
ATOM     88  C   UNL A   1      50.154  26.388  27.060  1.00  0.00     0.173 A 
ATOM     89  F   UNL A   1      48.513  27.408  23.984  1.00  0.00    -0.203 F 
ATOM     90  C   UNL A   1      50.734  26.722  24.367  1.00  0.00     0.198 A 
ATOM     91  C   UNL A   1      51.438  26.130  26.583  1.00  0.00     0.198 A 
ATOM     92  F   UNL A   1      49.900  26.213  28.366  1.00  0.00    -0.203 F 
ATOM     93  F   UNL A   1      50.999  26.849  23.059  1.00  0.00    -0.200 F 
ATOM     94  C   UNL A   1      51.724  26.288  25.236  1.00  0.00     0.200 A 
ATOM     95  F   UNL A   1      52.395  25.724  27.428  1.00  0.00    -0.200 F 
ATOM     96  F   UNL A   1      52.951  26.014  24.773  1.00  0.00    -0.200 F 
ENDBRANCH  62  86
BRANCH  74  97
ATOM     97  C   UNL A   1      45.932  32.552  28.545  1.00  0.00     0.064 A 
ATOM     98  C   UNL A   1      46.582  32.928  29.729  1.00  0.00     0.173 A 
ATOM     99  C   UNL A   1      45.759  33.530  27.552  1.00  0.00     0.173 A 
ATOM    100  F   UNL A   1      46.756  32.037  30.716  1.00  0.00    -0.203 F 
ATOM    101  C   UNL A   1      47.028  34.234  29.918  1.00  0.00     0.198 A 
ATOM    102  C   UNL A   1      46.233  34.827  27.734  1.00  0.00     0.198 A 
ATOM    103  F   UNL A   1      45.144  33.225  26.401  1.00  0.00    -0.203 F 
ATOM    104  F   UNL A   1      47.610  34.580  31.075  1.00  0.00    -0.200 F 
ATOM    105  C   UNL A   1      46.861  35.180  28.918  1.00  0.00     0.200 A 
ATOM    106  F   UNL A   1      46.082  35.736  26.760  1.00  0.00    -0.200 F 
ATOM    107  F   UNL A   1      47.302  36.433  29.097  1.00  0.00    -0.200 F 
ENDBRANCH  74  97
ENDBRANCH  48  49
ENDBRANCH  40  43
ENDBRANCH  38  39
ENDBRANCH  37  38
ENDBRANCH   1  37
TORSDOF 16
ENDMDL
