MODEL 1
REMARK VINA RESULT:     -10.8      0.000      0.000
REMARK SMILES COC[C@H](O)CC1(C(=O)NCCCNC(=O)c2ccc(-c3c4nc(c(-c5c(F)c(F)c(F)c(F)c5F)c5ccc([nH]5)c(-c5c(F)c(F)c(F)c(F)c5F)c5nc(c(-c6c(F)c(F)c(F)c(F)c6F)c6ccc3[nH]6)C=C5)C=C4)cc2)CC1
REMARK SMILES IDX 11 1 10 2 8 3 9 4 7 6 80 7 81 8 6 9 4 10 3 11 2 12 1 13 5 14
REMARK SMILES IDX 12 16 13 17 14 18 15 19 16 21 17 22 18 23 79 24 19 25 78 26
REMARK SMILES IDX 20 27 21 28 22 29 72 30 23 31 77 32 71 33 73 34 24 35 76 36
REMARK SMILES IDX 70 37 69 38 25 40 57 41 37 42 56 43 38 44 41 45 55 46 74 47
REMARK SMILES IDX 39 48 40 49 54 51 75 52 42 53 26 54 27 55 35 56 28 57 29 58
REMARK SMILES IDX 33 59 36 60 30 61 31 62 34 63 32 64 58 65 59 66 67 67 60 68
REMARK SMILES IDX 61 69 65 70 68 71 62 72 63 73 66 74 64 75 43 76 44 77 52 78
REMARK SMILES IDX 45 79 46 80 50 81 53 82 47 83 48 84 51 85 49 86
REMARK H PARENT 10 5 5 15 14 20 73 39 41 50
REMARK Flexibility Score: inf
ROOT
ATOM      1  C   UNL A   1      36.609  20.813  24.705  1.00  0.00     0.117 C 
ENDROOT
BRANCH   1   2
ATOM      2  N   UNL A   1      35.594  20.542  25.700  1.00  0.00    -0.356 N 
ATOM      3  C   UNL A   1      34.324  21.027  25.807  1.00  0.00     0.226 C 
ATOM      4  O   UNL A   1      33.946  21.354  26.934  1.00  0.00    -0.274 OA
ATOM      5  H   UNL A   1      35.861  19.913  26.408  1.00  0.00     0.163 HD
BRANCH   3   6
ATOM      6  C   UNL A   1      33.317  21.019  24.680  1.00  0.00     0.052 C 
ATOM      7  C   UNL A   1      33.357  22.005  23.529  1.00  0.00     0.018 C 
ATOM      8  C   UNL A   1      32.308  22.153  24.594  1.00  0.00     0.018 C 
BRANCH   6   9
ATOM      9  C   UNL A   1      32.798  19.614  24.315  1.00  0.00     0.051 C 
BRANCH   9  10
ATOM     10  C   UNL A   1      33.278  18.510  25.283  1.00  0.00     0.141 C 
BRANCH  10  11
ATOM     11  C   UNL A   1      33.258  17.114  24.631  1.00  0.00     0.191 C 
BRANCH  11  12
ATOM     12  O   UNL A   1      33.567  16.035  25.521  1.00  0.00    -0.382 OA
ATOM     13  C   UNL A   1      32.528  15.074  25.658  1.00  0.00     0.195 C 
ENDBRANCH  11  12
ENDBRANCH  10  11
BRANCH  10  14
ATOM     14  O   UNL A   1      32.528  18.453  26.501  1.00  0.00    -0.391 OA
ATOM     15  H   UNL A   1      32.641  17.580  26.909  1.00  0.00     0.211 HD
ENDBRANCH  10  14
ENDBRANCH   9  10
ENDBRANCH   6   9
ENDBRANCH   3   6
ENDBRANCH   1   2
BRANCH   1  16
ATOM     16  C   UNL A   1      37.768  19.820  24.807  1.00  0.00     0.042 C 
BRANCH  16  17
ATOM     17  C   UNL A   1      38.892  20.239  25.755  1.00  0.00     0.118 C 
BRANCH  17  18
ATOM     18  N   UNL A   1      39.938  19.235  25.879  1.00  0.00    -0.352 N 
ATOM     19  C   UNL A   1      41.283  19.373  26.111  1.00  0.00     0.251 C 
ATOM     20  H   UNL A   1      39.630  18.305  25.782  1.00  0.00     0.163 HD
ATOM     21  O   UNL A   1      42.017  18.392  26.030  1.00  0.00    -0.269 OA
BRANCH  19  22
ATOM     22  C   UNL A   1      41.868  20.694  26.429  1.00  0.00     0.039 A 
ATOM     23  C   UNL A   1      42.132  21.575  25.376  1.00  0.00     0.014 A 
ATOM     24  C   UNL A   1      42.190  21.055  27.739  1.00  0.00     0.014 A 
ATOM     25  C   UNL A   1      42.655  22.842  25.642  1.00  0.00     0.010 A 
ATOM     26  C   UNL A   1      42.654  22.343  28.011  1.00  0.00     0.010 A 
ATOM     27  C   UNL A   1      42.889  23.248  26.965  1.00  0.00    -0.014 A 
BRANCH  27  28
ATOM     28  C   UNL A   1      43.359  24.622  27.267  1.00  0.00     0.031 A 
ATOM     29  C   UNL A   1      42.412  25.652  27.812  1.00  0.00     0.074 A 
ATOM     30  C   UNL A   1      44.629  24.963  26.984  1.00  0.00     0.049 A 
ATOM     31  N   UNL A   1      42.630  26.913  28.088  1.00  0.00    -0.248 NA
ATOM     32  C   UNL A   1      41.029  25.213  28.052  1.00  0.00     0.031 C 
ATOM     33  C   UNL A   1      45.630  24.073  26.392  1.00  0.00     0.029 A 
ATOM     34  N   UNL A   1      45.293  26.153  27.140  1.00  0.00    -0.354 N 
ATOM     35  C   UNL A   1      41.411  27.422  28.515  1.00  0.00     0.074 A 
ATOM     36  C   UNL A   1      40.449  26.344  28.424  1.00  0.00     0.031 C 
ATOM     37  C   UNL A   1      46.781  24.745  26.243  1.00  0.00     0.029 A 
ATOM     38  C   UNL A   1      46.594  26.118  26.707  1.00  0.00     0.049 A 
ATOM     39  H   UNL A   1      44.875  26.957  27.526  1.00  0.00     0.167 HD
ATOM     40  C   UNL A   1      41.125  28.670  28.960  1.00  0.00     0.037 A 
ATOM     41  C   UNL A   1      47.533  27.083  26.681  1.00  0.00     0.037 A 
ATOM     42  C   UNL A   1      42.089  29.732  29.080  1.00  0.00     0.049 A 
ATOM     43  C   UNL A   1      47.204  28.448  27.214  1.00  0.00     0.074 A 
ATOM     44  C   UNL A   1      41.916  31.001  29.603  1.00  0.00     0.029 A 
ATOM     45  N   UNL A   1      43.410  29.648  28.665  1.00  0.00    -0.354 N 
ATOM     46  N   UNL A   1      46.070  28.895  27.693  1.00  0.00    -0.248 NA
ATOM     47  C   UNL A   1      48.290  29.437  27.214  1.00  0.00     0.031 C 
ATOM     48  C   UNL A   1      43.124  31.698  29.474  1.00  0.00     0.029 A 
ATOM     49  C   UNL A   1      44.059  30.850  28.900  1.00  0.00     0.049 A 
ATOM     50  H   UNL A   1      43.826  28.852  28.263  1.00  0.00     0.167 HD
ATOM     51  C   UNL A   1      46.303  30.213  28.058  1.00  0.00     0.074 A 
ATOM     52  C   UNL A   1      47.695  30.488  27.764  1.00  0.00     0.031 C 
ATOM     53  C   UNL A   1      45.440  31.113  28.589  1.00  0.00     0.037 A 
BRANCH  40  54
ATOM     54  C   UNL A   1      39.705  28.949  29.351  1.00  0.00     0.064 A 
ATOM     55  C   UNL A   1      39.244  28.721  30.656  1.00  0.00     0.173 A 
ATOM     56  C   UNL A   1      38.797  29.462  28.413  1.00  0.00     0.173 A 
ATOM     57  F   UNL A   1      40.071  28.220  31.586  1.00  0.00    -0.203 F 
ATOM     58  C   UNL A   1      37.916  28.965  30.999  1.00  0.00     0.198 A 
ATOM     59  C   UNL A   1      37.477  29.729  28.766  1.00  0.00     0.198 A 
ATOM     60  F   UNL A   1      39.189  29.702  27.153  1.00  0.00    -0.203 F 
ATOM     61  F   UNL A   1      37.486  28.691  32.238  1.00  0.00    -0.200 F 
ATOM     62  C   UNL A   1      37.035  29.471  30.056  1.00  0.00     0.200 A 
ATOM     63  F   UNL A   1      36.628  30.227  27.856  1.00  0.00    -0.200 F 
ATOM     64  F   UNL A   1      35.758  29.703  30.388  1.00  0.00    -0.200 F 
ENDBRANCH  40  54
BRANCH  41  65
ATOM     65  C   UNL A   1      48.882  26.769  26.152  1.00  0.00     0.064 A 
ATOM     66  C   UNL A   1      49.841  26.142  26.959  1.00  0.00     0.173 A 
ATOM     67  C   UNL A   1      49.224  27.052  24.822  1.00  0.00     0.173 A 
ATOM     68  F   UNL A   1      49.560  25.869  28.242  1.00  0.00    -0.203 F 
ATOM     69  C   UNL A   1      51.096  25.811  26.454  1.00  0.00     0.198 A 
ATOM     70  C   UNL A   1      50.473  26.703  24.315  1.00  0.00     0.198 A 
ATOM     71  F   UNL A   1      48.337  27.646  24.012  1.00  0.00    -0.203 F 
ATOM     72  F   UNL A   1      52.003  25.229  27.251  1.00  0.00    -0.200 F 
ATOM     73  C   UNL A   1      51.409  26.085  25.131  1.00  0.00     0.200 A 
ATOM     74  F   UNL A   1      50.768  26.957  23.032  1.00  0.00    -0.200 F 
ATOM     75  F   UNL A   1      52.612  25.754  24.643  1.00  0.00    -0.200 F 
ENDBRANCH  41  65
BRANCH  53  76
ATOM     76  C   UNL A   1      45.979  32.480  28.886  1.00  0.00     0.064 A 
ATOM     77  C   UNL A   1      46.587  32.774  30.116  1.00  0.00     0.173 A 
ATOM     78  C   UNL A   1      45.917  33.497  27.922  1.00  0.00     0.173 A 
ATOM     79  F   UNL A   1      46.654  31.837  31.074  1.00  0.00    -0.203 F 
ATOM     80  C   UNL A   1      47.094  34.043  30.377  1.00  0.00     0.198 A 
ATOM     81  C   UNL A   1      46.444  34.759  28.179  1.00  0.00     0.198 A 
ATOM     82  F   UNL A   1      45.347  33.264  26.730  1.00  0.00    -0.203 F 
ATOM     83  F   UNL A   1      47.635  34.313  31.573  1.00  0.00    -0.200 F 
ATOM     84  C   UNL A   1      47.028  35.033  29.408  1.00  0.00     0.200 A 
ATOM     85  F   UNL A   1      46.386  35.712  27.239  1.00  0.00    -0.200 F 
ATOM     86  F   UNL A   1      47.520  36.253  29.659  1.00  0.00    -0.200 F 
ENDBRANCH  53  76
ENDBRANCH  27  28
ENDBRANCH  19  22
ENDBRANCH  17  18
ENDBRANCH  16  17
ENDBRANCH   1  16
TORSDOF 15
ENDMDL
MODEL 2
REMARK VINA RESULT:     -10.8      6.283     11.561
REMARK SMILES COC[C@H](O)CC1(C(=O)NCCCNC(=O)c2ccc(-c3c4nc(c(-c5c(F)c(F)c(F)c(F)c5F)c5ccc([nH]5)c(-c5c(F)c(F)c(F)c(F)c5F)c5nc(c(-c6c(F)c(F)c(F)c(F)c6F)c6ccc3[nH]6)C=C5)C=C4)cc2)CC1
REMARK SMILES IDX 11 1 10 2 8 3 9 4 7 6 80 7 81 8 6 9 4 10 3 11 2 12 1 13 5 14
REMARK SMILES IDX 12 16 13 17 14 18 15 19 16 21 17 22 18 23 79 24 19 25 78 26
REMARK SMILES IDX 20 27 21 28 22 29 72 30 23 31 77 32 71 33 73 34 24 35 76 36
REMARK SMILES IDX 70 37 69 38 25 40 57 41 37 42 56 43 38 44 41 45 55 46 74 47
REMARK SMILES IDX 39 48 40 49 54 51 75 52 42 53 26 54 27 55 35 56 28 57 29 58
REMARK SMILES IDX 33 59 36 60 30 61 31 62 34 63 32 64 58 65 59 66 67 67 60 68
REMARK SMILES IDX 61 69 65 70 68 71 62 72 63 73 66 74 64 75 43 76 44 77 52 78
REMARK SMILES IDX 45 79 46 80 50 81 53 82 47 83 48 84 51 85 49 86
REMARK H PARENT 10 5 5 15 14 20 73 39 41 50
REMARK Flexibility Score: inf
ROOT
ATOM      1  C   UNL A   1      31.478  30.809  25.946  1.00  0.00     0.117 C 
ENDROOT
BRANCH   1   2
ATOM      2  N   UNL A   1      31.856  29.863  26.974  1.00  0.00    -0.356 N 
ATOM      3  C   UNL A   1      31.720  28.507  27.006  1.00  0.00     0.226 C 
ATOM      4  O   UNL A   1      31.338  28.011  28.068  1.00  0.00    -0.274 OA
ATOM      5  H   UNL A   1      32.274  30.260  27.772  1.00  0.00     0.163 HD
BRANCH   3   6
ATOM      6  C   UNL A   1      32.171  27.584  25.897  1.00  0.00     0.052 C 
ATOM      7  C   UNL A   1      33.229  26.515  26.092  1.00  0.00     0.018 C 
ATOM      8  C   UNL A   1      33.568  27.760  25.324  1.00  0.00     0.018 C 
BRANCH   6   9
ATOM      9  C   UNL A   1      31.060  27.225  24.892  1.00  0.00     0.051 C 
BRANCH   9  10
ATOM     10  C   UNL A   1      30.574  25.763  25.006  1.00  0.00     0.141 C 
BRANCH  10  11
ATOM     11  C   UNL A   1      30.234  25.153  23.632  1.00  0.00     0.191 C 
BRANCH  11  12
ATOM     12  O   UNL A   1      31.002  23.994  23.288  1.00  0.00    -0.382 OA
ATOM     13  C   UNL A   1      31.829  23.508  24.337  1.00  0.00     0.195 C 
ENDBRANCH  11  12
ENDBRANCH  10  11
BRANCH  10  14
ATOM     14  O   UNL A   1      29.443  25.603  25.868  1.00  0.00    -0.391 OA
ATOM     15  H   UNL A   1      29.097  24.701  25.782  1.00  0.00     0.211 HD
ENDBRANCH  10  14
ENDBRANCH   9  10
ENDBRANCH   6   9
ENDBRANCH   3   6
ENDBRANCH   1   2
BRANCH   1  16
ATOM     16  C   UNL A   1      31.272  32.209  26.526  1.00  0.00     0.042 C 
BRANCH  16  17
ATOM     17  C   UNL A   1      32.493  32.800  27.230  1.00  0.00     0.118 C 
BRANCH  17  18
ATOM     18  N   UNL A   1      32.309  34.188  27.626  1.00  0.00    -0.352 N 
ATOM     19  C   UNL A   1      32.956  34.937  28.575  1.00  0.00     0.251 C 
ATOM     20  H   UNL A   1      31.604  34.667  27.133  1.00  0.00     0.163 HD
ATOM     21  O   UNL A   1      32.538  36.058  28.853  1.00  0.00    -0.269 OA
BRANCH  19  22
ATOM     22  C   UNL A   1      34.137  34.404  29.289  1.00  0.00     0.039 A 
ATOM     23  C   UNL A   1      33.940  33.775  30.522  1.00  0.00     0.014 A 
ATOM     24  C   UNL A   1      35.429  34.549  28.778  1.00  0.00     0.014 A 
ATOM     25  C   UNL A   1      35.027  33.232  31.210  1.00  0.00     0.010 A 
ATOM     26  C   UNL A   1      36.507  33.954  29.434  1.00  0.00     0.010 A 
ATOM     27  C   UNL A   1      36.315  33.289  30.655  1.00  0.00    -0.014 A 
BRANCH  27  28
ATOM     28  C   UNL A   1      37.464  32.638  31.331  1.00  0.00     0.031 A 
ATOM     29  C   UNL A   1      38.180  31.487  30.685  1.00  0.00     0.074 A 
ATOM     30  C   UNL A   1      37.819  33.041  32.564  1.00  0.00     0.049 A 
ATOM     31  N   UNL A   1      39.169  30.764  31.146  1.00  0.00    -0.248 NA
ATOM     32  C   UNL A   1      37.702  31.078  29.356  1.00  0.00     0.031 C 
ATOM     33  C   UNL A   1      37.162  34.105  33.327  1.00  0.00     0.029 A 
ATOM     34  N   UNL A   1      38.810  32.595  33.401  1.00  0.00    -0.354 N 
ATOM     35  C   UNL A   1      39.419  29.804  30.175  1.00  0.00     0.074 A 
ATOM     36  C   UNL A   1      38.452  30.012  29.118  1.00  0.00     0.031 C 
ATOM     37  C   UNL A   1      37.772  34.234  34.515  1.00  0.00     0.029 A 
ATOM     38  C   UNL A   1      38.847  33.250  34.607  1.00  0.00     0.049 A 
ATOM     39  H   UNL A   1      39.435  31.873  33.161  1.00  0.00     0.167 HD
ATOM     40  C   UNL A   1      40.379  28.848  30.159  1.00  0.00     0.037 A 
ATOM     41  C   UNL A   1      39.653  33.074  35.671  1.00  0.00     0.037 A 
ATOM     42  C   UNL A   1      41.360  28.662  31.197  1.00  0.00     0.049 A 
ATOM     43  C   UNL A   1      40.735  32.034  35.616  1.00  0.00     0.074 A 
ATOM     44  C   UNL A   1      42.427  27.782  31.229  1.00  0.00     0.029 A 
ATOM     45  N   UNL A   1      41.390  29.370  32.389  1.00  0.00    -0.354 N 
ATOM     46  N   UNL A   1      41.015  31.186  34.658  1.00  0.00    -0.248 NA
ATOM     47  C   UNL A   1      41.619  31.936  36.785  1.00  0.00     0.031 C 
ATOM     48  C   UNL A   1      43.083  27.932  32.458  1.00  0.00     0.029 A 
ATOM     49  C   UNL A   1      42.444  28.931  33.175  1.00  0.00     0.049 A 
ATOM     50  H   UNL A   1      40.756  30.080  32.640  1.00  0.00     0.167 HD
ATOM     51  C   UNL A   1      42.110  30.458  35.101  1.00  0.00     0.074 A 
ATOM     52  C   UNL A   1      42.456  30.978  36.408  1.00  0.00     0.031 C 
ATOM     53  C   UNL A   1      42.767  29.449  34.480  1.00  0.00     0.037 A 
BRANCH  40  54
ATOM     54  C   UNL A   1      40.412  27.929  28.975  1.00  0.00     0.064 A 
ATOM     55  C   UNL A   1      39.690  26.726  28.959  1.00  0.00     0.173 A 
ATOM     56  C   UNL A   1      41.164  28.260  27.838  1.00  0.00     0.173 A 
ATOM     57  F   UNL A   1      38.965  26.360  30.027  1.00  0.00    -0.203 F 
ATOM     58  C   UNL A   1      39.747  25.872  27.861  1.00  0.00     0.198 A 
ATOM     59  C   UNL A   1      41.198  27.415  26.732  1.00  0.00     0.198 A 
ATOM     60  F   UNL A   1      41.868  29.400  27.802  1.00  0.00    -0.203 F 
ATOM     61  F   UNL A   1      39.090  24.704  27.888  1.00  0.00    -0.200 F 
ATOM     62  C   UNL A   1      40.497  26.218  26.748  1.00  0.00     0.200 A 
ATOM     63  F   UNL A   1      41.917  27.755  25.653  1.00  0.00    -0.200 F 
ATOM     64  F   UNL A   1      40.553  25.394  25.693  1.00  0.00    -0.200 F 
ENDBRANCH  40  54
BRANCH  41  65
ATOM     65  C   UNL A   1      39.474  33.933  36.866  1.00  0.00     0.064 A 
ATOM     66  C   UNL A   1      38.741  33.482  37.972  1.00  0.00     0.173 A 
ATOM     67  C   UNL A   1      40.067  35.202  36.944  1.00  0.00     0.173 A 
ATOM     68  F   UNL A   1      38.143  32.282  37.932  1.00  0.00    -0.203 F 
ATOM     69  C   UNL A   1      38.603  34.270  39.111  1.00  0.00     0.198 A 
ATOM     70  C   UNL A   1      39.944  35.981  38.091  1.00  0.00     0.198 A 
ATOM     71  F   UNL A   1      40.783  35.673  35.913  1.00  0.00    -0.203 F 
ATOM     72  F   UNL A   1      37.879  33.825  40.147  1.00  0.00    -0.200 F 
ATOM     73  C   UNL A   1      39.210  35.516  39.173  1.00  0.00     0.200 A 
ATOM     74  F   UNL A   1      40.543  37.179  38.154  1.00  0.00    -0.200 F 
ATOM     75  F   UNL A   1      39.088  36.269  40.275  1.00  0.00    -0.200 F 
ENDBRANCH  41  65
BRANCH  53  76
ATOM     76  C   UNL A   1      43.929  28.842  35.208  1.00  0.00     0.064 A 
ATOM     77  C   UNL A   1      45.236  29.316  35.021  1.00  0.00     0.173 A 
ATOM     78  C   UNL A   1      43.731  27.799  36.124  1.00  0.00     0.173 A 
ATOM     79  F   UNL A   1      45.475  30.301  34.143  1.00  0.00    -0.203 F 
ATOM     80  C   UNL A   1      46.305  28.753  35.711  1.00  0.00     0.198 A 
ATOM     81  C   UNL A   1      44.800  27.253  36.829  1.00  0.00     0.198 A 
ATOM     82  F   UNL A   1      42.499  27.313  36.339  1.00  0.00    -0.203 F 
ATOM     83  F   UNL A   1      47.550  29.196  35.489  1.00  0.00    -0.200 F 
ATOM     84  C   UNL A   1      46.087  27.727  36.618  1.00  0.00     0.200 A 
ATOM     85  F   UNL A   1      44.586  26.266  37.710  1.00  0.00    -0.200 F 
ATOM     86  F   UNL A   1      47.117  27.189  37.284  1.00  0.00    -0.200 F 
ENDBRANCH  53  76
ENDBRANCH  27  28
ENDBRANCH  19  22
ENDBRANCH  17  18
ENDBRANCH  16  17
ENDBRANCH   1  16
TORSDOF 15
ENDMDL
MODEL 3
REMARK VINA RESULT:     -10.7      5.600     10.431
REMARK SMILES COC[C@H](O)CC1(C(=O)NCCCNC(=O)c2ccc(-c3c4nc(c(-c5c(F)c(F)c(F)c(F)c5F)c5ccc([nH]5)c(-c5c(F)c(F)c(F)c(F)c5F)c5nc(c(-c6c(F)c(F)c(F)c(F)c6F)c6ccc3[nH]6)C=C5)C=C4)cc2)CC1
REMARK SMILES IDX 11 1 10 2 8 3 9 4 7 6 80 7 81 8 6 9 4 10 3 11 2 12 1 13 5 14
REMARK SMILES IDX 12 16 13 17 14 18 15 19 16 21 17 22 18 23 79 24 19 25 78 26
REMARK SMILES IDX 20 27 21 28 22 29 72 30 23 31 77 32 71 33 73 34 24 35 76 36
REMARK SMILES IDX 70 37 69 38 25 40 57 41 37 42 56 43 38 44 41 45 55 46 74 47
REMARK SMILES IDX 39 48 40 49 54 51 75 52 42 53 26 54 27 55 35 56 28 57 29 58
REMARK SMILES IDX 33 59 36 60 30 61 31 62 34 63 32 64 58 65 59 66 67 67 60 68
REMARK SMILES IDX 61 69 65 70 68 71 62 72 63 73 66 74 64 75 43 76 44 77 52 78
REMARK SMILES IDX 45 79 46 80 50 81 53 82 47 83 48 84 51 85 49 86
REMARK H PARENT 10 5 5 15 14 20 73 39 41 50
REMARK Flexibility Score: inf
ROOT
ATOM      1  C   UNL A   1      33.889  35.139  29.539  1.00  0.00     0.117 C 
ENDROOT
BRANCH   1   2
ATOM      2  N   UNL A   1      32.870  35.343  30.547  1.00  0.00    -0.356 N 
ATOM      3  C   UNL A   1      32.968  35.315  31.906  1.00  0.00     0.226 C 
ATOM      4  O   UNL A   1      32.065  34.738  32.517  1.00  0.00    -0.274 OA
ATOM      5  H   UNL A   1      31.969  35.529  30.196  1.00  0.00     0.163 HD
BRANCH   3   6
ATOM      6  C   UNL A   1      33.998  36.087  32.697  1.00  0.00     0.052 C 
ATOM      7  C   UNL A   1      33.633  37.055  33.806  1.00  0.00     0.018 C 
ATOM      8  C   UNL A   1      34.107  37.589  32.484  1.00  0.00     0.018 C 
BRANCH   6   9
ATOM      9  C   UNL A   1      35.323  35.328  32.906  1.00  0.00     0.051 C 
BRANCH   9  10
ATOM     10  C   UNL A   1      35.388  34.559  34.243  1.00  0.00     0.141 C 
BRANCH  10  11
ATOM     11  C   UNL A   1      36.776  33.935  34.490  1.00  0.00     0.191 C 
BRANCH  11  12
ATOM     12  O   UNL A   1      36.746  32.625  35.069  1.00  0.00    -0.382 OA
ATOM     13  C   UNL A   1      37.930  31.866  34.858  1.00  0.00     0.195 C 
ENDBRANCH  11  12
ENDBRANCH  10  11
BRANCH  10  14
ATOM     14  O   UNL A   1      34.400  33.529  34.358  1.00  0.00    -0.391 OA
ATOM     15  H   UNL A   1      33.731  33.644  33.665  1.00  0.00     0.211 HD
ENDBRANCH  10  14
ENDBRANCH   9  10
ENDBRANCH   6   9
ENDBRANCH   3   6
ENDBRANCH   1   2
BRANCH   1  16
ATOM     16  C   UNL A   1      34.536  33.760  29.674  1.00  0.00     0.042 C 
BRANCH  16  17
ATOM     17  C   UNL A   1      34.966  33.119  28.354  1.00  0.00     0.118 C 
BRANCH  17  18
ATOM     18  N   UNL A   1      34.146  31.978  27.978  1.00  0.00    -0.352 N 
ATOM     19  C   UNL A   1      34.474  30.654  27.835  1.00  0.00     0.251 C 
ATOM     20  H   UNL A   1      33.203  32.190  27.797  1.00  0.00     0.163 HD
ATOM     21  O   UNL A   1      33.653  29.873  27.360  1.00  0.00    -0.269 OA
BRANCH  19  22
ATOM     22  C   UNL A   1      35.813  30.156  28.218  1.00  0.00     0.039 A 
ATOM     23  C   UNL A   1      36.822  30.151  27.250  1.00  0.00     0.014 A 
ATOM     24  C   UNL A   1      36.073  29.665  29.499  1.00  0.00     0.014 A 
ATOM     25  C   UNL A   1      38.107  29.718  27.584  1.00  0.00     0.010 A 
ATOM     26  C   UNL A   1      37.370  29.290  29.850  1.00  0.00     0.010 A 
ATOM     27  C   UNL A   1      38.399  29.315  28.896  1.00  0.00    -0.014 A 
BRANCH  27  28
ATOM     28  C   UNL A   1      39.779  28.938  29.287  1.00  0.00     0.031 A 
ATOM     29  C   UNL A   1      40.622  29.868  30.110  1.00  0.00     0.074 A 
ATOM     30  C   UNL A   1      40.300  27.781  28.839  1.00  0.00     0.049 A 
ATOM     31  N   UNL A   1      41.863  29.731  30.504  1.00  0.00    -0.248 NA
ATOM     32  C   UNL A   1      39.996  31.133  30.523  1.00  0.00     0.031 C 
ATOM     33  C   UNL A   1      39.606  26.821  27.978  1.00  0.00     0.029 A 
ATOM     34  N   UNL A   1      41.538  27.223  29.030  1.00  0.00    -0.354 N 
ATOM     35  C   UNL A   1      42.173  30.897  31.191  1.00  0.00     0.074 A 
ATOM     36  C   UNL A   1      41.002  31.746  31.128  1.00  0.00     0.031 C 
ATOM     37  C   UNL A   1      40.426  25.789  27.723  1.00  0.00     0.029 A 
ATOM     38  C   UNL A   1      41.707  26.025  28.383  1.00  0.00     0.049 A 
ATOM     39  H   UNL A   1      42.240  27.642  29.580  1.00  0.00     0.167 HD
ATOM     40  C   UNL A   1      43.321  31.220  31.833  1.00  0.00     0.037 A 
ATOM     41  C   UNL A   1      42.776  25.208  28.321  1.00  0.00     0.037 A 
ATOM     42  C   UNL A   1      44.473  30.362  31.922  1.00  0.00     0.049 A 
ATOM     43  C   UNL A   1      44.026  25.570  29.072  1.00  0.00     0.074 A 
ATOM     44  C   UNL A   1      45.649  30.563  32.625  1.00  0.00     0.029 A 
ATOM     45  N   UNL A   1      44.595  29.137  31.283  1.00  0.00    -0.354 N 
ATOM     46  N   UNL A   1      44.279  26.637  29.788  1.00  0.00    -0.248 NA
ATOM     47  C   UNL A   1      45.134  24.607  29.014  1.00  0.00     0.031 C 
ATOM     48  C   UNL A   1      46.496  29.475  32.383  1.00  0.00     0.029 A 
ATOM     49  C   UNL A   1      45.835  28.581  31.556  1.00  0.00     0.049 A 
ATOM     50  H   UNL A   1      43.903  28.724  30.719  1.00  0.00     0.167 HD
ATOM     51  C   UNL A   1      45.568  26.475  30.273  1.00  0.00     0.074 A 
ATOM     52  C   UNL A   1      46.039  25.194  29.785  1.00  0.00     0.031 C 
ATOM     53  C   UNL A   1      46.295  27.312  31.052  1.00  0.00     0.037 A 
BRANCH  40  54
ATOM     54  C   UNL A   1      43.383  32.567  32.490  1.00  0.00     0.064 A 
ATOM     55  C   UNL A   1      43.855  33.698  31.807  1.00  0.00     0.173 A 
ATOM     56  C   UNL A   1      42.954  32.731  33.816  1.00  0.00     0.173 A 
ATOM     57  F   UNL A   1      44.288  33.589  30.541  1.00  0.00    -0.203 F 
ATOM     58  C   UNL A   1      43.927  34.937  32.438  1.00  0.00     0.198 A 
ATOM     59  C   UNL A   1      43.003  33.977  34.435  1.00  0.00     0.198 A 
ATOM     60  F   UNL A   1      42.489  31.683  34.511  1.00  0.00    -0.203 F 
ATOM     61  F   UNL A   1      44.429  35.992  31.781  1.00  0.00    -0.200 F 
ATOM     62  C   UNL A   1      43.499  35.077  33.748  1.00  0.00     0.200 A 
ATOM     63  F   UNL A   1      42.581  34.114  35.699  1.00  0.00    -0.200 F 
ATOM     64  F   UNL A   1      43.571  36.270  34.354  1.00  0.00    -0.200 F 
ENDBRANCH  40  54
BRANCH  41  65
ATOM     65  C   UNL A   1      42.687  23.954  27.537  1.00  0.00     0.064 A 
ATOM     66  C   UNL A   1      43.060  23.923  26.187  1.00  0.00     0.173 A 
ATOM     67  C   UNL A   1      42.269  22.755  28.131  1.00  0.00     0.173 A 
ATOM     68  F   UNL A   1      43.450  25.052  25.575  1.00  0.00    -0.203 F 
ATOM     69  C   UNL A   1      43.014  22.739  25.457  1.00  0.00     0.198 A 
ATOM     70  C   UNL A   1      42.242  21.567  27.405  1.00  0.00     0.198 A 
ATOM     71  F   UNL A   1      41.909  22.734  29.422  1.00  0.00    -0.203 F 
ATOM     72  F   UNL A   1      43.356  22.739  24.161  1.00  0.00    -0.200 F 
ATOM     73  C   UNL A   1      42.613  21.560  26.067  1.00  0.00     0.200 A 
ATOM     74  F   UNL A   1      41.867  20.427  28.001  1.00  0.00    -0.200 F 
ATOM     75  F   UNL A   1      42.581  20.417  25.368  1.00  0.00    -0.200 F 
ENDBRANCH  41  65
BRANCH  53  76
ATOM     76  C   UNL A   1      47.677  26.868  31.425  1.00  0.00     0.064 A 
ATOM     77  C   UNL A   1      47.900  26.017  32.517  1.00  0.00     0.173 A 
ATOM     78  C   UNL A   1      48.786  27.271  30.666  1.00  0.00     0.173 A 
ATOM     79  F   UNL A   1      46.873  25.619  33.282  1.00  0.00    -0.203 F 
ATOM     80  C   UNL A   1      49.187  25.601  32.848  1.00  0.00     0.198 A 
ATOM     81  C   UNL A   1      50.069  26.836  30.987  1.00  0.00     0.198 A 
ATOM     82  F   UNL A   1      48.623  28.083  29.610  1.00  0.00    -0.203 F 
ATOM     83  F   UNL A   1      49.381  24.819  33.918  1.00  0.00    -0.200 F 
ATOM     84  C   UNL A   1      50.269  26.005  32.080  1.00  0.00     0.200 A 
ATOM     85  F   UNL A   1      51.112  27.222  30.240  1.00  0.00    -0.200 F 
ATOM     86  F   UNL A   1      51.506  25.602  32.397  1.00  0.00    -0.200 F 
ENDBRANCH  53  76
ENDBRANCH  27  28
ENDBRANCH  19  22
ENDBRANCH  17  18
ENDBRANCH  16  17
ENDBRANCH   1  16
TORSDOF 15
ENDMDL
