MODEL 1
REMARK VINA RESULT:     -13.9      0.000      0.000
REMARK SMILES COc1ccc(/C=C/c2cc(C(=O)NCCCNC(=O)c3ccc(-c4c5nc(c(-c6c(F)c(F)c(F)c(F)c6F)c6ccc([nH]6)c(-c6c(F)c(F)c(F)c(F)c6F)c6nc(c(-c7c(F)c(F)c(F)c(F)c7F)c7ccc4[nH]7)C=C6)C=C5)cc3)c3ccccc3n2)c(OC)c1
REMARK SMILES IDX 15 1 14 2 12 3 13 4 11 6 9 7 10 8 90 9 89 10 84 11 88 12
REMARK SMILES IDX 85 13 87 14 86 15 8 16 7 17 6 18 3 19 4 20 94 21 5 22 91 23
REMARK SMILES IDX 2 24 1 25 92 26 93 27 16 28 17 29 18 30 19 31 20 33 21 34
REMARK SMILES IDX 22 35 83 36 23 37 82 38 24 39 25 40 26 41 76 42 27 43 81 44
REMARK SMILES IDX 75 45 77 46 28 47 80 48 74 49 73 50 29 52 61 53 41 54 60 55
REMARK SMILES IDX 42 56 45 57 59 58 78 59 43 60 44 61 58 63 79 64 46 65 30 66
REMARK SMILES IDX 31 67 39 68 32 69 33 70 37 71 40 72 34 73 35 74 38 75 36 76
REMARK SMILES IDX 62 77 63 78 71 79 64 80 65 81 69 82 72 83 66 84 67 85 70 86
REMARK SMILES IDX 68 87 47 88 48 89 56 90 49 91 50 92 54 93 57 94 51 95 52 96
REMARK SMILES IDX 55 97 53 98
REMARK H PARENT 14 5 18 32 77 51 45 62
REMARK Flexibility Score: inf
ROOT
ATOM      1  C   UNL A   1      31.865  30.563  26.672  1.00  0.00     0.118 C 
ENDROOT
BRANCH   1   2
ATOM      2  N   UNL A   1      32.100  30.317  25.260  1.00  0.00    -0.352 N 
ATOM      3  C   UNL A   1      32.758  29.249  24.705  1.00  0.00     0.252 C 
ATOM      4  O   UNL A   1      33.489  29.404  23.738  1.00  0.00    -0.269 OA
ATOM      5  H   UNL A   1      31.748  30.989  24.633  1.00  0.00     0.163 HD
BRANCH   3   6
ATOM      6  C   UNL A   1      32.385  27.908  25.183  1.00  0.00     0.051 A 
ATOM      7  C   UNL A   1      32.823  25.830  26.159  1.00  0.00     0.065 A 
ATOM      8  C   UNL A   1      33.324  27.048  25.745  1.00  0.00     0.042 A 
ATOM      9  N   UNL A   1      31.516  25.691  26.468  1.00  0.00    -0.248 NA
ATOM     10  C   UNL A   1      30.679  26.313  25.643  1.00  0.00     0.072 A 
ATOM     11  C   UNL A   1      31.091  27.420  24.893  1.00  0.00     0.013 A 
ATOM     12  C   UNL A   1      29.466  25.704  25.376  1.00  0.00     0.029 A 
ATOM     13  C   UNL A   1      30.278  27.849  23.817  1.00  0.00     0.011 A 
ATOM     14  C   UNL A   1      28.710  26.079  24.269  1.00  0.00     0.002 A 
ATOM     15  C   UNL A   1      29.126  27.142  23.477  1.00  0.00     0.001 A 
BRANCH   7  16
ATOM     16  C   UNL A   1      33.260  24.565  25.495  1.00  0.00     0.029 C 
ATOM     17  C   UNL A   1      33.962  23.728  26.300  1.00  0.00     0.014 C 
BRANCH  17  18
ATOM     18  C   UNL A   1      35.248  23.048  25.988  1.00  0.00     0.017 A 
ATOM     19  C   UNL A   1      37.703  21.722  25.535  1.00  0.00     0.122 A 
ATOM     20  C   UNL A   1      37.678  23.086  25.803  1.00  0.00     0.047 A 
ATOM     21  C   UNL A   1      36.516  20.995  25.560  1.00  0.00     0.093 A 
ATOM     22  C   UNL A   1      36.463  23.746  26.010  1.00  0.00     0.016 A 
ATOM     23  C   UNL A   1      35.293  21.637  25.806  1.00  0.00     0.129 A 
BRANCH  19  24
ATOM     24  O   UNL A   1      38.936  21.176  25.296  1.00  0.00    -0.497 OA
ATOM     25  C   UNL A   1      39.934  21.533  26.249  1.00  0.00     0.278 C 
ENDBRANCH  19  24
BRANCH  23  26
ATOM     26  O   UNL A   1      34.107  20.938  25.891  1.00  0.00    -0.496 OA
ATOM     27  C   UNL A   1      33.755  20.119  24.775  1.00  0.00     0.278 C 
ENDBRANCH  23  26
ENDBRANCH  17  18
ENDBRANCH   7  16
ENDBRANCH   3   6
ENDBRANCH   1   2
BRANCH   1  28
ATOM     28  C   UNL A   1      31.591  32.053  26.883  1.00  0.00     0.042 C 
BRANCH  28  29
ATOM     29  C   UNL A   1      32.798  32.814  27.436  1.00  0.00     0.118 C 
BRANCH  29  30
ATOM     30  N   UNL A   1      32.491  34.217  27.697  1.00  0.00    -0.352 N 
ATOM     31  C   UNL A   1      32.996  35.052  28.663  1.00  0.00     0.251 C 
ATOM     32  H   UNL A   1      31.827  34.622  27.094  1.00  0.00     0.163 HD
ATOM     33  O   UNL A   1      32.456  36.122  28.906  1.00  0.00    -0.269 OA
BRANCH  31  34
ATOM     34  C   UNL A   1      34.191  34.634  29.421  1.00  0.00     0.039 A 
ATOM     35  C   UNL A   1      34.045  34.214  30.744  1.00  0.00     0.014 A 
ATOM     36  C   UNL A   1      35.448  34.640  28.811  1.00  0.00     0.014 A 
ATOM     37  C   UNL A   1      35.153  33.714  31.430  1.00  0.00     0.010 A 
ATOM     38  C   UNL A   1      36.532  34.074  29.468  1.00  0.00     0.010 A 
ATOM     39  C   UNL A   1      36.392  33.592  30.779  1.00  0.00    -0.014 A 
BRANCH  39  40
ATOM     40  C   UNL A   1      37.546  32.921  31.427  1.00  0.00     0.031 A 
ATOM     41  C   UNL A   1      38.173  31.716  30.789  1.00  0.00     0.074 A 
ATOM     42  C   UNL A   1      37.957  33.344  32.638  1.00  0.00     0.049 A 
ATOM     43  N   UNL A   1      39.103  30.922  31.256  1.00  0.00    -0.248 NA
ATOM     44  C   UNL A   1      37.670  31.336  29.459  1.00  0.00     0.031 C 
ATOM     45  C   UNL A   1      37.394  34.478  33.373  1.00  0.00     0.029 A 
ATOM     46  N   UNL A   1      38.929  32.857  33.475  1.00  0.00    -0.354 N 
ATOM     47  C   UNL A   1      39.288  29.947  30.286  1.00  0.00     0.074 A 
ATOM     48  C   UNL A   1      38.339  30.216  29.227  1.00  0.00     0.031 C 
ATOM     49  C   UNL A   1      38.037  34.607  34.544  1.00  0.00     0.029 A 
ATOM     50  C   UNL A   1      39.020  33.536  34.666  1.00  0.00     0.049 A 
ATOM     51  H   UNL A   1      39.506  32.092  33.245  1.00  0.00     0.167 HD
ATOM     52  C   UNL A   1      40.181  28.930  30.276  1.00  0.00     0.037 A 
ATOM     53  C   UNL A   1      39.790  33.304  35.746  1.00  0.00     0.037 A 
ATOM     54  C   UNL A   1      41.128  28.678  31.331  1.00  0.00     0.049 A 
ATOM     55  C   UNL A   1      40.742  32.138  35.727  1.00  0.00     0.074 A 
ATOM     56  C   UNL A   1      42.122  27.716  31.386  1.00  0.00     0.029 A 
ATOM     57  N   UNL A   1      41.189  29.384  32.524  1.00  0.00    -0.354 N 
ATOM     58  N   UNL A   1      40.966  31.269  34.771  1.00  0.00    -0.248 NA
ATOM     59  C   UNL A   1      41.544  31.918  36.938  1.00  0.00     0.031 C 
ATOM     60  C   UNL A   1      42.742  27.801  32.637  1.00  0.00     0.029 A 
ATOM     61  C   UNL A   1      42.174  28.852  33.339  1.00  0.00     0.049 A 
ATOM     62  H   UNL A   1      40.616  30.152  32.755  1.00  0.00     0.167 HD
ATOM     63  C   UNL A   1      41.943  30.412  35.256  1.00  0.00     0.074 A 
ATOM     64  C   UNL A   1      42.287  30.880  36.582  1.00  0.00     0.031 C 
ATOM     65  C   UNL A   1      42.499  29.328  34.661  1.00  0.00     0.037 A 
BRANCH  52  66
ATOM     66  C   UNL A   1      40.178  28.008  29.089  1.00  0.00     0.064 A 
ATOM     67  C   UNL A   1      40.888  28.310  27.918  1.00  0.00     0.173 A 
ATOM     68  C   UNL A   1      39.491  26.785  29.141  1.00  0.00     0.173 A 
ATOM     69  F   UNL A   1      41.554  29.470  27.812  1.00  0.00    -0.203 F 
ATOM     70  C   UNL A   1      40.888  27.437  26.834  1.00  0.00     0.198 A 
ATOM     71  C   UNL A   1      39.520  25.899  28.067  1.00  0.00     0.198 A 
ATOM     72  F   UNL A   1      38.800  26.442  30.239  1.00  0.00    -0.203 F 
ATOM     73  F   UNL A   1      41.534  27.770  25.707  1.00  0.00    -0.200 F 
ATOM     74  C   UNL A   1      40.212  26.229  26.912  1.00  0.00     0.200 A 
ATOM     75  F   UNL A   1      38.878  24.726  28.151  1.00  0.00    -0.200 F 
ATOM     76  F   UNL A   1      40.222  25.386  25.871  1.00  0.00    -0.200 F 
ENDBRANCH  52  66
BRANCH  53  77
ATOM     77  C   UNL A   1      39.687  34.188  36.938  1.00  0.00     0.064 A 
ATOM     78  C   UNL A   1      40.392  35.399  36.999  1.00  0.00     0.173 A 
ATOM     79  C   UNL A   1      38.891  33.842  38.040  1.00  0.00     0.173 A 
ATOM     80  F   UNL A   1      41.183  35.764  35.979  1.00  0.00    -0.203 F 
ATOM     81  C   UNL A   1      40.320  36.218  38.123  1.00  0.00     0.198 A 
ATOM     82  C   UNL A   1      38.795  34.678  39.150  1.00  0.00     0.198 A 
ATOM     83  F   UNL A   1      38.193  32.696  38.032  1.00  0.00    -0.203 F 
ATOM     84  F   UNL A   1      41.042  37.345  38.175  1.00  0.00    -0.200 F 
ATOM     85  C   UNL A   1      39.517  35.860  39.195  1.00  0.00     0.200 A 
ATOM     86  F   UNL A   1      38.004  34.336  40.177  1.00  0.00    -0.200 F 
ATOM     87  F   UNL A   1      39.444  36.652  40.274  1.00  0.00    -0.200 F 
ENDBRANCH  53  77
BRANCH  65  88
ATOM     88  C   UNL A   1      43.543  28.577  35.434  1.00  0.00     0.064 A 
ATOM     89  C   UNL A   1      43.195  27.575  36.351  1.00  0.00     0.173 A 
ATOM     90  C   UNL A   1      44.908  28.824  35.218  1.00  0.00     0.173 A 
ATOM     91  F   UNL A   1      41.904  27.313  36.607  1.00  0.00    -0.203 F 
ATOM     92  C   UNL A   1      44.172  26.860  37.037  1.00  0.00     0.198 A 
ATOM     93  C   UNL A   1      45.883  28.085  35.881  1.00  0.00     0.198 A 
ATOM     94  F   UNL A   1      45.295  29.769  34.349  1.00  0.00    -0.203 F 
ATOM     95  F   UNL A   1      43.815  25.936  37.941  1.00  0.00    -0.200 F 
ATOM     96  C   UNL A   1      45.516  27.107  36.794  1.00  0.00     0.200 A 
ATOM     97  F   UNL A   1      47.180  28.314  35.633  1.00  0.00    -0.200 F 
ATOM     98  F   UNL A   1      46.455  26.408  37.444  1.00  0.00    -0.200 F 
ENDBRANCH  65  88
ENDBRANCH  39  40
ENDBRANCH  31  34
ENDBRANCH  29  30
ENDBRANCH  28  29
ENDBRANCH   1  28
TORSDOF 14
ENDMDL
MODEL 2
REMARK VINA RESULT:     -13.8      0.862      1.601
REMARK SMILES COc1ccc(/C=C/c2cc(C(=O)NCCCNC(=O)c3ccc(-c4c5nc(c(-c6c(F)c(F)c(F)c(F)c6F)c6ccc([nH]6)c(-c6c(F)c(F)c(F)c(F)c6F)c6nc(c(-c7c(F)c(F)c(F)c(F)c7F)c7ccc4[nH]7)C=C6)C=C5)cc3)c3ccccc3n2)c(OC)c1
REMARK SMILES IDX 15 1 14 2 12 3 13 4 11 6 9 7 10 8 90 9 89 10 84 11 88 12
REMARK SMILES IDX 85 13 87 14 86 15 8 16 7 17 6 18 3 19 4 20 94 21 5 22 91 23
REMARK SMILES IDX 2 24 1 25 92 26 93 27 16 28 17 29 18 30 19 31 20 33 21 34
REMARK SMILES IDX 22 35 83 36 23 37 82 38 24 39 25 40 26 41 76 42 27 43 81 44
REMARK SMILES IDX 75 45 77 46 28 47 80 48 74 49 73 50 29 52 61 53 41 54 60 55
REMARK SMILES IDX 42 56 45 57 59 58 78 59 43 60 44 61 58 63 79 64 46 65 30 66
REMARK SMILES IDX 31 67 39 68 32 69 33 70 37 71 40 72 34 73 35 74 38 75 36 76
REMARK SMILES IDX 62 77 63 78 71 79 64 80 65 81 69 82 72 83 66 84 67 85 70 86
REMARK SMILES IDX 68 87 47 88 48 89 56 90 49 91 50 92 54 93 57 94 51 95 52 96
REMARK SMILES IDX 55 97 53 98
REMARK H PARENT 14 5 18 32 77 51 45 62
REMARK Flexibility Score: inf
ROOT
ATOM      1  C   UNL A   1      31.766  30.441  26.680  1.00  0.00     0.118 C 
ENDROOT
BRANCH   1   2
ATOM      2  N   UNL A   1      33.150  30.069  26.445  1.00  0.00    -0.352 N 
ATOM      3  C   UNL A   1      33.694  28.812  26.524  1.00  0.00     0.252 C 
ATOM      4  O   UNL A   1      34.812  28.647  26.990  1.00  0.00    -0.269 OA
ATOM      5  H   UNL A   1      33.765  30.798  26.201  1.00  0.00     0.163 HD
BRANCH   3   6
ATOM      6  C   UNL A   1      32.974  27.725  25.843  1.00  0.00     0.051 A 
ATOM      7  C   UNL A   1      31.779  25.717  25.776  1.00  0.00     0.065 A 
ATOM      8  C   UNL A   1      32.438  26.651  26.549  1.00  0.00     0.042 A 
ATOM      9  N   UNL A   1      31.261  26.056  24.576  1.00  0.00    -0.248 NA
ATOM     10  C   UNL A   1      32.034  26.848  23.839  1.00  0.00     0.072 A 
ATOM     11  C   UNL A   1      32.992  27.679  24.431  1.00  0.00     0.013 A 
ATOM     12  C   UNL A   1      32.024  26.663  22.468  1.00  0.00     0.029 A 
ATOM     13  C   UNL A   1      33.985  28.259  23.607  1.00  0.00     0.011 A 
ATOM     14  C   UNL A   1      33.048  27.172  21.674  1.00  0.00     0.002 A 
ATOM     15  C   UNL A   1      34.041  27.956  22.248  1.00  0.00     0.001 A 
BRANCH   7  16
ATOM     16  C   UNL A   1      32.307  24.325  25.655  1.00  0.00     0.029 C 
ATOM     17  C   UNL A   1      33.358  24.055  26.470  1.00  0.00     0.014 C 
BRANCH  17  18
ATOM     18  C   UNL A   1      34.643  23.405  26.096  1.00  0.00     0.017 A 
ATOM     19  C   UNL A   1      37.118  22.163  25.528  1.00  0.00     0.122 A 
ATOM     20  C   UNL A   1      37.016  23.549  25.558  1.00  0.00     0.047 A 
ATOM     21  C   UNL A   1      36.008  21.385  25.849  1.00  0.00     0.093 A 
ATOM     22  C   UNL A   1      35.789  24.164  25.823  1.00  0.00     0.016 A 
ATOM     23  C   UNL A   1      34.780  21.990  26.155  1.00  0.00     0.129 A 
BRANCH  19  24
ATOM     24  O   UNL A   1      38.348  21.654  25.211  1.00  0.00    -0.497 OA
ATOM     25  C   UNL A   1      39.367  21.934  26.169  1.00  0.00     0.278 C 
ENDBRANCH  19  24
BRANCH  23  26
ATOM     26  O   UNL A   1      33.677  21.250  26.530  1.00  0.00    -0.496 OA
ATOM     27  C   UNL A   1      33.019  20.503  25.507  1.00  0.00     0.278 C 
ENDBRANCH  23  26
ENDBRANCH  17  18
ENDBRANCH   7  16
ENDBRANCH   3   6
ENDBRANCH   1   2
BRANCH   1  28
ATOM     28  C   UNL A   1      31.646  31.966  26.662  1.00  0.00     0.042 C 
BRANCH  28  29
ATOM     29  C   UNL A   1      32.761  32.667  27.441  1.00  0.00     0.118 C 
BRANCH  29  30
ATOM     30  N   UNL A   1      32.472  34.079  27.665  1.00  0.00    -0.352 N 
ATOM     31  C   UNL A   1      32.986  34.932  28.610  1.00  0.00     0.251 C 
ATOM     32  H   UNL A   1      31.813  34.476  27.051  1.00  0.00     0.163 HD
ATOM     33  O   UNL A   1      32.459  36.015  28.824  1.00  0.00    -0.269 OA
BRANCH  31  34
ATOM     34  C   UNL A   1      34.176  34.520  29.379  1.00  0.00     0.039 A 
ATOM     35  C   UNL A   1      34.010  34.013  30.669  1.00  0.00     0.014 A 
ATOM     36  C   UNL A   1      35.448  34.616  28.810  1.00  0.00     0.014 A 
ATOM     37  C   UNL A   1      35.118  33.519  31.359  1.00  0.00     0.010 A 
ATOM     38  C   UNL A   1      36.537  34.056  29.467  1.00  0.00     0.010 A 
ATOM     39  C   UNL A   1      36.380  33.490  30.741  1.00  0.00    -0.014 A 
BRANCH  39  40
ATOM     40  C   UNL A   1      37.542  32.829  31.384  1.00  0.00     0.031 A 
ATOM     41  C   UNL A   1      38.177  31.629  30.745  1.00  0.00     0.074 A 
ATOM     42  C   UNL A   1      37.955  33.257  32.593  1.00  0.00     0.049 A 
ATOM     43  N   UNL A   1      39.115  30.844  31.208  1.00  0.00    -0.248 NA
ATOM     44  C   UNL A   1      37.670  31.243  29.418  1.00  0.00     0.031 C 
ATOM     45  C   UNL A   1      37.387  34.387  33.329  1.00  0.00     0.029 A 
ATOM     46  N   UNL A   1      38.935  32.779  33.426  1.00  0.00    -0.354 N 
ATOM     47  C   UNL A   1      39.304  29.868  30.238  1.00  0.00     0.074 A 
ATOM     48  C   UNL A   1      38.348  30.129  29.184  1.00  0.00     0.031 C 
ATOM     49  C   UNL A   1      38.034  34.523  34.497  1.00  0.00     0.029 A 
ATOM     50  C   UNL A   1      39.027  33.460  34.616  1.00  0.00     0.049 A 
ATOM     51  H   UNL A   1      39.518  32.019  33.194  1.00  0.00     0.167 HD
ATOM     52  C   UNL A   1      40.206  28.859  30.225  1.00  0.00     0.037 A 
ATOM     53  C   UNL A   1      39.804  33.237  35.692  1.00  0.00     0.037 A 
ATOM     54  C   UNL A   1      41.160  28.617  31.276  1.00  0.00     0.049 A 
ATOM     55  C   UNL A   1      40.766  32.079  35.670  1.00  0.00     0.074 A 
ATOM     56  C   UNL A   1      42.162  27.664  31.328  1.00  0.00     0.029 A 
ATOM     57  N   UNL A   1      41.220  29.325  32.468  1.00  0.00    -0.354 N 
ATOM     58  N   UNL A   1      40.992  31.211  34.714  1.00  0.00    -0.248 NA
ATOM     59  C   UNL A   1      41.575  31.867  36.877  1.00  0.00     0.031 C 
ATOM     60  C   UNL A   1      42.787  27.755  32.576  1.00  0.00     0.029 A 
ATOM     61  C   UNL A   1      42.215  28.802  33.279  1.00  0.00     0.049 A 
ATOM     62  H   UNL A   1      40.642  30.088  32.701  1.00  0.00     0.167 HD
ATOM     63  C   UNL A   1      41.979  30.363  35.195  1.00  0.00     0.074 A 
ATOM     64  C   UNL A   1      42.326  30.835  36.519  1.00  0.00     0.031 C 
ATOM     65  C   UNL A   1      42.542  29.283  34.599  1.00  0.00     0.037 A 
BRANCH  52  66
ATOM     66  C   UNL A   1      40.204  27.936  29.040  1.00  0.00     0.064 A 
ATOM     67  C   UNL A   1      40.932  28.227  27.877  1.00  0.00     0.173 A 
ATOM     68  C   UNL A   1      39.502  26.722  29.085  1.00  0.00     0.173 A 
ATOM     69  F   UNL A   1      41.614  29.379  27.777  1.00  0.00    -0.203 F 
ATOM     70  C   UNL A   1      40.934  27.353  26.794  1.00  0.00     0.198 A 
ATOM     71  C   UNL A   1      39.532  25.834  28.013  1.00  0.00     0.198 A 
ATOM     72  F   UNL A   1      38.794  26.389  30.176  1.00  0.00    -0.203 F 
ATOM     73  F   UNL A   1      41.597  27.676  25.674  1.00  0.00    -0.200 F 
ATOM     74  C   UNL A   1      40.241  26.154  26.865  1.00  0.00     0.200 A 
ATOM     75  F   UNL A   1      38.874  24.669  28.091  1.00  0.00    -0.200 F 
ATOM     76  F   UNL A   1      40.252  25.309  25.826  1.00  0.00    -0.200 F 
ENDBRANCH  52  66
BRANCH  53  77
ATOM     77  C   UNL A   1      39.700  34.122  36.883  1.00  0.00     0.064 A 
ATOM     78  C   UNL A   1      38.897  33.765  37.976  1.00  0.00     0.173 A 
ATOM     79  C   UNL A   1      40.393  35.340  36.953  1.00  0.00     0.173 A 
ATOM     80  F   UNL A   1      38.199  32.621  37.948  1.00  0.00    -0.203 F 
ATOM     81  C   UNL A   1      38.775  34.602  39.083  1.00  0.00     0.198 A 
ATOM     82  C   UNL A   1      40.295  36.160  38.075  1.00  0.00     0.198 A 
ATOM     83  F   UNL A   1      41.178  35.726  35.937  1.00  0.00    -0.203 F 
ATOM     84  F   UNL A   1      37.963  34.261  40.092  1.00  0.00    -0.200 F 
ATOM     85  C   UNL A   1      39.479  35.796  39.134  1.00  0.00     0.200 A 
ATOM     86  F   UNL A   1      40.991  37.305  38.128  1.00  0.00    -0.200 F 
ATOM     87  F   UNL A   1      39.366  36.598  40.202  1.00  0.00    -0.200 F 
ENDBRANCH  53  77
BRANCH  65  88
ATOM     88  C   UNL A   1      43.596  28.542  35.368  1.00  0.00     0.064 A 
ATOM     89  C   UNL A   1      43.261  27.525  36.274  1.00  0.00     0.173 A 
ATOM     90  C   UNL A   1      44.957  28.813  35.158  1.00  0.00     0.173 A 
ATOM     91  F   UNL A   1      41.974  27.240  36.523  1.00  0.00    -0.203 F 
ATOM     92  C   UNL A   1      44.249  26.820  36.956  1.00  0.00     0.198 A 
ATOM     93  C   UNL A   1      45.942  28.084  35.817  1.00  0.00     0.198 A 
ATOM     94  F   UNL A   1      45.331  29.772  34.299  1.00  0.00    -0.203 F 
ATOM     95  F   UNL A   1      43.905  25.882  37.850  1.00  0.00    -0.200 F 
ATOM     96  C   UNL A   1      45.589  27.092  36.719  1.00  0.00     0.200 A 
ATOM     97  F   UNL A   1      47.236  28.337  35.574  1.00  0.00    -0.200 F 
ATOM     98  F   UNL A   1      46.538  26.402  37.365  1.00  0.00    -0.200 F 
ENDBRANCH  65  88
ENDBRANCH  39  40
ENDBRANCH  31  34
ENDBRANCH  29  30
ENDBRANCH  28  29
ENDBRANCH   1  28
TORSDOF 14
ENDMDL
MODEL 3
REMARK VINA RESULT:     -13.6      5.537     11.275
REMARK SMILES COc1ccc(/C=C/c2cc(C(=O)NCCCNC(=O)c3ccc(-c4c5nc(c(-c6c(F)c(F)c(F)c(F)c6F)c6ccc([nH]6)c(-c6c(F)c(F)c(F)c(F)c6F)c6nc(c(-c7c(F)c(F)c(F)c(F)c7F)c7ccc4[nH]7)C=C6)C=C5)cc3)c3ccccc3n2)c(OC)c1
REMARK SMILES IDX 15 1 14 2 12 3 13 4 11 6 9 7 10 8 90 9 89 10 84 11 88 12
REMARK SMILES IDX 85 13 87 14 86 15 8 16 7 17 6 18 3 19 4 20 94 21 5 22 91 23
REMARK SMILES IDX 2 24 1 25 92 26 93 27 16 28 17 29 18 30 19 31 20 33 21 34
REMARK SMILES IDX 22 35 83 36 23 37 82 38 24 39 25 40 26 41 76 42 27 43 81 44
REMARK SMILES IDX 75 45 77 46 28 47 80 48 74 49 73 50 29 52 61 53 41 54 60 55
REMARK SMILES IDX 42 56 45 57 59 58 78 59 43 60 44 61 58 63 79 64 46 65 30 66
REMARK SMILES IDX 31 67 39 68 32 69 33 70 37 71 40 72 34 73 35 74 38 75 36 76
REMARK SMILES IDX 62 77 63 78 71 79 64 80 65 81 69 82 72 83 66 84 67 85 70 86
REMARK SMILES IDX 68 87 47 88 48 89 56 90 49 91 50 92 54 93 57 94 51 95 52 96
REMARK SMILES IDX 55 97 53 98
REMARK H PARENT 14 5 18 32 77 51 45 62
REMARK Flexibility Score: inf
ROOT
ATOM      1  C   UNL A   1      37.304  21.093  24.644  1.00  0.00     0.118 C 
ENDROOT
BRANCH   1   2
ATOM      2  N   UNL A   1      37.247  22.042  25.742  1.00  0.00    -0.352 N 
ATOM      3  C   UNL A   1      36.709  23.304  25.719  1.00  0.00     0.252 C 
ATOM      4  O   UNL A   1      37.248  24.221  26.320  1.00  0.00    -0.269 OA
ATOM      5  H   UNL A   1      37.636  21.748  26.597  1.00  0.00     0.163 HD
BRANCH   3   6
ATOM      6  C   UNL A   1      35.369  23.451  25.129  1.00  0.00     0.051 A 
ATOM      7  C   UNL A   1      33.858  24.203  23.511  1.00  0.00     0.065 A 
ATOM      8  C   UNL A   1      35.167  24.163  23.950  1.00  0.00     0.042 A 
ATOM      9  N   UNL A   1      32.979  23.246  23.876  1.00  0.00    -0.248 NA
ATOM     10  C   UNL A   1      33.060  22.870  25.149  1.00  0.00     0.072 A 
ATOM     11  C   UNL A   1      34.248  23.021  25.874  1.00  0.00     0.013 A 
ATOM     12  C   UNL A   1      31.885  22.540  25.799  1.00  0.00     0.029 A 
ATOM     13  C   UNL A   1      34.200  22.901  27.283  1.00  0.00     0.011 A 
ATOM     14  C   UNL A   1      31.828  22.501  27.190  1.00  0.00     0.002 A 
ATOM     15  C   UNL A   1      32.985  22.700  27.934  1.00  0.00     0.001 A 
BRANCH   7  16
ATOM     16  C   UNL A   1      33.113  25.497  23.465  1.00  0.00     0.029 C 
ATOM     17  C   UNL A   1      33.868  26.584  23.766  1.00  0.00     0.014 C 
BRANCH  17  18
ATOM     18  C   UNL A   1      33.529  27.681  24.711  1.00  0.00     0.017 A 
ATOM     19  C   UNL A   1      32.995  29.842  26.454  1.00  0.00     0.122 A 
ATOM     20  C   UNL A   1      33.827  28.803  26.855  1.00  0.00     0.047 A 
ATOM     21  C   UNL A   1      32.479  29.850  25.161  1.00  0.00     0.093 A 
ATOM     22  C   UNL A   1      34.078  27.725  26.000  1.00  0.00     0.016 A 
ATOM     23  C   UNL A   1      32.755  28.794  24.278  1.00  0.00     0.129 A 
BRANCH  19  24
ATOM     24  O   UNL A   1      32.769  30.826  27.379  1.00  0.00    -0.497 OA
ATOM     25  C   UNL A   1      33.953  31.402  27.928  1.00  0.00     0.278 C 
ENDBRANCH  19  24
BRANCH  23  26
ATOM     26  O   UNL A   1      32.305  28.799  22.974  1.00  0.00    -0.496 OA
ATOM     27  C   UNL A   1      30.898  28.665  22.773  1.00  0.00     0.278 C 
ENDBRANCH  23  26
ENDBRANCH  17  18
ENDBRANCH   7  16
ENDBRANCH   3   6
ENDBRANCH   1   2
BRANCH   1  28
ATOM     28  C   UNL A   1      38.169  19.901  25.055  1.00  0.00     0.042 C 
BRANCH  28  29
ATOM     29  C   UNL A   1      39.444  20.309  25.796  1.00  0.00     0.118 C 
BRANCH  29  30
ATOM     30  N   UNL A   1      40.363  19.189  25.968  1.00  0.00    -0.352 N 
ATOM     31  C   UNL A   1      41.723  19.202  26.157  1.00  0.00     0.251 C 
ATOM     32  H   UNL A   1      39.948  18.297  25.945  1.00  0.00     0.163 HD
ATOM     33  O   UNL A   1      42.378  18.176  26.034  1.00  0.00    -0.269 OA
BRANCH  31  34
ATOM     34  C   UNL A   1      42.390  20.474  26.493  1.00  0.00     0.039 A 
ATOM     35  C   UNL A   1      42.977  21.224  25.473  1.00  0.00     0.014 A 
ATOM     36  C   UNL A   1      42.412  20.929  27.814  1.00  0.00     0.014 A 
ATOM     37  C   UNL A   1      43.512  22.480  25.767  1.00  0.00     0.010 A 
ATOM     38  C   UNL A   1      42.876  22.208  28.092  1.00  0.00     0.010 A 
ATOM     39  C   UNL A   1      43.418  23.001  27.068  1.00  0.00    -0.014 A 
BRANCH  39  40
ATOM     40  C   UNL A   1      43.833  24.391  27.378  1.00  0.00     0.031 A 
ATOM     41  C   UNL A   1      42.812  25.407  27.799  1.00  0.00     0.074 A 
ATOM     42  C   UNL A   1      45.115  24.754  27.180  1.00  0.00     0.049 A 
ATOM     43  N   UNL A   1      42.955  26.693  27.993  1.00  0.00    -0.248 NA
ATOM     44  C   UNL A   1      41.439  24.917  28.004  1.00  0.00     0.031 C 
ATOM     45  C   UNL A   1      46.186  23.862  26.732  1.00  0.00     0.029 A 
ATOM     46  N   UNL A   1      45.733  25.973  27.309  1.00  0.00    -0.354 N 
ATOM     47  C   UNL A   1      41.695  27.167  28.332  1.00  0.00     0.074 A 
ATOM     48  C   UNL A   1      40.788  26.041  28.267  1.00  0.00     0.031 C 
ATOM     49  C   UNL A   1      47.329  24.559  26.636  1.00  0.00     0.029 A 
ATOM     50  C   UNL A   1      47.062  25.956  26.964  1.00  0.00     0.049 A 
ATOM     51  H   UNL A   1      45.267  26.783  27.620  1.00  0.00     0.167 HD
ATOM     52  C   UNL A   1      41.335  28.424  28.681  1.00  0.00     0.037 A 
ATOM     53  C   UNL A   1      47.958  26.958  26.893  1.00  0.00     0.037 A 
ATOM     54  C   UNL A   1      42.250  29.534  28.752  1.00  0.00     0.049 A 
ATOM     55  C   UNL A   1      47.519  28.355  27.241  1.00  0.00     0.074 A 
ATOM     56  C   UNL A   1      41.999  30.832  29.162  1.00  0.00     0.029 A 
ATOM     57  N   UNL A   1      43.588  29.480  28.391  1.00  0.00    -0.354 N 
ATOM     58  N   UNL A   1      46.344  28.777  27.638  1.00  0.00    -0.248 NA
ATOM     59  C   UNL A   1      48.530  29.415  27.128  1.00  0.00     0.031 C 
ATOM     60  C   UNL A   1      43.170  31.577  28.990  1.00  0.00     0.029 A 
ATOM     61  C   UNL A   1      44.166  30.732  28.528  1.00  0.00     0.049 A 
ATOM     62  H   UNL A   1      44.058  28.670  28.085  1.00  0.00     0.167 HD
ATOM     63  C   UNL A   1      46.477  30.144  27.837  1.00  0.00     0.074 A 
ATOM     64  C   UNL A   1      47.854  30.477  27.542  1.00  0.00     0.031 C 
ATOM     65  C   UNL A   1      45.540  31.046  28.222  1.00  0.00     0.037 A 
BRANCH  52  66
ATOM     66  C   UNL A   1      39.890  28.671  29.010  1.00  0.00     0.064 A 
ATOM     67  C   UNL A   1      39.382  28.466  30.301  1.00  0.00     0.173 A 
ATOM     68  C   UNL A   1      39.012  29.163  28.032  1.00  0.00     0.173 A 
ATOM     69  F   UNL A   1      40.176  27.988  31.272  1.00  0.00    -0.203 F 
ATOM     70  C   UNL A   1      38.044  28.716  30.594  1.00  0.00     0.198 A 
ATOM     71  C   UNL A   1      37.683  29.443  28.336  1.00  0.00     0.198 A 
ATOM     72  F   UNL A   1      39.447  29.384  26.781  1.00  0.00    -0.203 F 
ATOM     73  F   UNL A   1      37.570  28.465  31.822  1.00  0.00    -0.200 F 
ATOM     74  C   UNL A   1      37.198  29.212  29.614  1.00  0.00     0.200 A 
ATOM     75  F   UNL A   1      36.871  29.938  27.391  1.00  0.00    -0.200 F 
ATOM     76  F   UNL A   1      35.913  29.462  29.900  1.00  0.00    -0.200 F 
ENDBRANCH  52  66
BRANCH  53  77
ATOM     77  C   UNL A   1      49.356  26.679  26.466  1.00  0.00     0.064 A 
ATOM     78  C   UNL A   1      50.329  26.293  27.398  1.00  0.00     0.173 A 
ATOM     79  C   UNL A   1      49.749  26.798  25.125  1.00  0.00     0.173 A 
ATOM     80  F   UNL A   1      50.007  26.184  28.696  1.00  0.00    -0.203 F 
ATOM     81  C   UNL A   1      51.645  26.055  27.009  1.00  0.00     0.198 A 
ATOM     82  C   UNL A   1      51.058  26.529  24.732  1.00  0.00     0.198 A 
ATOM     83  F   UNL A   1      48.857  27.161  24.192  1.00  0.00    -0.203 F 
ATOM     84  F   UNL A   1      52.566  25.735  27.928  1.00  0.00    -0.200 F 
ATOM     85  C   UNL A   1      52.007  26.168  25.675  1.00  0.00     0.200 A 
ATOM     86  F   UNL A   1      51.400  26.622  23.439  1.00  0.00    -0.200 F 
ATOM     87  F   UNL A   1      53.273  25.934  25.300  1.00  0.00    -0.200 F 
ENDBRANCH  53  77
BRANCH  65  88
ATOM     88  C   UNL A   1      45.973  32.476  28.352  1.00  0.00     0.064 A 
ATOM     89  C   UNL A   1      46.532  32.966  29.542  1.00  0.00     0.173 A 
ATOM     90  C   UNL A   1      45.878  33.354  27.262  1.00  0.00     0.173 A 
ATOM     91  F   UNL A   1      46.628  32.172  30.619  1.00  0.00    -0.203 F 
ATOM     92  C   UNL A   1      46.964  34.285  29.641  1.00  0.00     0.198 A 
ATOM     93  C   UNL A   1      46.341  34.663  27.353  1.00  0.00     0.198 A 
ATOM     94  F   UNL A   1      45.356  32.935  26.099  1.00  0.00    -0.203 F 
ATOM     95  F   UNL A   1      47.455  34.743  30.801  1.00  0.00    -0.200 F 
ATOM     96  C   UNL A   1      46.878  35.130  28.544  1.00  0.00     0.200 A 
ATOM     97  F   UNL A   1      46.273  35.473  26.288  1.00  0.00    -0.200 F 
ATOM     98  F   UNL A   1      47.308  36.396  28.636  1.00  0.00    -0.200 F 
ENDBRANCH  65  88
ENDBRANCH  39  40
ENDBRANCH  31  34
ENDBRANCH  29  30
ENDBRANCH  28  29
ENDBRANCH   1  28
TORSDOF 14
ENDMDL
