MODEL 1
REMARK VINA RESULT:     -12.5      0.000      0.000
REMARK SMILES CCNC(=S)N/N=C\c1ccc(-c2ccc(C(=O)NCCCNC(=O)c3ccc(-c4c5nc(c(-c6c(F)c(F)c(F)c(F)c6F)c6ccc([nH]6)c(-c6c(F)c(F)c(F)c(F)c6F)c6nc(c(-c7c(F)c(F)c(F)c(F)c7F)c7ccc4[nH]7)C=C6)C=C5)cc3)c(Cl)c2)o1
REMARK SMILES IDX 17 1 18 2 19 3 16 5 13 6 14 7 91 8 15 9 89 10 90 11 12 12
REMARK SMILES IDX 9 13 10 14 92 15 11 16 8 17 7 18 6 19 4 21 5 22 3 23 2 25
REMARK SMILES IDX 1 26 20 27 21 28 22 29 23 30 24 31 25 33 26 34 27 35 88 36
REMARK SMILES IDX 28 37 87 38 29 39 30 40 31 41 81 42 32 43 86 44 80 45 82 46
REMARK SMILES IDX 33 47 85 48 79 49 78 50 34 52 66 53 46 54 65 55 47 56 50 57
REMARK SMILES IDX 64 58 83 59 48 60 49 61 63 63 84 64 51 65 35 66 36 67 44 68
REMARK SMILES IDX 37 69 38 70 42 71 45 72 39 73 40 74 43 75 41 76 67 77 68 78
REMARK SMILES IDX 76 79 69 80 70 81 74 82 77 83 71 84 72 85 75 86 73 87 52 88
REMARK SMILES IDX 53 89 61 90 54 91 55 92 59 93 62 94 56 95 57 96 60 97 58 98
REMARK H PARENT 19 4 6 20 3 24 23 32 82 51 50 62
REMARK Flexibility Score: inf
ROOT
ATOM      1  C   UNL A   1      30.760  29.387  23.966  1.00  0.00     0.252 C 
ATOM      2  O   UNL A   1      29.959  29.620  23.051  1.00  0.00    -0.269 OA
ATOM      3  N   UNL A   1      30.877  30.409  24.864  1.00  0.00    -0.352 N 
ATOM      4  H   UNL A   1      30.286  31.164  24.641  1.00  0.00     0.163 HD
ENDROOT
BRANCH   1   5
ATOM      5  C   UNL A   1      31.414  28.038  23.978  1.00  0.00     0.058 A 
ATOM      6  C   UNL A   1      33.116  25.757  24.225  1.00  0.00     0.019 A 
ATOM      7  C   UNL A   1      33.669  27.004  23.997  1.00  0.00     0.013 A 
ATOM      8  C   UNL A   1      31.727  25.644  24.300  1.00  0.00     0.033 A 
ATOM      9  C   UNL A   1      32.829  28.117  23.863  1.00  0.00     0.016 A 
ATOM     10  C   UNL A   1      30.879  26.765  24.209  1.00  0.00     0.054 A 
ATOM     11  Cl  UNL A   1      29.242  26.375  24.557  1.00  0.00    -0.083 Cl
BRANCH   6  12
ATOM     12  C   UNL A   1      33.927  24.587  24.481  1.00  0.00     0.134 A 
ATOM     13  C   UNL A   1      34.648  23.008  25.815  1.00  0.00     0.147 A 
ATOM     14  C   UNL A   1      35.539  23.065  24.761  1.00  0.00     0.053 A 
ATOM     15  O   UNL A   1      33.625  23.890  25.608  1.00  0.00    -0.455 OA
ATOM     16  C   UNL A   1      35.066  24.080  23.895  1.00  0.00     0.051 A 
BRANCH  13  17
ATOM     17  C   UNL A   1      34.668  22.300  27.062  1.00  0.00     0.180 C 
ATOM     18  N   UNL A   1      33.823  21.391  27.467  1.00  0.00    -0.178 NA
BRANCH  18  19
ATOM     19  N   UNL A   1      32.836  20.976  26.615  1.00  0.00    -0.254 N 
ATOM     20  H   UNL A   1      32.021  21.528  26.612  1.00  0.00     0.193 HD
BRANCH  19  21
ATOM     21  C   UNL A   1      32.821  19.911  25.773  1.00  0.00     0.186 C 
ATOM     22  S   UNL A   1      32.762  20.183  24.123  1.00  0.00    -0.039 S 
BRANCH  21  23
ATOM     23  N   UNL A   1      32.815  18.629  26.201  1.00  0.00    -0.362 N 
ATOM     24  H   UNL A   1      33.045  18.503  27.149  1.00  0.00     0.162 HD
BRANCH  23  25
ATOM     25  C   UNL A   1      32.519  17.408  25.468  1.00  0.00     0.112 C 
ATOM     26  C   UNL A   1      33.621  16.378  25.647  1.00  0.00     0.027 C 
ENDBRANCH  23  25
ENDBRANCH  21  23
ENDBRANCH  19  21
ENDBRANCH  18  19
ENDBRANCH  13  17
ENDBRANCH   6  12
ENDBRANCH   1   5
BRANCH   3  27
ATOM     27  C   UNL A   1      31.651  30.664  26.061  1.00  0.00     0.118 C 
BRANCH  27  28
ATOM     28  C   UNL A   1      31.431  32.100  26.546  1.00  0.00     0.042 C 
BRANCH  28  29
ATOM     29  C   UNL A   1      32.652  32.726  27.207  1.00  0.00     0.118 C 
BRANCH  29  30
ATOM     30  N   UNL A   1      32.421  34.117  27.578  1.00  0.00    -0.352 N 
ATOM     31  C   UNL A   1      32.995  34.861  28.578  1.00  0.00     0.251 C 
ATOM     32  H   UNL A   1      31.756  34.592  27.030  1.00  0.00     0.163 HD
ATOM     33  O   UNL A   1      32.514  35.949  28.888  1.00  0.00    -0.269 OA
BRANCH  31  34
ATOM     34  C   UNL A   1      34.185  34.356  29.292  1.00  0.00     0.039 A 
ATOM     35  C   UNL A   1      34.024  33.693  30.512  1.00  0.00     0.014 A 
ATOM     36  C   UNL A   1      35.463  34.552  28.764  1.00  0.00     0.014 A 
ATOM     37  C   UNL A   1      35.141  33.174  31.172  1.00  0.00     0.010 A 
ATOM     38  C   UNL A   1      36.562  33.964  29.377  1.00  0.00     0.010 A 
ATOM     39  C   UNL A   1      36.415  33.276  30.593  1.00  0.00    -0.014 A 
BRANCH  39  40
ATOM     40  C   UNL A   1      37.625  32.708  31.238  1.00  0.00     0.031 A 
ATOM     41  C   UNL A   1      38.367  31.589  30.559  1.00  0.00     0.074 A 
ATOM     42  C   UNL A   1      37.993  33.119  32.466  1.00  0.00     0.049 A 
ATOM     43  N   UNL A   1      39.331  30.832  31.017  1.00  0.00    -0.248 NA
ATOM     44  C   UNL A   1      37.938  31.254  29.191  1.00  0.00     0.031 C 
ATOM     45  C   UNL A   1      37.337  34.177  33.237  1.00  0.00     0.029 A 
ATOM     46  N   UNL A   1      38.995  32.679  33.293  1.00  0.00    -0.354 N 
ATOM     47  C   UNL A   1      39.601  29.918  30.008  1.00  0.00     0.074 A 
ATOM     48  C   UNL A   1      38.665  30.177  28.937  1.00  0.00     0.031 C 
ATOM     49  C   UNL A   1      37.959  34.309  34.419  1.00  0.00     0.029 A 
ATOM     50  C   UNL A   1      39.023  33.313  34.512  1.00  0.00     0.049 A 
ATOM     51  H   UNL A   1      39.634  31.974  33.038  1.00  0.00     0.167 HD
ATOM     52  C   UNL A   1      40.560  28.961  29.970  1.00  0.00     0.037 A 
ATOM     53  C   UNL A   1      39.804  33.099  35.588  1.00  0.00     0.037 A 
ATOM     54  C   UNL A   1      41.504  28.727  31.030  1.00  0.00     0.049 A 
ATOM     55  C   UNL A   1      40.847  32.013  35.531  1.00  0.00     0.074 A 
ATOM     56  C   UNL A   1      42.544  27.817  31.075  1.00  0.00     0.029 A 
ATOM     57  N   UNL A   1      41.518  29.414  32.237  1.00  0.00    -0.354 N 
ATOM     58  N   UNL A   1      41.128  31.185  34.555  1.00  0.00    -0.248 NA
ATOM     59  C   UNL A   1      41.685  31.835  36.725  1.00  0.00     0.031 C 
ATOM     60  C   UNL A   1      43.155  27.914  32.328  1.00  0.00     0.029 A 
ATOM     61  C   UNL A   1      42.540  28.932  33.040  1.00  0.00     0.049 A 
ATOM     62  H   UNL A   1      40.896  30.134  32.485  1.00  0.00     0.167 HD
ATOM     63  C   UNL A   1      42.201  30.421  34.997  1.00  0.00     0.074 A 
ATOM     64  C   UNL A   1      42.521  30.885  36.330  1.00  0.00     0.031 C 
ATOM     65  C   UNL A   1      42.862  29.428  34.354  1.00  0.00     0.037 A 
BRANCH  52  66
ATOM     66  C   UNL A   1      40.631  28.094  28.745  1.00  0.00     0.064 A 
ATOM     67  C   UNL A   1      41.404  28.453  27.629  1.00  0.00     0.173 A 
ATOM     68  C   UNL A   1      39.939  26.873  28.696  1.00  0.00     0.173 A 
ATOM     69  F   UNL A   1      42.076  29.613  27.619  1.00  0.00    -0.203 F 
ATOM     70  C   UNL A   1      41.452  27.641  26.498  1.00  0.00     0.198 A 
ATOM     71  C   UNL A   1      40.021  26.047  27.578  1.00  0.00     0.198 A 
ATOM     72  F   UNL A   1      39.190  26.477  29.736  1.00  0.00    -0.203 F 
ATOM     73  F   UNL A   1      42.150  28.035  25.424  1.00  0.00    -0.200 F 
ATOM     74  C   UNL A   1      40.768  26.436  26.477  1.00  0.00     0.200 A 
ATOM     75  F   UNL A   1      39.371  24.875  27.566  1.00  0.00    -0.200 F 
ATOM     76  F   UNL A   1      40.822  25.652  25.391  1.00  0.00    -0.200 F 
ENDBRANCH  52  66
BRANCH  53  77
ATOM     77  C   UNL A   1      39.643  33.936  36.806  1.00  0.00     0.064 A 
ATOM     78  C   UNL A   1      38.833  33.510  37.869  1.00  0.00     0.173 A 
ATOM     79  C   UNL A   1      40.279  35.180  36.933  1.00  0.00     0.173 A 
ATOM     80  F   UNL A   1      38.188  32.336  37.790  1.00  0.00    -0.203 F 
ATOM     81  C   UNL A   1      38.644  34.305  38.997  1.00  0.00     0.198 A 
ATOM     82  C   UNL A   1      40.115  35.962  38.075  1.00  0.00     0.198 A 
ATOM     83  F   UNL A   1      41.069  35.633  35.949  1.00  0.00    -0.203 F 
ATOM     84  F   UNL A   1      37.821  33.897  39.972  1.00  0.00    -0.200 F 
ATOM     85  C   UNL A   1      39.289  35.528  39.102  1.00  0.00     0.200 A 
ATOM     86  F   UNL A   1      40.752  37.135  38.179  1.00  0.00    -0.200 F 
ATOM     87  F   UNL A   1      39.107  36.294  40.187  1.00  0.00    -0.200 F 
ENDBRANCH  53  77
BRANCH  65  88
ATOM     88  C   UNL A   1      44.049  28.821  35.046  1.00  0.00     0.064 A 
ATOM     89  C   UNL A   1      43.936  27.686  35.861  1.00  0.00     0.173 A 
ATOM     90  C   UNL A   1      45.332  29.349  34.830  1.00  0.00     0.173 A 
ATOM     91  F   UNL A   1      42.731  27.151  36.110  1.00  0.00    -0.203 F 
ATOM     92  C   UNL A   1      45.060  27.114  36.450  1.00  0.00     0.198 A 
ATOM     93  C   UNL A   1      46.458  28.755  35.392  1.00  0.00     0.198 A 
ATOM     94  F   UNL A   1      45.496  30.431  34.052  1.00  0.00    -0.203 F 
ATOM     95  F   UNL A   1      44.924  26.055  37.260  1.00  0.00    -0.200 F 
ATOM     96  C   UNL A   1      46.321  27.641  36.207  1.00  0.00     0.200 A 
ATOM     97  F   UNL A   1      47.674  29.256  35.140  1.00  0.00    -0.200 F 
ATOM     98  F   UNL A   1      47.403  27.078  36.760  1.00  0.00    -0.200 F 
ENDBRANCH  65  88
ENDBRANCH  39  40
ENDBRANCH  31  34
ENDBRANCH  29  30
ENDBRANCH  28  29
ENDBRANCH  27  28
ENDBRANCH   3  27
TORSDOF 16
ENDMDL
MODEL 2
REMARK VINA RESULT:     -12.5      5.488     11.436
REMARK SMILES CCNC(=S)N/N=C\c1ccc(-c2ccc(C(=O)NCCCNC(=O)c3ccc(-c4c5nc(c(-c6c(F)c(F)c(F)c(F)c6F)c6ccc([nH]6)c(-c6c(F)c(F)c(F)c(F)c6F)c6nc(c(-c7c(F)c(F)c(F)c(F)c7F)c7ccc4[nH]7)C=C6)C=C5)cc3)c(Cl)c2)o1
REMARK SMILES IDX 17 1 18 2 19 3 16 5 13 6 14 7 91 8 15 9 89 10 90 11 12 12
REMARK SMILES IDX 9 13 10 14 92 15 11 16 8 17 7 18 6 19 4 21 5 22 3 23 2 25
REMARK SMILES IDX 1 26 20 27 21 28 22 29 23 30 24 31 25 33 26 34 27 35 88 36
REMARK SMILES IDX 28 37 87 38 29 39 30 40 31 41 81 42 32 43 86 44 80 45 82 46
REMARK SMILES IDX 33 47 85 48 79 49 78 50 34 52 66 53 46 54 65 55 47 56 50 57
REMARK SMILES IDX 64 58 83 59 48 60 49 61 63 63 84 64 51 65 35 66 36 67 44 68
REMARK SMILES IDX 37 69 38 70 42 71 45 72 39 73 40 74 43 75 41 76 67 77 68 78
REMARK SMILES IDX 76 79 69 80 70 81 74 82 77 83 71 84 72 85 75 86 73 87 52 88
REMARK SMILES IDX 53 89 61 90 54 91 55 92 59 93 62 94 56 95 57 96 60 97 58 98
REMARK H PARENT 19 4 6 20 3 24 23 32 82 51 50 62
REMARK Flexibility Score: inf
ROOT
ATOM      1  C   UNL A   1      34.325  20.248  24.915  1.00  0.00     0.252 C 
ATOM      2  O   UNL A   1      33.543  19.293  25.011  1.00  0.00    -0.269 OA
ATOM      3  N   UNL A   1      35.640  19.884  24.962  1.00  0.00    -0.352 N 
ATOM      4  H   UNL A   1      35.749  18.910  25.049  1.00  0.00     0.163 HD
ENDROOT
BRANCH   1   5
ATOM      5  C   UNL A   1      33.727  21.607  24.710  1.00  0.00     0.058 A 
ATOM      6  C   UNL A   1      32.109  23.898  24.164  1.00  0.00     0.019 A 
ATOM      7  C   UNL A   1      31.898  22.725  23.461  1.00  0.00     0.013 A 
ATOM      8  C   UNL A   1      33.135  23.936  25.109  1.00  0.00     0.033 A 
ATOM      9  C   UNL A   1      32.703  21.609  23.723  1.00  0.00     0.016 A 
ATOM     10  C   UNL A   1      33.920  22.805  25.408  1.00  0.00     0.054 A 
ATOM     11  Cl  UNL A   1      34.951  23.065  26.758  1.00  0.00    -0.083 Cl
BRANCH   6  12
ATOM     12  C   UNL A   1      31.247  25.050  24.021  1.00  0.00     0.134 A 
ATOM     13  C   UNL A   1      30.789  27.159  24.386  1.00  0.00     0.147 A 
ATOM     14  C   UNL A   1      29.599  26.560  24.025  1.00  0.00     0.053 A 
ATOM     15  O   UNL A   1      31.809  26.252  24.316  1.00  0.00    -0.455 OA
ATOM     16  C   UNL A   1      29.898  25.197  23.780  1.00  0.00     0.051 A 
BRANCH  13  17
ATOM     17  C   UNL A   1      31.100  28.465  24.892  1.00  0.00     0.180 C 
ATOM     18  N   UNL A   1      31.017  29.600  24.253  1.00  0.00    -0.178 NA
BRANCH  18  19
ATOM     19  N   UNL A   1      30.511  29.610  22.982  1.00  0.00    -0.254 N 
ATOM     20  H   UNL A   1      31.009  29.073  22.324  1.00  0.00     0.193 HD
BRANCH  19  21
ATOM     21  C   UNL A   1      29.417  30.254  22.499  1.00  0.00     0.186 C 
ATOM     22  S   UNL A   1      27.921  29.511  22.616  1.00  0.00    -0.039 S 
BRANCH  21  23
ATOM     23  N   UNL A   1      29.476  31.459  21.891  1.00  0.00    -0.362 N 
ATOM     24  H   UNL A   1      30.229  31.577  21.269  1.00  0.00     0.162 HD
BRANCH  23  25
ATOM     25  C   UNL A   1      28.592  32.607  22.019  1.00  0.00     0.112 C 
ATOM     26  C   UNL A   1      29.040  33.523  23.145  1.00  0.00     0.027 C 
ENDBRANCH  23  25
ENDBRANCH  21  23
ENDBRANCH  19  21
ENDBRANCH  18  19
ENDBRANCH  13  17
ENDBRANCH   6  12
ENDBRANCH   1   5
BRANCH   3  27
ATOM     27  C   UNL A   1      36.916  20.569  24.917  1.00  0.00     0.118 C 
BRANCH  27  28
ATOM     28  C   UNL A   1      38.067  19.564  25.013  1.00  0.00     0.042 C 
BRANCH  28  29
ATOM     29  C   UNL A   1      39.284  20.085  25.765  1.00  0.00     0.118 C 
BRANCH  29  30
ATOM     30  N   UNL A   1      40.316  19.065  25.911  1.00  0.00    -0.352 N 
ATOM     31  C   UNL A   1      41.668  19.210  26.095  1.00  0.00     0.251 C 
ATOM     32  H   UNL A   1      39.994  18.136  25.874  1.00  0.00     0.163 HD
ATOM     33  O   UNL A   1      42.413  18.239  25.970  1.00  0.00    -0.269 OA
BRANCH  31  34
ATOM     34  C   UNL A   1      42.236  20.531  26.432  1.00  0.00     0.039 A 
ATOM     35  C   UNL A   1      42.724  21.350  25.410  1.00  0.00     0.014 A 
ATOM     36  C   UNL A   1      42.303  20.953  27.762  1.00  0.00     0.014 A 
ATOM     37  C   UNL A   1      43.222  22.619  25.717  1.00  0.00     0.010 A 
ATOM     38  C   UNL A   1      42.720  22.245  28.056  1.00  0.00     0.010 A 
ATOM     39  C   UNL A   1      43.193  23.090  27.038  1.00  0.00    -0.014 A 
BRANCH  39  40
ATOM     40  C   UNL A   1      43.677  24.443  27.407  1.00  0.00     0.031 A 
ATOM     41  C   UNL A   1      42.697  25.462  27.921  1.00  0.00     0.074 A 
ATOM     42  C   UNL A   1      44.960  24.787  27.186  1.00  0.00     0.049 A 
ATOM     43  N   UNL A   1      42.863  26.743  28.133  1.00  0.00    -0.248 NA
ATOM     44  C   UNL A   1      41.335  24.979  28.199  1.00  0.00     0.031 C 
ATOM     45  C   UNL A   1      45.998  23.895  26.666  1.00  0.00     0.029 A 
ATOM     46  N   UNL A   1      45.604  25.988  27.346  1.00  0.00    -0.354 N 
ATOM     47  C   UNL A   1      41.624  27.220  28.538  1.00  0.00     0.074 A 
ATOM     48  C   UNL A   1      40.703  26.106  28.491  1.00  0.00     0.031 C 
ATOM     49  C   UNL A   1      47.149  24.576  26.559  1.00  0.00     0.029 A 
ATOM     50  C   UNL A   1      46.920  25.964  26.953  1.00  0.00     0.049 A 
ATOM     51  H   UNL A   1      45.165  26.791  27.708  1.00  0.00     0.167 HD
ATOM     52  C   UNL A   1      41.289  28.471  28.936  1.00  0.00     0.037 A 
ATOM     53  C   UNL A   1      47.831  26.954  26.895  1.00  0.00     0.037 A 
ATOM     54  C   UNL A   1      42.219  29.568  29.004  1.00  0.00     0.049 A 
ATOM     55  C   UNL A   1      47.429  28.343  27.320  1.00  0.00     0.074 A 
ATOM     56  C   UNL A   1      41.997  30.862  29.437  1.00  0.00     0.029 A 
ATOM     57  N   UNL A   1      43.552  29.494  28.626  1.00  0.00    -0.354 N 
ATOM     58  N   UNL A   1      46.268  28.775  27.748  1.00  0.00    -0.248 NA
ATOM     59  C   UNL A   1      48.467  29.382  27.257  1.00  0.00     0.031 C 
ATOM     60  C   UNL A   1      43.180  31.587  29.270  1.00  0.00     0.029 A 
ATOM     61  C   UNL A   1      44.160  30.727  28.798  1.00  0.00     0.049 A 
ATOM     62  H   UNL A   1      44.000  28.686  28.285  1.00  0.00     0.167 HD
ATOM     63  C   UNL A   1      46.445  30.120  28.048  1.00  0.00     0.074 A 
ATOM     64  C   UNL A   1      47.828  30.433  27.753  1.00  0.00     0.031 C 
ATOM     65  C   UNL A   1      45.546  31.012  28.528  1.00  0.00     0.037 A 
BRANCH  52  66
ATOM     66  C   UNL A   1      39.859  28.721  29.322  1.00  0.00     0.064 A 
ATOM     67  C   UNL A   1      39.409  28.546  30.640  1.00  0.00     0.173 A 
ATOM     68  C   UNL A   1      38.932  29.168  28.368  1.00  0.00     0.173 A 
ATOM     69  F   UNL A   1      40.250  28.111  31.589  1.00  0.00    -0.203 F 
ATOM     70  C   UNL A   1      38.077  28.774  30.980  1.00  0.00     0.198 A 
ATOM     71  C   UNL A   1      37.610  29.431  28.720  1.00  0.00     0.198 A 
ATOM     72  F   UNL A   1      39.308  29.358  27.094  1.00  0.00    -0.203 F 
ATOM     73  F   UNL A   1      37.659  28.544  32.232  1.00  0.00    -0.200 F 
ATOM     74  C   UNL A   1      37.182  29.224  30.022  1.00  0.00     0.200 A 
ATOM     75  F   UNL A   1      36.750  29.881  27.796  1.00  0.00    -0.200 F 
ATOM     76  F   UNL A   1      35.903  29.451  30.352  1.00  0.00    -0.200 F 
ENDBRANCH  52  66
BRANCH  53  77
ATOM     77  C   UNL A   1      49.216  26.671  26.433  1.00  0.00     0.064 A 
ATOM     78  C   UNL A   1      50.195  26.222  27.332  1.00  0.00     0.173 A 
ATOM     79  C   UNL A   1      49.596  26.852  25.095  1.00  0.00     0.173 A 
ATOM     80  F   UNL A   1      49.887  26.050  28.626  1.00  0.00    -0.203 F 
ATOM     81  C   UNL A   1      51.505  25.992  26.917  1.00  0.00     0.198 A 
ATOM     82  C   UNL A   1      50.899  26.592  24.674  1.00  0.00     0.198 A 
ATOM     83  F   UNL A   1      48.698  27.274  24.193  1.00  0.00    -0.203 F 
ATOM     84  F   UNL A   1      52.432  25.617  27.809  1.00  0.00    -0.200 F 
ATOM     85  C   UNL A   1      51.855  26.172  25.587  1.00  0.00     0.200 A 
ATOM     86  F   UNL A   1      51.229  26.752  23.386  1.00  0.00    -0.200 F 
ATOM     87  F   UNL A   1      53.115  25.952  25.188  1.00  0.00    -0.200 F 
ENDBRANCH  53  77
BRANCH  65  88
ATOM     88  C   UNL A   1      46.037  32.397  28.839  1.00  0.00     0.064 A 
ATOM     89  C   UNL A   1      46.566  32.735  30.093  1.00  0.00     0.173 A 
ATOM     90  C   UNL A   1      46.039  33.382  27.838  1.00  0.00     0.173 A 
ATOM     91  F   UNL A   1      46.575  31.835  31.087  1.00  0.00    -0.203 F 
ATOM     92  C   UNL A   1      47.061  34.013  30.338  1.00  0.00     0.198 A 
ATOM     93  C   UNL A   1      46.565  34.647  28.076  1.00  0.00     0.198 A 
ATOM     94  F   UNL A   1      45.550  33.107  26.618  1.00  0.00    -0.203 F 
ATOM     95  F   UNL A   1      47.522  34.328  31.557  1.00  0.00    -0.200 F 
ATOM     96  C   UNL A   1      47.070  34.964  29.328  1.00  0.00     0.200 A 
ATOM     97  F   UNL A   1      46.590  35.557  27.093  1.00  0.00    -0.200 F 
ATOM     98  F   UNL A   1      47.563  36.188  29.562  1.00  0.00    -0.200 F 
ENDBRANCH  65  88
ENDBRANCH  39  40
ENDBRANCH  31  34
ENDBRANCH  29  30
ENDBRANCH  28  29
ENDBRANCH  27  28
ENDBRANCH   3  27
TORSDOF 16
ENDMDL
MODEL 3
REMARK VINA RESULT:     -12.4      3.370      8.706
REMARK SMILES CCNC(=S)N/N=C\c1ccc(-c2ccc(C(=O)NCCCNC(=O)c3ccc(-c4c5nc(c(-c6c(F)c(F)c(F)c(F)c6F)c6ccc([nH]6)c(-c6c(F)c(F)c(F)c(F)c6F)c6nc(c(-c7c(F)c(F)c(F)c(F)c7F)c7ccc4[nH]7)C=C6)C=C5)cc3)c(Cl)c2)o1
REMARK SMILES IDX 17 1 18 2 19 3 16 5 13 6 14 7 91 8 15 9 89 10 90 11 12 12
REMARK SMILES IDX 9 13 10 14 92 15 11 16 8 17 7 18 6 19 4 21 5 22 3 23 2 25
REMARK SMILES IDX 1 26 20 27 21 28 22 29 23 30 24 31 25 33 26 34 27 35 88 36
REMARK SMILES IDX 28 37 87 38 29 39 30 40 31 41 81 42 32 43 86 44 80 45 82 46
REMARK SMILES IDX 33 47 85 48 79 49 78 50 34 52 66 53 46 54 65 55 47 56 50 57
REMARK SMILES IDX 64 58 83 59 48 60 49 61 63 63 84 64 51 65 35 66 36 67 44 68
REMARK SMILES IDX 37 69 38 70 42 71 45 72 39 73 40 74 43 75 41 76 67 77 68 78
REMARK SMILES IDX 76 79 69 80 70 81 74 82 77 83 71 84 72 85 75 86 73 87 52 88
REMARK SMILES IDX 53 89 61 90 54 91 55 92 59 93 62 94 56 95 57 96 60 97 58 98
REMARK H PARENT 19 4 6 20 3 24 23 32 82 51 50 62
REMARK Flexibility Score: inf
ROOT
ATOM      1  C   UNL A   1      36.100  33.333  28.427  1.00  0.00     0.252 C 
ATOM      2  O   UNL A   1      37.259  33.289  28.857  1.00  0.00    -0.269 OA
ATOM      3  N   UNL A   1      35.618  34.603  28.282  1.00  0.00    -0.352 N 
ATOM      4  H   UNL A   1      36.288  35.280  28.531  1.00  0.00     0.163 HD
ENDROOT
BRANCH   1   5
ATOM      5  C   UNL A   1      35.443  32.029  28.088  1.00  0.00     0.058 A 
ATOM      6  C   UNL A   1      33.797  29.880  27.174  1.00  0.00     0.019 A 
ATOM      7  C   UNL A   1      33.226  31.107  27.463  1.00  0.00     0.013 A 
ATOM      8  C   UNL A   1      35.171  29.719  27.367  1.00  0.00     0.033 A 
ATOM      9  C   UNL A   1      34.036  32.153  27.924  1.00  0.00     0.016 A 
ATOM     10  C   UNL A   1      35.997  30.778  27.789  1.00  0.00     0.054 A 
ATOM     11  Cl  UNL A   1      37.664  30.369  27.727  1.00  0.00    -0.083 Cl
BRANCH   6  12
ATOM     12  C   UNL A   1      33.040  28.793  26.592  1.00  0.00     0.134 A 
ATOM     13  C   UNL A   1      32.482  27.545  24.883  1.00  0.00     0.147 A 
ATOM     14  C   UNL A   1      31.496  27.367  25.834  1.00  0.00     0.053 A 
ATOM     15  O   UNL A   1      33.462  28.362  25.374  1.00  0.00    -0.455 OA
ATOM     16  C   UNL A   1      31.863  28.168  26.943  1.00  0.00     0.051 A 
BRANCH  13  17
ATOM     17  C   UNL A   1      32.594  27.127  23.515  1.00  0.00     0.180 C 
ATOM     18  N   UNL A   1      32.192  27.777  22.457  1.00  0.00    -0.178 NA
BRANCH  18  19
ATOM     19  N   UNL A   1      31.669  29.032  22.607  1.00  0.00    -0.254 N 
ATOM     20  H   UNL A   1      32.317  29.733  22.846  1.00  0.00     0.193 HD
BRANCH  19  21
ATOM     21  C   UNL A   1      30.384  29.448  22.471  1.00  0.00     0.186 C 
ATOM     22  S   UNL A   1      29.149  28.451  23.003  1.00  0.00    -0.039 S 
BRANCH  21  23
ATOM     23  N   UNL A   1      30.042  30.619  21.891  1.00  0.00    -0.362 N 
ATOM     24  H   UNL A   1      30.740  31.313  21.905  1.00  0.00     0.162 HD
BRANCH  23  25
ATOM     25  C   UNL A   1      28.796  31.007  21.249  1.00  0.00     0.112 C 
ATOM     26  C   UNL A   1      28.214  32.256  21.888  1.00  0.00     0.027 C 
ENDBRANCH  23  25
ENDBRANCH  21  23
ENDBRANCH  19  21
ENDBRANCH  18  19
ENDBRANCH  13  17
ENDBRANCH   6  12
ENDBRANCH   1   5
BRANCH   3  27
ATOM     27  C   UNL A   1      34.373  35.205  27.854  1.00  0.00     0.118 C 
BRANCH  27  28
ATOM     28  C   UNL A   1      33.798  36.091  28.963  1.00  0.00     0.042 C 
BRANCH  28  29
ATOM     29  C   UNL A   1      32.737  35.407  29.815  1.00  0.00     0.118 C 
BRANCH  29  30
ATOM     30  N   UNL A   1      32.386  36.197  30.990  1.00  0.00    -0.352 N 
ATOM     31  C   UNL A   1      32.837  36.088  32.282  1.00  0.00     0.251 C 
ATOM     32  H   UNL A   1      31.730  36.913  30.834  1.00  0.00     0.163 HD
ATOM     33  O   UNL A   1      32.263  36.692  33.186  1.00  0.00    -0.269 OA
BRANCH  31  34
ATOM     34  C   UNL A   1      34.006  35.241  32.593  1.00  0.00     0.039 A 
ATOM     35  C   UNL A   1      35.292  35.719  32.326  1.00  0.00     0.014 A 
ATOM     36  C   UNL A   1      33.832  33.964  33.132  1.00  0.00     0.014 A 
ATOM     37  C   UNL A   1      36.405  34.942  32.658  1.00  0.00     0.010 A 
ATOM     38  C   UNL A   1      34.937  33.229  33.538  1.00  0.00     0.010 A 
ATOM     39  C   UNL A   1      36.237  33.705  33.298  1.00  0.00    -0.014 A 
BRANCH  39  40
ATOM     40  C   UNL A   1      37.388  32.861  33.702  1.00  0.00     0.031 A 
ATOM     41  C   UNL A   1      38.105  33.159  34.991  1.00  0.00     0.074 A 
ATOM     42  C   UNL A   1      37.850  31.904  32.875  1.00  0.00     0.049 A 
ATOM     43  N   UNL A   1      39.230  32.671  35.449  1.00  0.00    -0.248 NA
ATOM     44  C   UNL A   1      37.489  34.171  35.864  1.00  0.00     0.031 C 
ATOM     45  C   UNL A   1      37.257  31.540  31.586  1.00  0.00     0.029 A 
ATOM     46  N   UNL A   1      38.942  31.080  32.981  1.00  0.00    -0.354 N 
ATOM     47  C   UNL A   1      39.467  33.338  36.644  1.00  0.00     0.074 A 
ATOM     48  C   UNL A   1      38.403  34.300  36.814  1.00  0.00     0.031 C 
ATOM     49  C   UNL A   1      37.986  30.561  31.028  1.00  0.00     0.029 A 
ATOM     50  C   UNL A   1      39.125  30.264  31.892  1.00  0.00     0.049 A 
ATOM     51  H   UNL A   1      39.539  31.075  33.765  1.00  0.00     0.167 HD
ATOM     52  C   UNL A   1      40.474  33.147  37.531  1.00  0.00     0.037 A 
ATOM     53  C   UNL A   1      40.113  29.392  31.612  1.00  0.00     0.037 A 
ATOM     54  C   UNL A   1      41.516  32.168  37.366  1.00  0.00     0.049 A 
ATOM     55  C   UNL A   1      41.234  29.214  32.603  1.00  0.00     0.074 A 
ATOM     56  C   UNL A   1      42.555  31.860  38.224  1.00  0.00     0.029 A 
ATOM     57  N   UNL A   1      41.648  31.338  36.261  1.00  0.00    -0.354 N 
ATOM     58  N   UNL A   1      41.426  29.813  33.754  1.00  0.00    -0.248 NA
ATOM     59  C   UNL A   1      42.275  28.236  32.258  1.00  0.00     0.031 C 
ATOM     60  C   UNL A   1      43.347  30.882  37.617  1.00  0.00     0.029 A 
ATOM     61  C   UNL A   1      42.764  30.531  36.410  1.00  0.00     0.049 A 
ATOM     62  H   UNL A   1      41.040  31.325  35.487  1.00  0.00     0.167 HD
ATOM     63  C   UNL A   1      42.579  29.254  34.289  1.00  0.00     0.074 A 
ATOM     64  C   UNL A   1      43.044  28.267  33.338  1.00  0.00     0.031 C 
ATOM     65  C   UNL A   1      43.194  29.531  35.465  1.00  0.00     0.037 A 
BRANCH  52  66
ATOM     66  C   UNL A   1      40.498  34.017  38.755  1.00  0.00     0.064 A 
ATOM     67  C   UNL A   1      41.184  35.242  38.779  1.00  0.00     0.173 A 
ATOM     68  C   UNL A   1      39.801  33.636  39.913  1.00  0.00     0.173 A 
ATOM     69  F   UNL A   1      41.875  35.649  37.704  1.00  0.00    -0.203 F 
ATOM     70  C   UNL A   1      41.202  36.032  39.926  1.00  0.00     0.198 A 
ATOM     71  C   UNL A   1      39.790  34.448  41.044  1.00  0.00     0.198 A 
ATOM     72  F   UNL A   1      39.122  32.479  39.945  1.00  0.00    -0.203 F 
ATOM     73  F   UNL A   1      41.913  37.168  39.942  1.00  0.00    -0.200 F 
ATOM     74  C   UNL A   1      40.498  35.639  41.053  1.00  0.00     0.200 A 
ATOM     75  F   UNL A   1      39.097  34.073  42.128  1.00  0.00    -0.200 F 
ATOM     76  F   UNL A   1      40.510  36.405  42.153  1.00  0.00    -0.200 F 
ENDBRANCH  52  66
BRANCH  53  77
ATOM     77  C   UNL A   1      40.083  28.608  30.349  1.00  0.00     0.064 A 
ATOM     78  C   UNL A   1      40.705  29.091  29.189  1.00  0.00     0.173 A 
ATOM     79  C   UNL A   1      39.424  27.372  30.267  1.00  0.00     0.173 A 
ATOM     80  F   UNL A   1      41.332  30.276  29.210  1.00  0.00    -0.203 F 
ATOM     81  C   UNL A   1      40.648  28.382  27.990  1.00  0.00     0.198 A 
ATOM     82  C   UNL A   1      39.394  26.649  29.076  1.00  0.00     0.198 A 
ATOM     83  F   UNL A   1      38.818  26.861  31.348  1.00  0.00    -0.203 F 
ATOM     84  F   UNL A   1      41.204  28.895  26.885  1.00  0.00    -0.200 F 
ATOM     85  C   UNL A   1      39.997  27.160  27.935  1.00  0.00     0.200 A 
ATOM     86  F   UNL A   1      38.778  25.460  29.031  1.00  0.00    -0.200 F 
ATOM     87  F   UNL A   1      39.941  26.478  26.783  1.00  0.00    -0.200 F 
ENDBRANCH  53  77
BRANCH  65  88
ATOM     88  C   UNL A   1      44.396  28.709  35.833  1.00  0.00     0.064 A 
ATOM     89  C   UNL A   1      45.700  29.110  35.513  1.00  0.00     0.173 A 
ATOM     90  C   UNL A   1      44.236  27.530  36.580  1.00  0.00     0.173 A 
ATOM     91  F   UNL A   1      45.906  30.221  34.790  1.00  0.00    -0.203 F 
ATOM     92  C   UNL A   1      46.799  28.353  35.910  1.00  0.00     0.198 A 
ATOM     93  C   UNL A   1      45.337  26.794  37.005  1.00  0.00     0.198 A 
ATOM     94  F   UNL A   1      43.009  27.105  36.918  1.00  0.00    -0.203 F 
ATOM     95  F   UNL A   1      48.035  28.733  35.557  1.00  0.00    -0.200 F 
ATOM     96  C   UNL A   1      46.618  27.203  36.665  1.00  0.00     0.200 A 
ATOM     97  F   UNL A   1      45.160  25.694  37.749  1.00  0.00    -0.200 F 
ATOM     98  F   UNL A   1      47.678  26.485  37.061  1.00  0.00    -0.200 F 
ENDBRANCH  65  88
ENDBRANCH  39  40
ENDBRANCH  31  34
ENDBRANCH  29  30
ENDBRANCH  28  29
ENDBRANCH  27  28
ENDBRANCH   3  27
TORSDOF 16
ENDMDL
