MODEL 1
REMARK VINA RESULT:     -12.2      0.000      0.000
REMARK SMILES C[C@@H]1CN([C@@H](CCS(C)(=O)=O)C(=O)NCCCNC(=O)c2ccc(-c3c4nc(c(-c5c(F)c(F)c(F)c(F)c5F)c5ccc([nH]5)c(-c5c(F)c(F)c(F)c(F)c5F)c5nc(c(-c6c(F)c(F)c(F)c(F)c6F)c6ccc3[nH]6)C=C5)C=C4)cc2)S(=O)(=O)C1
REMARK SMILES IDX 15 1 14 2 12 3 13 4 5 6 4 7 1 8 2 9 3 10 87 11 84 12 85 13
REMARK SMILES IDX 86 14 6 15 7 16 8 17 9 18 10 19 11 20 16 21 17 22 18 23
REMARK SMILES IDX 19 24 20 26 21 27 22 28 83 29 23 30 82 31 24 32 25 33 26 34
REMARK SMILES IDX 76 35 27 36 81 37 75 38 77 39 28 40 80 41 74 42 73 43 29 45
REMARK SMILES IDX 61 46 41 47 60 48 42 49 45 50 59 51 78 52 43 53 44 54 58 56
REMARK SMILES IDX 79 57 46 58 30 59 31 60 39 61 32 62 33 63 37 64 40 65 34 66
REMARK SMILES IDX 35 67 38 68 36 69 62 70 63 71 71 72 64 73 65 74 69 75 72 76
REMARK SMILES IDX 66 77 67 78 70 79 68 80 47 81 48 82 56 83 49 84 50 85 54 86
REMARK SMILES IDX 57 87 51 88 52 89 55 90 53 91
REMARK H PARENT 14 5 18 25 77 44 45 55
REMARK Flexibility Score: inf
ROOT
ATOM      1  C   UNL A   1      31.929  30.447  26.418  1.00  0.00     0.117 C 
ENDROOT
BRANCH   1   2
ATOM      2  N   UNL A   1      32.850  30.139  25.355  1.00  0.00    -0.355 N 
ATOM      3  C   UNL A   1      32.709  29.289  24.312  1.00  0.00     0.238 C 
ATOM      4  O   UNL A   1      33.580  29.334  23.433  1.00  0.00    -0.273 OA
ATOM      5  H   UNL A   1      33.709  30.619  25.391  1.00  0.00     0.163 HD
BRANCH   3   6
ATOM      6  C   UNL A   1      31.498  28.386  24.119  1.00  0.00     0.163 C 
BRANCH   6   7
ATOM      7  N   UNL A   1      31.186  27.148  24.911  1.00  0.00    -0.189 NA
ATOM      8  C   UNL A   1      30.957  23.373  24.642  1.00  0.00     0.010 C 
ATOM      9  C   UNL A   1      30.861  24.802  25.138  1.00  0.00     0.017 C 
ATOM     10  C   UNL A   1      31.258  25.878  24.120  1.00  0.00     0.107 C 
ATOM     11  C   UNL A   1      31.782  25.042  26.325  1.00  0.00     0.159 C 
ATOM     12  S   UNL A   1      31.907  26.813  26.433  1.00  0.00     0.215 S 
ATOM     13  O   UNL A   1      33.308  27.168  26.385  1.00  0.00    -0.212 OA
ATOM     14  O   UNL A   1      31.004  27.237  27.472  1.00  0.00    -0.212 OA
ENDBRANCH   6   7
BRANCH   6  15
ATOM     15  C   UNL A   1      30.200  29.202  23.829  1.00  0.00     0.046 C 
BRANCH  15  16
ATOM     16  C   UNL A   1      29.834  29.550  22.387  1.00  0.00     0.139 C 
BRANCH  16  17
ATOM     17  S   UNL A   1      28.225  30.327  22.152  1.00  0.00     0.147 S 
ATOM     18  C   UNL A   1      28.450  32.035  22.543  1.00  0.00     0.158 C 
ATOM     19  O   UNL A   1      27.915  30.245  20.738  1.00  0.00    -0.229 OA
ATOM     20  O   UNL A   1      27.284  29.834  23.134  1.00  0.00    -0.229 OA
ENDBRANCH  16  17
ENDBRANCH  15  16
ENDBRANCH   6  15
ENDBRANCH   3   6
ENDBRANCH   1   2
BRANCH   1  21
ATOM     21  C   UNL A   1      31.661  31.928  26.527  1.00  0.00     0.042 C 
BRANCH  21  22
ATOM     22  C   UNL A   1      32.759  32.565  27.351  1.00  0.00     0.118 C 
BRANCH  22  23
ATOM     23  N   UNL A   1      32.518  33.998  27.573  1.00  0.00    -0.352 N 
ATOM     24  C   UNL A   1      32.997  34.845  28.541  1.00  0.00     0.251 C 
ATOM     25  H   UNL A   1      31.912  34.418  26.921  1.00  0.00     0.163 HD
ATOM     26  O   UNL A   1      32.501  35.953  28.716  1.00  0.00    -0.269 OA
BRANCH  24  27
ATOM     27  C   UNL A   1      34.114  34.397  29.388  1.00  0.00     0.039 A 
ATOM     28  C   UNL A   1      33.861  33.736  30.589  1.00  0.00     0.014 A 
ATOM     29  C   UNL A   1      35.420  34.585  28.947  1.00  0.00     0.014 A 
ATOM     30  C   UNL A   1      34.930  33.182  31.293  1.00  0.00     0.010 A 
ATOM     31  C   UNL A   1      36.440  33.865  29.530  1.00  0.00     0.010 A 
ATOM     32  C   UNL A   1      36.219  33.191  30.736  1.00  0.00    -0.014 A 
BRANCH  32  33
ATOM     33  C   UNL A   1      37.379  32.562  31.410  1.00  0.00     0.031 A 
ATOM     34  C   UNL A   1      38.112  31.442  30.718  1.00  0.00     0.074 A 
ATOM     35  C   UNL A   1      37.719  32.942  32.657  1.00  0.00     0.049 A 
ATOM     36  N   UNL A   1      39.079  30.682  31.166  1.00  0.00    -0.248 NA
ATOM     37  C   UNL A   1      37.667  31.090  29.356  1.00  0.00     0.031 C 
ATOM     38  C   UNL A   1      37.040  33.969  33.449  1.00  0.00     0.029 A 
ATOM     39  N   UNL A   1      38.727  32.505  33.477  1.00  0.00    -0.354 N 
ATOM     40  C   UNL A   1      39.332  29.765  30.155  1.00  0.00     0.074 A 
ATOM     41  C   UNL A   1      38.356  29.989  29.116  1.00  0.00     0.031 C 
ATOM     42  C   UNL A   1      37.683  34.121  34.618  1.00  0.00     0.029 A 
ATOM     43  C   UNL A   1      38.783  33.164  34.680  1.00  0.00     0.049 A 
ATOM     44  H   UNL A   1      39.350  31.785  33.227  1.00  0.00     0.167 HD
ATOM     45  C   UNL A   1      40.324  28.850  30.073  1.00  0.00     0.037 A 
ATOM     46  C   UNL A   1      39.631  33.008  35.714  1.00  0.00     0.037 A 
ATOM     47  C   UNL A   1      41.316  28.661  31.094  1.00  0.00     0.049 A 
ATOM     48  C   UNL A   1      40.714  31.967  35.605  1.00  0.00     0.074 A 
ATOM     49  C   UNL A   1      42.392  27.794  31.102  1.00  0.00     0.029 A 
ATOM     50  N   UNL A   1      41.351  29.362  32.292  1.00  0.00    -0.354 N 
ATOM     51  N   UNL A   1      40.988  31.152  34.615  1.00  0.00    -0.248 NA
ATOM     52  C   UNL A   1      41.611  31.829  36.760  1.00  0.00     0.031 C 
ATOM     53  C   UNL A   1      43.052  27.935  32.327  1.00  0.00     0.029 A 
ATOM     54  C   UNL A   1      42.424  28.934  33.054  1.00  0.00     0.049 A 
ATOM     55  H   UNL A   1      40.709  30.058  32.558  1.00  0.00     0.167 HD
ATOM     56  C   UNL A   1      42.110  30.435  35.008  1.00  0.00     0.074 A 
ATOM     57  C   UNL A   1      42.475  30.926  36.320  1.00  0.00     0.031 C 
ATOM     58  C   UNL A   1      42.778  29.457  34.348  1.00  0.00     0.037 A 
BRANCH  45  59
ATOM     59  C   UNL A   1      40.396  28.013  28.828  1.00  0.00     0.064 A 
ATOM     60  C   UNL A   1      41.139  28.423  27.708  1.00  0.00     0.173 A 
ATOM     61  C   UNL A   1      39.736  26.778  28.757  1.00  0.00     0.173 A 
ATOM     62  F   UNL A   1      41.776  29.604  27.715  1.00  0.00    -0.203 F 
ATOM     63  C   UNL A   1      41.192  27.644  26.555  1.00  0.00     0.198 A 
ATOM     64  C   UNL A   1      39.822  25.983  27.616  1.00  0.00     0.198 A 
ATOM     65  F   UNL A   1      39.013  26.335  29.796  1.00  0.00    -0.203 F 
ATOM     66  F   UNL A   1      41.858  28.086  25.480  1.00  0.00    -0.200 F 
ATOM     67  C   UNL A   1      40.541  26.421  26.514  1.00  0.00     0.200 A 
ATOM     68  F   UNL A   1      39.205  24.794  27.581  1.00  0.00    -0.200 F 
ATOM     69  F   UNL A   1      40.602  25.666  25.408  1.00  0.00    -0.200 F 
ENDBRANCH  45  59
BRANCH  46  70
ATOM     70  C   UNL A   1      39.516  33.868  36.922  1.00  0.00     0.064 A 
ATOM     71  C   UNL A   1      38.792  33.435  38.043  1.00  0.00     0.173 A 
ATOM     72  C   UNL A   1      40.092  35.145  36.974  1.00  0.00     0.173 A 
ATOM     73  F   UNL A   1      38.208  32.227  38.040  1.00  0.00    -0.203 F 
ATOM     74  C   UNL A   1      38.613  34.263  39.151  1.00  0.00     0.198 A 
ATOM     75  C   UNL A   1      39.943  35.958  38.096  1.00  0.00     0.198 A 
ATOM     76  F   UNL A   1      40.803  35.606  35.935  1.00  0.00    -0.203 F 
ATOM     77  F   UNL A   1      37.858  33.850  40.178  1.00  0.00    -0.200 F 
ATOM     78  C   UNL A   1      39.191  35.523  39.177  1.00  0.00     0.200 A 
ATOM     79  F   UNL A   1      40.519  37.168  38.126  1.00  0.00    -0.200 F 
ATOM     80  F   UNL A   1      39.013  36.320  40.239  1.00  0.00    -0.200 F 
ENDBRANCH  46  70
BRANCH  58  81
ATOM     81  C   UNL A   1      44.004  28.897  35.009  1.00  0.00     0.064 A 
ATOM     82  C   UNL A   1      43.944  27.775  35.848  1.00  0.00     0.173 A 
ATOM     83  C   UNL A   1      45.261  29.468  34.761  1.00  0.00     0.173 A 
ATOM     84  F   UNL A   1      42.765  27.200  36.126  1.00  0.00    -0.203 F 
ATOM     85  C   UNL A   1      45.096  27.269  36.444  1.00  0.00     0.198 A 
ATOM     86  C   UNL A   1      46.414  28.936  35.327  1.00  0.00     0.198 A 
ATOM     87  F   UNL A   1      45.374  30.536  33.956  1.00  0.00    -0.203 F 
ATOM     88  F   UNL A   1      45.009  26.233  37.290  1.00  0.00    -0.200 F 
ATOM     89  C   UNL A   1      46.330  27.842  36.177  1.00  0.00     0.200 A 
ATOM     90  F   UNL A   1      47.607  29.479  35.051  1.00  0.00    -0.200 F 
ATOM     91  F   UNL A   1      47.438  27.347  36.744  1.00  0.00    -0.200 F 
ENDBRANCH  58  81
ENDBRANCH  32  33
ENDBRANCH  24  27
ENDBRANCH  22  23
ENDBRANCH  21  22
ENDBRANCH   1  21
TORSDOF 14
ENDMDL
MODEL 2
REMARK VINA RESULT:     -12.1      0.709      7.449
REMARK SMILES C[C@@H]1CN([C@@H](CCS(C)(=O)=O)C(=O)NCCCNC(=O)c2ccc(-c3c4nc(c(-c5c(F)c(F)c(F)c(F)c5F)c5ccc([nH]5)c(-c5c(F)c(F)c(F)c(F)c5F)c5nc(c(-c6c(F)c(F)c(F)c(F)c6F)c6ccc3[nH]6)C=C5)C=C4)cc2)S(=O)(=O)C1
REMARK SMILES IDX 15 1 14 2 12 3 13 4 5 6 4 7 1 8 2 9 3 10 87 11 84 12 85 13
REMARK SMILES IDX 86 14 6 15 7 16 8 17 9 18 10 19 11 20 16 21 17 22 18 23
REMARK SMILES IDX 19 24 20 26 21 27 22 28 83 29 23 30 82 31 24 32 25 33 26 34
REMARK SMILES IDX 76 35 27 36 81 37 75 38 77 39 28 40 80 41 74 42 73 43 29 45
REMARK SMILES IDX 61 46 41 47 60 48 42 49 45 50 59 51 78 52 43 53 44 54 58 56
REMARK SMILES IDX 79 57 46 58 30 59 31 60 39 61 32 62 33 63 37 64 40 65 34 66
REMARK SMILES IDX 35 67 38 68 36 69 62 70 63 71 71 72 64 73 65 74 69 75 72 76
REMARK SMILES IDX 66 77 67 78 70 79 68 80 47 81 48 82 56 83 49 84 50 85 54 86
REMARK SMILES IDX 57 87 51 88 52 89 55 90 53 91
REMARK H PARENT 14 5 18 25 77 44 45 55
REMARK Flexibility Score: inf
ROOT
ATOM      1  C   UNL A   1      31.630  30.369  26.255  1.00  0.00     0.117 C 
ENDROOT
BRANCH   1   2
ATOM      2  N   UNL A   1      32.542  30.088  25.177  1.00  0.00    -0.355 N 
ATOM      3  C   UNL A   1      32.449  29.171  24.187  1.00  0.00     0.238 C 
ATOM      4  O   UNL A   1      33.284  29.246  23.275  1.00  0.00    -0.273 OA
ATOM      5  H   UNL A   1      33.353  30.646  25.157  1.00  0.00     0.163 HD
BRANCH   3   6
ATOM      6  C   UNL A   1      31.322  28.151  24.087  1.00  0.00     0.163 C 
BRANCH   6   7
ATOM      7  N   UNL A   1      31.118  26.971  24.993  1.00  0.00    -0.189 NA
ATOM      8  C   UNL A   1      30.929  23.184  25.018  1.00  0.00     0.010 C 
ATOM      9  C   UNL A   1      30.861  24.644  25.419  1.00  0.00     0.017 C 
ATOM     10  C   UNL A   1      31.128  25.647  24.291  1.00  0.00     0.107 C 
ATOM     11  C   UNL A   1      31.898  24.979  26.481  1.00  0.00     0.159 C 
ATOM     12  S   UNL A   1      32.001  26.754  26.449  1.00  0.00     0.215 S 
ATOM     13  O   UNL A   1      33.383  27.119  26.227  1.00  0.00    -0.212 OA
ATOM     14  O   UNL A   1      31.205  27.243  27.546  1.00  0.00    -0.212 OA
ENDBRANCH   6   7
BRANCH   6  15
ATOM     15  C   UNL A   1      29.958  28.820  23.728  1.00  0.00     0.046 C 
BRANCH  15  16
ATOM     16  C   UNL A   1      29.791  29.516  22.378  1.00  0.00     0.139 C 
BRANCH  16  17
ATOM     17  S   UNL A   1      28.201  30.319  22.101  1.00  0.00     0.147 S 
ATOM     18  C   UNL A   1      28.414  31.999  22.604  1.00  0.00     0.158 C 
ATOM     19  O   UNL A   1      27.969  30.323  20.670  1.00  0.00    -0.229 OA
ATOM     20  O   UNL A   1      27.205  29.777  23.000  1.00  0.00    -0.229 OA
ENDBRANCH  16  17
ENDBRANCH  15  16
ENDBRANCH   6  15
ENDBRANCH   3   6
ENDBRANCH   1   2
BRANCH   1  21
ATOM     21  C   UNL A   1      31.427  31.851  26.457  1.00  0.00     0.042 C 
BRANCH  21  22
ATOM     22  C   UNL A   1      32.622  32.413  27.196  1.00  0.00     0.118 C 
BRANCH  22  23
ATOM     23  N   UNL A   1      32.459  33.842  27.496  1.00  0.00    -0.352 N 
ATOM     24  C   UNL A   1      33.028  34.621  28.473  1.00  0.00     0.251 C 
ATOM     25  H   UNL A   1      31.837  34.319  26.899  1.00  0.00     0.163 HD
ATOM     26  O   UNL A   1      32.592  35.739  28.726  1.00  0.00    -0.269 OA
BRANCH  24  27
ATOM     27  C   UNL A   1      34.167  34.085  29.234  1.00  0.00     0.039 A 
ATOM     28  C   UNL A   1      33.949  33.234  30.317  1.00  0.00     0.014 A 
ATOM     29  C   UNL A   1      35.462  34.387  28.824  1.00  0.00     0.014 A 
ATOM     30  C   UNL A   1      35.043  32.614  30.920  1.00  0.00     0.010 A 
ATOM     31  C   UNL A   1      36.512  33.622  29.282  1.00  0.00     0.010 A 
ATOM     32  C   UNL A   1      36.326  32.758  30.367  1.00  0.00    -0.014 A 
BRANCH  32  33
ATOM     33  C   UNL A   1      37.514  32.073  30.929  1.00  0.00     0.031 A 
ATOM     34  C   UNL A   1      38.014  32.470  32.294  1.00  0.00     0.074 A 
ATOM     35  C   UNL A   1      38.175  31.162  30.190  1.00  0.00     0.049 A 
ATOM     36  N   UNL A   1      39.090  32.081  32.928  1.00  0.00    -0.248 NA
ATOM     37  C   UNL A   1      37.227  33.479  33.028  1.00  0.00     0.031 C 
ATOM     38  C   UNL A   1      37.822  30.748  28.831  1.00  0.00     0.029 A 
ATOM     39  N   UNL A   1      39.289  30.418  30.482  1.00  0.00    -0.354 N 
ATOM     40  C   UNL A   1      39.112  32.810  34.109  1.00  0.00     0.074 A 
ATOM     41  C   UNL A   1      38.007  33.737  34.064  1.00  0.00     0.031 C 
ATOM     42  C   UNL A   1      38.668  29.786  28.429  1.00  0.00     0.029 A 
ATOM     43  C   UNL A   1      39.655  29.557  29.478  1.00  0.00     0.049 A 
ATOM     44  H   UNL A   1      39.781  30.496  31.332  1.00  0.00     0.167 HD
ATOM     45  C   UNL A   1      39.946  32.683  35.166  1.00  0.00     0.037 A 
ATOM     46  C   UNL A   1      40.677  28.682  29.418  1.00  0.00     0.037 A 
ATOM     47  C   UNL A   1      41.018  31.730  35.220  1.00  0.00     0.049 A 
ATOM     48  C   UNL A   1      41.604  28.576  30.600  1.00  0.00     0.074 A 
ATOM     49  C   UNL A   1      41.902  31.482  36.254  1.00  0.00     0.029 A 
ATOM     50  N   UNL A   1      41.347  30.860  34.189  1.00  0.00    -0.354 N 
ATOM     51  N   UNL A   1      41.573  29.221  31.741  1.00  0.00    -0.248 NA
ATOM     52  C   UNL A   1      42.706  27.612  30.486  1.00  0.00     0.031 C 
ATOM     53  C   UNL A   1      42.796  30.495  35.831  1.00  0.00     0.029 A 
ATOM     54  C   UNL A   1      42.431  30.085  34.558  1.00  0.00     0.049 A 
ATOM     55  H   UNL A   1      40.878  30.804  33.327  1.00  0.00     0.167 HD
ATOM     56  C   UNL A   1      42.623  28.714  32.495  1.00  0.00     0.074 A 
ATOM     57  C   UNL A   1      43.259  27.695  31.686  1.00  0.00     0.031 C 
ATOM     58  C   UNL A   1      43.029  29.060  33.741  1.00  0.00     0.037 A 
BRANCH  45  59
ATOM     59  C   UNL A   1      39.708  33.576  36.350  1.00  0.00     0.064 A 
ATOM     60  C   UNL A   1      38.874  33.183  37.411  1.00  0.00     0.173 A 
ATOM     61  C   UNL A   1      40.334  34.827  36.441  1.00  0.00     0.173 A 
ATOM     62  F   UNL A   1      38.236  32.003  37.368  1.00  0.00    -0.203 F 
ATOM     63  C   UNL A   1      38.652  34.021  38.500  1.00  0.00     0.198 A 
ATOM     64  C   UNL A   1      40.140  35.647  37.550  1.00  0.00     0.198 A 
ATOM     65  F   UNL A   1      41.141  35.253  35.458  1.00  0.00    -0.203 F 
ATOM     66  F   UNL A   1      37.806  33.647  39.469  1.00  0.00    -0.200 F 
ATOM     67  C   UNL A   1      39.293  35.248  38.573  1.00  0.00     0.200 A 
ATOM     68  F   UNL A   1      40.771  36.827  37.627  1.00  0.00    -0.200 F 
ATOM     69  F   UNL A   1      39.089  36.050  39.627  1.00  0.00    -0.200 F 
ENDBRANCH  45  59
BRANCH  46  70
ATOM     70  C   UNL A   1      40.864  27.819  28.220  1.00  0.00     0.064 A 
ATOM     71  C   UNL A   1      40.325  26.525  28.178  1.00  0.00     0.173 A 
ATOM     72  C   UNL A   1      41.609  28.248  27.113  1.00  0.00     0.173 A 
ATOM     73  F   UNL A   1      39.617  26.059  29.218  1.00  0.00    -0.203 F 
ATOM     74  C   UNL A   1      40.559  25.680  27.094  1.00  0.00     0.198 A 
ATOM     75  C   UNL A   1      41.812  27.416  26.014  1.00  0.00     0.198 A 
ATOM     76  F   UNL A   1      42.140  29.480  27.094  1.00  0.00    -0.203 F 
ATOM     77  F   UNL A   1      40.090  24.425  27.113  1.00  0.00    -0.200 F 
ATOM     78  C   UNL A   1      41.300  26.127  26.011  1.00  0.00     0.200 A 
ATOM     79  F   UNL A   1      42.513  27.858  24.961  1.00  0.00    -0.200 F 
ATOM     80  F   UNL A   1      41.530  25.313  24.973  1.00  0.00    -0.200 F 
ENDBRANCH  46  70
BRANCH  58  81
ATOM     81  C   UNL A   1      44.178  28.291  34.328  1.00  0.00     0.064 A 
ATOM     82  C   UNL A   1      43.984  27.092  35.030  1.00  0.00     0.173 A 
ATOM     83  C   UNL A   1      45.494  28.742  34.145  1.00  0.00     0.173 A 
ATOM     84  F   UNL A   1      42.744  26.625  35.242  1.00  0.00    -0.203 F 
ATOM     85  C   UNL A   1      45.065  26.393  35.559  1.00  0.00     0.198 A 
ATOM     86  C   UNL A   1      46.574  28.020  34.641  1.00  0.00     0.198 A 
ATOM     87  F   UNL A   1      45.734  29.877  33.470  1.00  0.00    -0.203 F 
ATOM     88  F   UNL A   1      44.853  25.282  36.277  1.00  0.00    -0.200 F 
ATOM     89  C   UNL A   1      46.358  26.851  35.356  1.00  0.00     0.200 A 
ATOM     90  F   UNL A   1      47.823  28.453  34.426  1.00  0.00    -0.200 F 
ATOM     91  F   UNL A   1      47.398  26.171  35.858  1.00  0.00    -0.200 F 
ENDBRANCH  58  81
ENDBRANCH  32  33
ENDBRANCH  24  27
ENDBRANCH  22  23
ENDBRANCH  21  22
ENDBRANCH   1  21
TORSDOF 14
ENDMDL
MODEL 3
REMARK VINA RESULT:     -12.1      2.053      7.975
REMARK SMILES C[C@@H]1CN([C@@H](CCS(C)(=O)=O)C(=O)NCCCNC(=O)c2ccc(-c3c4nc(c(-c5c(F)c(F)c(F)c(F)c5F)c5ccc([nH]5)c(-c5c(F)c(F)c(F)c(F)c5F)c5nc(c(-c6c(F)c(F)c(F)c(F)c6F)c6ccc3[nH]6)C=C5)C=C4)cc2)S(=O)(=O)C1
REMARK SMILES IDX 15 1 14 2 12 3 13 4 5 6 4 7 1 8 2 9 3 10 87 11 84 12 85 13
REMARK SMILES IDX 86 14 6 15 7 16 8 17 9 18 10 19 11 20 16 21 17 22 18 23
REMARK SMILES IDX 19 24 20 26 21 27 22 28 83 29 23 30 82 31 24 32 25 33 26 34
REMARK SMILES IDX 76 35 27 36 81 37 75 38 77 39 28 40 80 41 74 42 73 43 29 45
REMARK SMILES IDX 61 46 41 47 60 48 42 49 45 50 59 51 78 52 43 53 44 54 58 56
REMARK SMILES IDX 79 57 46 58 30 59 31 60 39 61 32 62 33 63 37 64 40 65 34 66
REMARK SMILES IDX 35 67 38 68 36 69 62 70 63 71 71 72 64 73 65 74 69 75 72 76
REMARK SMILES IDX 66 77 67 78 70 79 68 80 47 81 48 82 56 83 49 84 50 85 54 86
REMARK SMILES IDX 57 87 51 88 52 89 55 90 53 91
REMARK H PARENT 14 5 18 25 77 44 45 55
REMARK Flexibility Score: inf
ROOT
ATOM      1  C   UNL A   1      32.229  27.762  26.910  1.00  0.00     0.117 C 
ENDROOT
BRANCH   1   2
ATOM      2  N   UNL A   1      31.103  26.864  26.891  1.00  0.00    -0.355 N 
ATOM      3  C   UNL A   1      30.759  25.934  25.971  1.00  0.00     0.238 C 
ATOM      4  O   UNL A   1      29.836  25.164  26.273  1.00  0.00    -0.273 OA
ATOM      5  H   UNL A   1      30.495  26.937  27.662  1.00  0.00     0.163 HD
BRANCH   3   6
ATOM      6  C   UNL A   1      31.512  25.723  24.664  1.00  0.00     0.163 C 
BRANCH   6   7
ATOM      7  N   UNL A   1      32.290  24.495  24.284  1.00  0.00    -0.189 NA
ATOM      8  C   UNL A   1      32.010  21.200  22.430  1.00  0.00     0.010 C 
ATOM      9  C   UNL A   1      32.503  22.341  23.298  1.00  0.00     0.017 C 
ATOM     10  C   UNL A   1      31.501  23.482  23.512  1.00  0.00     0.107 C 
ATOM     11  C   UNL A   1      33.725  23.014  22.692  1.00  0.00     0.159 C 
ATOM     12  S   UNL A   1      33.839  24.569  23.546  1.00  0.00     0.215 S 
ATOM     13  O   UNL A   1      33.846  25.625  22.558  1.00  0.00    -0.212 OA
ATOM     14  O   UNL A   1      34.842  24.416  24.569  1.00  0.00    -0.212 OA
ENDBRANCH   6   7
BRANCH   6  15
ATOM     15  C   UNL A   1      30.727  26.286  23.439  1.00  0.00     0.046 C 
BRANCH  15  16
ATOM     16  C   UNL A   1      29.745  27.439  23.636  1.00  0.00     0.139 C 
BRANCH  16  17
ATOM     17  S   UNL A   1      30.283  29.043  23.014  1.00  0.00     0.147 S 
ATOM     18  C   UNL A   1      32.034  28.921  22.810  1.00  0.00     0.158 C 
ATOM     19  O   UNL A   1      29.705  29.204  21.694  1.00  0.00    -0.229 OA
ATOM     20  O   UNL A   1      30.089  30.061  24.024  1.00  0.00    -0.229 OA
ENDBRANCH  16  17
ENDBRANCH  15  16
ENDBRANCH   6  15
ENDBRANCH   3   6
ENDBRANCH   1   2
BRANCH   1  21
ATOM     21  C   UNL A   1      31.802  29.209  26.929  1.00  0.00     0.042 C 
BRANCH  21  22
ATOM     22  C   UNL A   1      32.873  30.044  26.261  1.00  0.00     0.118 C 
BRANCH  22  23
ATOM     23  N   UNL A   1      32.763  31.466  26.618  1.00  0.00    -0.352 N 
ATOM     24  C   UNL A   1      33.520  32.235  27.466  1.00  0.00     0.251 C 
ATOM     25  H   UNL A   1      32.023  31.944  26.178  1.00  0.00     0.163 HD
ATOM     26  O   UNL A   1      33.137  33.342  27.830  1.00  0.00    -0.269 OA
BRANCH  24  27
ATOM     27  C   UNL A   1      34.802  31.703  27.954  1.00  0.00     0.039 A 
ATOM     28  C   UNL A   1      35.915  32.537  28.056  1.00  0.00     0.014 A 
ATOM     29  C   UNL A   1      34.874  30.377  28.370  1.00  0.00     0.014 A 
ATOM     30  C   UNL A   1      37.069  32.052  28.669  1.00  0.00     0.010 A 
ATOM     31  C   UNL A   1      35.933  29.970  29.153  1.00  0.00     0.010 A 
ATOM     32  C   UNL A   1      37.064  30.784  29.275  1.00  0.00    -0.014 A 
BRANCH  32  33
ATOM     33  C   UNL A   1      38.241  30.244  29.994  1.00  0.00     0.031 A 
ATOM     34  C   UNL A   1      38.516  30.704  31.403  1.00  0.00     0.074 A 
ATOM     35  C   UNL A   1      39.090  29.411  29.362  1.00  0.00     0.049 A 
ATOM     36  N   UNL A   1      39.542  30.446  32.174  1.00  0.00    -0.248 NA
ATOM     37  C   UNL A   1      37.533  31.619  32.012  1.00  0.00     0.031 C 
ATOM     38  C   UNL A   1      38.961  28.951  27.978  1.00  0.00     0.029 A 
ATOM     39  N   UNL A   1      40.236  28.803  29.806  1.00  0.00    -0.354 N 
ATOM     40  C   UNL A   1      39.330  31.179  33.334  1.00  0.00     0.074 A 
ATOM     41  C   UNL A   1      38.142  31.972  33.132  1.00  0.00     0.031 C 
ATOM     42  C   UNL A   1      39.955  28.091  27.705  1.00  0.00     0.029 A 
ATOM     43  C   UNL A   1      40.822  27.984  28.873  1.00  0.00     0.049 A 
ATOM     44  H   UNL A   1      40.604  28.941  30.709  1.00  0.00     0.167 HD
ATOM     45  C   UNL A   1      40.033  31.155  34.488  1.00  0.00     0.037 A 
ATOM     46  C   UNL A   1      41.935  27.233  28.958  1.00  0.00     0.037 A 
ATOM     47  C   UNL A   1      41.192  30.333  34.695  1.00  0.00     0.049 A 
ATOM     48  C   UNL A   1      42.712  27.241  30.249  1.00  0.00     0.074 A 
ATOM     49  C   UNL A   1      41.960  30.195  35.836  1.00  0.00     0.029 A 
ATOM     50  N   UNL A   1      41.745  29.501  33.731  1.00  0.00    -0.354 N 
ATOM     51  N   UNL A   1      42.464  27.885  31.364  1.00  0.00    -0.248 NA
ATOM     52  C   UNL A   1      43.923  26.410  30.293  1.00  0.00     0.031 C 
ATOM     53  C   UNL A   1      43.008  29.315  35.548  1.00  0.00     0.029 A 
ATOM     54  C   UNL A   1      42.855  28.858  34.248  1.00  0.00     0.049 A 
ATOM     55  H   UNL A   1      41.398  29.386  32.818  1.00  0.00     0.167 HD
ATOM     56  C   UNL A   1      43.461  27.507  32.254  1.00  0.00     0.074 A 
ATOM     57  C   UNL A   1      44.307  26.564  31.551  1.00  0.00     0.031 C 
ATOM     58  C   UNL A   1      43.665  27.904  33.533  1.00  0.00     0.037 A 
BRANCH  45  59
ATOM     59  C   UNL A   1      39.547  32.021  35.615  1.00  0.00     0.064 A 
ATOM     60  C   UNL A   1      38.599  31.557  36.543  1.00  0.00     0.173 A 
ATOM     61  C   UNL A   1      40.048  33.319  35.788  1.00  0.00     0.173 A 
ATOM     62  F   UNL A   1      38.074  30.328  36.415  1.00  0.00    -0.203 F 
ATOM     63  C   UNL A   1      38.148  32.370  37.579  1.00  0.00     0.198 A 
ATOM     64  C   UNL A   1      39.623  34.117  36.848  1.00  0.00     0.198 A 
ATOM     65  F   UNL A   1      40.955  33.815  34.933  1.00  0.00    -0.203 F 
ATOM     66  F   UNL A   1      37.200  31.924  38.414  1.00  0.00    -0.200 F 
ATOM     67  C   UNL A   1      38.667  33.645  37.736  1.00  0.00     0.200 A 
ATOM     68  F   UNL A   1      40.135  35.345  37.008  1.00  0.00    -0.200 F 
ATOM     69  F   UNL A   1      38.242  34.424  38.740  1.00  0.00    -0.200 F 
ENDBRANCH  45  59
BRANCH  46  70
ATOM     70  C   UNL A   1      42.369  26.390  27.811  1.00  0.00     0.064 A 
ATOM     71  C   UNL A   1      43.317  26.865  26.892  1.00  0.00     0.173 A 
ATOM     72  C   UNL A   1      41.827  25.117  27.586  1.00  0.00     0.173 A 
ATOM     73  F   UNL A   1      43.856  28.082  27.053  1.00  0.00    -0.203 F 
ATOM     74  C   UNL A   1      43.674  26.116  25.771  1.00  0.00     0.198 A 
ATOM     75  C   UNL A   1      42.211  24.354  26.485  1.00  0.00     0.198 A 
ATOM     76  F   UNL A   1      40.923  24.610  28.437  1.00  0.00    -0.203 F 
ATOM     77  F   UNL A   1      44.530  26.624  24.874  1.00  0.00    -0.200 F 
ATOM     78  C   UNL A   1      43.123  24.860  25.571  1.00  0.00     0.200 A 
ATOM     79  F   UNL A   1      41.689  23.133  26.303  1.00  0.00    -0.200 F 
ATOM     80  F   UNL A   1      43.460  24.144  24.490  1.00  0.00    -0.200 F 
ENDBRANCH  46  70
BRANCH  58  81
ATOM     81  C   UNL A   1      44.810  27.277  34.274  1.00  0.00     0.064 A 
ATOM     82  C   UNL A   1      44.664  26.075  34.981  1.00  0.00     0.173 A 
ATOM     83  C   UNL A   1      46.082  27.869  34.237  1.00  0.00     0.173 A 
ATOM     84  F   UNL A   1      43.466  25.476  35.057  1.00  0.00    -0.203 F 
ATOM     85  C   UNL A   1      45.742  25.508  35.655  1.00  0.00     0.198 A 
ATOM     86  C   UNL A   1      47.165  27.279  34.878  1.00  0.00     0.198 A 
ATOM     87  F   UNL A   1      46.277  29.014  33.564  1.00  0.00    -0.203 F 
ATOM     88  F   UNL A   1      45.566  24.391  36.373  1.00  0.00    -0.200 F 
ATOM     89  C   UNL A   1      46.992  26.104  35.595  1.00  0.00     0.200 A 
ATOM     90  F   UNL A   1      48.377  27.846  34.802  1.00  0.00    -0.200 F 
ATOM     91  F   UNL A   1      48.031  25.551  36.236  1.00  0.00    -0.200 F 
ENDBRANCH  58  81
ENDBRANCH  32  33
ENDBRANCH  24  27
ENDBRANCH  22  23
ENDBRANCH  21  22
ENDBRANCH   1  21
TORSDOF 14
ENDMDL
