MODEL 1
REMARK VINA RESULT:     -11.3      0.000      0.000
REMARK SMILES CCCC[C@@H](C(=O)NCCCNC(=O)c1ccc(-c2c3nc(c(-c4c(F)c(F)c(F)c(F)c4F)c4ccc([nH]4)c(-c4c(F)c(F)c(F)c(F)c4F)c4nc(c(-c5c(F)c(F)c(F)c(F)c5F)c5ccc2[nH]5)C=C4)C=C3)cc1)[C@]1(O)COc2cc(O)ccc21
REMARK SMILES IDX 9 1 8 2 6 3 7 4 5 6 4 7 3 8 2 9 1 10 78 11 80 12 88 13 81 14
REMARK SMILES IDX 82 15 87 16 83 17 86 18 84 19 79 20 85 22 10 24 11 25 12 26
REMARK SMILES IDX 13 27 14 29 15 30 16 31 77 32 17 33 76 34 18 35 19 36 20 37
REMARK SMILES IDX 70 38 21 39 75 40 69 41 71 42 22 43 74 44 68 45 67 46 23 48
REMARK SMILES IDX 55 49 35 50 54 51 36 52 39 53 53 54 72 55 37 56 38 57 52 59
REMARK SMILES IDX 73 60 40 61 24 62 25 63 33 64 26 65 27 66 31 67 34 68 28 69
REMARK SMILES IDX 29 70 32 71 30 72 56 73 57 74 65 75 58 76 59 77 63 78 66 79
REMARK SMILES IDX 60 80 61 81 64 82 62 83 41 84 42 85 50 86 43 87 44 88 48 89
REMARK SMILES IDX 51 90 45 91 46 92 49 93 47 94
REMARK H PARENT 8 5 79 21 85 23 12 28 71 47 39 58
REMARK Flexibility Score: inf
ROOT
ATOM      1  C   UNL A   1      31.401  30.701  25.907  1.00  0.00     0.117 C 
ENDROOT
BRANCH   1   2
ATOM      2  N   UNL A   1      31.939  29.776  26.888  1.00  0.00    -0.356 N 
ATOM      3  C   UNL A   1      31.673  28.433  26.951  1.00  0.00     0.226 C 
ATOM      4  O   UNL A   1      31.369  27.970  28.049  1.00  0.00    -0.275 OA
ATOM      5  H   UNL A   1      32.549  30.146  27.567  1.00  0.00     0.163 HD
BRANCH   3   6
ATOM      6  C   UNL A   1      31.811  27.583  25.688  1.00  0.00     0.118 C 
BRANCH   6   7
ATOM      7  C   UNL A   1      31.054  26.232  25.802  1.00  0.00     0.017 C 
BRANCH   7   8
ATOM      8  C   UNL A   1      29.915  25.919  24.831  1.00  0.00     0.001 C 
BRANCH   8   9
ATOM      9  C   UNL A   1      30.312  25.289  23.497  1.00  0.00    -0.003 C 
ATOM     10  C   UNL A   1      30.638  23.811  23.626  1.00  0.00     0.004 C 
ENDBRANCH   8   9
ENDBRANCH   7   8
ENDBRANCH   6   7
BRANCH   6  11
ATOM     11  C   UNL A   1      33.327  27.327  25.335  1.00  0.00     0.139 C 
ATOM     12  C   UNL A   1      33.806  27.835  23.947  1.00  0.00     0.270 C 
ATOM     13  C   UNL A   1      33.764  25.900  25.148  1.00  0.00     0.030 A 
ATOM     14  O   UNL A   1      33.711  26.760  22.992  1.00  0.00    -0.490 OA
ATOM     15  C   UNL A   1      33.902  25.654  23.780  1.00  0.00     0.129 A 
ATOM     16  C   UNL A   1      34.009  24.878  26.054  1.00  0.00     0.014 A 
ATOM     17  C   UNL A   1      34.192  24.407  23.266  1.00  0.00     0.093 A 
ATOM     18  C   UNL A   1      34.356  23.612  25.556  1.00  0.00     0.047 A 
ATOM     19  C   UNL A   1      34.419  23.384  24.173  1.00  0.00     0.119 A 
BRANCH  11  20
ATOM     20  O   UNL A   1      34.100  27.986  26.353  1.00  0.00    -0.381 OA
ATOM     21  H   UNL A   1      34.542  27.321  26.903  1.00  0.00     0.212 HD
ENDBRANCH  11  20
BRANCH  19  22
ATOM     22  O   UNL A   1      34.708  22.150  23.668  1.00  0.00    -0.508 OA
ATOM     23  H   UNL A   1      35.008  21.469  24.239  1.00  0.00     0.293 HD
ENDBRANCH  19  22
ENDBRANCH   6  11
ENDBRANCH   3   6
ENDBRANCH   1   2
BRANCH   1  24
ATOM     24  C   UNL A   1      31.243  32.092  26.524  1.00  0.00     0.042 C 
BRANCH  24  25
ATOM     25  C   UNL A   1      32.512  32.634  27.158  1.00  0.00     0.118 C 
BRANCH  25  26
ATOM     26  N   UNL A   1      32.388  34.033  27.525  1.00  0.00    -0.352 N 
ATOM     27  C   UNL A   1      33.051  34.737  28.500  1.00  0.00     0.251 C 
ATOM     28  H   UNL A   1      31.735  34.551  27.001  1.00  0.00     0.163 HD
ATOM     29  O   UNL A   1      32.660  35.855  28.814  1.00  0.00    -0.269 OA
BRANCH  27  30
ATOM     30  C   UNL A   1      34.224  34.145  29.184  1.00  0.00     0.039 A 
ATOM     31  C   UNL A   1      34.009  33.205  30.195  1.00  0.00     0.014 A 
ATOM     32  C   UNL A   1      35.527  34.531  28.858  1.00  0.00     0.014 A 
ATOM     33  C   UNL A   1      35.099  32.624  30.846  1.00  0.00     0.010 A 
ATOM     34  C   UNL A   1      36.612  33.881  29.438  1.00  0.00     0.010 A 
ATOM     35  C   UNL A   1      36.410  32.938  30.455  1.00  0.00    -0.014 A 
BRANCH  35  36
ATOM     36  C   UNL A   1      37.584  32.321  31.125  1.00  0.00     0.031 A 
ATOM     37  C   UNL A   1      38.341  31.215  30.443  1.00  0.00     0.074 A 
ATOM     38  C   UNL A   1      37.934  32.721  32.362  1.00  0.00     0.049 A 
ATOM     39  N   UNL A   1      39.355  30.510  30.880  1.00  0.00    -0.248 NA
ATOM     40  C   UNL A   1      37.880  30.825  29.101  1.00  0.00     0.031 C 
ATOM     41  C   UNL A   1      37.248  33.749  33.144  1.00  0.00     0.029 A 
ATOM     42  N   UNL A   1      38.954  32.305  33.182  1.00  0.00    -0.354 N 
ATOM     43  C   UNL A   1      39.636  29.589  29.879  1.00  0.00     0.074 A 
ATOM     44  C   UNL A   1      38.650  29.779  28.839  1.00  0.00     0.031 C 
ATOM     45  C   UNL A   1      37.881  33.905  34.319  1.00  0.00     0.029 A 
ATOM     46  C   UNL A   1      38.990  32.960  34.389  1.00  0.00     0.049 A 
ATOM     47  H   UNL A   1      39.596  31.604  32.930  1.00  0.00     0.167 HD
ATOM     48  C   UNL A   1      40.643  28.685  29.819  1.00  0.00     0.037 A 
ATOM     49  C   UNL A   1      39.823  32.809  35.437  1.00  0.00     0.037 A 
ATOM     50  C   UNL A   1      41.637  28.521  30.846  1.00  0.00     0.049 A 
ATOM     51  C   UNL A   1      40.931  31.794  35.347  1.00  0.00     0.074 A 
ATOM     52  C   UNL A   1      42.735  27.678  30.857  1.00  0.00     0.029 A 
ATOM     53  N   UNL A   1      41.651  29.214  32.047  1.00  0.00    -0.354 N 
ATOM     54  N   UNL A   1      41.232  30.980  34.364  1.00  0.00    -0.248 NA
ATOM     55  C   UNL A   1      41.821  31.682  36.510  1.00  0.00     0.031 C 
ATOM     56  C   UNL A   1      43.382  27.823  32.088  1.00  0.00     0.029 A 
ATOM     57  C   UNL A   1      42.724  28.799  32.819  1.00  0.00     0.049 A 
ATOM     58  H   UNL A   1      40.995  29.898  32.314  1.00  0.00     0.167 HD
ATOM     59  C   UNL A   1      42.360  30.283  34.776  1.00  0.00     0.074 A 
ATOM     60  C   UNL A   1      42.699  30.781  36.092  1.00  0.00     0.031 C 
ATOM     61  C   UNL A   1      43.051  29.315  34.125  1.00  0.00     0.037 A 
BRANCH  48  62
ATOM     62  C   UNL A   1      40.720  27.808  28.600  1.00  0.00     0.064 A 
ATOM     63  C   UNL A   1      40.044  26.580  28.532  1.00  0.00     0.173 A 
ATOM     64  C   UNL A   1      41.452  28.216  27.474  1.00  0.00     0.173 A 
ATOM     65  F   UNL A   1      39.340  26.137  29.584  1.00  0.00    -0.203 F 
ATOM     66  C   UNL A   1      40.128  25.777  27.397  1.00  0.00     0.198 A 
ATOM     67  C   UNL A   1      41.504  27.427  26.328  1.00  0.00     0.198 A 
ATOM     68  F   UNL A   1      42.111  29.384  27.482  1.00  0.00    -0.203 F 
ATOM     69  F   UNL A   1      39.520  24.582  27.378  1.00  0.00    -0.200 F 
ATOM     70  C   UNL A   1      40.849  26.204  26.294  1.00  0.00     0.200 A 
ATOM     71  F   UNL A   1      42.190  27.848  25.257  1.00  0.00    -0.200 F 
ATOM     72  F   UNL A   1      40.922  25.434  25.200  1.00  0.00    -0.200 F 
ENDBRANCH  48  62
BRANCH  49  73
ATOM     73  C   UNL A   1      39.658  33.655  36.647  1.00  0.00     0.064 A 
ATOM     74  C   UNL A   1      40.354  34.865  36.783  1.00  0.00     0.173 A 
ATOM     75  C   UNL A   1      38.807  33.275  37.696  1.00  0.00     0.173 A 
ATOM     76  F   UNL A   1      41.194  35.264  35.816  1.00  0.00    -0.203 F 
ATOM     77  C   UNL A   1      40.224  35.649  37.928  1.00  0.00     0.198 A 
ATOM     78  C   UNL A   1      38.654  34.074  38.827  1.00  0.00     0.198 A 
ATOM     79  F   UNL A   1      38.112  32.130  37.616  1.00  0.00    -0.203 F 
ATOM     80  F   UNL A   1      40.939  36.775  38.050  1.00  0.00    -0.200 F 
ATOM     81  C   UNL A   1      39.370  35.255  38.947  1.00  0.00     0.200 A 
ATOM     82  F   UNL A   1      37.813  33.699  39.801  1.00  0.00    -0.200 F 
ATOM     83  F   UNL A   1      39.241  36.011  40.045  1.00  0.00    -0.200 F 
ENDBRANCH  49  73
BRANCH  61  84
ATOM     84  C   UNL A   1      44.268  28.761  34.808  1.00  0.00     0.064 A 
ATOM     85  C   UNL A   1      44.204  27.618  35.619  1.00  0.00     0.173 A 
ATOM     86  C   UNL A   1      45.523  29.359  34.613  1.00  0.00     0.173 A 
ATOM     87  F   UNL A   1      43.026  27.018  35.848  1.00  0.00    -0.203 F 
ATOM     88  C   UNL A   1      45.347  27.112  36.232  1.00  0.00     0.198 A 
ATOM     89  C   UNL A   1      46.668  28.830  35.200  1.00  0.00     0.198 A 
ATOM     90  F   UNL A   1      45.641  30.449  33.840  1.00  0.00    -0.203 F 
ATOM     91  F   UNL A   1      45.253  26.050  37.045  1.00  0.00    -0.200 F 
ATOM     92  C   UNL A   1      46.578  27.711  36.015  1.00  0.00     0.200 A 
ATOM     93  F   UNL A   1      47.860  29.400  34.976  1.00  0.00    -0.200 F 
ATOM     94  F   UNL A   1      47.678  27.217  36.599  1.00  0.00    -0.200 F 
ENDBRANCH  61  84
ENDBRANCH  35  36
ENDBRANCH  27  30
ENDBRANCH  25  26
ENDBRANCH  24  25
ENDBRANCH   1  24
TORSDOF 16
ENDMDL
MODEL 2
REMARK VINA RESULT:     -11.3      0.459      7.459
REMARK SMILES CCCC[C@@H](C(=O)NCCCNC(=O)c1ccc(-c2c3nc(c(-c4c(F)c(F)c(F)c(F)c4F)c4ccc([nH]4)c(-c4c(F)c(F)c(F)c(F)c4F)c4nc(c(-c5c(F)c(F)c(F)c(F)c5F)c5ccc2[nH]5)C=C4)C=C3)cc1)[C@]1(O)COc2cc(O)ccc21
REMARK SMILES IDX 9 1 8 2 6 3 7 4 5 6 4 7 3 8 2 9 1 10 78 11 80 12 88 13 81 14
REMARK SMILES IDX 82 15 87 16 83 17 86 18 84 19 79 20 85 22 10 24 11 25 12 26
REMARK SMILES IDX 13 27 14 29 15 30 16 31 77 32 17 33 76 34 18 35 19 36 20 37
REMARK SMILES IDX 70 38 21 39 75 40 69 41 71 42 22 43 74 44 68 45 67 46 23 48
REMARK SMILES IDX 55 49 35 50 54 51 36 52 39 53 53 54 72 55 37 56 38 57 52 59
REMARK SMILES IDX 73 60 40 61 24 62 25 63 33 64 26 65 27 66 31 67 34 68 28 69
REMARK SMILES IDX 29 70 32 71 30 72 56 73 57 74 65 75 58 76 59 77 63 78 66 79
REMARK SMILES IDX 60 80 61 81 64 82 62 83 41 84 42 85 50 86 43 87 44 88 48 89
REMARK SMILES IDX 51 90 45 91 46 92 49 93 47 94
REMARK H PARENT 8 5 79 21 85 23 12 28 71 47 39 58
REMARK Flexibility Score: inf
ROOT
ATOM      1  C   UNL A   1      31.504  30.856  26.118  1.00  0.00     0.117 C 
ENDROOT
BRANCH   1   2
ATOM      2  N   UNL A   1      31.990  29.844  27.038  1.00  0.00    -0.356 N 
ATOM      3  C   UNL A   1      31.679  28.509  26.997  1.00  0.00     0.226 C 
ATOM      4  O   UNL A   1      31.337  27.978  28.051  1.00  0.00    -0.275 OA
ATOM      5  H   UNL A   1      32.596  30.142  27.754  1.00  0.00     0.163 HD
BRANCH   3   6
ATOM      6  C   UNL A   1      31.817  27.750  25.677  1.00  0.00     0.118 C 
BRANCH   6   7
ATOM      7  C   UNL A   1      31.015  26.420  25.677  1.00  0.00     0.017 C 
BRANCH   7   8
ATOM      8  C   UNL A   1      30.043  26.123  24.536  1.00  0.00     0.001 C 
BRANCH   8   9
ATOM      9  C   UNL A   1      30.406  24.957  23.617  1.00  0.00    -0.003 C 
ATOM     10  C   UNL A   1      30.753  23.695  24.388  1.00  0.00     0.004 C 
ENDBRANCH   8   9
ENDBRANCH   7   8
ENDBRANCH   6   7
BRANCH   6  11
ATOM     11  C   UNL A   1      33.331  27.471  25.334  1.00  0.00     0.139 C 
ATOM     12  C   UNL A   1      33.826  27.973  23.949  1.00  0.00     0.270 C 
ATOM     13  C   UNL A   1      33.747  26.037  25.149  1.00  0.00     0.030 A 
ATOM     14  O   UNL A   1      33.721  26.900  22.993  1.00  0.00    -0.490 OA
ATOM     15  C   UNL A   1      33.891  25.791  23.782  1.00  0.00     0.129 A 
ATOM     16  C   UNL A   1      33.971  25.012  26.056  1.00  0.00     0.014 A 
ATOM     17  C   UNL A   1      34.165  24.540  23.269  1.00  0.00     0.093 A 
ATOM     18  C   UNL A   1      34.302  23.741  25.560  1.00  0.00     0.047 A 
ATOM     19  C   UNL A   1      34.370  23.513  24.176  1.00  0.00     0.119 A 
BRANCH  11  20
ATOM     20  O   UNL A   1      34.107  28.118  26.358  1.00  0.00    -0.381 OA
ATOM     21  H   UNL A   1      33.797  27.828  27.229  1.00  0.00     0.212 HD
ENDBRANCH  11  20
BRANCH  19  22
ATOM     22  O   UNL A   1      34.645  22.274  23.673  1.00  0.00    -0.508 OA
ATOM     23  H   UNL A   1      34.172  21.527  23.984  1.00  0.00     0.293 HD
ENDBRANCH  19  22
ENDBRANCH   6  11
ENDBRANCH   3   6
ENDBRANCH   1   2
BRANCH   1  24
ATOM     24  C   UNL A   1      31.375  32.201  26.834  1.00  0.00     0.042 C 
BRANCH  24  25
ATOM     25  C   UNL A   1      32.692  32.936  27.011  1.00  0.00     0.118 C 
BRANCH  25  26
ATOM     26  N   UNL A   1      32.515  34.245  27.612  1.00  0.00    -0.352 N 
ATOM     27  C   UNL A   1      33.126  34.783  28.717  1.00  0.00     0.251 C 
ATOM     28  H   UNL A   1      31.862  34.831  27.164  1.00  0.00     0.163 HD
ATOM     29  O   UNL A   1      32.691  35.819  29.208  1.00  0.00    -0.269 OA
BRANCH  27  30
ATOM     30  C   UNL A   1      34.295  34.110  29.329  1.00  0.00     0.039 A 
ATOM     31  C   UNL A   1      34.074  33.127  30.297  1.00  0.00     0.014 A 
ATOM     32  C   UNL A   1      35.602  34.459  28.976  1.00  0.00     0.014 A 
ATOM     33  C   UNL A   1      35.160  32.470  30.879  1.00  0.00     0.010 A 
ATOM     34  C   UNL A   1      36.677  33.737  29.484  1.00  0.00     0.010 A 
ATOM     35  C   UNL A   1      36.470  32.751  30.458  1.00  0.00    -0.014 A 
BRANCH  35  36
ATOM     36  C   UNL A   1      37.638  32.053  31.054  1.00  0.00     0.031 A 
ATOM     37  C   UNL A   1      38.113  32.426  32.432  1.00  0.00     0.074 A 
ATOM     38  C   UNL A   1      38.298  31.124  30.338  1.00  0.00     0.049 A 
ATOM     39  N   UNL A   1      39.142  31.977  33.106  1.00  0.00    -0.248 NA
ATOM     40  C   UNL A   1      37.346  33.466  33.138  1.00  0.00     0.031 C 
ATOM     41  C   UNL A   1      37.964  30.712  28.974  1.00  0.00     0.029 A 
ATOM     42  N   UNL A   1      39.394  30.360  30.655  1.00  0.00    -0.354 N 
ATOM     43  C   UNL A   1      39.154  32.690  34.298  1.00  0.00     0.074 A 
ATOM     44  C   UNL A   1      38.070  33.644  34.233  1.00  0.00     0.031 C 
ATOM     45  C   UNL A   1      38.817  29.752  28.582  1.00  0.00     0.029 A 
ATOM     46  C   UNL A   1      39.783  29.511  29.648  1.00  0.00     0.049 A 
ATOM     47  H   UNL A   1      39.858  30.417  31.521  1.00  0.00     0.167 HD
ATOM     48  C   UNL A   1      39.977  32.542  35.364  1.00  0.00     0.037 A 
ATOM     49  C   UNL A   1      40.808  28.639  29.592  1.00  0.00     0.037 A 
ATOM     50  C   UNL A   1      41.036  31.571  35.432  1.00  0.00     0.049 A 
ATOM     51  C   UNL A   1      41.712  28.497  30.789  1.00  0.00     0.074 A 
ATOM     52  C   UNL A   1      41.888  31.297  36.488  1.00  0.00     0.029 A 
ATOM     53  N   UNL A   1      41.390  30.716  34.399  1.00  0.00    -0.354 N 
ATOM     54  N   UNL A   1      41.668  29.125  31.939  1.00  0.00    -0.248 NA
ATOM     55  C   UNL A   1      42.803  27.520  30.680  1.00  0.00     0.031 C 
ATOM     56  C   UNL A   1      42.792  30.313  36.074  1.00  0.00     0.029 A 
ATOM     57  C   UNL A   1      42.465  29.930  34.782  1.00  0.00     0.049 A 
ATOM     58  H   UNL A   1      40.944  30.674  33.522  1.00  0.00     0.167 HD
ATOM     59  C   UNL A   1      42.703  28.598  32.701  1.00  0.00     0.074 A 
ATOM     60  C   UNL A   1      43.347  27.589  31.887  1.00  0.00     0.031 C 
ATOM     61  C   UNL A   1      43.086  28.923  33.960  1.00  0.00     0.037 A 
BRANCH  48  62
ATOM     62  C   UNL A   1      39.760  33.450  36.542  1.00  0.00     0.064 A 
ATOM     63  C   UNL A   1      40.417  34.686  36.652  1.00  0.00     0.173 A 
ATOM     64  C   UNL A   1      38.860  33.095  37.559  1.00  0.00     0.173 A 
ATOM     65  F   UNL A   1      41.297  35.069  35.715  1.00  0.00    -0.203 F 
ATOM     66  C   UNL A   1      40.208  35.514  37.751  1.00  0.00     0.198 A 
ATOM     67  C   UNL A   1      38.627  33.943  38.639  1.00  0.00     0.198 A 
ATOM     68  F   UNL A   1      38.199  31.930  37.501  1.00  0.00    -0.203 F 
ATOM     69  F   UNL A   1      40.890  36.663  37.861  1.00  0.00    -0.200 F 
ATOM     70  C   UNL A   1      39.308  35.147  38.739  1.00  0.00     0.200 A 
ATOM     71  F   UNL A   1      37.745  33.593  39.585  1.00  0.00    -0.200 F 
ATOM     72  F   UNL A   1      39.101  35.950  39.792  1.00  0.00    -0.200 F 
ENDBRANCH  48  62
BRANCH  49  73
ATOM     73  C   UNL A   1      41.019  27.815  28.373  1.00  0.00     0.064 A 
ATOM     74  C   UNL A   1      40.396  26.568  28.229  1.00  0.00     0.173 A 
ATOM     75  C   UNL A   1      41.849  28.252  27.330  1.00  0.00     0.173 A 
ATOM     76  F   UNL A   1      39.608  26.097  29.207  1.00  0.00    -0.203 F 
ATOM     77  C   UNL A   1      40.612  25.779  27.100  1.00  0.00     0.198 A 
ATOM     78  C   UNL A   1      42.040  27.477  26.187  1.00  0.00     0.198 A 
ATOM     79  F   UNL A   1      42.465  29.441  27.413  1.00  0.00    -0.203 F 
ATOM     80  F   UNL A   1      40.042  24.570  27.012  1.00  0.00    -0.200 F 
ATOM     81  C   UNL A   1      41.430  26.237  26.078  1.00  0.00     0.200 A 
ATOM     82  F   UNL A   1      42.817  27.931  25.194  1.00  0.00    -0.200 F 
ATOM     83  F   UNL A   1      41.634  25.480  24.991  1.00  0.00    -0.200 F 
ENDBRANCH  49  73
BRANCH  61  84
ATOM     84  C   UNL A   1      44.231  28.152  34.551  1.00  0.00     0.064 A 
ATOM     85  C   UNL A   1      44.029  26.973  35.284  1.00  0.00     0.173 A 
ATOM     86  C   UNL A   1      45.553  28.577  34.343  1.00  0.00     0.173 A 
ATOM     87  F   UNL A   1      42.784  26.532  35.523  1.00  0.00    -0.203 F 
ATOM     88  C   UNL A   1      45.106  26.266  35.811  1.00  0.00     0.198 A 
ATOM     89  C   UNL A   1      46.628  27.849  34.842  1.00  0.00     0.198 A 
ATOM     90  F   UNL A   1      45.802  29.693  33.641  1.00  0.00    -0.203 F 
ATOM     91  F   UNL A   1      44.886  25.171  36.553  1.00  0.00    -0.200 F 
ATOM     92  C   UNL A   1      46.403  26.698  35.583  1.00  0.00     0.200 A 
ATOM     93  F   UNL A   1      47.881  28.259  34.606  1.00  0.00    -0.200 F 
ATOM     94  F   UNL A   1      47.438  26.010  36.084  1.00  0.00    -0.200 F 
ENDBRANCH  61  84
ENDBRANCH  35  36
ENDBRANCH  27  30
ENDBRANCH  25  26
ENDBRANCH  24  25
ENDBRANCH   1  24
TORSDOF 16
ENDMDL
MODEL 3
REMARK VINA RESULT:     -11.3      1.981      3.308
REMARK SMILES CCCC[C@@H](C(=O)NCCCNC(=O)c1ccc(-c2c3nc(c(-c4c(F)c(F)c(F)c(F)c4F)c4ccc([nH]4)c(-c4c(F)c(F)c(F)c(F)c4F)c4nc(c(-c5c(F)c(F)c(F)c(F)c5F)c5ccc2[nH]5)C=C4)C=C3)cc1)[C@]1(O)COc2cc(O)ccc21
REMARK SMILES IDX 9 1 8 2 6 3 7 4 5 6 4 7 3 8 2 9 1 10 78 11 80 12 88 13 81 14
REMARK SMILES IDX 82 15 87 16 83 17 86 18 84 19 79 20 85 22 10 24 11 25 12 26
REMARK SMILES IDX 13 27 14 29 15 30 16 31 77 32 17 33 76 34 18 35 19 36 20 37
REMARK SMILES IDX 70 38 21 39 75 40 69 41 71 42 22 43 74 44 68 45 67 46 23 48
REMARK SMILES IDX 55 49 35 50 54 51 36 52 39 53 53 54 72 55 37 56 38 57 52 59
REMARK SMILES IDX 73 60 40 61 24 62 25 63 33 64 26 65 27 66 31 67 34 68 28 69
REMARK SMILES IDX 29 70 32 71 30 72 56 73 57 74 65 75 58 76 59 77 63 78 66 79
REMARK SMILES IDX 60 80 61 81 64 82 62 83 41 84 42 85 50 86 43 87 44 88 48 89
REMARK SMILES IDX 51 90 45 91 46 92 49 93 47 94
REMARK H PARENT 8 5 79 21 85 23 12 28 71 47 39 58
REMARK Flexibility Score: inf
ROOT
ATOM      1  C   UNL A   1      32.189  28.682  23.227  1.00  0.00     0.117 C 
ENDROOT
BRANCH   1   2
ATOM      2  N   UNL A   1      32.322  27.651  22.214  1.00  0.00    -0.356 N 
ATOM      3  C   UNL A   1      33.084  26.517  22.320  1.00  0.00     0.226 C 
ATOM      4  O   UNL A   1      33.818  26.240  21.374  1.00  0.00    -0.275 OA
ATOM      5  H   UNL A   1      31.819  27.777  21.376  1.00  0.00     0.163 HD
BRANCH   3   6
ATOM      6  C   UNL A   1      32.952  25.642  23.568  1.00  0.00     0.118 C 
BRANCH   6   7
ATOM      7  C   UNL A   1      34.234  24.809  23.840  1.00  0.00     0.017 C 
BRANCH   7   8
ATOM      8  C   UNL A   1      34.762  24.678  25.268  1.00  0.00     0.001 C 
BRANCH   8   9
ATOM      9  C   UNL A   1      35.229  23.287  25.697  1.00  0.00    -0.003 C 
ATOM     10  C   UNL A   1      35.888  22.520  24.564  1.00  0.00     0.004 C 
ENDBRANCH   8   9
ENDBRANCH   7   8
ENDBRANCH   6   7
BRANCH   6  11
ATOM     11  C   UNL A   1      31.698  24.692  23.469  1.00  0.00     0.139 C 
ATOM     12  C   UNL A   1      30.572  24.927  24.514  1.00  0.00     0.270 C 
ATOM     13  C   UNL A   1      31.906  23.234  23.776  1.00  0.00     0.030 A 
ATOM     14  O   UNL A   1      30.777  24.047  25.635  1.00  0.00    -0.490 OA
ATOM     15  C   UNL A   1      31.401  22.973  25.052  1.00  0.00     0.129 A 
ATOM     16  C   UNL A   1      32.492  22.207  23.050  1.00  0.00     0.014 A 
ATOM     17  C   UNL A   1      31.529  21.750  25.676  1.00  0.00     0.093 A 
ATOM     18  C   UNL A   1      32.589  20.939  23.644  1.00  0.00     0.047 A 
ATOM     19  C   UNL A   1      32.131  20.731  24.955  1.00  0.00     0.119 A 
BRANCH  11  20
ATOM     20  O   UNL A   1      31.146  24.880  22.154  1.00  0.00    -0.381 OA
ATOM     21  H   UNL A   1      30.738  24.053  21.854  1.00  0.00     0.212 HD
ENDBRANCH  11  20
BRANCH  19  22
ATOM     22  O   UNL A   1      32.258  19.517  25.567  1.00  0.00    -0.508 OA
ATOM     23  H   UNL A   1      33.107  19.138  25.684  1.00  0.00     0.293 HD
ENDBRANCH  19  22
ENDBRANCH   6  11
ENDBRANCH   3   6
ENDBRANCH   1   2
BRANCH   1  24
ATOM     24  C   UNL A   1      33.548  28.970  23.867  1.00  0.00     0.042 C 
BRANCH  24  25
ATOM     25  C   UNL A   1      33.506  29.093  25.380  1.00  0.00     0.118 C 
BRANCH  25  26
ATOM     26  N   UNL A   1      32.972  30.371  25.813  1.00  0.00    -0.352 N 
ATOM     27  C   UNL A   1      33.336  31.144  26.887  1.00  0.00     0.251 C 
ATOM     28  H   UNL A   1      32.244  30.734  25.259  1.00  0.00     0.163 HD
ATOM     29  O   UNL A   1      32.627  32.085  27.226  1.00  0.00    -0.269 OA
BRANCH  27  30
ATOM     30  C   UNL A   1      34.569  30.837  27.648  1.00  0.00     0.039 A 
ATOM     31  C   UNL A   1      35.541  31.832  27.783  1.00  0.00     0.014 A 
ATOM     32  C   UNL A   1      34.786  29.572  28.202  1.00  0.00     0.014 A 
ATOM     33  C   UNL A   1      36.706  31.570  28.506  1.00  0.00     0.010 A 
ATOM     34  C   UNL A   1      35.900  29.344  29.002  1.00  0.00     0.010 A 
ATOM     35  C   UNL A   1      36.884  30.333  29.144  1.00  0.00    -0.014 A 
BRANCH  35  36
ATOM     36  C   UNL A   1      38.110  30.039  29.930  1.00  0.00     0.031 A 
ATOM     37  C   UNL A   1      39.163  29.125  29.364  1.00  0.00     0.074 A 
ATOM     38  C   UNL A   1      38.251  30.553  31.166  1.00  0.00     0.049 A 
ATOM     39  N   UNL A   1      40.275  28.700  29.911  1.00  0.00    -0.248 NA
ATOM     40  C   UNL A   1      38.921  28.590  28.014  1.00  0.00     0.031 C 
ATOM     41  C   UNL A   1      37.277  31.411  31.840  1.00  0.00     0.029 A 
ATOM     42  N   UNL A   1      39.268  30.423  32.079  1.00  0.00    -0.354 N 
ATOM     43  C   UNL A   1      40.849  27.841  28.983  1.00  0.00     0.074 A 
ATOM     44  C   UNL A   1      39.936  27.753  27.865  1.00  0.00     0.031 C 
ATOM     45  C   UNL A   1      37.755  31.754  33.048  1.00  0.00     0.029 A 
ATOM     46  C   UNL A   1      39.047  31.107  33.250  1.00  0.00     0.049 A 
ATOM     47  H   UNL A   1      40.077  29.888  31.912  1.00  0.00     0.167 HD
ATOM     48  C   UNL A   1      42.043  27.205  29.044  1.00  0.00     0.037 A 
ATOM     49  C   UNL A   1      39.801  31.196  34.362  1.00  0.00     0.037 A 
ATOM     50  C   UNL A   1      42.958  27.319  30.148  1.00  0.00     0.049 A 
ATOM     51  C   UNL A   1      41.122  30.475  34.407  1.00  0.00     0.074 A 
ATOM     52  C   UNL A   1      44.220  26.766  30.284  1.00  0.00     0.029 A 
ATOM     53  N   UNL A   1      42.707  28.035  31.309  1.00  0.00    -0.354 N 
ATOM     54  N   UNL A   1      41.688  29.725  33.493  1.00  0.00    -0.248 NA
ATOM     55  C   UNL A   1      41.912  30.620  35.637  1.00  0.00     0.031 C 
ATOM     56  C   UNL A   1      44.709  27.103  31.550  1.00  0.00     0.029 A 
ATOM     57  C   UNL A   1      43.779  27.917  32.179  1.00  0.00     0.049 A 
ATOM     58  H   UNL A   1      41.888  28.549  31.490  1.00  0.00     0.167 HD
ATOM     59  C   UNL A   1      42.911  29.334  34.022  1.00  0.00     0.074 A 
ATOM     60  C   UNL A   1      43.011  29.944  35.332  1.00  0.00     0.031 C 
ATOM     61  C   UNL A   1      43.864  28.540  33.475  1.00  0.00     0.037 A 
BRANCH  48  62
ATOM     62  C   UNL A   1      42.428  26.331  27.882  1.00  0.00     0.064 A 
ATOM     63  C   UNL A   1      41.946  25.019  27.755  1.00  0.00     0.173 A 
ATOM     64  C   UNL A   1      43.262  26.823  26.867  1.00  0.00     0.173 A 
ATOM     65  F   UNL A   1      41.155  24.495  28.703  1.00  0.00    -0.203 F 
ATOM     66  C   UNL A   1      42.314  24.221  26.674  1.00  0.00     0.198 A 
ATOM     67  C   UNL A   1      43.599  26.035  25.769  1.00  0.00     0.198 A 
ATOM     68  F   UNL A   1      43.745  28.073  26.933  1.00  0.00    -0.203 F 
ATOM     69  F   UNL A   1      41.886  22.952  26.605  1.00  0.00    -0.200 F 
ATOM     70  C   UNL A   1      43.132  24.731  25.679  1.00  0.00     0.200 A 
ATOM     71  F   UNL A   1      44.378  26.534  24.801  1.00  0.00    -0.200 F 
ATOM     72  F   UNL A   1      43.478  23.965  24.635  1.00  0.00    -0.200 F 
ENDBRANCH  48  62
BRANCH  49  73
ATOM     73  C   UNL A   1      39.339  32.018  35.511  1.00  0.00     0.064 A 
ATOM     74  C   UNL A   1      39.745  33.352  35.653  1.00  0.00     0.173 A 
ATOM     75  C   UNL A   1      38.488  31.490  36.493  1.00  0.00     0.173 A 
ATOM     76  F   UNL A   1      40.574  33.899  34.750  1.00  0.00    -0.203 F 
ATOM     77  C   UNL A   1      39.337  34.119  36.743  1.00  0.00     0.198 A 
ATOM     78  C   UNL A   1      38.055  32.267  37.566  1.00  0.00     0.198 A 
ATOM     79  F   UNL A   1      38.064  30.220  36.403  1.00  0.00    -0.203 F 
ATOM     80  F   UNL A   1      39.780  35.376  36.877  1.00  0.00    -0.200 F 
ATOM     81  C   UNL A   1      38.488  33.577  37.696  1.00  0.00     0.200 A 
ATOM     82  F   UNL A   1      37.221  31.744  38.475  1.00  0.00    -0.200 F 
ATOM     83  F   UNL A   1      38.092  34.316  38.741  1.00  0.00    -0.200 F 
ENDBRANCH  49  73
BRANCH  61  84
ATOM     84  C   UNL A   1      45.116  28.318  34.274  1.00  0.00     0.064 A 
ATOM     85  C   UNL A   1      46.216  29.183  34.181  1.00  0.00     0.173 A 
ATOM     86  C   UNL A   1      45.199  27.246  35.177  1.00  0.00     0.173 A 
ATOM     87  F   UNL A   1      46.193  30.214  33.322  1.00  0.00    -0.203 F 
ATOM     88  C   UNL A   1      47.362  28.967  34.941  1.00  0.00     0.198 A 
ATOM     89  C   UNL A   1      46.332  27.053  35.960  1.00  0.00     0.198 A 
ATOM     90  F   UNL A   1      44.171  26.393  35.311  1.00  0.00    -0.203 F 
ATOM     91  F   UNL A   1      48.421  29.777  34.797  1.00  0.00    -0.200 F 
ATOM     92  C   UNL A   1      47.416  27.909  35.835  1.00  0.00     0.200 A 
ATOM     93  F   UNL A   1      46.376  26.040  36.836  1.00  0.00    -0.200 F 
ATOM     94  F   UNL A   1      48.517  27.708  36.572  1.00  0.00    -0.200 F 
ENDBRANCH  61  84
ENDBRANCH  35  36
ENDBRANCH  27  30
ENDBRANCH  25  26
ENDBRANCH  24  25
ENDBRANCH   1  24
TORSDOF 16
ENDMDL
