MODEL 1
REMARK VINA RESULT:      -9.0      0.000      0.000
REMARK SMILES O=C(/C=C/c1ccc(O)c(O)c1)NCCCNC(=O)c1ccc(-c2c3nc(c(-c4c(F)c(F)c(F)c(F)c4F)c4ccc([nH]4)c(-c4c(F)c(F)c(F)c(F)c4F)c4nc(c(-c5c(F)c(F)c(F)c(F)c5F)c5ccc2[nH]5)C=C4)C=C3)cc1
REMARK SMILES IDX 15 1 14 2 13 3 1 4 2 5 3 7 4 8 5 9 6 10 12 11 7 12 10 13
REMARK SMILES IDX 8 14 11 15 9 17 16 19 17 20 18 21 19 23 20 24 21 25 82 26
REMARK SMILES IDX 22 27 81 28 23 29 24 30 25 31 75 32 26 33 80 34 74 35 76 36
REMARK SMILES IDX 27 37 79 38 73 39 72 40 28 42 60 43 40 44 59 45 41 46 44 47
REMARK SMILES IDX 58 48 77 49 42 50 43 51 57 53 78 54 45 55 29 56 30 57 38 58
REMARK SMILES IDX 31 59 32 60 36 61 39 62 33 63 34 64 37 65 35 66 61 67 62 68
REMARK SMILES IDX 70 69 63 70 64 71 68 72 71 73 65 74 66 75 69 76 67 77 46 78
REMARK SMILES IDX 47 79 55 80 48 81 49 82 53 83 56 84 50 85 51 86 54 87 52 88
REMARK H PARENT 13 6 11 16 9 18 17 22 76 41 44 52
REMARK Flexibility Score: inf
ROOT
ATOM      1  C   UNL A   1      32.987  35.991  32.497  1.00  0.00     0.042 C 
ENDROOT
BRANCH   1   2
ATOM      2  C   UNL A   1      34.007  35.794  33.614  1.00  0.00     0.118 C 
BRANCH   2   3
ATOM      3  N   UNL A   1      34.910  34.690  33.358  1.00  0.00    -0.352 N 
ATOM      4  O   UNL A   1      35.369  34.255  35.563  1.00  0.00    -0.270 OA
ATOM      5  C   UNL A   1      35.533  34.012  34.373  1.00  0.00     0.244 C 
ATOM      6  H   UNL A   1      35.082  34.418  32.427  1.00  0.00     0.163 HD
BRANCH   5   7
ATOM      7  C   UNL A   1      36.418  32.888  33.975  1.00  0.00     0.072 C 
ATOM      8  C   UNL A   1      37.345  32.298  34.746  1.00  0.00     0.014 C 
BRANCH   8   9
ATOM      9  C   UNL A   1      38.119  31.130  34.299  1.00  0.00    -0.022 A 
ATOM     10  C   UNL A   1      37.669  30.280  33.274  1.00  0.00     0.012 A 
ATOM     11  C   UNL A   1      39.360  30.877  34.898  1.00  0.00     0.058 A 
ATOM     12  C   UNL A   1      38.427  29.173  32.875  1.00  0.00     0.051 A 
ATOM     13  C   UNL A   1      40.105  29.776  34.497  1.00  0.00     0.157 A 
ATOM     14  C   UNL A   1      39.643  28.925  33.498  1.00  0.00     0.157 A 
BRANCH  13  15
ATOM     15  O   UNL A   1      41.304  29.529  35.103  1.00  0.00    -0.504 OA
ATOM     16  H   UNL A   1      41.778  30.230  35.505  1.00  0.00     0.293 HD
ENDBRANCH  13  15
BRANCH  14  17
ATOM     17  O   UNL A   1      40.425  27.855  33.163  1.00  0.00    -0.504 OA
ATOM     18  H   UNL A   1      40.929  27.418  33.822  1.00  0.00     0.293 HD
ENDBRANCH  14  17
ENDBRANCH   8   9
ENDBRANCH   5   7
ENDBRANCH   2   3
ENDBRANCH   1   2
BRANCH   1  19
ATOM     19  C   UNL A   1      33.595  36.291  31.129  1.00  0.00     0.118 C 
BRANCH  19  20
ATOM     20  N   UNL A   1      32.889  35.647  30.027  1.00  0.00    -0.352 N 
ATOM     21  C   UNL A   1      33.294  34.633  29.193  1.00  0.00     0.251 C 
ATOM     22  H   UNL A   1      31.984  35.992  29.855  1.00  0.00     0.163 HD
ATOM     23  O   UNL A   1      32.590  34.304  28.242  1.00  0.00    -0.269 OA
BRANCH  21  24
ATOM     24  C   UNL A   1      34.592  33.959  29.411  1.00  0.00     0.039 A 
ATOM     25  C   UNL A   1      35.712  34.403  28.699  1.00  0.00     0.014 A 
ATOM     26  C   UNL A   1      34.711  32.899  30.311  1.00  0.00     0.014 A 
ATOM     27  C   UNL A   1      36.967  33.846  28.958  1.00  0.00     0.010 A 
ATOM     28  C   UNL A   1      35.971  32.390  30.616  1.00  0.00     0.010 A 
ATOM     29  C   UNL A   1      37.113  32.868  29.954  1.00  0.00    -0.014 A 
BRANCH  29  30
ATOM     30  C   UNL A   1      38.446  32.342  30.346  1.00  0.00     0.031 A 
ATOM     31  C   UNL A   1      38.934  31.035  29.789  1.00  0.00     0.074 A 
ATOM     32  C   UNL A   1      39.168  32.986  31.285  1.00  0.00     0.049 A 
ATOM     33  N   UNL A   1      39.980  30.327  30.131  1.00  0.00    -0.248 NA
ATOM     34  C   UNL A   1      38.120  30.433  28.723  1.00  0.00     0.031 C 
ATOM     35  C   UNL A   1      38.792  34.246  31.925  1.00  0.00     0.029 A 
ATOM     36  N   UNL A   1      40.358  32.651  31.885  1.00  0.00    -0.354 N 
ATOM     37  C   UNL A   1      39.935  29.184  29.343  1.00  0.00     0.074 A 
ATOM     38  C   UNL A   1      38.739  29.277  28.531  1.00  0.00     0.031 C 
ATOM     39  C   UNL A   1      39.732  34.582  32.823  1.00  0.00     0.029 A 
ATOM     40  C   UNL A   1      40.751  33.537  32.858  1.00  0.00     0.049 A 
ATOM     41  H   UNL A   1      40.879  31.853  31.640  1.00  0.00     0.167 HD
ATOM     42  C   UNL A   1      40.819  28.159  29.291  1.00  0.00     0.037 A 
ATOM     43  C   UNL A   1      41.801  33.500  33.701  1.00  0.00     0.037 A 
ATOM     44  C   UNL A   1      42.020  28.084  30.080  1.00  0.00     0.049 A 
ATOM     45  C   UNL A   1      42.761  32.343  33.635  1.00  0.00     0.074 A 
ATOM     46  C   UNL A   1      43.004  27.111  30.062  1.00  0.00     0.029 A 
ATOM     47  N   UNL A   1      42.400  29.019  31.031  1.00  0.00    -0.354 N 
ATOM     48  N   UNL A   1      42.734  31.291  32.852  1.00  0.00    -0.248 NA
ATOM     49  C   UNL A   1      43.896  32.366  34.567  1.00  0.00     0.031 C 
ATOM     50  C   UNL A   1      43.959  27.435  31.030  1.00  0.00     0.029 A 
ATOM     51  C   UNL A   1      43.596  28.637  31.616  1.00  0.00     0.049 A 
ATOM     52  H   UNL A   1      41.895  29.833  31.256  1.00  0.00     0.167 HD
ATOM     53  C   UNL A   1      43.864  30.551  33.170  1.00  0.00     0.074 A 
ATOM     54  C   UNL A   1      44.558  31.272  34.216  1.00  0.00     0.031 C 
ATOM     55  C   UNL A   1      44.289  29.379  32.637  1.00  0.00     0.037 A 
BRANCH  42  56
ATOM     56  C   UNL A   1      40.519  27.030  28.350  1.00  0.00     0.064 A 
ATOM     57  C   UNL A   1      39.548  26.062  28.646  1.00  0.00     0.173 A 
ATOM     58  C   UNL A   1      41.181  26.937  27.116  1.00  0.00     0.173 A 
ATOM     59  F   UNL A   1      38.893  26.099  29.817  1.00  0.00    -0.203 F 
ATOM     60  C   UNL A   1      39.270  25.027  27.755  1.00  0.00     0.198 A 
ATOM     61  C   UNL A   1      40.879  25.919  26.215  1.00  0.00     0.198 A 
ATOM     62  F   UNL A   1      42.114  27.840  26.778  1.00  0.00    -0.203 F 
ATOM     63  F   UNL A   1      38.372  24.088  28.081  1.00  0.00    -0.200 F 
ATOM     64  C   UNL A   1      39.931  24.962  26.538  1.00  0.00     0.200 A 
ATOM     65  F   UNL A   1      41.508  25.865  25.032  1.00  0.00    -0.200 F 
ATOM     66  F   UNL A   1      39.656  23.971  25.678  1.00  0.00    -0.200 F 
ENDBRANCH  42  56
BRANCH  43  67
ATOM     67  C   UNL A   1      42.009  34.604  34.675  1.00  0.00     0.064 A 
ATOM     68  C   UNL A   1      42.744  35.743  34.323  1.00  0.00     0.173 A 
ATOM     69  C   UNL A   1      41.485  34.542  35.975  1.00  0.00     0.173 A 
ATOM     70  F   UNL A   1      43.285  35.838  33.098  1.00  0.00    -0.203 F 
ATOM     71  C   UNL A   1      42.963  36.772  35.236  1.00  0.00     0.198 A 
ATOM     72  C   UNL A   1      41.680  35.583  36.880  1.00  0.00     0.198 A 
ATOM     73  F   UNL A   1      40.771  33.475  36.362  1.00  0.00    -0.203 F 
ATOM     74  F   UNL A   1      43.708  37.830  34.886  1.00  0.00    -0.200 F 
ATOM     75  C   UNL A   1      42.426  36.693  36.513  1.00  0.00     0.200 A 
ATOM     76  F   UNL A   1      41.148  35.510  38.107  1.00  0.00    -0.200 F 
ATOM     77  F   UNL A   1      42.633  37.684  37.391  1.00  0.00    -0.200 F 
ENDBRANCH  43  67
BRANCH  55  78
ATOM     78  C   UNL A   1      45.596  28.828  33.128  1.00  0.00     0.064 A 
ATOM     79  C   UNL A   1      46.818  29.192  32.545  1.00  0.00     0.173 A 
ATOM     80  C   UNL A   1      45.627  27.976  34.243  1.00  0.00     0.173 A 
ATOM     81  F   UNL A   1      46.841  29.991  31.468  1.00  0.00    -0.203 F 
ATOM     82  C   UNL A   1      48.022  28.710  33.051  1.00  0.00     0.198 A 
ATOM     83  C   UNL A   1      46.833  27.518  34.762  1.00  0.00     0.198 A 
ATOM     84  F   UNL A   1      44.484  27.603  34.839  1.00  0.00    -0.203 F 
ATOM     85  F   UNL A   1      49.178  29.043  32.458  1.00  0.00    -0.200 F 
ATOM     86  C   UNL A   1      48.030  27.883  34.165  1.00  0.00     0.200 A 
ATOM     87  F   UNL A   1      46.838  26.730  35.846  1.00  0.00    -0.200 F 
ATOM     88  F   UNL A   1      49.191  27.433  34.660  1.00  0.00    -0.200 F 
ENDBRANCH  55  78
ENDBRANCH  29  30
ENDBRANCH  21  24
ENDBRANCH  19  20
ENDBRANCH   1  19
TORSDOF 13
ENDMDL
MODEL 2
REMARK VINA RESULT:      -9.0      6.060     11.663
REMARK SMILES O=C(/C=C/c1ccc(O)c(O)c1)NCCCNC(=O)c1ccc(-c2c3nc(c(-c4c(F)c(F)c(F)c(F)c4F)c4ccc([nH]4)c(-c4c(F)c(F)c(F)c(F)c4F)c4nc(c(-c5c(F)c(F)c(F)c(F)c5F)c5ccc2[nH]5)C=C4)C=C3)cc1
REMARK SMILES IDX 15 1 14 2 13 3 1 4 2 5 3 7 4 8 5 9 6 10 12 11 7 12 10 13
REMARK SMILES IDX 8 14 11 15 9 17 16 19 17 20 18 21 19 23 20 24 21 25 82 26
REMARK SMILES IDX 22 27 81 28 23 29 24 30 25 31 75 32 26 33 80 34 74 35 76 36
REMARK SMILES IDX 27 37 79 38 73 39 72 40 28 42 60 43 40 44 59 45 41 46 44 47
REMARK SMILES IDX 58 48 77 49 42 50 43 51 57 53 78 54 45 55 29 56 30 57 38 58
REMARK SMILES IDX 31 59 32 60 36 61 39 62 33 63 34 64 37 65 35 66 61 67 62 68
REMARK SMILES IDX 70 69 63 70 64 71 68 72 71 73 65 74 66 75 69 76 67 77 46 78
REMARK SMILES IDX 47 79 55 80 48 81 49 82 53 83 56 84 50 85 51 86 54 87 52 88
REMARK H PARENT 13 6 11 16 9 18 17 22 76 41 44 52
REMARK Flexibility Score: inf
ROOT
ATOM      1  C   UNL A   1      42.946  18.396  26.721  1.00  0.00     0.042 C 
ENDROOT
BRANCH   1   2
ATOM      2  C   UNL A   1      42.060  19.188  27.677  1.00  0.00     0.118 C 
BRANCH   2   3
ATOM      3  N   UNL A   1      42.624  20.478  28.023  1.00  0.00    -0.352 N 
ATOM      4  O   UNL A   1      40.626  21.606  28.032  1.00  0.00    -0.270 OA
ATOM      5  C   UNL A   1      41.845  21.597  28.161  1.00  0.00     0.244 C 
ATOM      6  H   UNL A   1      43.596  20.553  28.163  1.00  0.00     0.163 HD
BRANCH   5   7
ATOM      7  C   UNL A   1      42.546  22.851  28.536  1.00  0.00     0.072 C 
ATOM      8  C   UNL A   1      43.537  22.967  29.434  1.00  0.00     0.014 C 
BRANCH   8   9
ATOM      9  C   UNL A   1      44.238  24.236  29.681  1.00  0.00    -0.022 A 
ATOM     10  C   UNL A   1      43.609  25.331  30.299  1.00  0.00     0.012 A 
ATOM     11  C   UNL A   1      45.585  24.342  29.313  1.00  0.00     0.058 A 
ATOM     12  C   UNL A   1      44.303  26.529  30.515  1.00  0.00     0.051 A 
ATOM     13  C   UNL A   1      46.265  25.533  29.530  1.00  0.00     0.157 A 
ATOM     14  C   UNL A   1      45.631  26.622  30.120  1.00  0.00     0.157 A 
BRANCH  13  15
ATOM     15  O   UNL A   1      47.573  25.630  29.148  1.00  0.00    -0.504 OA
ATOM     16  H   UNL A   1      48.189  24.979  29.420  1.00  0.00     0.293 HD
ENDBRANCH  13  15
BRANCH  14  17
ATOM     17  O   UNL A   1      46.360  27.765  30.292  1.00  0.00    -0.504 OA
ATOM     18  H   UNL A   1      47.044  27.980  29.688  1.00  0.00     0.293 HD
ENDBRANCH  14  17
ENDBRANCH   8   9
ENDBRANCH   5   7
ENDBRANCH   2   3
ENDBRANCH   1   2
BRANCH   1  19
ATOM     19  C   UNL A   1      42.885  18.862  25.269  1.00  0.00     0.118 C 
BRANCH  19  20
ATOM     20  N   UNL A   1      44.124  18.633  24.534  1.00  0.00    -0.352 N 
ATOM     21  C   UNL A   1      45.115  19.517  24.181  1.00  0.00     0.251 C 
ATOM     22  H   UNL A   1      44.272  17.703  24.247  1.00  0.00     0.163 HD
ATOM     23  O   UNL A   1      46.036  19.147  23.456  1.00  0.00    -0.269 OA
BRANCH  21  24
ATOM     24  C   UNL A   1      45.063  20.921  24.639  1.00  0.00     0.039 A 
ATOM     25  C   UNL A   1      45.480  21.223  25.940  1.00  0.00     0.014 A 
ATOM     26  C   UNL A   1      44.610  21.938  23.797  1.00  0.00     0.014 A 
ATOM     27  C   UNL A   1      45.531  22.554  26.364  1.00  0.00     0.010 A 
ATOM     28  C   UNL A   1      44.722  23.267  24.196  1.00  0.00     0.010 A 
ATOM     29  C   UNL A   1      45.197  23.590  25.478  1.00  0.00    -0.014 A 
BRANCH  29  30
ATOM     30  C   UNL A   1      45.357  25.020  25.848  1.00  0.00     0.031 A 
ATOM     31  C   UNL A   1      46.716  25.659  25.815  1.00  0.00     0.074 A 
ATOM     32  C   UNL A   1      44.299  25.710  26.316  1.00  0.00     0.049 A 
ATOM     33  N   UNL A   1      47.092  26.832  26.258  1.00  0.00    -0.248 NA
ATOM     34  C   UNL A   1      47.802  24.859  25.230  1.00  0.00     0.031 C 
ATOM     35  C   UNL A   1      42.933  25.196  26.425  1.00  0.00     0.029 A 
ATOM     36  N   UNL A   1      44.213  26.988  26.814  1.00  0.00    -0.354 N 
ATOM     37  C   UNL A   1      48.460  26.900  26.030  1.00  0.00     0.074 A 
ATOM     38  C   UNL A   1      48.855  25.637  25.442  1.00  0.00     0.031 C 
ATOM     39  C   UNL A   1      42.145  26.147  26.950  1.00  0.00     0.029 A 
ATOM     40  C   UNL A   1      42.957  27.320  27.261  1.00  0.00     0.049 A 
ATOM     41  H   UNL A   1      44.978  27.606  26.846  1.00  0.00     0.167 HD
ATOM     42  C   UNL A   1      49.306  27.929  26.275  1.00  0.00     0.037 A 
ATOM     43  C   UNL A   1      42.515  28.435  27.875  1.00  0.00     0.037 A 
ATOM     44  C   UNL A   1      48.905  29.193  26.834  1.00  0.00     0.049 A 
ATOM     45  C   UNL A   1      43.478  29.557  28.151  1.00  0.00     0.074 A 
ATOM     46  C   UNL A   1      49.680  30.315  27.072  1.00  0.00     0.029 A 
ATOM     47  N   UNL A   1      47.617  29.502  27.244  1.00  0.00    -0.354 N 
ATOM     48  N   UNL A   1      44.760  29.629  27.888  1.00  0.00    -0.248 NA
ATOM     49  C   UNL A   1      42.934  30.754  28.808  1.00  0.00     0.031 C 
ATOM     50  C   UNL A   1      48.870  31.289  27.664  1.00  0.00     0.029 A 
ATOM     51  C   UNL A   1      47.579  30.792  27.747  1.00  0.00     0.049 A 
ATOM     52  H   UNL A   1      46.844  28.895  27.185  1.00  0.00     0.167 HD
ATOM     53  C   UNL A   1      45.165  30.888  28.310  1.00  0.00     0.074 A 
ATOM     54  C   UNL A   1      43.995  31.548  28.846  1.00  0.00     0.031 C 
ATOM     55  C   UNL A   1      46.399  31.446  28.253  1.00  0.00     0.037 A 
BRANCH  42  56
ATOM     56  C   UNL A   1      50.756  27.730  25.943  1.00  0.00     0.064 A 
ATOM     57  C   UNL A   1      51.687  27.334  26.914  1.00  0.00     0.173 A 
ATOM     58  C   UNL A   1      51.213  27.897  24.626  1.00  0.00     0.173 A 
ATOM     59  F   UNL A   1      51.303  27.170  28.190  1.00  0.00    -0.203 F 
ATOM     60  C   UNL A   1      53.027  27.140  26.587  1.00  0.00     0.198 A 
ATOM     61  C   UNL A   1      52.548  27.673  24.297  1.00  0.00     0.198 A 
ATOM     62  F   UNL A   1      50.364  28.268  23.657  1.00  0.00    -0.203 F 
ATOM     63  F   UNL A   1      53.907  26.807  27.542  1.00  0.00    -0.200 F 
ATOM     64  C   UNL A   1      53.453  27.302  25.278  1.00  0.00     0.200 A 
ATOM     65  F   UNL A   1      52.956  27.816  23.028  1.00  0.00    -0.200 F 
ATOM     66  F   UNL A   1      54.742  27.106  24.962  1.00  0.00    -0.200 F 
ENDBRANCH  42  56
BRANCH  43  67
ATOM     67  C   UNL A   1      41.084  28.550  28.262  1.00  0.00     0.064 A 
ATOM     68  C   UNL A   1      40.126  28.999  27.344  1.00  0.00     0.173 A 
ATOM     69  C   UNL A   1      40.645  28.219  29.552  1.00  0.00     0.173 A 
ATOM     70  F   UNL A   1      40.502  29.350  26.104  1.00  0.00    -0.203 F 
ATOM     71  C   UNL A   1      38.788  29.131  27.704  1.00  0.00     0.198 A 
ATOM     72  C   UNL A   1      39.301  28.325  29.905  1.00  0.00     0.198 A 
ATOM     73  F   UNL A   1      41.521  27.780  30.469  1.00  0.00    -0.203 F 
ATOM     74  F   UNL A   1      37.901  29.607  26.819  1.00  0.00    -0.200 F 
ATOM     75  C   UNL A   1      38.375  28.789  28.983  1.00  0.00     0.200 A 
ATOM     76  F   UNL A   1      38.904  27.979  31.137  1.00  0.00    -0.200 F 
ATOM     77  F   UNL A   1      37.087  28.913  29.329  1.00  0.00    -0.200 F 
ENDBRANCH  43  67
BRANCH  55  78
ATOM     78  C   UNL A   1      46.542  32.864  28.724  1.00  0.00     0.064 A 
ATOM     79  C   UNL A   1      46.905  33.171  30.044  1.00  0.00     0.173 A 
ATOM     80  C   UNL A   1      46.380  33.926  27.821  1.00  0.00     0.173 A 
ATOM     81  F   UNL A   1      47.057  32.192  30.947  1.00  0.00    -0.203 F 
ATOM     82  C   UNL A   1      47.085  34.492  30.445  1.00  0.00     0.198 A 
ATOM     83  C   UNL A   1      46.587  35.243  28.219  1.00  0.00     0.198 A 
ATOM     84  F   UNL A   1      46.038  33.682  26.547  1.00  0.00    -0.203 F 
ATOM     85  F   UNL A   1      47.398  34.767  31.718  1.00  0.00    -0.200 F 
ATOM     86  C   UNL A   1      46.936  35.526  29.530  1.00  0.00     0.200 A 
ATOM     87  F   UNL A   1      46.455  36.238  27.331  1.00  0.00    -0.200 F 
ATOM     88  F   UNL A   1      47.125  36.795  29.915  1.00  0.00    -0.200 F 
ENDBRANCH  55  78
ENDBRANCH  29  30
ENDBRANCH  21  24
ENDBRANCH  19  20
ENDBRANCH   1  19
TORSDOF 13
ENDMDL
MODEL 3
REMARK VINA RESULT:      -9.0      2.558      8.622
REMARK SMILES O=C(/C=C/c1ccc(O)c(O)c1)NCCCNC(=O)c1ccc(-c2c3nc(c(-c4c(F)c(F)c(F)c(F)c4F)c4ccc([nH]4)c(-c4c(F)c(F)c(F)c(F)c4F)c4nc(c(-c5c(F)c(F)c(F)c(F)c5F)c5ccc2[nH]5)C=C4)C=C3)cc1
REMARK SMILES IDX 15 1 14 2 13 3 1 4 2 5 3 7 4 8 5 9 6 10 12 11 7 12 10 13
REMARK SMILES IDX 8 14 11 15 9 17 16 19 17 20 18 21 19 23 20 24 21 25 82 26
REMARK SMILES IDX 22 27 81 28 23 29 24 30 25 31 75 32 26 33 80 34 74 35 76 36
REMARK SMILES IDX 27 37 79 38 73 39 72 40 28 42 60 43 40 44 59 45 41 46 44 47
REMARK SMILES IDX 58 48 77 49 42 50 43 51 57 53 78 54 45 55 29 56 30 57 38 58
REMARK SMILES IDX 31 59 32 60 36 61 39 62 33 63 34 64 37 65 35 66 61 67 62 68
REMARK SMILES IDX 70 69 63 70 64 71 68 72 71 73 65 74 66 75 69 76 67 77 46 78
REMARK SMILES IDX 47 79 55 80 48 81 49 82 53 83 56 84 50 85 51 86 54 87 52 88
REMARK H PARENT 13 6 11 16 9 18 17 22 76 41 44 52
REMARK Flexibility Score: inf
ROOT
ATOM      1  C   UNL A   1      33.325  34.812  28.848  1.00  0.00     0.042 C 
ENDROOT
BRANCH   1   2
ATOM      2  C   UNL A   1      34.383  34.590  27.772  1.00  0.00     0.118 C 
BRANCH   2   3
ATOM      3  N   UNL A   1      35.725  34.511  28.315  1.00  0.00    -0.352 N 
ATOM      4  O   UNL A   1      35.972  32.254  27.985  1.00  0.00    -0.270 OA
ATOM      5  C   UNL A   1      36.409  33.326  28.386  1.00  0.00     0.244 C 
ATOM      6  H   UNL A   1      36.157  35.333  28.643  1.00  0.00     0.163 HD
BRANCH   5   7
ATOM      7  C   UNL A   1      37.783  33.387  28.947  1.00  0.00     0.072 C 
ATOM      8  C   UNL A   1      38.313  34.411  29.636  1.00  0.00     0.014 C 
BRANCH   8   9
ATOM      9  C   UNL A   1      39.656  34.352  30.233  1.00  0.00    -0.022 A 
ATOM     10  C   UNL A   1      40.793  34.851  29.573  1.00  0.00     0.012 A 
ATOM     11  C   UNL A   1      39.797  33.807  31.515  1.00  0.00     0.058 A 
ATOM     12  C   UNL A   1      42.058  34.775  30.167  1.00  0.00     0.051 A 
ATOM     13  C   UNL A   1      41.056  33.734  32.097  1.00  0.00     0.157 A 
ATOM     14  C   UNL A   1      42.181  34.208  31.429  1.00  0.00     0.157 A 
BRANCH  13  15
ATOM     15  O   UNL A   1      41.183  33.182  33.340  1.00  0.00    -0.504 OA
ATOM     16  H   UNL A   1      40.760  33.581  34.074  1.00  0.00     0.293 HD
ENDBRANCH  13  15
BRANCH  14  17
ATOM     17  O   UNL A   1      43.388  34.094  32.059  1.00  0.00    -0.504 OA
ATOM     18  H   UNL A   1      43.445  33.667  32.892  1.00  0.00     0.293 HD
ENDBRANCH  14  17
ENDBRANCH   8   9
ENDBRANCH   5   7
ENDBRANCH   2   3
ENDBRANCH   1   2
BRANCH   1  19
ATOM     19  C   UNL A   1      33.523  36.077  29.679  1.00  0.00     0.118 C 
BRANCH  19  20
ATOM     20  N   UNL A   1      32.498  36.267  30.700  1.00  0.00    -0.352 N 
ATOM     21  C   UNL A   1      32.457  35.825  32.000  1.00  0.00     0.251 C 
ATOM     22  H   UNL A   1      31.717  36.791  30.413  1.00  0.00     0.163 HD
ATOM     23  O   UNL A   1      31.444  35.995  32.674  1.00  0.00    -0.269 OA
BRANCH  21  24
ATOM     24  C   UNL A   1      33.614  35.114  32.585  1.00  0.00     0.039 A 
ATOM     25  C   UNL A   1      33.434  33.812  33.065  1.00  0.00     0.014 A 
ATOM     26  C   UNL A   1      34.870  35.719  32.660  1.00  0.00     0.014 A 
ATOM     27  C   UNL A   1      34.531  33.085  33.534  1.00  0.00     0.010 A 
ATOM     28  C   UNL A   1      35.973  34.972  33.066  1.00  0.00     0.010 A 
ATOM     29  C   UNL A   1      35.818  33.643  33.493  1.00  0.00    -0.014 A 
BRANCH  29  30
ATOM     30  C   UNL A   1      37.025  32.861  33.863  1.00  0.00     0.031 A 
ATOM     31  C   UNL A   1      37.771  33.180  35.127  1.00  0.00     0.074 A 
ATOM     32  C   UNL A   1      37.510  31.937  33.010  1.00  0.00     0.049 A 
ATOM     33  N   UNL A   1      38.930  32.735  35.542  1.00  0.00    -0.248 NA
ATOM     34  C   UNL A   1      37.140  34.151  36.033  1.00  0.00     0.031 C 
ATOM     35  C   UNL A   1      36.896  31.555  31.738  1.00  0.00     0.029 A 
ATOM     36  N   UNL A   1      38.648  31.171  33.072  1.00  0.00    -0.354 N 
ATOM     37  C   UNL A   1      39.179  33.390  36.740  1.00  0.00     0.074 A 
ATOM     38  C   UNL A   1      38.067  34.290  36.969  1.00  0.00     0.031 C 
ATOM     39  C   UNL A   1      37.660  30.625  31.142  1.00  0.00     0.029 A 
ATOM     40  C   UNL A   1      38.841  30.382  31.965  1.00  0.00     0.049 A 
ATOM     41  H   UNL A   1      39.267  31.186  33.838  1.00  0.00     0.167 HD
ATOM     42  C   UNL A   1      40.231  33.243  37.580  1.00  0.00     0.037 A 
ATOM     43  C   UNL A   1      39.865  29.570  31.637  1.00  0.00     0.037 A 
ATOM     44  C   UNL A   1      41.320  32.327  37.362  1.00  0.00     0.049 A 
ATOM     45  C   UNL A   1      41.031  29.436  32.579  1.00  0.00     0.074 A 
ATOM     46  C   UNL A   1      42.407  32.069  38.180  1.00  0.00     0.029 A 
ATOM     47  N   UNL A   1      41.462  31.520  36.243  1.00  0.00    -0.354 N 
ATOM     48  N   UNL A   1      41.233  30.025  33.733  1.00  0.00    -0.248 NA
ATOM     49  C   UNL A   1      42.110  28.524  32.175  1.00  0.00     0.031 C 
ATOM     50  C   UNL A   1      43.227  31.137  37.538  1.00  0.00     0.029 A 
ATOM     51  C   UNL A   1      42.625  30.775  36.344  1.00  0.00     0.049 A 
ATOM     52  H   UNL A   1      40.829  31.482  35.491  1.00  0.00     0.167 HD
ATOM     53  C   UNL A   1      42.438  29.527  34.208  1.00  0.00     0.074 A 
ATOM     54  C   UNL A   1      42.924  28.587  33.221  1.00  0.00     0.031 C 
ATOM     55  C   UNL A   1      43.082  29.822  35.365  1.00  0.00     0.037 A 
BRANCH  42  56
ATOM     56  C   UNL A   1      40.260  34.095  38.815  1.00  0.00     0.064 A 
ATOM     57  C   UNL A   1      40.865  35.360  38.823  1.00  0.00     0.173 A 
ATOM     58  C   UNL A   1      39.636  33.658  39.994  1.00  0.00     0.173 A 
ATOM     59  F   UNL A   1      41.483  35.820  37.724  1.00  0.00    -0.203 F 
ATOM     60  C   UNL A   1      40.871  36.146  39.973  1.00  0.00     0.198 A 
ATOM     61  C   UNL A   1      39.617  34.460  41.133  1.00  0.00     0.198 A 
ATOM     62  F   UNL A   1      39.036  32.460  40.040  1.00  0.00    -0.203 F 
ATOM     63  F   UNL A   1      41.496  37.331  39.970  1.00  0.00    -0.200 F 
ATOM     64  C   UNL A   1      40.240  35.698  41.124  1.00  0.00     0.200 A 
ATOM     65  F   UNL A   1      38.996  34.032  42.241  1.00  0.00    -0.200 F 
ATOM     66  F   UNL A   1      40.239  36.458  42.228  1.00  0.00    -0.200 F 
ENDBRANCH  42  56
BRANCH  43  67
ATOM     67  C   UNL A   1      39.830  28.810  30.360  1.00  0.00     0.064 A 
ATOM     68  C   UNL A   1      39.287  27.520  30.308  1.00  0.00     0.173 A 
ATOM     69  C   UNL A   1      40.339  29.351  29.171  1.00  0.00     0.173 A 
ATOM     70  F   UNL A   1      38.809  26.950  31.425  1.00  0.00    -0.203 F 
ATOM     71  C   UNL A   1      39.270  26.791  29.121  1.00  0.00     0.198 A 
ATOM     72  C   UNL A   1      40.297  28.634  27.977  1.00  0.00     0.198 A 
ATOM     73  F   UNL A   1      40.867  30.585  29.165  1.00  0.00    -0.203 F 
ATOM     74  F   UNL A   1      38.785  25.542  29.110  1.00  0.00    -0.200 F 
ATOM     75  C   UNL A   1      39.770  27.351  27.955  1.00  0.00     0.200 A 
ATOM     76  F   UNL A   1      40.769  29.183  26.850  1.00  0.00    -0.200 F 
ATOM     77  F   UNL A   1      39.751  26.652  26.812  1.00  0.00    -0.200 F 
ENDBRANCH  43  67
BRANCH  55  78
ATOM     78  C   UNL A   1      44.351  29.079  35.661  1.00  0.00     0.064 A 
ATOM     79  C   UNL A   1      44.350  27.860  36.355  1.00  0.00     0.173 A 
ATOM     80  C   UNL A   1      45.579  29.563  35.183  1.00  0.00     0.173 A 
ATOM     81  F   UNL A   1      43.205  27.364  36.846  1.00  0.00    -0.203 F 
ATOM     82  C   UNL A   1      45.534  27.161  36.571  1.00  0.00     0.198 A 
ATOM     83  C   UNL A   1      46.756  28.848  35.378  1.00  0.00     0.198 A 
ATOM     84  F   UNL A   1      45.631  30.721  34.509  1.00  0.00    -0.203 F 
ATOM     85  F   UNL A   1      45.516  26.015  37.267  1.00  0.00    -0.200 F 
ATOM     86  C   UNL A   1      46.734  27.650  36.074  1.00  0.00     0.200 A 
ATOM     87  F   UNL A   1      47.911  29.315  34.885  1.00  0.00    -0.200 F 
ATOM     88  F   UNL A   1      47.870  26.967  36.270  1.00  0.00    -0.200 F 
ENDBRANCH  55  78
ENDBRANCH  29  30
ENDBRANCH  21  24
ENDBRANCH  19  20
ENDBRANCH   1  19
TORSDOF 13
ENDMDL
