MODEL 1
REMARK VINA RESULT:     -12.8      0.000      0.000
REMARK SMILES Cc1cc(C(=O)N[C@H](CC(C)C)C(=O)NCCCNC(=O)c2ccc(-c3c4nc(c(-c5c(F)c(F)c(F)c(F)c5F)c5ccc([nH]5)c(-c5c(F)c(F)c(F)c(F)c5F)c5nc(c(-c6c(F)c(F)c(F)c(F)c6F)c6ccc3[nH]6)C=C5)C=C4)cc2)sc1Br
REMARK SMILES IDX 17 1 16 2 15 3 13 4 14 5 8 7 7 8 5 9 6 10 4 12 1 13 2 14
REMARK SMILES IDX 3 15 86 16 85 17 87 18 9 19 10 20 11 21 12 22 18 23 19 24
REMARK SMILES IDX 20 25 21 27 22 28 23 29 84 30 24 31 83 32 25 33 26 34 27 35
REMARK SMILES IDX 77 36 28 37 82 38 76 39 78 40 29 41 81 42 75 43 74 44 30 46
REMARK SMILES IDX 62 47 42 48 61 49 43 50 46 51 60 52 79 53 44 54 45 55 59 57
REMARK SMILES IDX 80 58 47 59 31 60 32 61 40 62 33 63 34 64 38 65 41 66 35 67
REMARK SMILES IDX 36 68 39 69 37 70 63 71 64 72 72 73 65 74 66 75 70 76 73 77
REMARK SMILES IDX 67 78 68 79 71 80 69 81 48 82 49 83 57 84 50 85 51 86 55 87
REMARK SMILES IDX 58 88 52 89 53 90 56 91 54 92
REMARK H PARENT 15 6 7 11 19 26 78 45 46 56
REMARK Flexibility Score: inf
ROOT
ATOM      1  C   UNL A   1      32.501  30.489  26.762  1.00  0.00     0.042 C 
ENDROOT
BRANCH   1   2
ATOM      2  C   UNL A   1      32.719  29.865  25.378  1.00  0.00     0.117 C 
BRANCH   2   3
ATOM      3  N   UNL A   1      31.487  29.821  24.608  1.00  0.00    -0.354 N 
ATOM      4  C   UNL A   1      30.940  28.812  23.874  1.00  0.00     0.242 C 
ATOM      5  O   UNL A   1      30.033  29.112  23.092  1.00  0.00    -0.273 OA
ATOM      6  H   UNL A   1      30.963  30.655  24.618  1.00  0.00     0.163 HD
BRANCH   4   7
ATOM      7  C   UNL A   1      31.499  27.367  23.911  1.00  0.00     0.171 C 
BRANCH   7   8
ATOM      8  N   UNL A   1      32.163  27.030  22.664  1.00  0.00    -0.340 N 
ATOM      9  C   UNL A   1      33.015  26.011  22.312  1.00  0.00     0.262 C 
ATOM     10  O   UNL A   1      33.401  26.081  21.139  1.00  0.00    -0.268 OA
ATOM     11  H   UNL A   1      31.965  27.654  21.928  1.00  0.00     0.164 HD
BRANCH   9  12
ATOM     12  C   UNL A   1      33.456  24.974  23.239  1.00  0.00     0.093 A 
ATOM     13  C   UNL A   1      35.371  23.448  26.119  1.00  0.00     0.046 C 
ATOM     14  C   UNL A   1      34.488  23.674  24.937  1.00  0.00    -0.025 A 
ATOM     15  C   UNL A   1      34.231  24.978  24.385  1.00  0.00     0.030 A 
ATOM     16  C   UNL A   1      33.819  22.722  24.207  1.00  0.00     0.074 A 
ATOM     17  S   UNL A   1      32.955  23.352  22.899  1.00  0.00    -0.123 S 
ATOM     18  Br  UNL A   1      33.848  20.881  24.583  1.00  0.00    -0.039 Br
ENDBRANCH   9  12
ENDBRANCH   7   8
BRANCH   7  19
ATOM     19  C   UNL A   1      30.417  26.374  24.409  1.00  0.00     0.038 C 
BRANCH  19  20
ATOM     20  C   UNL A   1      30.504  25.797  25.837  1.00  0.00    -0.015 C 
ATOM     21  C   UNL A   1      30.764  24.290  25.866  1.00  0.00     0.007 C 
ATOM     22  C   UNL A   1      31.629  26.502  26.608  1.00  0.00     0.007 C 
ENDBRANCH  19  20
ENDBRANCH   7  19
ENDBRANCH   4   7
ENDBRANCH   2   3
ENDBRANCH   1   2
BRANCH   1  23
ATOM     23  C   UNL A   1      33.778  30.529  27.571  1.00  0.00     0.118 C 
BRANCH  23  24
ATOM     24  N   UNL A   1      34.271  31.898  27.775  1.00  0.00    -0.352 N 
ATOM     25  C   UNL A   1      35.449  32.331  28.368  1.00  0.00     0.251 C 
ATOM     26  H   UNL A   1      33.680  32.612  27.443  1.00  0.00     0.163 HD
ATOM     27  O   UNL A   1      35.573  33.474  28.766  1.00  0.00    -0.269 OA
BRANCH  25  28
ATOM     28  C   UNL A   1      36.553  31.364  28.502  1.00  0.00     0.039 A 
ATOM     29  C   UNL A   1      36.627  30.173  27.776  1.00  0.00     0.014 A 
ATOM     30  C   UNL A   1      37.580  31.731  29.354  1.00  0.00     0.014 A 
ATOM     31  C   UNL A   1      37.769  29.389  27.929  1.00  0.00     0.010 A 
ATOM     32  C   UNL A   1      38.810  31.195  29.165  1.00  0.00     0.010 A 
ATOM     33  C   UNL A   1      38.851  29.923  28.642  1.00  0.00    -0.014 A 
BRANCH  33  34
ATOM     34  C   UNL A   1      40.093  29.221  28.881  1.00  0.00     0.031 A 
ATOM     35  C   UNL A   1      40.334  28.902  30.300  1.00  0.00     0.074 A 
ATOM     36  C   UNL A   1      40.822  28.687  27.876  1.00  0.00     0.049 A 
ATOM     37  N   UNL A   1      41.191  29.467  31.076  1.00  0.00    -0.248 NA
ATOM     38  C   UNL A   1      39.408  27.990  30.985  1.00  0.00     0.031 C 
ATOM     39  C   UNL A   1      40.535  28.624  26.436  1.00  0.00     0.029 A 
ATOM     40  N   UNL A   1      41.985  27.995  27.972  1.00  0.00    -0.354 N 
ATOM     41  C   UNL A   1      41.052  28.851  32.312  1.00  0.00     0.074 A 
ATOM     42  C   UNL A   1      39.820  28.107  32.249  1.00  0.00     0.031 C 
ATOM     43  C   UNL A   1      41.385  27.756  25.839  1.00  0.00     0.029 A 
ATOM     44  C   UNL A   1      42.368  27.327  26.814  1.00  0.00     0.049 A 
ATOM     45  H   UNL A   1      42.518  27.968  28.799  1.00  0.00     0.167 HD
ATOM     46  C   UNL A   1      42.088  28.838  33.195  1.00  0.00     0.037 A 
ATOM     47  C   UNL A   1      43.403  26.451  26.720  1.00  0.00     0.037 A 
ATOM     48  C   UNL A   1      43.127  29.746  32.769  1.00  0.00     0.049 A 
ATOM     49  C   UNL A   1      44.312  26.743  27.865  1.00  0.00     0.074 A 
ATOM     50  C   UNL A   1      43.187  31.112  32.566  1.00  0.00     0.029 A 
ATOM     51  N   UNL A   1      44.189  29.217  32.071  1.00  0.00    -0.354 N 
ATOM     52  N   UNL A   1      44.986  27.857  27.979  1.00  0.00    -0.248 NA
ATOM     53  C   UNL A   1      44.064  26.037  29.116  1.00  0.00     0.031 C 
ATOM     54  C   UNL A   1      43.956  31.272  31.375  1.00  0.00     0.029 A 
ATOM     55  C   UNL A   1      44.400  30.012  30.971  1.00  0.00     0.049 A 
ATOM     56  H   UNL A   1      44.705  28.416  32.316  1.00  0.00     0.167 HD
ATOM     57  C   UNL A   1      44.870  28.209  29.318  1.00  0.00     0.074 A 
ATOM     58  C   UNL A   1      44.345  27.017  29.982  1.00  0.00     0.031 C 
ATOM     59  C   UNL A   1      44.911  29.517  29.713  1.00  0.00     0.037 A 
BRANCH  46  60
ATOM     60  C   UNL A   1      42.341  27.775  34.230  1.00  0.00     0.064 A 
ATOM     61  C   UNL A   1      42.957  26.573  33.825  1.00  0.00     0.173 A 
ATOM     62  C   UNL A   1      41.758  27.758  35.514  1.00  0.00     0.173 A 
ATOM     63  F   UNL A   1      43.547  26.477  32.624  1.00  0.00    -0.203 F 
ATOM     64  C   UNL A   1      42.901  25.416  34.604  1.00  0.00     0.198 A 
ATOM     65  C   UNL A   1      41.753  26.616  36.313  1.00  0.00     0.198 A 
ATOM     66  F   UNL A   1      41.077  28.798  36.007  1.00  0.00    -0.203 F 
ATOM     67  F   UNL A   1      43.381  24.264  34.118  1.00  0.00    -0.200 F 
ATOM     68  C   UNL A   1      42.290  25.436  35.843  1.00  0.00     0.200 A 
ATOM     69  F   UNL A   1      41.146  26.652  37.507  1.00  0.00    -0.200 F 
ATOM     70  F   UNL A   1      42.175  24.314  36.564  1.00  0.00    -0.200 F 
ENDBRANCH  46  60
BRANCH  47  71
ATOM     71  C   UNL A   1      43.456  25.183  25.947  1.00  0.00     0.064 A 
ATOM     72  C   UNL A   1      44.540  24.894  25.100  1.00  0.00     0.173 A 
ATOM     73  C   UNL A   1      42.593  24.108  26.238  1.00  0.00     0.173 A 
ATOM     74  F   UNL A   1      45.434  25.846  24.801  1.00  0.00    -0.203 F 
ATOM     75  C   UNL A   1      44.766  23.602  24.608  1.00  0.00     0.198 A 
ATOM     76  C   UNL A   1      42.816  22.821  25.744  1.00  0.00     0.198 A 
ATOM     77  F   UNL A   1      41.568  24.257  27.089  1.00  0.00    -0.203 F 
ATOM     78  F   UNL A   1      45.848  23.350  23.857  1.00  0.00    -0.200 F 
ATOM     79  C   UNL A   1      43.911  22.564  24.941  1.00  0.00     0.200 A 
ATOM     80  F   UNL A   1      42.000  21.820  26.103  1.00  0.00    -0.200 F 
ATOM     81  F   UNL A   1      44.164  21.314  24.527  1.00  0.00    -0.200 F 
ENDBRANCH  47  71
BRANCH  59  82
ATOM     82  C   UNL A   1      45.302  30.554  28.693  1.00  0.00     0.064 A 
ATOM     83  C   UNL A   1      44.392  31.210  27.844  1.00  0.00     0.173 A 
ATOM     84  C   UNL A   1      46.622  31.021  28.695  1.00  0.00     0.173 A 
ATOM     85  F   UNL A   1      43.092  30.899  27.854  1.00  0.00    -0.203 F 
ATOM     86  C   UNL A   1      44.796  32.252  27.009  1.00  0.00     0.198 A 
ATOM     87  C   UNL A   1      47.016  32.087  27.888  1.00  0.00     0.198 A 
ATOM     88  F   UNL A   1      47.524  30.478  29.526  1.00  0.00    -0.203 F 
ATOM     89  F   UNL A   1      43.905  32.853  26.204  1.00  0.00    -0.200 F 
ATOM     90  C   UNL A   1      46.106  32.694  27.038  1.00  0.00     0.200 A 
ATOM     91  F   UNL A   1      48.273  32.545  27.961  1.00  0.00    -0.200 F 
ATOM     92  F   UNL A   1      46.486  33.725  26.269  1.00  0.00    -0.200 F 
ENDBRANCH  59  82
ENDBRANCH  33  34
ENDBRANCH  25  28
ENDBRANCH  23  24
ENDBRANCH   1  23
TORSDOF 14
ENDMDL
MODEL 2
REMARK VINA RESULT:     -12.7      3.529      8.859
REMARK SMILES Cc1cc(C(=O)N[C@H](CC(C)C)C(=O)NCCCNC(=O)c2ccc(-c3c4nc(c(-c5c(F)c(F)c(F)c(F)c5F)c5ccc([nH]5)c(-c5c(F)c(F)c(F)c(F)c5F)c5nc(c(-c6c(F)c(F)c(F)c(F)c6F)c6ccc3[nH]6)C=C5)C=C4)cc2)sc1Br
REMARK SMILES IDX 17 1 16 2 15 3 13 4 14 5 8 7 7 8 5 9 6 10 4 12 1 13 2 14
REMARK SMILES IDX 3 15 86 16 85 17 87 18 9 19 10 20 11 21 12 22 18 23 19 24
REMARK SMILES IDX 20 25 21 27 22 28 23 29 84 30 24 31 83 32 25 33 26 34 27 35
REMARK SMILES IDX 77 36 28 37 82 38 76 39 78 40 29 41 81 42 75 43 74 44 30 46
REMARK SMILES IDX 62 47 42 48 61 49 43 50 46 51 60 52 79 53 44 54 45 55 59 57
REMARK SMILES IDX 80 58 47 59 31 60 32 61 40 62 33 63 34 64 38 65 41 66 35 67
REMARK SMILES IDX 36 68 39 69 37 70 63 71 64 72 72 73 65 74 66 75 70 76 73 77
REMARK SMILES IDX 67 78 68 79 71 80 69 81 48 82 49 83 57 84 50 85 51 86 55 87
REMARK SMILES IDX 58 88 52 89 53 90 56 91 54 92
REMARK H PARENT 15 6 7 11 19 26 78 45 46 56
REMARK Flexibility Score: inf
ROOT
ATOM      1  C   UNL A   1      37.910  21.508  25.549  1.00  0.00     0.042 C 
ENDROOT
BRANCH   1   2
ATOM      2  C   UNL A   1      36.471  21.859  25.947  1.00  0.00     0.117 C 
BRANCH   2   3
ATOM      3  N   UNL A   1      35.545  20.790  25.616  1.00  0.00    -0.354 N 
ATOM      4  C   UNL A   1      34.213  20.831  25.334  1.00  0.00     0.242 C 
ATOM      5  O   UNL A   1      33.598  19.761  25.358  1.00  0.00    -0.273 OA
ATOM      6  H   UNL A   1      35.944  19.890  25.591  1.00  0.00     0.163 HD
BRANCH   4   7
ATOM      7  C   UNL A   1      33.456  22.166  25.113  1.00  0.00     0.171 C 
BRANCH   7   8
ATOM      8  N   UNL A   1      32.455  22.377  26.144  1.00  0.00    -0.340 N 
ATOM      9  C   UNL A   1      31.796  23.501  26.582  1.00  0.00     0.262 C 
ATOM     10  O   UNL A   1      31.021  23.278  27.519  1.00  0.00    -0.268 OA
ATOM     11  H   UNL A   1      32.198  21.556  26.623  1.00  0.00     0.164 HD
BRANCH   9  12
ATOM     12  C   UNL A   1      32.018  24.832  26.027  1.00  0.00     0.093 A 
ATOM     13  C   UNL A   1      33.808  28.104  25.409  1.00  0.00     0.046 C 
ATOM     14  C   UNL A   1      32.822  26.984  25.425  1.00  0.00    -0.025 A 
ATOM     15  C   UNL A   1      33.088  25.711  26.040  1.00  0.00     0.030 A 
ATOM     16  C   UNL A   1      31.554  26.988  24.896  1.00  0.00     0.074 A 
ATOM     17  S   UNL A   1      30.706  25.549  25.156  1.00  0.00    -0.123 S 
ATOM     18  Br  UNL A   1      30.791  28.439  23.978  1.00  0.00    -0.039 Br
ENDBRANCH   9  12
ENDBRANCH   7   8
BRANCH   7  19
ATOM     19  C   UNL A   1      32.974  22.286  23.645  1.00  0.00     0.038 C 
BRANCH  19  20
ATOM     20  C   UNL A   1      33.684  23.256  22.680  1.00  0.00    -0.015 C 
ATOM     21  C   UNL A   1      32.782  24.389  22.187  1.00  0.00     0.007 C 
ATOM     22  C   UNL A   1      34.906  23.872  23.378  1.00  0.00     0.007 C 
ENDBRANCH  19  20
ENDBRANCH   7  19
ENDBRANCH   4   7
ENDBRANCH   2   3
ENDBRANCH   1   2
BRANCH   1  23
ATOM     23  C   UNL A   1      38.919  22.415  26.217  1.00  0.00     0.118 C 
BRANCH  23  24
ATOM     24  N   UNL A   1      40.304  22.006  25.951  1.00  0.00    -0.352 N 
ATOM     25  C   UNL A   1      41.480  22.732  26.093  1.00  0.00     0.251 C 
ATOM     26  H   UNL A   1      40.416  21.083  25.624  1.00  0.00     0.163 HD
ATOM     27  O   UNL A   1      42.503  22.392  25.530  1.00  0.00    -0.269 OA
BRANCH  25  28
ATOM     28  C   UNL A   1      41.455  23.929  26.952  1.00  0.00     0.039 A 
ATOM     29  C   UNL A   1      42.156  24.028  28.156  1.00  0.00     0.014 A 
ATOM     30  C   UNL A   1      40.740  25.009  26.466  1.00  0.00     0.014 A 
ATOM     31  C   UNL A   1      42.121  25.247  28.830  1.00  0.00     0.010 A 
ATOM     32  C   UNL A   1      41.061  26.253  26.896  1.00  0.00     0.010 A 
ATOM     33  C   UNL A   1      41.555  26.351  28.176  1.00  0.00    -0.014 A 
BRANCH  33  34
ATOM     34  C   UNL A   1      41.448  27.672  28.756  1.00  0.00     0.031 A 
ATOM     35  C   UNL A   1      42.494  28.607  28.307  1.00  0.00     0.074 A 
ATOM     36  C   UNL A   1      40.350  28.072  29.435  1.00  0.00     0.049 A 
ATOM     37  N   UNL A   1      43.492  29.029  29.001  1.00  0.00    -0.248 NA
ATOM     38  C   UNL A   1      42.548  28.975  26.886  1.00  0.00     0.031 C 
ATOM     39  C   UNL A   1      39.080  27.369  29.672  1.00  0.00     0.029 A 
ATOM     40  N   UNL A   1      40.123  29.281  30.007  1.00  0.00    -0.354 N 
ATOM     41  C   UNL A   1      44.209  29.874  28.166  1.00  0.00     0.074 A 
ATOM     42  C   UNL A   1      43.702  29.644  26.837  1.00  0.00     0.031 C 
ATOM     43  C   UNL A   1      38.158  28.238  30.146  1.00  0.00     0.029 A 
ATOM     44  C   UNL A   1      38.807  29.510  30.395  1.00  0.00     0.049 A 
ATOM     45  H   UNL A   1      40.836  29.947  30.138  1.00  0.00     0.167 HD
ATOM     46  C   UNL A   1      45.001  30.850  28.688  1.00  0.00     0.037 A 
ATOM     47  C   UNL A   1      38.315  30.696  30.840  1.00  0.00     0.037 A 
ATOM     48  C   UNL A   1      45.171  30.656  30.110  1.00  0.00     0.049 A 
ATOM     49  C   UNL A   1      39.486  31.488  31.317  1.00  0.00     0.074 A 
ATOM     50  C   UNL A   1      45.722  29.653  30.885  1.00  0.00     0.029 A 
ATOM     51  N   UNL A   1      44.352  31.372  30.953  1.00  0.00    -0.354 N 
ATOM     52  N   UNL A   1      40.203  31.151  32.356  1.00  0.00    -0.248 NA
ATOM     53  C   UNL A   1      40.162  32.339  30.346  1.00  0.00     0.031 C 
ATOM     54  C   UNL A   1      44.834  29.516  31.994  1.00  0.00     0.029 A 
ATOM     55  C   UNL A   1      43.849  30.498  31.885  1.00  0.00     0.049 A 
ATOM     56  H   UNL A   1      44.162  32.337  30.899  1.00  0.00     0.167 HD
ATOM     57  C   UNL A   1      41.518  31.374  31.969  1.00  0.00     0.074 A 
ATOM     58  C   UNL A   1      41.427  32.166  30.743  1.00  0.00     0.031 C 
ATOM     59  C   UNL A   1      42.546  30.641  32.494  1.00  0.00     0.037 A 
BRANCH  46  60
ATOM     60  C   UNL A   1      45.331  32.159  28.024  1.00  0.00     0.064 A 
ATOM     61  C   UNL A   1      44.284  33.070  27.773  1.00  0.00     0.173 A 
ATOM     62  C   UNL A   1      46.549  32.437  27.370  1.00  0.00     0.173 A 
ATOM     63  F   UNL A   1      43.081  32.905  28.346  1.00  0.00    -0.203 F 
ATOM     64  C   UNL A   1      44.418  34.115  26.858  1.00  0.00     0.198 A 
ATOM     65  C   UNL A   1      46.696  33.515  26.500  1.00  0.00     0.198 A 
ATOM     66  F   UNL A   1      47.609  31.626  27.453  1.00  0.00    -0.203 F 
ATOM     67  F   UNL A   1      43.355  34.870  26.552  1.00  0.00    -0.200 F 
ATOM     68  C   UNL A   1      45.622  34.331  26.214  1.00  0.00     0.200 A 
ATOM     69  F   UNL A   1      47.868  33.702  25.877  1.00  0.00    -0.200 F 
ATOM     70  F   UNL A   1      45.736  35.290  25.288  1.00  0.00    -0.200 F 
ENDBRANCH  46  60
BRANCH  47  71
ATOM     71  C   UNL A   1      36.994  31.305  30.541  1.00  0.00     0.064 A 
ATOM     72  C   UNL A   1      36.073  31.583  31.566  1.00  0.00     0.173 A 
ATOM     73  C   UNL A   1      36.720  31.888  29.287  1.00  0.00     0.173 A 
ATOM     74  F   UNL A   1      36.275  31.103  32.801  1.00  0.00    -0.203 F 
ATOM     75  C   UNL A   1      34.970  32.422  31.359  1.00  0.00     0.198 A 
ATOM     76  C   UNL A   1      35.617  32.720  29.080  1.00  0.00     0.198 A 
ATOM     77  F   UNL A   1      37.568  31.744  28.259  1.00  0.00    -0.203 F 
ATOM     78  F   UNL A   1      34.151  32.716  32.379  1.00  0.00    -0.200 F 
ATOM     79  C   UNL A   1      34.751  33.000  30.119  1.00  0.00     0.200 A 
ATOM     80  F   UNL A   1      35.438  33.301  27.885  1.00  0.00    -0.200 F 
ATOM     81  F   UNL A   1      33.735  33.855  29.938  1.00  0.00    -0.200 F 
ENDBRANCH  47  71
BRANCH  59  82
ATOM     82  C   UNL A   1      42.248  29.736  33.660  1.00  0.00     0.064 A 
ATOM     83  C   UNL A   1      41.835  28.396  33.536  1.00  0.00     0.173 A 
ATOM     84  C   UNL A   1      42.554  30.191  34.949  1.00  0.00     0.173 A 
ATOM     85  F   UNL A   1      41.623  27.848  32.335  1.00  0.00    -0.203 F 
ATOM     86  C   UNL A   1      41.697  27.570  34.651  1.00  0.00     0.198 A 
ATOM     87  C   UNL A   1      42.451  29.353  36.058  1.00  0.00     0.198 A 
ATOM     88  F   UNL A   1      43.010  31.440  35.128  1.00  0.00    -0.203 F 
ATOM     89  F   UNL A   1      41.294  26.299  34.501  1.00  0.00    -0.200 F 
ATOM     90  C   UNL A   1      42.013  28.047  35.910  1.00  0.00     0.200 A 
ATOM     91  F   UNL A   1      42.810  29.806  37.267  1.00  0.00    -0.200 F 
ATOM     92  F   UNL A   1      41.923  27.243  36.978  1.00  0.00    -0.200 F 
ENDBRANCH  59  82
ENDBRANCH  33  34
ENDBRANCH  25  28
ENDBRANCH  23  24
ENDBRANCH   1  23
TORSDOF 14
ENDMDL
MODEL 3
REMARK VINA RESULT:     -12.7      3.638      7.742
REMARK SMILES Cc1cc(C(=O)N[C@H](CC(C)C)C(=O)NCCCNC(=O)c2ccc(-c3c4nc(c(-c5c(F)c(F)c(F)c(F)c5F)c5ccc([nH]5)c(-c5c(F)c(F)c(F)c(F)c5F)c5nc(c(-c6c(F)c(F)c(F)c(F)c6F)c6ccc3[nH]6)C=C5)C=C4)cc2)sc1Br
REMARK SMILES IDX 17 1 16 2 15 3 13 4 14 5 8 7 7 8 5 9 6 10 4 12 1 13 2 14
REMARK SMILES IDX 3 15 86 16 85 17 87 18 9 19 10 20 11 21 12 22 18 23 19 24
REMARK SMILES IDX 20 25 21 27 22 28 23 29 84 30 24 31 83 32 25 33 26 34 27 35
REMARK SMILES IDX 77 36 28 37 82 38 76 39 78 40 29 41 81 42 75 43 74 44 30 46
REMARK SMILES IDX 62 47 42 48 61 49 43 50 46 51 60 52 79 53 44 54 45 55 59 57
REMARK SMILES IDX 80 58 47 59 31 60 32 61 40 62 33 63 34 64 38 65 41 66 35 67
REMARK SMILES IDX 36 68 39 69 37 70 63 71 64 72 72 73 65 74 66 75 70 76 73 77
REMARK SMILES IDX 67 78 68 79 71 80 69 81 48 82 49 83 57 84 50 85 51 86 55 87
REMARK SMILES IDX 58 88 52 89 53 90 56 91 54 92
REMARK H PARENT 15 6 7 11 19 26 78 45 46 56
REMARK Flexibility Score: inf
ROOT
ATOM      1  C   UNL A   1      37.188  19.932  24.807  1.00  0.00     0.042 C 
ENDROOT
BRANCH   1   2
ATOM      2  C   UNL A   1      35.957  20.684  25.326  1.00  0.00     0.117 C 
BRANCH   2   3
ATOM      3  N   UNL A   1      34.748  19.886  25.204  1.00  0.00    -0.354 N 
ATOM      4  C   UNL A   1      33.438  20.261  25.220  1.00  0.00     0.242 C 
ATOM      5  O   UNL A   1      32.599  19.368  25.376  1.00  0.00    -0.273 OA
ATOM      6  H   UNL A   1      34.900  18.920  25.092  1.00  0.00     0.163 HD
BRANCH   4   7
ATOM      7  C   UNL A   1      33.003  21.747  25.170  1.00  0.00     0.171 C 
BRANCH   7   8
ATOM      8  N   UNL A   1      32.037  22.045  26.214  1.00  0.00    -0.340 N 
ATOM      9  C   UNL A   1      31.483  23.222  26.658  1.00  0.00     0.262 C 
ATOM     10  O   UNL A   1      30.704  23.067  27.606  1.00  0.00    -0.268 OA
ATOM     11  H   UNL A   1      31.717  21.249  26.698  1.00  0.00     0.164 HD
BRANCH   9  12
ATOM     12  C   UNL A   1      31.812  24.528  26.097  1.00  0.00     0.093 A 
ATOM     13  C   UNL A   1      33.810  27.690  25.548  1.00  0.00     0.046 C 
ATOM     14  C   UNL A   1      32.767  26.623  25.516  1.00  0.00    -0.025 A 
ATOM     15  C   UNL A   1      32.923  25.351  26.168  1.00  0.00     0.030 A 
ATOM     16  C   UNL A   1      31.539  26.682  24.902  1.00  0.00     0.074 A 
ATOM     17  S   UNL A   1      30.600  25.294  25.127  1.00  0.00    -0.123 S 
ATOM     18  Br  UNL A   1      30.916  28.151  23.910  1.00  0.00    -0.039 Br
ENDBRANCH   9  12
ENDBRANCH   7   8
BRANCH   7  19
ATOM     19  C   UNL A   1      32.611  22.156  23.727  1.00  0.00     0.038 C 
BRANCH  19  20
ATOM     20  C   UNL A   1      33.577  23.009  22.882  1.00  0.00    -0.015 C 
ATOM     21  C   UNL A   1      32.905  24.219  22.231  1.00  0.00     0.007 C 
ATOM     22  C   UNL A   1      34.731  23.506  23.765  1.00  0.00     0.007 C 
ENDBRANCH  19  20
ENDBRANCH   7  19
ENDBRANCH   4   7
ENDBRANCH   2   3
ENDBRANCH   1   2
BRANCH   1  23
ATOM     23  C   UNL A   1      38.467  20.440  25.433  1.00  0.00     0.118 C 
BRANCH  23  24
ATOM     24  N   UNL A   1      39.455  19.372  25.636  1.00  0.00    -0.352 N 
ATOM     25  C   UNL A   1      40.812  19.470  25.915  1.00  0.00     0.251 C 
ATOM     26  H   UNL A   1      39.105  18.455  25.565  1.00  0.00     0.163 HD
ATOM     27  O   UNL A   1      41.563  18.531  25.730  1.00  0.00    -0.269 OA
BRANCH  25  28
ATOM     28  C   UNL A   1      41.320  20.746  26.449  1.00  0.00     0.039 A 
ATOM     29  C   UNL A   1      41.890  21.742  25.653  1.00  0.00     0.014 A 
ATOM     30  C   UNL A   1      41.142  20.949  27.806  1.00  0.00     0.014 A 
ATOM     31  C   UNL A   1      42.250  22.939  26.268  1.00  0.00     0.010 A 
ATOM     32  C   UNL A   1      41.101  22.219  28.276  1.00  0.00     0.010 A 
ATOM     33  C   UNL A   1      41.848  23.151  27.595  1.00  0.00    -0.014 A 
BRANCH  33  34
ATOM     34  C   UNL A   1      42.155  24.342  28.356  1.00  0.00     0.031 A 
ATOM     35  C   UNL A   1      41.142  25.405  28.234  1.00  0.00     0.074 A 
ATOM     36  C   UNL A   1      43.137  24.368  29.285  1.00  0.00     0.049 A 
ATOM     37  N   UNL A   1      41.265  26.507  27.581  1.00  0.00    -0.248 NA
ATOM     38  C   UNL A   1      39.785  25.148  28.732  1.00  0.00     0.031 C 
ATOM     39  C   UNL A   1      44.007  23.286  29.765  1.00  0.00     0.029 A 
ATOM     40  N   UNL A   1      43.507  25.410  30.071  1.00  0.00    -0.354 N 
ATOM     41  C   UNL A   1      40.064  27.182  27.739  1.00  0.00     0.074 A 
ATOM     42  C   UNL A   1      39.135  26.220  28.276  1.00  0.00     0.031 C 
ATOM     43  C   UNL A   1      44.644  23.678  30.893  1.00  0.00     0.029 A 
ATOM     44  C   UNL A   1      44.353  25.079  31.124  1.00  0.00     0.049 A 
ATOM     45  H   UNL A   1      43.200  26.331  29.908  1.00  0.00     0.167 HD
ATOM     46  C   UNL A   1      40.013  28.537  27.619  1.00  0.00     0.037 A 
ATOM     47  C   UNL A   1      44.725  25.920  32.125  1.00  0.00     0.037 A 
ATOM     48  C   UNL A   1      41.245  29.041  27.058  1.00  0.00     0.049 A 
ATOM     49  C   UNL A   1      44.512  27.305  31.616  1.00  0.00     0.074 A 
ATOM     50  C   UNL A   1      41.899  28.858  25.854  1.00  0.00     0.029 A 
ATOM     51  N   UNL A   1      42.197  29.516  27.932  1.00  0.00    -0.354 N 
ATOM     52  N   UNL A   1      45.205  27.822  30.636  1.00  0.00    -0.248 NA
ATOM     53  C   UNL A   1      43.205  27.910  31.839  1.00  0.00     0.031 C 
ATOM     54  C   UNL A   1      43.280  28.750  26.199  1.00  0.00     0.029 A 
ATOM     55  C   UNL A   1      43.402  28.965  27.572  1.00  0.00     0.049 A 
ATOM     56  H   UNL A   1      42.042  30.139  28.678  1.00  0.00     0.167 HD
ATOM     57  C   UNL A   1      44.273  28.500  29.859  1.00  0.00     0.074 A 
ATOM     58  C   UNL A   1      43.068  28.571  30.684  1.00  0.00     0.031 C 
ATOM     59  C   UNL A   1      44.456  28.663  28.514  1.00  0.00     0.037 A 
BRANCH  46  60
ATOM     60  C   UNL A   1      39.034  29.442  28.317  1.00  0.00     0.064 A 
ATOM     61  C   UNL A   1      39.094  29.543  29.722  1.00  0.00     0.173 A 
ATOM     62  C   UNL A   1      37.876  29.977  27.717  1.00  0.00     0.173 A 
ATOM     63  F   UNL A   1      40.153  29.070  30.398  1.00  0.00    -0.203 F 
ATOM     64  C   UNL A   1      38.031  30.047  30.473  1.00  0.00     0.198 A 
ATOM     65  C   UNL A   1      36.839  30.530  28.467  1.00  0.00     0.198 A 
ATOM     66  F   UNL A   1      37.643  29.891  26.404  1.00  0.00    -0.203 F 
ATOM     67  F   UNL A   1      38.079  29.997  31.810  1.00  0.00    -0.200 F 
ATOM     68  C   UNL A   1      36.899  30.531  29.844  1.00  0.00     0.200 A 
ATOM     69  F   UNL A   1      35.745  30.985  27.839  1.00  0.00    -0.200 F 
ATOM     70  F   UNL A   1      35.850  30.953  30.561  1.00  0.00    -0.200 F 
ENDBRANCH  46  60
BRANCH  47  71
ATOM     71  C   UNL A   1      44.888  25.604  33.568  1.00  0.00     0.064 A 
ATOM     72  C   UNL A   1      43.772  25.466  34.412  1.00  0.00     0.173 A 
ATOM     73  C   UNL A   1      46.117  25.150  34.087  1.00  0.00     0.173 A 
ATOM     74  F   UNL A   1      42.556  25.835  33.986  1.00  0.00    -0.203 F 
ATOM     75  C   UNL A   1      43.875  24.878  35.679  1.00  0.00     0.198 A 
ATOM     76  C   UNL A   1      46.220  24.568  35.352  1.00  0.00     0.198 A 
ATOM     77  F   UNL A   1      47.231  25.171  33.341  1.00  0.00    -0.203 F 
ATOM     78  F   UNL A   1      42.777  24.704  36.428  1.00  0.00    -0.200 F 
ATOM     79  C   UNL A   1      45.096  24.417  36.142  1.00  0.00     0.200 A 
ATOM     80  F   UNL A   1      47.402  24.094  35.772  1.00  0.00    -0.200 F 
ATOM     81  F   UNL A   1      45.184  23.793  37.325  1.00  0.00    -0.200 F 
ENDBRANCH  47  71
BRANCH  59  82
ATOM     82  C   UNL A   1      45.791  28.284  27.929  1.00  0.00     0.064 A 
ATOM     83  C   UNL A   1      46.092  27.015  27.401  1.00  0.00     0.173 A 
ATOM     84  C   UNL A   1      46.744  29.294  27.742  1.00  0.00     0.173 A 
ATOM     85  F   UNL A   1      45.198  26.022  27.442  1.00  0.00    -0.203 F 
ATOM     86  C   UNL A   1      47.302  26.762  26.758  1.00  0.00     0.198 A 
ATOM     87  C   UNL A   1      47.937  29.048  27.066  1.00  0.00     0.198 A 
ATOM     88  F   UNL A   1      46.492  30.541  28.168  1.00  0.00    -0.203 F 
ATOM     89  F   UNL A   1      47.563  25.538  26.271  1.00  0.00    -0.200 F 
ATOM     90  C   UNL A   1      48.221  27.781  26.584  1.00  0.00     0.200 A 
ATOM     91  F   UNL A   1      48.798  30.053  26.854  1.00  0.00    -0.200 F 
ATOM     92  F   UNL A   1      49.366  27.552  25.927  1.00  0.00    -0.200 F 
ENDBRANCH  59  82
ENDBRANCH  33  34
ENDBRANCH  25  28
ENDBRANCH  23  24
ENDBRANCH   1  23
TORSDOF 14
ENDMDL
