MODEL 1
REMARK VINA RESULT:     -11.6      0.000      0.000
REMARK SMILES CC(C)C[C@H](NC(=O)[C@@H](NC(=O)[C@H](C)NC(=O)CNC(=O)OCc1ccccc1)C(C)C)C(=O)NCCCNC(=O)c1ccc(-c2c3nc(c(-c4c(F)c(F)c(F)c(F)c4F)c4ccc([nH]4)c(-c4c(F)c(F)c(F)c(F)c4F)c4nc(c(-c5c(F)c(F)c(F)c(F)c5F)c5ccc2[nH]5)C=C4)C=C3)cc1
REMARK SMILES IDX 6 1 7 2 8 3 5 5 4 6 2 7 1 8 3 9 33 10 34 11 35 12 36 14
REMARK SMILES IDX 37 15 38 16 39 17 40 18 41 20 42 21 43 22 104 23 44 24
REMARK SMILES IDX 103 25 45 26 46 27 47 28 97 29 48 30 102 31 96 32 98 33
REMARK SMILES IDX 49 34 101 35 95 36 94 37 50 39 82 40 62 41 81 42 63 43 66 44
REMARK SMILES IDX 80 45 99 46 64 47 65 48 79 50 100 51 67 52 51 53 52 54 60 55
REMARK SMILES IDX 53 56 54 57 58 58 61 59 55 60 56 61 59 62 57 63 83 64 84 65
REMARK SMILES IDX 92 66 85 67 86 68 90 69 93 70 87 71 88 72 91 73 89 74 68 75
REMARK SMILES IDX 69 76 77 77 70 78 71 79 75 80 78 81 72 82 73 83 76 84 74 85
REMARK SMILES IDX 9 86 10 87 11 88 12 90 13 91 14 92 15 93 16 94 17 96 18 97
REMARK SMILES IDX 19 98 20 99 21 101 22 102 23 103 24 104 25 105 29 106 26 107
REMARK SMILES IDX 28 108 27 109 30 110 31 111 32 112
REMARK H PARENT 6 4 35 13 39 19 98 38 66 49 10 89 15 95 19 100
REMARK Flexibility Score: inf
ROOT
ATOM      1  N   UNL A   1      30.320  24.285  23.956  1.00  0.00    -0.343 N 
ATOM      2  C   UNL A   1      31.275  23.345  23.737  1.00  0.00     0.243 C 
ATOM      3  O   UNL A   1      30.915  22.319  23.150  1.00  0.00    -0.273 OA
ATOM      4  H   UNL A   1      29.407  24.028  23.693  1.00  0.00     0.164 HD
ENDROOT
BRANCH   1   5
ATOM      5  C   UNL A   1      30.454  25.616  24.524  1.00  0.00     0.171 C 
BRANCH   5   6
ATOM      6  C   UNL A   1      29.463  26.596  23.869  1.00  0.00     0.038 C 
BRANCH   6   7
ATOM      7  C   UNL A   1      30.069  27.693  22.975  1.00  0.00    -0.015 C 
ATOM      8  C   UNL A   1      29.919  29.082  23.560  1.00  0.00     0.007 C 
ATOM      9  C   UNL A   1      31.543  27.379  22.722  1.00  0.00     0.007 C 
ENDBRANCH   6   7
ENDBRANCH   5   6
BRANCH   5  10
ATOM     10  C   UNL A   1      30.354  25.545  26.055  1.00  0.00     0.242 C 
ATOM     11  O   UNL A   1      29.444  24.931  26.616  1.00  0.00    -0.273 OA
ATOM     12  N   UNL A   1      31.238  26.209  26.844  1.00  0.00    -0.354 N 
ATOM     13  H   UNL A   1      31.161  26.030  27.808  1.00  0.00     0.163 HD
BRANCH  12  14
ATOM     14  C   UNL A   1      32.277  27.143  26.465  1.00  0.00     0.117 C 
BRANCH  14  15
ATOM     15  C   UNL A   1      31.848  28.573  26.674  1.00  0.00     0.042 C 
BRANCH  15  16
ATOM     16  C   UNL A   1      32.854  29.558  26.113  1.00  0.00     0.118 C 
BRANCH  16  17
ATOM     17  N   UNL A   1      32.521  30.948  26.412  1.00  0.00    -0.352 N 
ATOM     18  C   UNL A   1      33.181  31.840  27.226  1.00  0.00     0.251 C 
ATOM     19  H   UNL A   1      31.712  31.294  25.971  1.00  0.00     0.163 HD
ATOM     20  O   UNL A   1      32.675  32.912  27.531  1.00  0.00    -0.269 OA
BRANCH  18  21
ATOM     21  C   UNL A   1      34.502  31.453  27.751  1.00  0.00     0.039 A 
ATOM     22  C   UNL A   1      35.488  32.421  27.932  1.00  0.00     0.014 A 
ATOM     23  C   UNL A   1      34.704  30.140  28.179  1.00  0.00     0.014 A 
ATOM     24  C   UNL A   1      36.646  32.085  28.633  1.00  0.00     0.010 A 
ATOM     25  C   UNL A   1      35.768  29.860  29.015  1.00  0.00     0.010 A 
ATOM     26  C   UNL A   1      36.769  30.817  29.227  1.00  0.00    -0.014 A 
BRANCH  26  27
ATOM     27  C   UNL A   1      37.957  30.435  30.027  1.00  0.00     0.031 A 
ATOM     28  C   UNL A   1      38.957  29.474  29.439  1.00  0.00     0.074 A 
ATOM     29  C   UNL A   1      38.098  30.882  31.289  1.00  0.00     0.049 A 
ATOM     30  N   UNL A   1      40.009  28.928  29.994  1.00  0.00    -0.248 NA
ATOM     31  C   UNL A   1      38.715  29.025  28.057  1.00  0.00     0.031 C 
ATOM     32  C   UNL A   1      37.163  31.766  31.989  1.00  0.00     0.029 A 
ATOM     33  N   UNL A   1      39.084  30.647  32.214  1.00  0.00    -0.354 N 
ATOM     34  C   UNL A   1      40.528  28.065  29.038  1.00  0.00     0.074 A 
ATOM     35  C   UNL A   1      39.634  28.086  27.907  1.00  0.00     0.031 C 
ATOM     36  C   UNL A   1      37.640  32.030  33.216  1.00  0.00     0.029 A 
ATOM     37  C   UNL A   1      38.888  31.299  33.408  1.00  0.00     0.049 A 
ATOM     38  H   UNL A   1      39.860  30.066  32.039  1.00  0.00     0.167 HD
ATOM     39  C   UNL A   1      41.676  27.349  29.082  1.00  0.00     0.037 A 
ATOM     40  C   UNL A   1      39.633  31.297  34.530  1.00  0.00     0.037 A 
ATOM     41  C   UNL A   1      42.582  27.365  30.196  1.00  0.00     0.049 A 
ATOM     42  C   UNL A   1      40.903  30.488  34.556  1.00  0.00     0.074 A 
ATOM     43  C   UNL A   1      43.804  26.731  30.322  1.00  0.00     0.029 A 
ATOM     44  N   UNL A   1      42.361  28.055  31.379  1.00  0.00    -0.354 N 
ATOM     45  N   UNL A   1      41.428  29.737  33.618  1.00  0.00    -0.248 NA
ATOM     46  C   UNL A   1      41.690  30.533  35.796  1.00  0.00     0.031 C 
ATOM     47  C   UNL A   1      44.296  26.989  31.605  1.00  0.00     0.029 A 
ATOM     48  C   UNL A   1      43.412  27.839  32.254  1.00  0.00     0.049 A 
ATOM     49  H   UNL A   1      41.573  28.614  31.569  1.00  0.00     0.167 HD
ATOM     50  C   UNL A   1      42.616  29.246  34.140  1.00  0.00     0.074 A 
ATOM     51  C   UNL A   1      42.744  29.800  35.472  1.00  0.00     0.031 C 
ATOM     52  C   UNL A   1      43.522  28.411  33.572  1.00  0.00     0.037 A 
BRANCH  39  53
ATOM     53  C   UNL A   1      42.011  26.501  27.888  1.00  0.00     0.064 A 
ATOM     54  C   UNL A   1      41.348  25.290  27.630  1.00  0.00     0.173 A 
ATOM     55  C   UNL A   1      42.997  26.912  26.979  1.00  0.00     0.173 A 
ATOM     56  F   UNL A   1      40.408  24.841  28.477  1.00  0.00    -0.203 F 
ATOM     57  C   UNL A   1      41.684  24.508  26.529  1.00  0.00     0.198 A 
ATOM     58  C   UNL A   1      43.304  26.146  25.858  1.00  0.00     0.198 A 
ATOM     59  F   UNL A   1      43.663  28.060  27.177  1.00  0.00    -0.203 F 
ATOM     60  F   UNL A   1      41.082  23.326  26.341  1.00  0.00    -0.200 F 
ATOM     61  C   UNL A   1      42.655  24.941  25.639  1.00  0.00     0.200 A 
ATOM     62  F   UNL A   1      44.234  26.572  24.992  1.00  0.00    -0.200 F 
ATOM     63  F   UNL A   1      42.972  24.190  24.575  1.00  0.00    -0.200 F 
ENDBRANCH  39  53
BRANCH  40  64
ATOM     64  C   UNL A   1      39.216  32.105  35.707  1.00  0.00     0.064 A 
ATOM     65  C   UNL A   1      38.379  31.564  36.694  1.00  0.00     0.173 A 
ATOM     66  C   UNL A   1      39.631  33.436  35.866  1.00  0.00     0.173 A 
ATOM     67  F   UNL A   1      37.939  30.302  36.580  1.00  0.00    -0.203 F 
ATOM     68  C   UNL A   1      37.951  32.329  37.777  1.00  0.00     0.198 A 
ATOM     69  C   UNL A   1      39.229  34.190  36.966  1.00  0.00     0.198 A 
ATOM     70  F   UNL A   1      40.438  34.002  34.956  1.00  0.00    -0.203 F 
ATOM     71  F   UNL A   1      37.107  31.802  38.675  1.00  0.00    -0.200 F 
ATOM     72  C   UNL A   1      38.381  33.640  37.915  1.00  0.00     0.200 A 
ATOM     73  F   UNL A   1      39.662  35.451  37.106  1.00  0.00    -0.200 F 
ATOM     74  F   UNL A   1      37.971  34.376  38.958  1.00  0.00    -0.200 F 
ENDBRANCH  40  64
BRANCH  52  75
ATOM     75  C   UNL A   1      44.749  28.079  34.369  1.00  0.00     0.064 A 
ATOM     76  C   UNL A   1      45.896  28.886  34.331  1.00  0.00     0.173 A 
ATOM     77  C   UNL A   1      44.760  26.963  35.220  1.00  0.00     0.173 A 
ATOM     78  F   UNL A   1      45.942  29.958  33.525  1.00  0.00    -0.203 F 
ATOM     79  C   UNL A   1      47.018  28.570  35.092  1.00  0.00     0.198 A 
ATOM     80  C   UNL A   1      45.869  26.671  36.007  1.00  0.00     0.198 A 
ATOM     81  F   UNL A   1      43.685  26.165  35.302  1.00  0.00    -0.203 F 
ATOM     82  F   UNL A   1      48.122  29.324  34.998  1.00  0.00    -0.200 F 
ATOM     83  C   UNL A   1      47.001  27.469  35.935  1.00  0.00     0.200 A 
ATOM     84  F   UNL A   1      45.842  25.619  36.837  1.00  0.00    -0.200 F 
ATOM     85  F   UNL A   1      48.078  27.173  36.676  1.00  0.00    -0.200 F 
ENDBRANCH  52  75
ENDBRANCH  26  27
ENDBRANCH  18  21
ENDBRANCH  16  17
ENDBRANCH  15  16
ENDBRANCH  14  15
ENDBRANCH  12  14
ENDBRANCH   5  10
ENDBRANCH   1   5
BRANCH   2  86
ATOM     86  C   UNL A   1      32.713  23.444  24.333  1.00  0.00     0.174 C 
BRANCH  86  87
ATOM     87  N   UNL A   1      33.435  22.150  24.419  1.00  0.00    -0.342 N 
ATOM     88  C   UNL A   1      34.315  21.424  25.140  1.00  0.00     0.242 C 
ATOM     89  H   UNL A   1      33.164  21.605  23.644  1.00  0.00     0.164 HD
ATOM     90  O   UNL A   1      34.484  20.286  24.656  1.00  0.00    -0.273 OA
BRANCH  88  91
ATOM     91  C   UNL A   1      35.024  21.701  26.507  1.00  0.00     0.168 C 
ATOM     92  C   UNL A   1      33.973  21.907  27.600  1.00  0.00     0.041 C 
BRANCH  91  93
ATOM     93  N   UNL A   1      36.105  22.665  26.668  1.00  0.00    -0.343 N 
ATOM     94  C   UNL A   1      37.259  22.899  25.984  1.00  0.00     0.240 C 
ATOM     95  H   UNL A   1      35.973  23.275  27.430  1.00  0.00     0.164 HD
ATOM     96  O   UNL A   1      37.890  23.907  26.323  1.00  0.00    -0.273 OA
BRANCH  94  97
ATOM     97  C   UNL A   1      37.747  22.064  24.790  1.00  0.00     0.219 C 
BRANCH  97  98
ATOM     98  N   UNL A   1      37.747  20.636  25.029  1.00  0.00    -0.312 N 
ATOM     99  C   UNL A   1      38.796  19.859  25.403  1.00  0.00     0.407 C 
ATOM    100  H   UNL A   1      36.886  20.175  24.906  1.00  0.00     0.167 HD
ATOM    101  O   UNL A   1      38.695  18.637  25.411  1.00  0.00    -0.225 OA
BRANCH  99 102
ATOM    102  O   UNL A   1      39.916  20.563  25.681  1.00  0.00    -0.445 OA
BRANCH 102 103
ATOM    103  C   UNL A   1      40.821  19.944  26.612  1.00  0.00     0.270 C 
BRANCH 103 104
ATOM    104  C   UNL A   1      42.238  19.892  26.101  1.00  0.00    -0.011 A 
ATOM    105  C   UNL A   1      42.890  18.669  25.899  1.00  0.00     0.007 A 
ATOM    106  C   UNL A   1      42.918  21.084  25.814  1.00  0.00     0.007 A 
ATOM    107  C   UNL A   1      44.178  18.637  25.364  1.00  0.00     0.000 A 
ATOM    108  C   UNL A   1      44.207  21.050  25.282  1.00  0.00     0.000 A 
ATOM    109  C   UNL A   1      44.832  19.827  25.048  1.00  0.00     0.000 A 
ENDBRANCH 103 104
ENDBRANCH 102 103
ENDBRANCH  99 102
ENDBRANCH  97  98
ENDBRANCH  94  97
ENDBRANCH  91  93
ENDBRANCH  88  91
ENDBRANCH  86  87
BRANCH  86 110
ATOM    110  C   UNL A   1      33.496  24.639  23.787  1.00  0.00     0.015 C 
ATOM    111  C   UNL A   1      34.559  25.191  24.743  1.00  0.00     0.010 C 
ATOM    112  C   UNL A   1      34.194  24.237  22.483  1.00  0.00     0.010 C 
ENDBRANCH  86 110
ENDBRANCH   2  86
TORSDOF 23
ENDMDL
MODEL 2
REMARK VINA RESULT:     -11.6      0.493      6.810
REMARK SMILES CC(C)C[C@H](NC(=O)[C@@H](NC(=O)[C@H](C)NC(=O)CNC(=O)OCc1ccccc1)C(C)C)C(=O)NCCCNC(=O)c1ccc(-c2c3nc(c(-c4c(F)c(F)c(F)c(F)c4F)c4ccc([nH]4)c(-c4c(F)c(F)c(F)c(F)c4F)c4nc(c(-c5c(F)c(F)c(F)c(F)c5F)c5ccc2[nH]5)C=C4)C=C3)cc1
REMARK SMILES IDX 6 1 7 2 8 3 5 5 4 6 2 7 1 8 3 9 33 10 34 11 35 12 36 14
REMARK SMILES IDX 37 15 38 16 39 17 40 18 41 20 42 21 43 22 104 23 44 24
REMARK SMILES IDX 103 25 45 26 46 27 47 28 97 29 48 30 102 31 96 32 98 33
REMARK SMILES IDX 49 34 101 35 95 36 94 37 50 39 82 40 62 41 81 42 63 43 66 44
REMARK SMILES IDX 80 45 99 46 64 47 65 48 79 50 100 51 67 52 51 53 52 54 60 55
REMARK SMILES IDX 53 56 54 57 58 58 61 59 55 60 56 61 59 62 57 63 83 64 84 65
REMARK SMILES IDX 92 66 85 67 86 68 90 69 93 70 87 71 88 72 91 73 89 74 68 75
REMARK SMILES IDX 69 76 77 77 70 78 71 79 75 80 78 81 72 82 73 83 76 84 74 85
REMARK SMILES IDX 9 86 10 87 11 88 12 90 13 91 14 92 15 93 16 94 17 96 18 97
REMARK SMILES IDX 19 98 20 99 21 101 22 102 23 103 24 104 25 105 29 106 26 107
REMARK SMILES IDX 28 108 27 109 30 110 31 111 32 112
REMARK H PARENT 6 4 35 13 39 19 98 38 66 49 10 89 15 95 19 100
REMARK Flexibility Score: inf
ROOT
ATOM      1  N   UNL A   1      30.257  24.735  23.941  1.00  0.00    -0.343 N 
ATOM      2  C   UNL A   1      31.101  23.686  23.764  1.00  0.00     0.243 C 
ATOM      3  O   UNL A   1      30.643  22.704  23.169  1.00  0.00    -0.273 OA
ATOM      4  H   UNL A   1      29.331  24.585  23.645  1.00  0.00     0.164 HD
ENDROOT
BRANCH   1   5
ATOM      5  C   UNL A   1      30.527  26.047  24.505  1.00  0.00     0.171 C 
BRANCH   5   6
ATOM      6  C   UNL A   1      29.663  27.126  23.827  1.00  0.00     0.038 C 
BRANCH   6   7
ATOM      7  C   UNL A   1      30.406  28.159  22.960  1.00  0.00    -0.015 C 
ATOM      8  C   UNL A   1      30.293  29.571  23.495  1.00  0.00     0.007 C 
ATOM      9  C   UNL A   1      31.874  27.751  22.840  1.00  0.00     0.007 C 
ENDBRANCH   6   7
ENDBRANCH   5   6
BRANCH   5  10
ATOM     10  C   UNL A   1      30.393  25.997  26.034  1.00  0.00     0.242 C 
ATOM     11  O   UNL A   1      29.480  25.378  26.583  1.00  0.00    -0.273 OA
ATOM     12  N   UNL A   1      31.249  26.685  26.833  1.00  0.00    -0.354 N 
ATOM     13  H   UNL A   1      31.152  26.520  27.798  1.00  0.00     0.163 HD
BRANCH  12  14
ATOM     14  C   UNL A   1      32.283  27.628  26.464  1.00  0.00     0.117 C 
BRANCH  14  15
ATOM     15  C   UNL A   1      31.888  29.047  26.786  1.00  0.00     0.042 C 
BRANCH  15  16
ATOM     16  C   UNL A   1      32.832  30.057  26.164  1.00  0.00     0.118 C 
BRANCH  16  17
ATOM     17  N   UNL A   1      32.580  31.424  26.610  1.00  0.00    -0.352 N 
ATOM     18  C   UNL A   1      33.317  32.202  27.474  1.00  0.00     0.251 C 
ATOM     19  H   UNL A   1      31.771  31.848  26.243  1.00  0.00     0.163 HD
ATOM     20  O   UNL A   1      32.877  33.261  27.905  1.00  0.00    -0.269 OA
BRANCH  18  21
ATOM     21  C   UNL A   1      34.637  31.706  27.898  1.00  0.00     0.039 A 
ATOM     22  C   UNL A   1      35.691  32.602  28.076  1.00  0.00     0.014 A 
ATOM     23  C   UNL A   1      34.781  30.361  28.237  1.00  0.00     0.014 A 
ATOM     24  C   UNL A   1      36.862  32.157  28.688  1.00  0.00     0.010 A 
ATOM     25  C   UNL A   1      35.869  29.968  28.992  1.00  0.00     0.010 A 
ATOM     26  C   UNL A   1      36.939  30.850  29.199  1.00  0.00    -0.014 A 
BRANCH  26  27
ATOM     27  C   UNL A   1      38.143  30.350  29.905  1.00  0.00     0.031 A 
ATOM     28  C   UNL A   1      38.399  30.794  31.321  1.00  0.00     0.074 A 
ATOM     29  C   UNL A   1      39.033  29.572  29.260  1.00  0.00     0.049 A 
ATOM     30  N   UNL A   1      39.432  30.562  32.090  1.00  0.00    -0.248 NA
ATOM     31  C   UNL A   1      37.378  31.656  31.942  1.00  0.00     0.031 C 
ATOM     32  C   UNL A   1      38.926  29.128  27.868  1.00  0.00     0.029 A 
ATOM     33  N   UNL A   1      40.212  29.018  29.692  1.00  0.00    -0.354 N 
ATOM     34  C   UNL A   1      39.190  31.267  33.261  1.00  0.00     0.074 A 
ATOM     35  C   UNL A   1      37.964  32.005  33.075  1.00  0.00     0.031 C 
ATOM     36  C   UNL A   1      39.973  28.340  27.575  1.00  0.00     0.029 A 
ATOM     37  C   UNL A   1      40.848  28.261  28.739  1.00  0.00     0.049 A 
ATOM     38  H   UNL A   1      40.569  29.152  30.600  1.00  0.00     0.167 HD
ATOM     39  C   UNL A   1      39.905  31.265  34.411  1.00  0.00     0.037 A 
ATOM     40  C   UNL A   1      42.012  27.585  28.802  1.00  0.00     0.037 A 
ATOM     41  C   UNL A   1      41.102  30.495  34.602  1.00  0.00     0.049 A 
ATOM     42  C   UNL A   1      42.792  27.602  30.091  1.00  0.00     0.074 A 
ATOM     43  C   UNL A   1      41.870  30.367  35.744  1.00  0.00     0.029 A 
ATOM     44  N   UNL A   1      41.704  29.722  33.621  1.00  0.00    -0.354 N 
ATOM     45  N   UNL A   1      42.514  28.207  31.221  1.00  0.00    -0.248 NA
ATOM     46  C   UNL A   1      44.045  26.836  30.115  1.00  0.00     0.031 C 
ATOM     47  C   UNL A   1      42.971  29.561  35.437  1.00  0.00     0.029 A 
ATOM     48  C   UNL A   1      42.853  29.135  34.123  1.00  0.00     0.049 A 
ATOM     49  H   UNL A   1      41.366  29.608  32.703  1.00  0.00     0.167 HD
ATOM     50  C   UNL A   1      43.537  27.872  32.096  1.00  0.00     0.074 A 
ATOM     51  C   UNL A   1      44.432  26.993  31.372  1.00  0.00     0.031 C 
ATOM     52  C   UNL A   1      43.723  28.254  33.385  1.00  0.00     0.037 A 
BRANCH  39  53
ATOM     53  C   UNL A   1      39.401  32.114  35.543  1.00  0.00     0.064 A 
ATOM     54  C   UNL A   1      39.791  33.455  35.694  1.00  0.00     0.173 A 
ATOM     55  C   UNL A   1      38.501  31.586  36.481  1.00  0.00     0.173 A 
ATOM     56  F   UNL A   1      40.664  34.005  34.836  1.00  0.00    -0.203 F 
ATOM     57  C   UNL A   1      39.329  34.222  36.760  1.00  0.00     0.198 A 
ATOM     58  C   UNL A   1      38.010  32.368  37.523  1.00  0.00     0.198 A 
ATOM     59  F   UNL A   1      38.094  30.311  36.385  1.00  0.00    -0.203 F 
ATOM     60  F   UNL A   1      39.768  35.477  36.918  1.00  0.00    -0.200 F 
ATOM     61  C   UNL A   1      38.432  33.680  37.668  1.00  0.00     0.200 A 
ATOM     62  F   UNL A   1      37.134  31.847  38.392  1.00  0.00    -0.200 F 
ATOM     63  F   UNL A   1      37.982  34.422  38.689  1.00  0.00    -0.200 F 
ENDBRANCH  39  53
BRANCH  40  64
ATOM     64  C   UNL A   1      42.495  26.814  27.625  1.00  0.00     0.064 A 
ATOM     65  C   UNL A   1      41.913  25.586  27.278  1.00  0.00     0.173 A 
ATOM     66  C   UNL A   1      43.553  27.279  26.830  1.00  0.00     0.173 A 
ATOM     67  F   UNL A   1      40.910  25.089  28.016  1.00  0.00    -0.203 F 
ATOM     68  C   UNL A   1      42.389  24.841  26.201  1.00  0.00     0.198 A 
ATOM     69  C   UNL A   1      44.007  26.548  25.734  1.00  0.00     0.198 A 
ATOM     70  F   UNL A   1      44.141  28.451  27.112  1.00  0.00    -0.203 F 
ATOM     71  F   UNL A   1      41.849  23.645  25.928  1.00  0.00    -0.200 F 
ATOM     72  C   UNL A   1      43.432  25.324  25.427  1.00  0.00     0.200 A 
ATOM     73  F   UNL A   1      45.003  27.029  24.977  1.00  0.00    -0.200 F 
ATOM     74  F   UNL A   1      43.888  24.608  24.390  1.00  0.00    -0.200 F 
ENDBRANCH  40  64
BRANCH  52  75
ATOM     75  C   UNL A   1      44.913  27.694  34.106  1.00  0.00     0.064 A 
ATOM     76  C   UNL A   1      46.120  28.400  34.200  1.00  0.00     0.173 A 
ATOM     77  C   UNL A   1      44.827  26.450  34.752  1.00  0.00     0.173 A 
ATOM     78  F   UNL A   1      46.259  29.586  33.590  1.00  0.00    -0.203 F 
ATOM     79  C   UNL A   1      47.208  27.869  34.889  1.00  0.00     0.198 A 
ATOM     80  C   UNL A   1      45.902  25.939  35.471  1.00  0.00     0.198 A 
ATOM     81  F   UNL A   1      43.690  25.739  34.702  1.00  0.00    -0.203 F 
ATOM     82  F   UNL A   1      48.369  28.536  34.920  1.00  0.00    -0.200 F 
ATOM     83  C   UNL A   1      47.095  26.644  35.531  1.00  0.00     0.200 A 
ATOM     84  F   UNL A   1      45.784  24.766  36.108  1.00  0.00    -0.200 F 
ATOM     85  F   UNL A   1      48.138  26.139  36.203  1.00  0.00    -0.200 F 
ENDBRANCH  52  75
ENDBRANCH  26  27
ENDBRANCH  18  21
ENDBRANCH  16  17
ENDBRANCH  15  16
ENDBRANCH  14  15
ENDBRANCH  12  14
ENDBRANCH   5  10
ENDBRANCH   1   5
BRANCH   2  86
ATOM     86  C   UNL A   1      32.518  23.620  24.413  1.00  0.00     0.174 C 
BRANCH  86  87
ATOM     87  N   UNL A   1      33.127  22.266  24.426  1.00  0.00    -0.342 N 
ATOM     88  C   UNL A   1      33.988  21.451  25.070  1.00  0.00     0.242 C 
ATOM     89  H   UNL A   1      32.756  21.765  23.663  1.00  0.00     0.164 HD
ATOM     90  O   UNL A   1      34.022  20.314  24.557  1.00  0.00    -0.273 OA
BRANCH  88  91
ATOM     91  C   UNL A   1      34.812  21.634  26.387  1.00  0.00     0.168 C 
ATOM     92  C   UNL A   1      33.859  21.824  27.569  1.00  0.00     0.041 C 
BRANCH  91  93
ATOM     93  N   UNL A   1      35.940  22.550  26.506  1.00  0.00    -0.343 N 
ATOM     94  C   UNL A   1      37.096  22.705  25.803  1.00  0.00     0.240 C 
ATOM     95  H   UNL A   1      35.846  23.189  27.249  1.00  0.00     0.164 HD
ATOM     96  O   UNL A   1      37.779  23.691  26.103  1.00  0.00    -0.273 OA
BRANCH  94  97
ATOM     97  C   UNL A   1      37.529  21.809  24.632  1.00  0.00     0.219 C 
BRANCH  97  98
ATOM     98  N   UNL A   1      37.843  20.448  25.014  1.00  0.00    -0.312 N 
ATOM     99  C   UNL A   1      39.023  19.975  25.495  1.00  0.00     0.407 C 
ATOM    100  H   UNL A   1      37.119  19.791  24.914  1.00  0.00     0.167 HD
ATOM    101  O   UNL A   1      39.204  18.769  25.623  1.00  0.00    -0.225 OA
BRANCH  99 102
ATOM    102  O   UNL A   1      39.936  20.943  25.731  1.00  0.00    -0.445 OA
BRANCH 102 103
ATOM    103  C   UNL A   1      40.945  20.618  26.703  1.00  0.00     0.270 C 
BRANCH 103 104
ATOM    104  C   UNL A   1      42.281  20.312  26.076  1.00  0.00    -0.011 A 
ATOM    105  C   UNL A   1      43.212  21.328  25.823  1.00  0.00     0.007 A 
ATOM    106  C   UNL A   1      42.607  18.990  25.745  1.00  0.00     0.007 A 
ATOM    107  C   UNL A   1      44.469  21.019  25.302  1.00  0.00     0.000 A 
ATOM    108  C   UNL A   1      43.863  18.683  25.222  1.00  0.00     0.000 A 
ATOM    109  C   UNL A   1      44.796  19.696  25.011  1.00  0.00     0.000 A 
ENDBRANCH 103 104
ENDBRANCH 102 103
ENDBRANCH  99 102
ENDBRANCH  97  98
ENDBRANCH  94  97
ENDBRANCH  91  93
ENDBRANCH  88  91
ENDBRANCH  86  87
BRANCH  86 110
ATOM    110  C   UNL A   1      33.417  24.780  23.984  1.00  0.00     0.015 C 
ATOM    111  C   UNL A   1      34.309  25.336  25.099  1.00  0.00     0.010 C 
ATOM    112  C   UNL A   1      34.323  24.324  22.835  1.00  0.00     0.010 C 
ENDBRANCH  86 110
ENDBRANCH   2  86
TORSDOF 23
ENDMDL
MODEL 3
REMARK VINA RESULT:     -11.5      1.419      7.356
REMARK SMILES CC(C)C[C@H](NC(=O)[C@@H](NC(=O)[C@H](C)NC(=O)CNC(=O)OCc1ccccc1)C(C)C)C(=O)NCCCNC(=O)c1ccc(-c2c3nc(c(-c4c(F)c(F)c(F)c(F)c4F)c4ccc([nH]4)c(-c4c(F)c(F)c(F)c(F)c4F)c4nc(c(-c5c(F)c(F)c(F)c(F)c5F)c5ccc2[nH]5)C=C4)C=C3)cc1
REMARK SMILES IDX 6 1 7 2 8 3 5 5 4 6 2 7 1 8 3 9 33 10 34 11 35 12 36 14
REMARK SMILES IDX 37 15 38 16 39 17 40 18 41 20 42 21 43 22 104 23 44 24
REMARK SMILES IDX 103 25 45 26 46 27 47 28 97 29 48 30 102 31 96 32 98 33
REMARK SMILES IDX 49 34 101 35 95 36 94 37 50 39 82 40 62 41 81 42 63 43 66 44
REMARK SMILES IDX 80 45 99 46 64 47 65 48 79 50 100 51 67 52 51 53 52 54 60 55
REMARK SMILES IDX 53 56 54 57 58 58 61 59 55 60 56 61 59 62 57 63 83 64 84 65
REMARK SMILES IDX 92 66 85 67 86 68 90 69 93 70 87 71 88 72 91 73 89 74 68 75
REMARK SMILES IDX 69 76 77 77 70 78 71 79 75 80 78 81 72 82 73 83 76 84 74 85
REMARK SMILES IDX 9 86 10 87 11 88 12 90 13 91 14 92 15 93 16 94 17 96 18 97
REMARK SMILES IDX 19 98 20 99 21 101 22 102 23 103 24 104 25 105 29 106 26 107
REMARK SMILES IDX 28 108 27 109 30 110 31 111 32 112
REMARK H PARENT 6 4 35 13 39 19 98 38 66 49 10 89 15 95 19 100
REMARK Flexibility Score: inf
ROOT
ATOM      1  N   UNL A   1      30.218  24.759  23.784  1.00  0.00    -0.343 N 
ATOM      2  C   UNL A   1      31.039  23.707  23.535  1.00  0.00     0.243 C 
ATOM      3  O   UNL A   1      30.576  22.797  22.839  1.00  0.00    -0.273 OA
ATOM      4  H   UNL A   1      29.298  24.664  23.447  1.00  0.00     0.164 HD
ENDROOT
BRANCH   1   5
ATOM      5  C   UNL A   1      30.504  26.005  24.475  1.00  0.00     0.171 C 
BRANCH   5   6
ATOM      6  C   UNL A   1      29.623  27.148  23.937  1.00  0.00     0.038 C 
BRANCH   6   7
ATOM      7  C   UNL A   1      30.286  28.117  22.942  1.00  0.00    -0.015 C 
ATOM      8  C   UNL A   1      29.940  29.567  23.209  1.00  0.00     0.007 C 
ATOM      9  C   UNL A   1      31.800  27.917  22.977  1.00  0.00     0.007 C 
ENDBRANCH   6   7
ENDBRANCH   5   6
BRANCH   5  10
ATOM     10  C   UNL A   1      30.409  25.795  25.994  1.00  0.00     0.242 C 
ATOM     11  O   UNL A   1      29.483  25.159  26.502  1.00  0.00    -0.273 OA
ATOM     12  N   UNL A   1      31.317  26.354  26.834  1.00  0.00    -0.354 N 
ATOM     13  H   UNL A   1      31.239  26.089  27.778  1.00  0.00     0.163 HD
BRANCH  12  14
ATOM     14  C   UNL A   1      32.384  27.286  26.536  1.00  0.00     0.117 C 
BRANCH  14  15
ATOM     15  C   UNL A   1      31.929  28.717  26.661  1.00  0.00     0.042 C 
BRANCH  15  16
ATOM     16  C   UNL A   1      32.948  29.691  26.106  1.00  0.00     0.118 C 
BRANCH  16  17
ATOM     17  N   UNL A   1      32.715  31.068  26.532  1.00  0.00    -0.352 N 
ATOM     18  C   UNL A   1      33.449  31.840  27.403  1.00  0.00     0.251 C 
ATOM     19  H   UNL A   1      31.923  31.504  26.143  1.00  0.00     0.163 HD
ATOM     20  O   UNL A   1      33.022  32.912  27.813  1.00  0.00    -0.269 OA
BRANCH  18  21
ATOM     21  C   UNL A   1      34.751  31.323  27.860  1.00  0.00     0.039 A 
ATOM     22  C   UNL A   1      35.850  32.177  27.934  1.00  0.00     0.014 A 
ATOM     23  C   UNL A   1      34.833  30.012  28.330  1.00  0.00     0.014 A 
ATOM     24  C   UNL A   1      37.008  31.736  28.574  1.00  0.00     0.010 A 
ATOM     25  C   UNL A   1      35.913  29.642  29.109  1.00  0.00     0.010 A 
ATOM     26  C   UNL A   1      37.028  30.485  29.214  1.00  0.00    -0.014 A 
BRANCH  26  27
ATOM     27  C   UNL A   1      38.218  29.997  29.952  1.00  0.00     0.031 A 
ATOM     28  C   UNL A   1      38.451  30.475  31.361  1.00  0.00     0.074 A 
ATOM     29  C   UNL A   1      39.116  29.200  29.342  1.00  0.00     0.049 A 
ATOM     30  N   UNL A   1      39.470  30.258  32.153  1.00  0.00    -0.248 NA
ATOM     31  C   UNL A   1      37.424  31.356  31.943  1.00  0.00     0.031 C 
ATOM     32  C   UNL A   1      39.031  28.724  27.959  1.00  0.00     0.029 A 
ATOM     33  N   UNL A   1      40.284  28.653  29.808  1.00  0.00    -0.354 N 
ATOM     34  C   UNL A   1      39.210  30.992  33.303  1.00  0.00     0.074 A 
ATOM     35  C   UNL A   1      37.991  31.730  33.077  1.00  0.00     0.031 C 
ATOM     36  C   UNL A   1      40.079  27.925  27.704  1.00  0.00     0.029 A 
ATOM     37  C   UNL A   1      40.934  27.870  28.884  1.00  0.00     0.049 A 
ATOM     38  H   UNL A   1      40.626  28.807  30.718  1.00  0.00     0.167 HD
ATOM     39  C   UNL A   1      39.905  31.015  34.464  1.00  0.00     0.037 A 
ATOM     40  C   UNL A   1      42.093  27.191  28.985  1.00  0.00     0.037 A 
ATOM     41  C   UNL A   1      41.095  30.245  34.695  1.00  0.00     0.049 A 
ATOM     42  C   UNL A   1      42.851  27.237  30.286  1.00  0.00     0.074 A 
ATOM     43  C   UNL A   1      41.843  30.142  35.854  1.00  0.00     0.029 A 
ATOM     44  N   UNL A   1      41.711  29.446  33.744  1.00  0.00    -0.354 N 
ATOM     45  N   UNL A   1      42.556  27.870  31.395  1.00  0.00    -0.248 NA
ATOM     46  C   UNL A   1      44.100  26.466  30.350  1.00  0.00     0.031 C 
ATOM     47  C   UNL A   1      42.945  29.325  35.585  1.00  0.00     0.029 A 
ATOM     48  C   UNL A   1      42.848  28.866  34.280  1.00  0.00     0.049 A 
ATOM     49  H   UNL A   1      41.389  29.311  32.823  1.00  0.00     0.167 HD
ATOM     50  C   UNL A   1      43.562  27.552  32.297  1.00  0.00     0.074 A 
ATOM     51  C   UNL A   1      44.466  26.653  31.609  1.00  0.00     0.031 C 
ATOM     52  C   UNL A   1      43.727  27.965  33.578  1.00  0.00     0.037 A 
BRANCH  39  53
ATOM     53  C   UNL A   1      39.385  31.893  35.566  1.00  0.00     0.064 A 
ATOM     54  C   UNL A   1      38.497  31.411  36.541  1.00  0.00     0.173 A 
ATOM     55  C   UNL A   1      39.793  33.233  35.660  1.00  0.00     0.173 A 
ATOM     56  F   UNL A   1      38.060  30.143  36.489  1.00  0.00    -0.203 F 
ATOM     57  C   UNL A   1      38.009  32.244  37.545  1.00  0.00     0.198 A 
ATOM     58  C   UNL A   1      39.333  34.052  36.688  1.00  0.00     0.198 A 
ATOM     59  F   UNL A   1      40.640  33.747  34.756  1.00  0.00    -0.203 F 
ATOM     60  F   UNL A   1      37.113  31.776  38.423  1.00  0.00    -0.200 F 
ATOM     61  C   UNL A   1      38.435  33.560  37.622  1.00  0.00     0.200 A 
ATOM     62  F   UNL A   1      39.756  35.321  36.769  1.00  0.00    -0.200 F 
ATOM     63  F   UNL A   1      37.971  34.359  38.593  1.00  0.00    -0.200 F 
ENDBRANCH  39  53
BRANCH  40  64
ATOM     64  C   UNL A   1      42.593  26.390  27.835  1.00  0.00     0.064 A 
ATOM     65  C   UNL A   1      43.422  26.966  26.861  1.00  0.00     0.173 A 
ATOM     66  C   UNL A   1      42.246  25.040  27.676  1.00  0.00     0.173 A 
ATOM     67  F   UNL A   1      43.770  28.258  26.957  1.00  0.00    -0.203 F 
ATOM     68  C   UNL A   1      43.860  26.232  25.760  1.00  0.00     0.198 A 
ATOM     69  C   UNL A   1      42.710  24.298  26.592  1.00  0.00     0.198 A 
ATOM     70  F   UNL A   1      41.462  24.437  28.582  1.00  0.00    -0.203 F 
ATOM     71  F   UNL A   1      44.606  26.824  24.817  1.00  0.00    -0.200 F 
ATOM     72  C   UNL A   1      43.508  24.897  25.630  1.00  0.00     0.200 A 
ATOM     73  F   UNL A   1      42.383  23.004  26.480  1.00  0.00    -0.200 F 
ATOM     74  F   UNL A   1      43.931  24.191  24.572  1.00  0.00    -0.200 F 
ENDBRANCH  40  64
BRANCH  52  75
ATOM     75  C   UNL A   1      44.902  27.417  34.334  1.00  0.00     0.064 A 
ATOM     76  C   UNL A   1      44.828  26.208  35.040  1.00  0.00     0.173 A 
ATOM     77  C   UNL A   1      46.134  28.090  34.311  1.00  0.00     0.173 A 
ATOM     78  F   UNL A   1      43.672  25.532  35.103  1.00  0.00    -0.203 F 
ATOM     79  C   UNL A   1      45.936  25.708  35.720  1.00  0.00     0.198 A 
ATOM     80  C   UNL A   1      47.248  27.570  34.960  1.00  0.00     0.198 A 
ATOM     81  F   UNL A   1      46.260  29.246  33.641  1.00  0.00    -0.203 F 
ATOM     82  F   UNL A   1      45.828  24.579  36.433  1.00  0.00    -0.200 F 
ATOM     83  C   UNL A   1      47.146  26.385  35.672  1.00  0.00     0.200 A 
ATOM     84  F   UNL A   1      48.421  28.214  34.895  1.00  0.00    -0.200 F 
ATOM     85  F   UNL A   1      48.214  25.897  36.318  1.00  0.00    -0.200 F 
ENDBRANCH  52  75
ENDBRANCH  26  27
ENDBRANCH  18  21
ENDBRANCH  16  17
ENDBRANCH  15  16
ENDBRANCH  14  15
ENDBRANCH  12  14
ENDBRANCH   5  10
ENDBRANCH   1   5
BRANCH   2  86
ATOM     86  C   UNL A   1      32.432  23.540  24.218  1.00  0.00     0.174 C 
BRANCH  86  87
ATOM     87  N   UNL A   1      32.686  22.188  24.777  1.00  0.00    -0.342 N 
ATOM     88  C   UNL A   1      33.331  21.497  25.740  1.00  0.00     0.242 C 
ATOM     89  H   UNL A   1      32.187  21.540  24.229  1.00  0.00     0.164 HD
ATOM     90  O   UNL A   1      33.071  20.278  25.689  1.00  0.00    -0.273 OA
BRANCH  88  91
ATOM     91  C   UNL A   1      34.203  21.963  26.953  1.00  0.00     0.168 C 
ATOM     92  C   UNL A   1      33.293  22.408  28.101  1.00  0.00     0.041 C 
BRANCH  91  93
ATOM     93  N   UNL A   1      35.329  22.880  26.827  1.00  0.00    -0.343 N 
ATOM     94  C   UNL A   1      36.346  22.993  25.928  1.00  0.00     0.240 C 
ATOM     95  H   UNL A   1      35.360  23.559  27.539  1.00  0.00     0.164 HD
ATOM     96  O   UNL A   1      37.064  23.991  26.052  1.00  0.00    -0.273 OA
BRANCH  94  97
ATOM     97  C   UNL A   1      36.577  22.033  24.751  1.00  0.00     0.219 C 
BRANCH  97  98
ATOM     98  N   UNL A   1      37.772  21.226  24.873  1.00  0.00    -0.312 N 
ATOM     99  C   UNL A   1      37.854  19.870  24.928  1.00  0.00     0.407 C 
ATOM    100  H   UNL A   1      38.624  21.716  24.923  1.00  0.00     0.167 HD
ATOM    101  O   UNL A   1      38.916  19.321  25.198  1.00  0.00    -0.225 OA
BRANCH  99 102
ATOM    102  O   UNL A   1      36.670  19.250  24.726  1.00  0.00    -0.445 OA
BRANCH 102 103
ATOM    103  C   UNL A   1      36.629  17.861  25.094  1.00  0.00     0.270 C 
BRANCH 103 104
ATOM    104  C   UNL A   1      35.280  17.233  24.848  1.00  0.00    -0.011 A 
ATOM    105  C   UNL A   1      34.425  17.723  23.852  1.00  0.00     0.007 A 
ATOM    106  C   UNL A   1      34.873  16.135  25.618  1.00  0.00     0.007 A 
ATOM    107  C   UNL A   1      33.209  17.089  23.594  1.00  0.00     0.000 A 
ATOM    108  C   UNL A   1      33.656  15.505  25.362  1.00  0.00     0.000 A 
ATOM    109  C   UNL A   1      32.830  15.976  24.343  1.00  0.00     0.000 A 
ENDBRANCH 103 104
ENDBRANCH 102 103
ENDBRANCH  99 102
ENDBRANCH  97  98
ENDBRANCH  94  97
ENDBRANCH  91  93
ENDBRANCH  88  91
ENDBRANCH  86  87
BRANCH  86 110
ATOM    110  C   UNL A   1      33.563  24.180  23.412  1.00  0.00     0.015 C 
ATOM    111  C   UNL A   1      33.143  24.695  22.031  1.00  0.00     0.010 C 
ATOM    112  C   UNL A   1      34.145  25.359  24.200  1.00  0.00     0.010 C 
ENDBRANCH  86 110
ENDBRANCH   2  86
TORSDOF 23
ENDMDL
