MODEL 1
REMARK VINA RESULT:     -13.6      0.000      0.000
REMARK SMILES CCC(=O)Nc1ccc(NC(=O)[C@@H]2CC=CC[C@@H]2C(=O)NCCCNC(=O)c2ccc(-c3c4nc(c(-c5c(F)c(F)c(F)c(F)c5F)c5ccc([nH]5)c(-c5c(F)c(F)c(F)c(F)c5F)c5nc(c(-c6c(F)c(F)c(F)c(F)c6F)c6ccc3[nH]6)C=C5)C=C4)cc2)cc1
REMARK SMILES IDX 22 1 21 2 19 3 20 4 18 6 13 7 14 8 15 9 17 10 16 11 11 12
REMARK SMILES IDX 10 13 12 15 9 16 6 17 7 18 92 19 8 20 91 21 5 22 3 23 4 24
REMARK SMILES IDX 2 26 1 27 23 28 24 29 25 30 26 31 27 33 28 34 29 35 90 36
REMARK SMILES IDX 30 37 89 38 31 39 32 40 33 41 83 42 34 43 88 44 82 45 84 46
REMARK SMILES IDX 35 47 87 48 81 49 80 50 36 52 68 53 48 54 67 55 49 56 52 57
REMARK SMILES IDX 66 58 85 59 50 60 51 61 65 63 86 64 53 65 37 66 38 67 46 68
REMARK SMILES IDX 39 69 40 70 44 71 47 72 41 73 42 74 45 75 43 76 69 77 70 78
REMARK SMILES IDX 78 79 71 80 72 81 76 82 79 83 73 84 74 85 77 86 75 87 54 88
REMARK SMILES IDX 55 89 63 90 56 91 57 92 61 93 64 94 58 95 59 96 62 97 60 98
REMARK H PARENT 21 5 10 14 5 25 25 32 84 51 52 62
REMARK Flexibility Score: inf
ROOT
ATOM      1  C   UNL A   1      33.500  29.390  26.504  1.00  0.00     0.117 C 
ENDROOT
BRANCH   1   2
ATOM      2  N   UNL A   1      33.738  29.307  25.083  1.00  0.00    -0.356 N 
ATOM      3  C   UNL A   1      33.374  28.433  24.121  1.00  0.00     0.224 C 
ATOM      4  O   UNL A   1      33.637  28.818  22.972  1.00  0.00    -0.275 OA
ATOM      5  H   UNL A   1      34.287  30.049  24.740  1.00  0.00     0.163 HD
BRANCH   3   6
ATOM      6  C   UNL A   1      32.609  27.116  24.310  1.00  0.00     0.095 C 
ATOM      7  C   UNL A   1      32.217  26.198  23.155  1.00  0.00     0.095 C 
ATOM      8  C   UNL A   1      31.194  26.934  22.224  1.00  0.00     0.041 C 
ATOM      9  C   UNL A   1      30.182  27.776  22.953  1.00  0.00    -0.030 C 
ATOM     10  C   UNL A   1      31.318  27.424  25.128  1.00  0.00     0.041 C 
ATOM     11  C   UNL A   1      30.220  27.978  24.275  1.00  0.00    -0.030 C 
BRANCH   7  12
ATOM     12  C   UNL A   1      33.207  25.333  22.342  1.00  0.00     0.228 C 
ATOM     13  N   UNL A   1      33.611  24.045  22.529  1.00  0.00    -0.326 N 
ATOM     14  H   UNL A   1      34.083  23.679  21.747  1.00  0.00     0.169 HD
ATOM     15  O   UNL A   1      33.742  25.864  21.350  1.00  0.00    -0.274 OA
BRANCH  13  16
ATOM     16  C   UNL A   1      33.510  23.121  23.578  1.00  0.00     0.041 A 
ATOM     17  C   UNL A   1      33.109  20.807  25.115  1.00  0.00     0.041 A 
ATOM     18  C   UNL A   1      34.382  21.371  24.986  1.00  0.00     0.028 A 
ATOM     19  C   UNL A   1      32.021  21.552  24.683  1.00  0.00     0.028 A 
ATOM     20  C   UNL A   1      34.575  22.541  24.237  1.00  0.00     0.028 A 
ATOM     21  C   UNL A   1      32.219  22.726  23.944  1.00  0.00     0.028 A 
BRANCH  17  22
ATOM     22  N   UNL A   1      33.015  19.542  25.714  1.00  0.00    -0.326 N 
ATOM     23  C   UNL A   1      32.810  18.289  25.214  1.00  0.00     0.224 C 
ATOM     24  O   UNL A   1      32.652  17.364  26.019  1.00  0.00    -0.275 OA
ATOM     25  H   UNL A   1      33.119  19.563  26.693  1.00  0.00     0.169 HD
BRANCH  23  26
ATOM     26  C   UNL A   1      32.874  17.985  23.732  1.00  0.00     0.097 C 
ATOM     27  C   UNL A   1      33.872  16.892  23.397  1.00  0.00     0.014 C 
ENDBRANCH  23  26
ENDBRANCH  17  22
ENDBRANCH  13  16
ENDBRANCH   7  12
ENDBRANCH   3   6
ENDBRANCH   1   2
BRANCH   1  28
ATOM     28  C   UNL A   1      32.689  30.602  26.915  1.00  0.00     0.042 C 
BRANCH  28  29
ATOM     29  C   UNL A   1      33.522  31.681  27.585  1.00  0.00     0.118 C 
BRANCH  29  30
ATOM     30  N   UNL A   1      32.872  32.991  27.628  1.00  0.00    -0.352 N 
ATOM     31  C   UNL A   1      33.151  34.127  28.362  1.00  0.00     0.251 C 
ATOM     32  H   UNL A   1      32.099  33.077  27.025  1.00  0.00     0.163 HD
ATOM     33  O   UNL A   1      32.417  35.093  28.295  1.00  0.00    -0.269 OA
BRANCH  31  34
ATOM     34  C   UNL A   1      34.310  34.119  29.281  1.00  0.00     0.039 A 
ATOM     35  C   UNL A   1      34.136  33.657  30.586  1.00  0.00     0.014 A 
ATOM     36  C   UNL A   1      35.580  34.429  28.806  1.00  0.00     0.014 A 
ATOM     37  C   UNL A   1      35.258  33.331  31.351  1.00  0.00     0.010 A 
ATOM     38  C   UNL A   1      36.683  33.964  29.503  1.00  0.00     0.010 A 
ATOM     39  C   UNL A   1      36.536  33.383  30.771  1.00  0.00    -0.014 A 
BRANCH  39  40
ATOM     40  C   UNL A   1      37.733  32.791  31.425  1.00  0.00     0.031 A 
ATOM     41  C   UNL A   1      38.459  31.656  30.758  1.00  0.00     0.074 A 
ATOM     42  C   UNL A   1      38.061  33.156  32.682  1.00  0.00     0.049 A 
ATOM     43  N   UNL A   1      39.361  30.846  31.247  1.00  0.00    -0.248 NA
ATOM     44  C   UNL A   1      38.065  31.351  29.373  1.00  0.00     0.031 C 
ATOM     45  C   UNL A   1      37.381  34.179  33.479  1.00  0.00     0.029 A 
ATOM     46  N   UNL A   1      39.040  32.684  33.523  1.00  0.00    -0.354 N 
ATOM     47  C   UNL A   1      39.587  29.899  30.257  1.00  0.00     0.074 A 
ATOM     48  C   UNL A   1      38.692  30.205  29.163  1.00  0.00     0.031 C 
ATOM     49  C   UNL A   1      37.981  34.280  34.676  1.00  0.00     0.029 A 
ATOM     50  C   UNL A   1      39.053  33.296  34.753  1.00  0.00     0.049 A 
ATOM     51  H   UNL A   1      39.673  31.975  33.267  1.00  0.00     0.167 HD
ATOM     52  C   UNL A   1      40.479  28.880  30.252  1.00  0.00     0.037 A 
ATOM     53  C   UNL A   1      39.835  33.081  35.829  1.00  0.00     0.037 A 
ATOM     54  C   UNL A   1      41.425  28.638  31.307  1.00  0.00     0.049 A 
ATOM     55  C   UNL A   1      40.888  32.010  35.762  1.00  0.00     0.074 A 
ATOM     56  C   UNL A   1      42.446  27.707  31.353  1.00  0.00     0.029 A 
ATOM     57  N   UNL A   1      41.472  29.350  32.497  1.00  0.00    -0.354 N 
ATOM     58  N   UNL A   1      41.141  31.164  34.795  1.00  0.00    -0.248 NA
ATOM     59  C   UNL A   1      41.765  31.866  36.932  1.00  0.00     0.031 C 
ATOM     60  C   UNL A   1      43.098  27.838  32.584  1.00  0.00     0.029 A 
ATOM     61  C   UNL A   1      42.505  28.876  33.288  1.00  0.00     0.049 A 
ATOM     62  H   UNL A   1      40.863  30.082  32.743  1.00  0.00     0.167 HD
ATOM     63  C   UNL A   1      42.221  30.405  35.224  1.00  0.00     0.074 A 
ATOM     64  C   UNL A   1      42.579  30.895  36.539  1.00  0.00     0.031 C 
ATOM     65  C   UNL A   1      42.857  29.393  34.585  1.00  0.00     0.037 A 
BRANCH  52  66
ATOM     66  C   UNL A   1      40.476  27.968  29.060  1.00  0.00     0.064 A 
ATOM     67  C   UNL A   1      41.245  28.240  27.918  1.00  0.00     0.173 A 
ATOM     68  C   UNL A   1      39.687  26.808  29.057  1.00  0.00     0.173 A 
ATOM     69  F   UNL A   1      42.007  29.343  27.865  1.00  0.00    -0.203 F 
ATOM     70  C   UNL A   1      41.185  27.413  26.799  1.00  0.00     0.198 A 
ATOM     71  C   UNL A   1      39.657  25.964  27.950  1.00  0.00     0.198 A 
ATOM     72  F   UNL A   1      38.938  26.495  30.125  1.00  0.00    -0.203 F 
ATOM     73  F   UNL A   1      41.871  27.735  25.694  1.00  0.00    -0.200 F 
ATOM     74  C   UNL A   1      40.395  26.274  26.818  1.00  0.00     0.200 A 
ATOM     75  F   UNL A   1      38.901  24.857  27.973  1.00  0.00    -0.200 F 
ATOM     76  F   UNL A   1      40.335  25.482  25.738  1.00  0.00    -0.200 F 
ENDBRANCH  52  66
BRANCH  53  77
ATOM     77  C   UNL A   1      39.675  33.929  37.037  1.00  0.00     0.064 A 
ATOM     78  C   UNL A   1      40.260  35.202  37.097  1.00  0.00     0.173 A 
ATOM     79  C   UNL A   1      38.914  33.507  38.136  1.00  0.00     0.173 A 
ATOM     80  F   UNL A   1      41.011  35.640  36.077  1.00  0.00    -0.203 F 
ATOM     81  C   UNL A   1      40.099  36.016  38.216  1.00  0.00     0.198 A 
ATOM     82  C   UNL A   1      38.734  34.333  39.245  1.00  0.00     0.198 A 
ATOM     83  F   UNL A   1      38.324  32.303  38.123  1.00  0.00    -0.203 F 
ATOM     84  F   UNL A   1      40.693  37.217  38.259  1.00  0.00    -0.200 F 
ATOM     85  C   UNL A   1      39.330  35.584  39.286  1.00  0.00     0.200 A 
ATOM     86  F   UNL A   1      37.979  33.918  40.271  1.00  0.00    -0.200 F 
ATOM     87  F   UNL A   1      39.166  36.372  40.357  1.00  0.00    -0.200 F 
ENDBRANCH  53  77
BRANCH  65  88
ATOM     88  C   UNL A   1      44.034  28.774  35.274  1.00  0.00     0.064 A 
ATOM     89  C   UNL A   1      43.889  27.668  36.122  1.00  0.00     0.173 A 
ATOM     90  C   UNL A   1      45.329  29.247  35.016  1.00  0.00     0.173 A 
ATOM     91  F   UNL A   1      42.669  27.193  36.408  1.00  0.00    -0.203 F 
ATOM     92  C   UNL A   1      45.003  27.060  36.694  1.00  0.00     0.198 A 
ATOM     93  C   UNL A   1      46.441  28.622  35.572  1.00  0.00     0.198 A 
ATOM     94  F   UNL A   1      45.517  30.300  34.206  1.00  0.00    -0.203 F 
ATOM     95  F   UNL A   1      44.842  26.018  37.522  1.00  0.00    -0.200 F 
ATOM     96  C   UNL A   1      46.277  27.530  36.411  1.00  0.00     0.200 A 
ATOM     97  F   UNL A   1      47.672  29.071  35.288  1.00  0.00    -0.200 F 
ATOM     98  F   UNL A   1      47.348  26.932  36.951  1.00  0.00    -0.200 F 
ENDBRANCH  65  88
ENDBRANCH  39  40
ENDBRANCH  31  34
ENDBRANCH  29  30
ENDBRANCH  28  29
ENDBRANCH   1  28
TORSDOF 14
ENDMDL
MODEL 2
REMARK VINA RESULT:     -13.6      5.602     11.288
REMARK SMILES CCC(=O)Nc1ccc(NC(=O)[C@@H]2CC=CC[C@@H]2C(=O)NCCCNC(=O)c2ccc(-c3c4nc(c(-c5c(F)c(F)c(F)c(F)c5F)c5ccc([nH]5)c(-c5c(F)c(F)c(F)c(F)c5F)c5nc(c(-c6c(F)c(F)c(F)c(F)c6F)c6ccc3[nH]6)C=C5)C=C4)cc2)cc1
REMARK SMILES IDX 22 1 21 2 19 3 20 4 18 6 13 7 14 8 15 9 17 10 16 11 11 12
REMARK SMILES IDX 10 13 12 15 9 16 6 17 7 18 92 19 8 20 91 21 5 22 3 23 4 24
REMARK SMILES IDX 2 26 1 27 23 28 24 29 25 30 26 31 27 33 28 34 29 35 90 36
REMARK SMILES IDX 30 37 89 38 31 39 32 40 33 41 83 42 34 43 88 44 82 45 84 46
REMARK SMILES IDX 35 47 87 48 81 49 80 50 36 52 68 53 48 54 67 55 49 56 52 57
REMARK SMILES IDX 66 58 85 59 50 60 51 61 65 63 86 64 53 65 37 66 38 67 46 68
REMARK SMILES IDX 39 69 40 70 44 71 47 72 41 73 42 74 45 75 43 76 69 77 70 78
REMARK SMILES IDX 78 79 71 80 72 81 76 82 79 83 73 84 74 85 77 86 75 87 54 88
REMARK SMILES IDX 55 89 63 90 56 91 57 92 61 93 64 94 58 95 59 96 62 97 60 98
REMARK H PARENT 21 5 10 14 5 25 25 32 84 51 52 62
REMARK Flexibility Score: inf
ROOT
ATOM      1  C   UNL A   1      37.022  22.985  25.677  1.00  0.00     0.117 C 
ENDROOT
BRANCH   1   2
ATOM      2  N   UNL A   1      35.886  22.798  26.547  1.00  0.00    -0.356 N 
ATOM      3  C   UNL A   1      34.569  23.077  26.442  1.00  0.00     0.224 C 
ATOM      4  O   UNL A   1      33.882  22.590  27.352  1.00  0.00    -0.275 OA
ATOM      5  H   UNL A   1      36.122  22.376  27.404  1.00  0.00     0.163 HD
BRANCH   3   6
ATOM      6  C   UNL A   1      33.871  23.822  25.296  1.00  0.00     0.095 C 
ATOM      7  C   UNL A   1      32.354  23.958  25.183  1.00  0.00     0.095 C 
ATOM      8  C   UNL A   1      31.714  22.544  24.972  1.00  0.00     0.041 C 
ATOM      9  C   UNL A   1      32.502  21.632  24.070  1.00  0.00    -0.030 C 
ATOM     10  C   UNL A   1      34.393  23.231  23.950  1.00  0.00     0.041 C 
ATOM     11  C   UNL A   1      33.707  21.952  23.583  1.00  0.00    -0.030 C 
BRANCH   7  12
ATOM     12  C   UNL A   1      31.480  24.849  26.095  1.00  0.00     0.228 C 
ATOM     13  N   UNL A   1      30.884  26.049  25.845  1.00  0.00    -0.326 N 
ATOM     14  H   UNL A   1      30.216  26.290  26.527  1.00  0.00     0.169 HD
ATOM     15  O   UNL A   1      31.264  24.438  27.250  1.00  0.00    -0.274 OA
BRANCH  13  16
ATOM     16  C   UNL A   1      31.001  27.020  24.841  1.00  0.00     0.041 A 
ATOM     17  C   UNL A   1      30.482  28.954  22.874  1.00  0.00     0.041 A 
ATOM     18  C   UNL A   1      31.128  29.297  24.065  1.00  0.00     0.028 A 
ATOM     19  C   UNL A   1      30.335  27.605  22.580  1.00  0.00     0.028 A 
ATOM     20  C   UNL A   1      31.408  28.325  25.036  1.00  0.00     0.028 A 
ATOM     21  C   UNL A   1      30.626  26.636  23.550  1.00  0.00     0.028 A 
BRANCH  17  22
ATOM     22  N   UNL A   1      30.064  29.996  22.035  1.00  0.00    -0.326 N 
ATOM     23  C   UNL A   1      28.853  30.587  21.816  1.00  0.00     0.224 C 
ATOM     24  O   UNL A   1      28.772  31.420  20.907  1.00  0.00    -0.275 OA
ATOM     25  H   UNL A   1      30.792  30.381  21.495  1.00  0.00     0.169 HD
BRANCH  23  26
ATOM     26  C   UNL A   1      27.654  30.334  22.705  1.00  0.00     0.097 C 
ATOM     27  C   UNL A   1      27.568  31.305  23.869  1.00  0.00     0.014 C 
ENDBRANCH  23  26
ENDBRANCH  17  22
ENDBRANCH  13  16
ENDBRANCH   7  12
ENDBRANCH   3   6
ENDBRANCH   1   2
BRANCH   1  28
ATOM     28  C   UNL A   1      37.756  21.701  25.351  1.00  0.00     0.042 C 
BRANCH  28  29
ATOM     29  C   UNL A   1      39.048  21.533  26.133  1.00  0.00     0.118 C 
BRANCH  29  30
ATOM     30  N   UNL A   1      39.676  20.223  25.966  1.00  0.00    -0.352 N 
ATOM     31  C   UNL A   1      40.996  19.825  26.045  1.00  0.00     0.251 C 
ATOM     32  H   UNL A   1      39.046  19.496  25.760  1.00  0.00     0.163 HD
ATOM     33  O   UNL A   1      41.306  18.678  25.788  1.00  0.00    -0.269 OA
BRANCH  31  34
ATOM     34  C   UNL A   1      42.029  20.831  26.377  1.00  0.00     0.039 A 
ATOM     35  C   UNL A   1      42.640  21.540  25.341  1.00  0.00     0.014 A 
ATOM     36  C   UNL A   1      42.278  21.166  27.703  1.00  0.00     0.014 A 
ATOM     37  C   UNL A   1      43.356  22.702  25.638  1.00  0.00     0.010 A 
ATOM     38  C   UNL A   1      42.853  22.395  27.983  1.00  0.00     0.010 A 
ATOM     39  C   UNL A   1      43.373  23.193  26.953  1.00  0.00    -0.014 A 
BRANCH  39  40
ATOM     40  C   UNL A   1      43.870  24.554  27.290  1.00  0.00     0.031 A 
ATOM     41  C   UNL A   1      42.911  25.585  27.814  1.00  0.00     0.074 A 
ATOM     42  C   UNL A   1      45.132  24.907  26.969  1.00  0.00     0.049 A 
ATOM     43  N   UNL A   1      43.069  26.877  27.944  1.00  0.00    -0.248 NA
ATOM     44  C   UNL A   1      41.567  25.106  28.178  1.00  0.00     0.031 C 
ATOM     45  C   UNL A   1      46.138  24.028  26.368  1.00  0.00     0.029 A 
ATOM     46  N   UNL A   1      45.778  26.114  27.078  1.00  0.00    -0.354 N 
ATOM     47  C   UNL A   1      41.831  27.367  28.334  1.00  0.00     0.074 A 
ATOM     48  C   UNL A   1      40.920  26.245  28.370  1.00  0.00     0.031 C 
ATOM     49  C   UNL A   1      47.279  24.713  26.193  1.00  0.00     0.029 A 
ATOM     50  C   UNL A   1      47.073  26.092  26.619  1.00  0.00     0.049 A 
ATOM     51  H   UNL A   1      45.352  26.920  27.452  1.00  0.00     0.167 HD
ATOM     52  C   UNL A   1      41.490  28.637  28.658  1.00  0.00     0.037 A 
ATOM     53  C   UNL A   1      47.989  27.076  26.540  1.00  0.00     0.037 A 
ATOM     54  C   UNL A   1      42.422  29.730  28.703  1.00  0.00     0.049 A 
ATOM     55  C   UNL A   1      47.618  28.458  27.000  1.00  0.00     0.074 A 
ATOM     56  C   UNL A   1      42.210  31.029  29.126  1.00  0.00     0.029 A 
ATOM     57  N   UNL A   1      43.755  29.641  28.327  1.00  0.00    -0.354 N 
ATOM     58  N   UNL A   1      46.462  28.898  27.434  1.00  0.00    -0.248 NA
ATOM     59  C   UNL A   1      48.675  29.477  26.965  1.00  0.00     0.031 C 
ATOM     60  C   UNL A   1      43.409  31.736  28.983  1.00  0.00     0.029 A 
ATOM     61  C   UNL A   1      44.377  30.865  28.505  1.00  0.00     0.049 A 
ATOM     62  H   UNL A   1      44.193  28.829  27.985  1.00  0.00     0.167 HD
ATOM     63  C   UNL A   1      46.657  30.236  27.749  1.00  0.00     0.074 A 
ATOM     64  C   UNL A   1      48.045  30.534  27.461  1.00  0.00     0.031 C 
ATOM     65  C   UNL A   1      45.765  31.134  28.232  1.00  0.00     0.037 A 
BRANCH  52  66
ATOM     66  C   UNL A   1      40.052  28.899  28.998  1.00  0.00     0.064 A 
ATOM     67  C   UNL A   1      39.576  28.811  30.315  1.00  0.00     0.173 A 
ATOM     68  C   UNL A   1      39.134  29.236  27.992  1.00  0.00     0.173 A 
ATOM     69  F   UNL A   1      40.410  28.479  31.313  1.00  0.00    -0.203 F 
ATOM     70  C   UNL A   1      38.227  29.001  30.605  1.00  0.00     0.198 A 
ATOM     71  C   UNL A   1      37.793  29.460  28.291  1.00  0.00     0.198 A 
ATOM     72  F   UNL A   1      39.537  29.341  26.716  1.00  0.00    -0.203 F 
ATOM     73  F   UNL A   1      37.786  28.837  31.860  1.00  0.00    -0.200 F 
ATOM     74  C   UNL A   1      37.339  29.329  29.594  1.00  0.00     0.200 A 
ATOM     75  F   UNL A   1      36.936  29.788  27.314  1.00  0.00    -0.200 F 
ATOM     76  F   UNL A   1      36.039  29.506  29.874  1.00  0.00    -0.200 F 
ENDBRANCH  52  66
BRANCH  53  77
ATOM     77  C   UNL A   1      49.355  26.772  26.043  1.00  0.00     0.064 A 
ATOM     78  C   UNL A   1      49.697  27.013  24.705  1.00  0.00     0.173 A 
ATOM     79  C   UNL A   1      50.352  26.270  26.892  1.00  0.00     0.173 A 
ATOM     80  F   UNL A   1      48.773  27.477  23.853  1.00  0.00    -0.203 F 
ATOM     81  C   UNL A   1      50.982  26.752  24.232  1.00  0.00     0.198 A 
ATOM     82  C   UNL A   1      51.643  26.032  26.423  1.00  0.00     0.198 A 
ATOM     83  F   UNL A   1      50.078  26.034  28.184  1.00  0.00    -0.203 F 
ATOM     84  F   UNL A   1      51.274  26.966  22.941  1.00  0.00    -0.200 F 
ATOM     85  C   UNL A   1      51.956  26.270  25.093  1.00  0.00     0.200 A 
ATOM     86  F   UNL A   1      52.585  25.579  27.260  1.00  0.00    -0.200 F 
ATOM     87  F   UNL A   1      53.193  26.030  24.640  1.00  0.00    -0.200 F 
ENDBRANCH  53  77
BRANCH  65  88
ATOM     88  C   UNL A   1      46.267  32.515  28.525  1.00  0.00     0.064 A 
ATOM     89  C   UNL A   1      46.210  33.534  27.566  1.00  0.00     0.173 A 
ATOM     90  C   UNL A   1      46.735  32.836  29.808  1.00  0.00     0.173 A 
ATOM     91  F   UNL A   1      45.785  33.268  26.322  1.00  0.00    -0.203 F 
ATOM     92  C   UNL A   1      46.612  34.830  27.880  1.00  0.00     0.198 A 
ATOM     93  C   UNL A   1      47.113  34.137  30.124  1.00  0.00     0.198 A 
ATOM     94  F   UNL A   1      46.802  31.894  30.760  1.00  0.00    -0.203 F 
ATOM     95  F   UNL A   1      46.573  35.786  26.941  1.00  0.00    -0.200 F 
ATOM     96  C   UNL A   1      47.053  35.132  29.160  1.00  0.00     0.200 A 
ATOM     97  F   UNL A   1      47.528  34.430  31.364  1.00  0.00    -0.200 F 
ATOM     98  F   UNL A   1      47.423  36.384  29.464  1.00  0.00    -0.200 F 
ENDBRANCH  65  88
ENDBRANCH  39  40
ENDBRANCH  31  34
ENDBRANCH  29  30
ENDBRANCH  28  29
ENDBRANCH   1  28
TORSDOF 14
ENDMDL
MODEL 3
REMARK VINA RESULT:     -13.5      4.665      8.784
REMARK SMILES CCC(=O)Nc1ccc(NC(=O)[C@@H]2CC=CC[C@@H]2C(=O)NCCCNC(=O)c2ccc(-c3c4nc(c(-c5c(F)c(F)c(F)c(F)c5F)c5ccc([nH]5)c(-c5c(F)c(F)c(F)c(F)c5F)c5nc(c(-c6c(F)c(F)c(F)c(F)c6F)c6ccc3[nH]6)C=C5)C=C4)cc2)cc1
REMARK SMILES IDX 22 1 21 2 19 3 20 4 18 6 13 7 14 8 15 9 17 10 16 11 11 12
REMARK SMILES IDX 10 13 12 15 9 16 6 17 7 18 92 19 8 20 91 21 5 22 3 23 4 24
REMARK SMILES IDX 2 26 1 27 23 28 24 29 25 30 26 31 27 33 28 34 29 35 90 36
REMARK SMILES IDX 30 37 89 38 31 39 32 40 33 41 83 42 34 43 88 44 82 45 84 46
REMARK SMILES IDX 35 47 87 48 81 49 80 50 36 52 68 53 48 54 67 55 49 56 52 57
REMARK SMILES IDX 66 58 85 59 50 60 51 61 65 63 86 64 53 65 37 66 38 67 46 68
REMARK SMILES IDX 39 69 40 70 44 71 47 72 41 73 42 74 45 75 43 76 69 77 70 78
REMARK SMILES IDX 78 79 71 80 72 81 76 82 79 83 73 84 74 85 77 86 75 87 54 88
REMARK SMILES IDX 55 89 63 90 56 91 57 92 61 93 64 94 58 95 59 96 62 97 60 98
REMARK H PARENT 21 5 10 14 5 25 25 32 84 51 52 62
REMARK Flexibility Score: inf
ROOT
ATOM      1  C   UNL A   1      34.977  22.604  25.773  1.00  0.00     0.117 C 
ENDROOT
BRANCH   1   2
ATOM      2  N   UNL A   1      34.877  23.251  24.487  1.00  0.00    -0.356 N 
ATOM      3  C   UNL A   1      33.845  23.594  23.687  1.00  0.00     0.224 C 
ATOM      4  O   UNL A   1      34.173  24.307  22.727  1.00  0.00    -0.275 OA
ATOM      5  H   UNL A   1      35.753  23.495  24.109  1.00  0.00     0.163 HD
BRANCH   3   6
ATOM      6  C   UNL A   1      32.360  23.278  23.909  1.00  0.00     0.095 C 
ATOM      7  C   UNL A   1      31.803  22.736  25.224  1.00  0.00     0.095 C 
ATOM      8  C   UNL A   1      32.392  21.311  25.496  1.00  0.00     0.041 C 
ATOM      9  C   UNL A   1      32.525  20.447  24.270  1.00  0.00    -0.030 C 
ATOM     10  C   UNL A   1      31.897  22.319  22.770  1.00  0.00     0.041 C 
ATOM     11  C   UNL A   1      32.274  20.894  23.034  1.00  0.00    -0.030 C 
BRANCH   7  12
ATOM     12  C   UNL A   1      31.670  23.557  26.528  1.00  0.00     0.228 C 
ATOM     13  N   UNL A   1      31.102  24.776  26.747  1.00  0.00    -0.326 N 
ATOM     14  H   UNL A   1      30.969  24.965  27.704  1.00  0.00     0.169 HD
ATOM     15  O   UNL A   1      32.146  23.056  27.563  1.00  0.00    -0.274 OA
BRANCH  13  16
ATOM     16  C   UNL A   1      30.662  25.823  25.926  1.00  0.00     0.041 A 
ATOM     17  C   UNL A   1      30.385  27.718  23.873  1.00  0.00     0.041 A 
ATOM     18  C   UNL A   1      29.438  26.705  24.047  1.00  0.00     0.028 A 
ATOM     19  C   UNL A   1      31.316  27.917  24.884  1.00  0.00     0.028 A 
ATOM     20  C   UNL A   1      29.565  25.774  25.088  1.00  0.00     0.028 A 
ATOM     21  C   UNL A   1      31.433  26.989  25.927  1.00  0.00     0.028 A 
BRANCH  17  22
ATOM     22  N   UNL A   1      30.303  28.494  22.709  1.00  0.00    -0.326 N 
ATOM     23  C   UNL A   1      29.706  29.689  22.426  1.00  0.00     0.224 C 
ATOM     24  O   UNL A   1      29.703  30.070  21.251  1.00  0.00    -0.275 OA
ATOM     25  H   UNL A   1      30.770  28.097  21.939  1.00  0.00     0.169 HD
BRANCH  23  26
ATOM     26  C   UNL A   1      29.151  30.594  23.506  1.00  0.00     0.097 C 
ATOM     27  C   UNL A   1      27.651  30.798  23.391  1.00  0.00     0.014 C 
ENDBRANCH  23  26
ENDBRANCH  17  22
ENDBRANCH  13  16
ENDBRANCH   7  12
ENDBRANCH   3   6
ENDBRANCH   1   2
BRANCH   1  28
ATOM     28  C   UNL A   1      36.002  21.490  25.815  1.00  0.00     0.042 C 
BRANCH  28  29
ATOM     29  C   UNL A   1      37.278  21.821  25.061  1.00  0.00     0.118 C 
BRANCH  29  30
ATOM     30  N   UNL A   1      38.402  20.941  25.381  1.00  0.00    -0.352 N 
ATOM     31  C   UNL A   1      39.538  21.146  26.140  1.00  0.00     0.251 C 
ATOM     32  H   UNL A   1      38.335  20.041  24.987  1.00  0.00     0.163 HD
ATOM     33  O   UNL A   1      40.391  20.284  26.208  1.00  0.00    -0.269 OA
BRANCH  31  34
ATOM     34  C   UNL A   1      39.728  22.454  26.804  1.00  0.00     0.039 A 
ATOM     35  C   UNL A   1      40.756  22.595  27.738  1.00  0.00     0.014 A 
ATOM     36  C   UNL A   1      38.990  23.560  26.396  1.00  0.00     0.014 A 
ATOM     37  C   UNL A   1      41.160  23.876  28.120  1.00  0.00     0.010 A 
ATOM     38  C   UNL A   1      39.489  24.825  26.654  1.00  0.00     0.010 A 
ATOM     39  C   UNL A   1      40.598  25.000  27.496  1.00  0.00    -0.014 A 
BRANCH  39  40
ATOM     40  C   UNL A   1      41.168  26.365  27.645  1.00  0.00     0.031 A 
ATOM     41  C   UNL A   1      42.554  26.650  27.139  1.00  0.00     0.074 A 
ATOM     42  C   UNL A   1      40.515  27.289  28.379  1.00  0.00     0.049 A 
ATOM     43  N   UNL A   1      43.329  27.678  27.372  1.00  0.00    -0.248 NA
ATOM     44  C   UNL A   1      43.179  25.603  26.314  1.00  0.00     0.031 C 
ATOM     45  C   UNL A   1      39.203  27.110  29.007  1.00  0.00     0.029 A 
ATOM     46  N   UNL A   1      40.880  28.563  28.745  1.00  0.00    -0.354 N 
ATOM     47  C   UNL A   1      44.546  27.369  26.782  1.00  0.00     0.074 A 
ATOM     48  C   UNL A   1      44.426  26.038  26.227  1.00  0.00     0.031 C 
ATOM     49  C   UNL A   1      38.861  28.238  29.650  1.00  0.00     0.029 A 
ATOM     50  C   UNL A   1      39.948  29.202  29.526  1.00  0.00     0.049 A 
ATOM     51  H   UNL A   1      41.730  28.977  28.472  1.00  0.00     0.167 HD
ATOM     52  C   UNL A   1      45.659  28.135  26.691  1.00  0.00     0.037 A 
ATOM     53  C   UNL A   1      39.970  30.425  30.090  1.00  0.00     0.037 A 
ATOM     54  C   UNL A   1      45.741  29.488  27.168  1.00  0.00     0.049 A 
ATOM     55  C   UNL A   1      41.176  31.299  29.889  1.00  0.00     0.074 A 
ATOM     56  C   UNL A   1      46.777  30.392  27.027  1.00  0.00     0.029 A 
ATOM     57  N   UNL A   1      44.732  30.137  27.866  1.00  0.00    -0.354 N 
ATOM     58  N   UNL A   1      42.299  31.023  29.270  1.00  0.00    -0.248 NA
ATOM     59  C   UNL A   1      41.121  32.652  30.459  1.00  0.00     0.031 C 
ATOM     60  C   UNL A   1      46.407  31.583  27.662  1.00  0.00     0.029 A 
ATOM     61  C   UNL A   1      45.124  31.430  28.167  1.00  0.00     0.049 A 
ATOM     62  H   UNL A   1      43.867  29.737  28.112  1.00  0.00     0.167 HD
ATOM     63  C   UNL A   1      43.072  32.173  29.351  1.00  0.00     0.074 A 
ATOM     64  C   UNL A   1      42.288  33.153  30.076  1.00  0.00     0.031 C 
ATOM     65  C   UNL A   1      44.318  32.395  28.870  1.00  0.00     0.037 A 
BRANCH  52  66
ATOM     66  C   UNL A   1      46.865  27.524  26.038  1.00  0.00     0.064 A 
ATOM     67  C   UNL A   1      47.857  26.870  26.784  1.00  0.00     0.173 A 
ATOM     68  C   UNL A   1      47.033  27.600  24.647  1.00  0.00     0.173 A 
ATOM     69  F   UNL A   1      47.751  26.782  28.118  1.00  0.00    -0.203 F 
ATOM     70  C   UNL A   1      48.998  26.360  26.168  1.00  0.00     0.198 A 
ATOM     71  C   UNL A   1      48.158  27.057  24.031  1.00  0.00     0.198 A 
ATOM     72  F   UNL A   1      46.111  28.207  23.885  1.00  0.00    -0.203 F 
ATOM     73  F   UNL A   1      49.966  25.806  26.911  1.00  0.00    -0.200 F 
ATOM     74  C   UNL A   1      49.144  26.450  24.793  1.00  0.00     0.200 A 
ATOM     75  F   UNL A   1      48.294  27.134  22.700  1.00  0.00    -0.200 F 
ATOM     76  F   UNL A   1      50.245  25.962  24.202  1.00  0.00    -0.200 F 
ENDBRANCH  52  66
BRANCH  53  77
ATOM     77  C   UNL A   1      38.793  30.904  30.857  1.00  0.00     0.064 A 
ATOM     78  C   UNL A   1      37.708  31.502  30.199  1.00  0.00     0.173 A 
ATOM     79  C   UNL A   1      38.707  30.747  32.247  1.00  0.00     0.173 A 
ATOM     80  F   UNL A   1      37.753  31.688  28.872  1.00  0.00    -0.203 F 
ATOM     81  C   UNL A   1      36.588  31.936  30.905  1.00  0.00     0.198 A 
ATOM     82  C   UNL A   1      37.575  31.160  32.949  1.00  0.00     0.198 A 
ATOM     83  F   UNL A   1      39.713  30.170  32.922  1.00  0.00    -0.203 F 
ATOM     84  F   UNL A   1      35.578  32.530  30.254  1.00  0.00    -0.200 F 
ATOM     85  C   UNL A   1      36.519  31.758  32.278  1.00  0.00     0.200 A 
ATOM     86  F   UNL A   1      37.505  30.974  34.274  1.00  0.00    -0.200 F 
ATOM     87  F   UNL A   1      35.436  32.164  32.955  1.00  0.00    -0.200 F 
ENDBRANCH  53  77
BRANCH  65  88
ATOM     88  C   UNL A   1      44.901  33.761  29.067  1.00  0.00     0.064 A 
ATOM     89  C   UNL A   1      44.674  34.794  28.148  1.00  0.00     0.173 A 
ATOM     90  C   UNL A   1      45.628  34.055  30.229  1.00  0.00     0.173 A 
ATOM     91  F   UNL A   1      43.997  34.554  27.016  1.00  0.00    -0.203 F 
ATOM     92  C   UNL A   1      45.161  36.077  28.385  1.00  0.00     0.198 A 
ATOM     93  C   UNL A   1      46.093  35.344  30.473  1.00  0.00     0.198 A 
ATOM     94  F   UNL A   1      45.866  33.099  31.139  1.00  0.00    -0.203 F 
ATOM     95  F   UNL A   1      44.953  37.046  27.483  1.00  0.00    -0.200 F 
ATOM     96  C   UNL A   1      45.860  36.353  29.551  1.00  0.00     0.200 A 
ATOM     97  F   UNL A   1      46.759  35.611  31.605  1.00  0.00    -0.200 F 
ATOM     98  F   UNL A   1      46.314  37.592  29.784  1.00  0.00    -0.200 F 
ENDBRANCH  65  88
ENDBRANCH  39  40
ENDBRANCH  31  34
ENDBRANCH  29  30
ENDBRANCH  28  29
ENDBRANCH   1  28
TORSDOF 14
ENDMDL
