MODEL 1
REMARK VINA RESULT:     -13.2      0.000      0.000
REMARK SMILES CC(C)CN(C)c1cc2c(cc1Cl)C=C(C(=O)NCCCNC(=O)c1ccc(-c3c4nc(c(-c5c(F)c(F)c(F)c(F)c5F)c5ccc([nH]5)c(-c5c(F)c(F)c(F)c(F)c5F)c5nc(c(-c6c(F)c(F)c(F)c(F)c6F)c6ccc3[nH]6)C=C5)C=C4)cc1)[C@H](C(F)(F)F)O2
REMARK SMILES IDX 19 1 18 2 16 3 17 4 15 6 7 7 8 8 12 9 9 10 11 11 13 12 10 13
REMARK SMILES IDX 93 14 14 15 88 16 5 17 6 18 4 19 2 20 1 21 3 22 89 23 90 24
REMARK SMILES IDX 91 25 92 26 20 27 21 28 22 29 23 30 24 32 25 33 26 34 87 35
REMARK SMILES IDX 27 36 86 37 28 38 29 39 30 40 80 41 31 42 85 43 79 44 81 45
REMARK SMILES IDX 32 46 84 47 78 48 77 49 33 51 65 52 45 53 64 54 46 55 49 56
REMARK SMILES IDX 63 57 82 58 47 59 48 60 62 62 83 63 50 64 34 65 35 66 43 67
REMARK SMILES IDX 36 68 37 69 41 70 44 71 38 72 39 73 42 74 40 75 66 76 67 77
REMARK SMILES IDX 75 78 68 79 69 80 73 81 76 82 70 83 71 84 74 85 72 86 51 87
REMARK SMILES IDX 52 88 60 89 53 90 54 91 58 92 61 93 55 94 56 95 59 96 57 97
REMARK H PARENT 18 5 22 31 81 50 49 61
REMARK Flexibility Score: inf
ROOT
ATOM      1  C   UNL A   1      31.643  30.916  26.258  1.00  0.00     0.118 C 
ENDROOT
BRANCH   1   2
ATOM      2  N   UNL A   1      30.941  30.535  25.044  1.00  0.00    -0.352 N 
ATOM      3  C   UNL A   1      30.849  29.426  24.277  1.00  0.00     0.251 C 
ATOM      4  O   UNL A   1      30.118  29.514  23.288  1.00  0.00    -0.270 OA
ATOM      5  H   UNL A   1      30.393  31.272  24.690  1.00  0.00     0.163 HD
BRANCH   3   6
ATOM      6  C   UNL A   1      31.527  28.138  24.586  1.00  0.00     0.067 C 
ATOM      7  C   UNL A   1      32.294  23.357  26.074  1.00  0.00     0.059 A 
ATOM      8  C   UNL A   1      33.099  24.368  25.520  1.00  0.00     0.074 A 
ATOM      9  C   UNL A   1      30.950  23.687  26.351  1.00  0.00     0.065 A 
ATOM     10  C   UNL A   1      32.580  25.629  25.216  1.00  0.00     0.130 A 
ATOM     11  C   UNL A   1      30.412  24.919  25.964  1.00  0.00     0.034 A 
ATOM     12  Cl  UNL A   1      29.899  22.640  27.243  1.00  0.00    -0.082 Cl
ATOM     13  C   UNL A   1      31.229  25.892  25.395  1.00  0.00     0.019 A 
ATOM     14  O   UNL A   1      33.475  26.550  24.764  1.00  0.00    -0.475 OA
ATOM     15  C   UNL A   1      30.690  27.189  25.032  1.00  0.00     0.025 C 
ATOM     16  C   UNL A   1      32.997  27.873  24.388  1.00  0.00     0.314 C 
BRANCH   7  17
ATOM     17  N   UNL A   1      32.827  22.080  26.317  1.00  0.00    -0.373 N 
ATOM     18  C   UNL A   1      33.550  21.936  27.580  1.00  0.00     0.143 C 
BRANCH  17  19
ATOM     19  C   UNL A   1      33.405  21.367  25.153  1.00  0.00     0.119 C 
BRANCH  19  20
ATOM     20  C   UNL A   1      32.341  20.908  24.136  1.00  0.00     0.002 C 
ATOM     21  C   UNL A   1      32.363  21.749  22.855  1.00  0.00     0.009 C 
ATOM     22  C   UNL A   1      32.516  19.434  23.761  1.00  0.00     0.009 C 
ENDBRANCH  19  20
ENDBRANCH  17  19
ENDBRANCH   7  17
BRANCH  16  23
ATOM     23  C   UNL A   1      33.513  28.152  22.966  1.00  0.00     0.429 C 
ATOM     24  F   UNL A   1      34.094  29.368  22.850  1.00  0.00    -0.167 F 
ATOM     25  F   UNL A   1      34.414  27.244  22.533  1.00  0.00    -0.167 F 
ATOM     26  F   UNL A   1      32.475  28.124  22.087  1.00  0.00    -0.167 F 
ENDBRANCH  16  23
ENDBRANCH   3   6
ENDBRANCH   1   2
BRANCH   1  27
ATOM     27  C   UNL A   1      31.513  32.414  26.508  1.00  0.00     0.042 C 
BRANCH  27  28
ATOM     28  C   UNL A   1      32.720  32.988  27.242  1.00  0.00     0.118 C 
BRANCH  28  29
ATOM     29  N   UNL A   1      32.486  34.356  27.685  1.00  0.00    -0.352 N 
ATOM     30  C   UNL A   1      33.026  35.036  28.750  1.00  0.00     0.251 C 
ATOM     31  H   UNL A   1      31.847  34.870  27.142  1.00  0.00     0.163 HD
ATOM     32  O   UNL A   1      32.523  36.095  29.123  1.00  0.00    -0.269 OA
BRANCH  30  33
ATOM     33  C   UNL A   1      34.194  34.482  29.466  1.00  0.00     0.039 A 
ATOM     34  C   UNL A   1      35.471  34.582  28.916  1.00  0.00     0.014 A 
ATOM     35  C   UNL A   1      34.013  33.848  30.698  1.00  0.00     0.014 A 
ATOM     36  C   UNL A   1      36.524  33.876  29.483  1.00  0.00     0.010 A 
ATOM     37  C   UNL A   1      35.101  33.238  31.331  1.00  0.00     0.010 A 
ATOM     38  C   UNL A   1      36.356  33.202  30.702  1.00  0.00    -0.014 A 
BRANCH  38  39
ATOM     39  C   UNL A   1      37.511  32.485  31.303  1.00  0.00     0.031 A 
ATOM     40  C   UNL A   1      37.997  32.826  32.686  1.00  0.00     0.074 A 
ATOM     41  C   UNL A   1      38.091  31.483  30.612  1.00  0.00     0.049 A 
ATOM     42  N   UNL A   1      39.001  32.317  33.356  1.00  0.00    -0.248 NA
ATOM     43  C   UNL A   1      37.266  33.877  33.414  1.00  0.00     0.031 C 
ATOM     44  C   UNL A   1      37.693  31.046  29.272  1.00  0.00     0.029 A 
ATOM     45  N   UNL A   1      39.117  30.635  30.945  1.00  0.00    -0.354 N 
ATOM     46  C   UNL A   1      39.032  32.993  34.570  1.00  0.00     0.074 A 
ATOM     47  C   UNL A   1      37.968  33.972  34.535  1.00  0.00     0.031 C 
ATOM     48  C   UNL A   1      38.424  29.980  28.921  1.00  0.00     0.029 A 
ATOM     49  C   UNL A   1      39.400  29.710  29.970  1.00  0.00     0.049 A 
ATOM     50  H   UNL A   1      39.603  30.686  31.799  1.00  0.00     0.167 HD
ATOM     51  C   UNL A   1      39.866  32.801  35.620  1.00  0.00     0.037 A 
ATOM     52  C   UNL A   1      40.355  28.763  29.913  1.00  0.00     0.037 A 
ATOM     53  C   UNL A   1      40.910  31.807  35.655  1.00  0.00     0.049 A 
ATOM     54  C   UNL A   1      41.302  28.613  31.068  1.00  0.00     0.074 A 
ATOM     55  C   UNL A   1      41.800  31.531  36.677  1.00  0.00     0.029 A 
ATOM     56  N   UNL A   1      41.197  30.923  34.626  1.00  0.00    -0.354 N 
ATOM     57  N   UNL A   1      41.327  29.264  32.206  1.00  0.00    -0.248 NA
ATOM     58  C   UNL A   1      42.360  27.604  30.932  1.00  0.00     0.031 C 
ATOM     59  C   UNL A   1      42.661  30.518  36.248  1.00  0.00     0.029 A 
ATOM     60  C   UNL A   1      42.266  30.115  34.983  1.00  0.00     0.049 A 
ATOM     61  H   UNL A   1      40.715  30.876  33.768  1.00  0.00     0.167 HD
ATOM     62  C   UNL A   1      42.381  28.728  32.930  1.00  0.00     0.074 A 
ATOM     63  C   UNL A   1      42.963  27.686  32.109  1.00  0.00     0.031 C 
ATOM     64  C   UNL A   1      42.827  29.071  34.162  1.00  0.00     0.037 A 
BRANCH  51  65
ATOM     65  C   UNL A   1      39.702  33.678  36.828  1.00  0.00     0.064 A 
ATOM     66  C   UNL A   1      40.320  34.934  36.916  1.00  0.00     0.173 A 
ATOM     67  C   UNL A   1      38.835  33.301  37.867  1.00  0.00     0.173 A 
ATOM     68  F   UNL A   1      41.166  35.339  35.956  1.00  0.00    -0.203 F 
ATOM     69  C   UNL A   1      40.083  35.776  38.000  1.00  0.00     0.198 A 
ATOM     70  C   UNL A   1      38.578  34.158  38.934  1.00  0.00     0.198 A 
ATOM     71  F   UNL A   1      38.213  32.114  37.831  1.00  0.00    -0.203 F 
ATOM     72  F   UNL A   1      40.705  36.961  38.075  1.00  0.00    -0.200 F 
ATOM     73  C   UNL A   1      39.203  35.393  39.001  1.00  0.00     0.200 A 
ATOM     74  F   UNL A   1      37.713  33.793  39.891  1.00  0.00    -0.200 F 
ATOM     75  F   UNL A   1      38.956  36.216  40.030  1.00  0.00    -0.200 F 
ENDBRANCH  51  65
BRANCH  52  76
ATOM     76  C   UNL A   1      40.455  27.890  28.714  1.00  0.00     0.064 A 
ATOM     77  C   UNL A   1      41.232  28.268  27.610  1.00  0.00     0.173 A 
ATOM     78  C   UNL A   1      39.799  26.651  28.655  1.00  0.00     0.173 A 
ATOM     79  F   UNL A   1      41.863  29.452  27.610  1.00  0.00    -0.203 F 
ATOM     80  C   UNL A   1      41.342  27.445  26.492  1.00  0.00     0.198 A 
ATOM     81  C   UNL A   1      39.937  25.813  27.551  1.00  0.00     0.198 A 
ATOM     82  F   UNL A   1      39.047  26.240  29.686  1.00  0.00    -0.203 F 
ATOM     83  F   UNL A   1      42.060  27.847  25.434  1.00  0.00    -0.200 F 
ATOM     84  C   UNL A   1      40.703  26.213  26.467  1.00  0.00     0.200 A 
ATOM     85  F   UNL A   1      39.336  24.616  27.542  1.00  0.00    -0.200 F 
ATOM     86  F   UNL A   1      40.822  25.415  25.398  1.00  0.00    -0.200 F 
ENDBRANCH  52  76
BRANCH  64  87
ATOM     87  C   UNL A   1      43.976  28.288  34.727  1.00  0.00     0.064 A 
ATOM     88  C   UNL A   1      45.303  28.722  34.587  1.00  0.00     0.173 A 
ATOM     89  C   UNL A   1      43.741  27.122  35.473  1.00  0.00     0.173 A 
ATOM     90  F   UNL A   1      45.582  29.823  33.872  1.00  0.00    -0.203 F 
ATOM     91  C   UNL A   1      46.353  28.006  35.155  1.00  0.00     0.198 A 
ATOM     92  C   UNL A   1      44.790  26.428  36.067  1.00  0.00     0.198 A 
ATOM     93  F   UNL A   1      42.490  26.670  35.644  1.00  0.00    -0.203 F 
ATOM     94  F   UNL A   1      47.616  28.414  34.972  1.00  0.00    -0.200 F 
ATOM     95  C   UNL A   1      46.095  26.867  35.903  1.00  0.00     0.200 A 
ATOM     96  F   UNL A   1      44.536  25.339  36.805  1.00  0.00    -0.200 F 
ATOM     97  F   UNL A   1      47.106  26.188  36.463  1.00  0.00    -0.200 F 
ENDBRANCH  64  87
ENDBRANCH  38  39
ENDBRANCH  30  33
ENDBRANCH  28  29
ENDBRANCH  27  28
ENDBRANCH   1  27
TORSDOF 14
ENDMDL
MODEL 2
REMARK VINA RESULT:     -13.2      5.613     11.163
REMARK SMILES CC(C)CN(C)c1cc2c(cc1Cl)C=C(C(=O)NCCCNC(=O)c1ccc(-c3c4nc(c(-c5c(F)c(F)c(F)c(F)c5F)c5ccc([nH]5)c(-c5c(F)c(F)c(F)c(F)c5F)c5nc(c(-c6c(F)c(F)c(F)c(F)c6F)c6ccc3[nH]6)C=C5)C=C4)cc1)[C@H](C(F)(F)F)O2
REMARK SMILES IDX 19 1 18 2 16 3 17 4 15 6 7 7 8 8 12 9 9 10 11 11 13 12 10 13
REMARK SMILES IDX 93 14 14 15 88 16 5 17 6 18 4 19 2 20 1 21 3 22 89 23 90 24
REMARK SMILES IDX 91 25 92 26 20 27 21 28 22 29 23 30 24 32 25 33 26 34 87 35
REMARK SMILES IDX 27 36 86 37 28 38 29 39 30 40 80 41 31 42 85 43 79 44 81 45
REMARK SMILES IDX 32 46 84 47 78 48 77 49 33 51 65 52 45 53 64 54 46 55 49 56
REMARK SMILES IDX 63 57 82 58 47 59 48 60 62 62 83 63 50 64 34 65 35 66 43 67
REMARK SMILES IDX 36 68 37 69 41 70 44 71 38 72 39 73 42 74 40 75 66 76 67 77
REMARK SMILES IDX 75 78 68 79 69 80 73 81 76 82 70 83 71 84 74 85 72 86 51 87
REMARK SMILES IDX 52 88 60 89 53 90 54 91 58 92 61 93 55 94 56 95 59 96 57 97
REMARK H PARENT 18 5 22 31 81 50 49 61
REMARK Flexibility Score: inf
ROOT
ATOM      1  C   UNL A   1      37.297  20.383  24.970  1.00  0.00     0.118 C 
ENDROOT
BRANCH   1   2
ATOM      2  N   UNL A   1      35.950  19.837  24.996  1.00  0.00    -0.352 N 
ATOM      3  C   UNL A   1      34.695  20.336  24.978  1.00  0.00     0.251 C 
ATOM      4  O   UNL A   1      33.784  19.505  25.017  1.00  0.00    -0.270 OA
ATOM      5  H   UNL A   1      35.954  18.854  25.037  1.00  0.00     0.163 HD
BRANCH   3   6
ATOM      6  C   UNL A   1      34.373  21.785  24.871  1.00  0.00     0.067 C 
ATOM      7  C   UNL A   1      32.860  26.235  22.982  1.00  0.00     0.059 A 
ATOM      8  C   UNL A   1      33.317  25.790  24.235  1.00  0.00     0.074 A 
ATOM      9  C   UNL A   1      32.824  25.286  21.938  1.00  0.00     0.065 A 
ATOM     10  C   UNL A   1      33.679  24.457  24.448  1.00  0.00     0.130 A 
ATOM     11  C   UNL A   1      33.102  23.936  22.176  1.00  0.00     0.034 A 
ATOM     12  Cl  UNL A   1      32.514  25.725  20.292  1.00  0.00    -0.082 Cl
ATOM     13  C   UNL A   1      33.530  23.520  23.435  1.00  0.00     0.019 A 
ATOM     14  O   UNL A   1      34.187  24.165  25.676  1.00  0.00    -0.475 OA
ATOM     15  C   UNL A   1      33.862  22.130  23.679  1.00  0.00     0.025 C 
ATOM     16  C   UNL A   1      34.545  22.787  25.982  1.00  0.00     0.314 C 
BRANCH   7  17
ATOM     17  N   UNL A   1      32.449  27.568  22.810  1.00  0.00    -0.373 N 
ATOM     18  C   UNL A   1      33.531  28.536  22.636  1.00  0.00     0.143 C 
BRANCH  17  19
ATOM     19  C   UNL A   1      31.298  28.020  23.628  1.00  0.00     0.119 C 
BRANCH  19  20
ATOM     20  C   UNL A   1      29.958  27.405  23.177  1.00  0.00     0.002 C 
ATOM     21  C   UNL A   1      29.451  26.339  24.154  1.00  0.00     0.009 C 
ATOM     22  C   UNL A   1      28.874  28.473  23.007  1.00  0.00     0.009 C 
ENDBRANCH  19  20
ENDBRANCH  17  19
ENDBRANCH   7  17
BRANCH  16  23
ATOM     23  C   UNL A   1      33.836  22.416  27.296  1.00  0.00     0.429 C 
ATOM     24  F   UNL A   1      32.540  22.800  27.317  1.00  0.00    -0.167 F 
ATOM     25  F   UNL A   1      33.858  21.093  27.564  1.00  0.00    -0.167 F 
ATOM     26  F   UNL A   1      34.449  23.037  28.340  1.00  0.00    -0.167 F 
ENDBRANCH  16  23
ENDBRANCH   3   6
ENDBRANCH   1   2
BRANCH   1  27
ATOM     27  C   UNL A   1      38.325  19.298  25.270  1.00  0.00     0.042 C 
BRANCH  27  28
ATOM     28  C   UNL A   1      39.577  19.853  25.939  1.00  0.00     0.118 C 
BRANCH  28  29
ATOM     29  N   UNL A   1      40.653  18.870  25.977  1.00  0.00    -0.352 N 
ATOM     30  C   UNL A   1      42.013  19.062  26.027  1.00  0.00     0.251 C 
ATOM     31  H   UNL A   1      40.363  17.930  25.966  1.00  0.00     0.163 HD
ATOM     32  O   UNL A   1      42.775  18.124  25.795  1.00  0.00    -0.269 OA
BRANCH  30  33
ATOM     33  C   UNL A   1      42.561  20.401  26.331  1.00  0.00     0.039 A 
ATOM     34  C   UNL A   1      42.585  20.872  27.642  1.00  0.00     0.014 A 
ATOM     35  C   UNL A   1      43.050  21.199  25.293  1.00  0.00     0.014 A 
ATOM     36  C   UNL A   1      42.897  22.201  27.892  1.00  0.00     0.010 A 
ATOM     37  C   UNL A   1      43.479  22.502  25.564  1.00  0.00     0.010 A 
ATOM     38  C   UNL A   1      43.356  23.032  26.859  1.00  0.00    -0.014 A 
BRANCH  38  39
ATOM     39  C   UNL A   1      43.718  24.441  27.164  1.00  0.00     0.031 A 
ATOM     40  C   UNL A   1      45.105  24.959  26.895  1.00  0.00     0.074 A 
ATOM     41  C   UNL A   1      42.768  25.273  27.639  1.00  0.00     0.049 A 
ATOM     42  N   UNL A   1      45.599  26.151  27.118  1.00  0.00    -0.248 NA
ATOM     43  C   UNL A   1      46.069  24.017  26.302  1.00  0.00     0.031 C 
ATOM     44  C   UNL A   1      41.382  24.892  27.918  1.00  0.00     0.029 A 
ATOM     45  N   UNL A   1      42.812  26.609  27.947  1.00  0.00    -0.354 N 
ATOM     46  C   UNL A   1      46.926  26.099  26.710  1.00  0.00     0.074 A 
ATOM     47  C   UNL A   1      47.174  24.748  26.256  1.00  0.00     0.031 C 
ATOM     48  C   UNL A   1      40.696  25.977  28.301  1.00  0.00     0.029 A 
ATOM     49  C   UNL A   1      41.609  27.111  28.377  1.00  0.00     0.049 A 
ATOM     50  H   UNL A   1      43.629  27.154  27.868  1.00  0.00     0.167 HD
ATOM     51  C   UNL A   1      47.846  27.093  26.706  1.00  0.00     0.037 A 
ATOM     52  C   UNL A   1      41.279  28.342  28.810  1.00  0.00     0.037 A 
ATOM     53  C   UNL A   1      47.583  28.443  27.140  1.00  0.00     0.049 A 
ATOM     54  C   UNL A   1      42.336  29.408  28.849  1.00  0.00     0.074 A 
ATOM     55  C   UNL A   1      48.449  29.522  27.165  1.00  0.00     0.029 A 
ATOM     56  N   UNL A   1      46.363  28.898  27.618  1.00  0.00    -0.354 N 
ATOM     57  N   UNL A   1      43.589  29.343  28.469  1.00  0.00    -0.248 NA
ATOM     58  C   UNL A   1      41.937  30.717  29.383  1.00  0.00     0.031 C 
ATOM     59  C   UNL A   1      47.770  30.616  27.706  1.00  0.00     0.029 A 
ATOM     60  C   UNL A   1      46.462  30.239  27.959  1.00  0.00     0.049 A 
ATOM     61  H   UNL A   1      45.549  28.351  27.703  1.00  0.00     0.167 HD
ATOM     62  C   UNL A   1      44.121  30.604  28.692  1.00  0.00     0.074 A 
ATOM     63  C   UNL A   1      43.050  31.420  29.226  1.00  0.00     0.031 C 
ATOM     64  C   UNL A   1      45.384  31.044  28.476  1.00  0.00     0.037 A 
BRANCH  51  65
ATOM     65  C   UNL A   1      49.232  26.777  26.222  1.00  0.00     0.064 A 
ATOM     66  C   UNL A   1      50.179  26.158  27.051  1.00  0.00     0.173 A 
ATOM     67  C   UNL A   1      49.586  27.005  24.881  1.00  0.00     0.173 A 
ATOM     68  F   UNL A   1      49.897  25.927  28.342  1.00  0.00    -0.203 F 
ATOM     69  C   UNL A   1      51.428  25.786  26.561  1.00  0.00     0.198 A 
ATOM     70  C   UNL A   1      50.825  26.604  24.387  1.00  0.00     0.198 A 
ATOM     71  F   UNL A   1      48.717  27.588  24.043  1.00  0.00    -0.203 F 
ATOM     72  F   UNL A   1      52.326  25.218  27.378  1.00  0.00    -0.200 F 
ATOM     73  C   UNL A   1      51.745  25.997  25.227  1.00  0.00     0.200 A 
ATOM     74  F   UNL A   1      51.121  26.794  23.094  1.00  0.00    -0.200 F 
ATOM     75  F   UNL A   1      52.938  25.615  24.751  1.00  0.00    -0.200 F 
ENDBRANCH  51  65
BRANCH  52  76
ATOM     76  C   UNL A   1      39.884  28.621  29.243  1.00  0.00     0.064 A 
ATOM     77  C   UNL A   1      38.936  29.122  28.341  1.00  0.00     0.173 A 
ATOM     78  C   UNL A   1      39.463  28.369  30.558  1.00  0.00     0.173 A 
ATOM     79  F   UNL A   1      39.294  29.398  27.078  1.00  0.00    -0.203 F 
ATOM     80  C   UNL A   1      37.624  29.368  28.739  1.00  0.00     0.198 A 
ATOM     81  C   UNL A   1      38.143  28.581  30.946  1.00  0.00     0.198 A 
ATOM     82  F   UNL A   1      40.330  27.884  31.459  1.00  0.00    -0.203 F 
ATOM     83  F   UNL A   1      36.747  29.883  27.867  1.00  0.00    -0.200 F 
ATOM     84  C   UNL A   1      37.226  29.088  30.038  1.00  0.00     0.200 A 
ATOM     85  F   UNL A   1      37.759  28.289  32.196  1.00  0.00    -0.200 F 
ATOM     86  F   UNL A   1      35.959  29.309  30.416  1.00  0.00    -0.200 F 
ENDBRANCH  52  76
BRANCH  64  87
ATOM     87  C   UNL A   1      45.678  32.485  28.774  1.00  0.00     0.064 A 
ATOM     88  C   UNL A   1      45.486  33.490  27.815  1.00  0.00     0.173 A 
ATOM     89  C   UNL A   1      46.096  32.872  30.057  1.00  0.00     0.173 A 
ATOM     90  F   UNL A   1      45.099  33.172  26.570  1.00  0.00    -0.203 F 
ATOM     91  C   UNL A   1      45.721  34.827  28.124  1.00  0.00     0.198 A 
ATOM     92  C   UNL A   1      46.298  34.212  30.372  1.00  0.00     0.198 A 
ATOM     93  F   UNL A   1      46.286  31.950  31.013  1.00  0.00    -0.203 F 
ATOM     94  F   UNL A   1      45.574  35.767  27.180  1.00  0.00    -0.200 F 
ATOM     95  C   UNL A   1      46.116  35.188  29.403  1.00  0.00     0.200 A 
ATOM     96  F   UNL A   1      46.662  34.559  31.614  1.00  0.00    -0.200 F 
ATOM     97  F   UNL A   1      46.327  36.477  29.703  1.00  0.00    -0.200 F 
ENDBRANCH  64  87
ENDBRANCH  38  39
ENDBRANCH  30  33
ENDBRANCH  28  29
ENDBRANCH  27  28
ENDBRANCH   1  27
TORSDOF 14
ENDMDL
MODEL 3
REMARK VINA RESULT:     -13.0      0.703      7.379
REMARK SMILES CC(C)CN(C)c1cc2c(cc1Cl)C=C(C(=O)NCCCNC(=O)c1ccc(-c3c4nc(c(-c5c(F)c(F)c(F)c(F)c5F)c5ccc([nH]5)c(-c5c(F)c(F)c(F)c(F)c5F)c5nc(c(-c6c(F)c(F)c(F)c(F)c6F)c6ccc3[nH]6)C=C5)C=C4)cc1)[C@H](C(F)(F)F)O2
REMARK SMILES IDX 19 1 18 2 16 3 17 4 15 6 7 7 8 8 12 9 9 10 11 11 13 12 10 13
REMARK SMILES IDX 93 14 14 15 88 16 5 17 6 18 4 19 2 20 1 21 3 22 89 23 90 24
REMARK SMILES IDX 91 25 92 26 20 27 21 28 22 29 23 30 24 32 25 33 26 34 87 35
REMARK SMILES IDX 27 36 86 37 28 38 29 39 30 40 80 41 31 42 85 43 79 44 81 45
REMARK SMILES IDX 32 46 84 47 78 48 77 49 33 51 65 52 45 53 64 54 46 55 49 56
REMARK SMILES IDX 63 57 82 58 47 59 48 60 62 62 83 63 50 64 34 65 35 66 43 67
REMARK SMILES IDX 36 68 37 69 41 70 44 71 38 72 39 73 42 74 40 75 66 76 67 77
REMARK SMILES IDX 75 78 68 79 69 80 73 81 76 82 70 83 71 84 74 85 72 86 51 87
REMARK SMILES IDX 52 88 60 89 53 90 54 91 58 92 61 93 55 94 56 95 59 96 57 97
REMARK H PARENT 18 5 22 31 81 50 49 61
REMARK Flexibility Score: inf
ROOT
ATOM      1  C   UNL A   1      31.689  30.831  26.262  1.00  0.00     0.118 C 
ENDROOT
BRANCH   1   2
ATOM      2  N   UNL A   1      30.998  30.481  25.033  1.00  0.00    -0.352 N 
ATOM      3  C   UNL A   1      30.945  29.406  24.216  1.00  0.00     0.251 C 
ATOM      4  O   UNL A   1      30.206  29.513  23.233  1.00  0.00    -0.270 OA
ATOM      5  H   UNL A   1      30.421  31.212  24.716  1.00  0.00     0.163 HD
BRANCH   3   6
ATOM      6  C   UNL A   1      31.672  28.132  24.463  1.00  0.00     0.067 C 
ATOM      7  C   UNL A   1      32.608  23.292  25.627  1.00  0.00     0.059 A 
ATOM      8  C   UNL A   1      33.387  24.379  25.192  1.00  0.00     0.074 A 
ATOM      9  C   UNL A   1      31.237  23.536  25.858  1.00  0.00     0.065 A 
ATOM     10  C   UNL A   1      32.819  25.634  24.957  1.00  0.00     0.130 A 
ATOM     11  C   UNL A   1      30.657  24.767  25.537  1.00  0.00     0.034 A 
ATOM     12  Cl  UNL A   1      30.200  22.375  26.614  1.00  0.00    -0.082 Cl
ATOM     13  C   UNL A   1      31.450  25.819  25.085  1.00  0.00     0.019 A 
ATOM     14  O   UNL A   1      33.687  26.628  24.623  1.00  0.00    -0.475 OA
ATOM     15  C   UNL A   1      30.864  27.113  24.792  1.00  0.00     0.025 C 
ATOM     16  C   UNL A   1      33.161  27.952  24.322  1.00  0.00     0.314 C 
BRANCH   7  17
ATOM     17  N   UNL A   1      33.193  22.026  25.802  1.00  0.00    -0.373 N 
ATOM     18  C   UNL A   1      33.720  21.762  27.141  1.00  0.00     0.143 C 
BRANCH  17  19
ATOM     19  C   UNL A   1      33.999  21.504  24.672  1.00  0.00     0.119 C 
BRANCH  19  20
ATOM     20  C   UNL A   1      35.506  21.425  24.991  1.00  0.00     0.002 C 
ATOM     21  C   UNL A   1      36.048  19.996  24.879  1.00  0.00     0.009 C 
ATOM     22  C   UNL A   1      36.326  22.337  24.074  1.00  0.00     0.009 C 
ENDBRANCH  19  20
ENDBRANCH  17  19
ENDBRANCH   7  17
BRANCH  16  23
ATOM     23  C   UNL A   1      33.730  28.365  22.953  1.00  0.00     0.429 C 
ATOM     24  F   UNL A   1      32.988  29.315  22.342  1.00  0.00    -0.167 F 
ATOM     25  F   UNL A   1      34.995  28.835  23.017  1.00  0.00    -0.167 F 
ATOM     26  F   UNL A   1      33.755  27.287  22.123  1.00  0.00    -0.167 F 
ENDBRANCH  16  23
ENDBRANCH   3   6
ENDBRANCH   1   2
BRANCH   1  27
ATOM     27  C   UNL A   1      31.508  32.311  26.581  1.00  0.00     0.042 C 
BRANCH  27  28
ATOM     28  C   UNL A   1      32.720  32.906  27.290  1.00  0.00     0.118 C 
BRANCH  28  29
ATOM     29  N   UNL A   1      32.519  34.311  27.619  1.00  0.00    -0.352 N 
ATOM     30  C   UNL A   1      33.050  35.054  28.647  1.00  0.00     0.251 C 
ATOM     31  H   UNL A   1      31.916  34.802  27.017  1.00  0.00     0.163 HD
ATOM     32  O   UNL A   1      32.572  36.154  28.921  1.00  0.00    -0.269 OA
BRANCH  30  33
ATOM     33  C   UNL A   1      34.175  34.519  29.442  1.00  0.00     0.039 A 
ATOM     34  C   UNL A   1      35.487  34.663  28.994  1.00  0.00     0.014 A 
ATOM     35  C   UNL A   1      33.918  33.859  30.647  1.00  0.00     0.014 A 
ATOM     36  C   UNL A   1      36.512  33.976  29.629  1.00  0.00     0.010 A 
ATOM     37  C   UNL A   1      34.971  33.267  31.352  1.00  0.00     0.010 A 
ATOM     38  C   UNL A   1      36.271  33.276  30.821  1.00  0.00    -0.014 A 
BRANCH  38  39
ATOM     39  C   UNL A   1      37.397  32.581  31.498  1.00  0.00     0.031 A 
ATOM     40  C   UNL A   1      38.143  31.469  30.811  1.00  0.00     0.074 A 
ATOM     41  C   UNL A   1      37.780  32.994  32.723  1.00  0.00     0.049 A 
ATOM     42  N   UNL A   1      39.135  30.741  31.259  1.00  0.00    -0.248 NA
ATOM     43  C   UNL A   1      37.722  31.123  29.443  1.00  0.00     0.031 C 
ATOM     44  C   UNL A   1      37.148  34.076  33.480  1.00  0.00     0.029 A 
ATOM     45  N   UNL A   1      38.802  32.575  33.536  1.00  0.00    -0.354 N 
ATOM     46  C   UNL A   1      39.444  29.846  30.242  1.00  0.00     0.074 A 
ATOM     47  C   UNL A   1      38.515  30.097  29.163  1.00  0.00     0.031 C 
ATOM     48  C   UNL A   1      37.827  34.274  34.617  1.00  0.00     0.029 A 
ATOM     49  C   UNL A   1      38.889  33.279  34.712  1.00  0.00     0.049 A 
ATOM     50  H   UNL A   1      39.413  31.840  33.299  1.00  0.00     0.167 HD
ATOM     51  C   UNL A   1      40.424  28.911  30.212  1.00  0.00     0.037 A 
ATOM     52  C   UNL A   1      39.715  33.127  35.764  1.00  0.00     0.037 A 
ATOM     53  C   UNL A   1      41.360  28.682  31.284  1.00  0.00     0.049 A 
ATOM     54  C   UNL A   1      40.752  32.043  35.725  1.00  0.00     0.074 A 
ATOM     55  C   UNL A   1      42.393  27.763  31.341  1.00  0.00     0.029 A 
ATOM     56  N   UNL A   1      41.382  29.384  32.480  1.00  0.00    -0.354 N 
ATOM     57  N   UNL A   1      41.028  31.198  34.761  1.00  0.00    -0.248 NA
ATOM     58  C   UNL A   1      41.590  31.883  36.921  1.00  0.00     0.031 C 
ATOM     59  C   UNL A   1      43.006  27.871  32.592  1.00  0.00     0.029 A 
ATOM     60  C   UNL A   1      42.399  28.901  33.291  1.00  0.00     0.049 A 
ATOM     61  H   UNL A   1      40.767  30.114  32.719  1.00  0.00     0.167 HD
ATOM     62  C   UNL A   1      42.085  30.427  35.221  1.00  0.00     0.074 A 
ATOM     63  C   UNL A   1      42.412  30.913  36.545  1.00  0.00     0.031 C 
ATOM     64  C   UNL A   1      42.723  29.405  34.601  1.00  0.00     0.037 A 
BRANCH  51  65
ATOM     65  C   UNL A   1      40.546  28.050  28.987  1.00  0.00     0.064 A 
ATOM     66  C   UNL A   1      39.815  26.862  28.844  1.00  0.00     0.173 A 
ATOM     67  C   UNL A   1      41.331  28.469  27.899  1.00  0.00     0.173 A 
ATOM     68  F   UNL A   1      39.058  26.410  29.857  1.00  0.00    -0.203 F 
ATOM     69  C   UNL A   1      39.867  26.124  27.665  1.00  0.00     0.198 A 
ATOM     70  C   UNL A   1      41.357  27.744  26.711  1.00  0.00     0.198 A 
ATOM     71  F   UNL A   1      42.046  29.601  27.979  1.00  0.00    -0.203 F 
ATOM     72  F   UNL A   1      39.178  24.979  27.561  1.00  0.00    -0.200 F 
ATOM     73  C   UNL A   1      40.627  26.572  26.594  1.00  0.00     0.200 A 
ATOM     74  F   UNL A   1      42.079  28.189  25.673  1.00  0.00    -0.200 F 
ATOM     75  F   UNL A   1      40.656  25.874  25.451  1.00  0.00    -0.200 F 
ENDBRANCH  51  65
BRANCH  52  76
ATOM     76  C   UNL A   1      39.583  34.028  36.939  1.00  0.00     0.064 A 
ATOM     77  C   UNL A   1      38.823  33.652  38.055  1.00  0.00     0.173 A 
ATOM     78  C   UNL A   1      40.233  35.272  36.983  1.00  0.00     0.173 A 
ATOM     79  F   UNL A   1      38.166  32.482  38.053  1.00  0.00    -0.203 F 
ATOM     80  C   UNL A   1      38.711  34.486  39.164  1.00  0.00     0.198 A 
ATOM     81  C   UNL A   1      40.150  36.090  38.107  1.00  0.00     0.198 A 
ATOM     82  F   UNL A   1      40.977  35.677  35.944  1.00  0.00    -0.203 F 
ATOM     83  F   UNL A   1      37.946  34.120  40.202  1.00  0.00    -0.200 F 
ATOM     84  C   UNL A   1      39.383  35.700  39.194  1.00  0.00     0.200 A 
ATOM     85  F   UNL A   1      40.818  37.251  38.139  1.00  0.00    -0.200 F 
ATOM     86  F   UNL A   1      39.287  36.495  40.268  1.00  0.00    -0.200 F 
ENDBRANCH  52  76
BRANCH  64  87
ATOM     87  C   UNL A   1      43.872  28.764  35.324  1.00  0.00     0.064 A 
ATOM     88  C   UNL A   1      43.690  27.650  36.157  1.00  0.00     0.173 A 
ATOM     89  C   UNL A   1      45.181  29.233  35.131  1.00  0.00     0.173 A 
ATOM     90  F   UNL A   1      42.458  27.171  36.386  1.00  0.00    -0.203 F 
ATOM     91  C   UNL A   1      44.774  27.043  36.785  1.00  0.00     0.198 A 
ATOM     92  C   UNL A   1      46.265  28.603  35.733  1.00  0.00     0.198 A 
ATOM     93  F   UNL A   1      45.410  30.290  34.337  1.00  0.00    -0.203 F 
ATOM     94  F   UNL A   1      44.573  26.007  37.611  1.00  0.00    -0.200 F 
ATOM     95  C   UNL A   1      46.060  27.512  36.564  1.00  0.00     0.200 A 
ATOM     96  F   UNL A   1      47.508  29.046  35.503  1.00  0.00    -0.200 F 
ATOM     97  F   UNL A   1      47.104  26.915  37.157  1.00  0.00    -0.200 F 
ENDBRANCH  64  87
ENDBRANCH  38  39
ENDBRANCH  30  33
ENDBRANCH  28  29
ENDBRANCH  27  28
ENDBRANCH   1  27
TORSDOF 14
ENDMDL
