MODEL 1
REMARK VINA RESULT:     -13.3      0.000      0.000
REMARK SMILES O=C(NCCCNC(=O)c1ccc2c(=O)n(CCC[NH+]3CCOCC3)c(=O)[nH]c2c1)c1ccc(-c2c3nc(c(-c4c(F)c(F)c(F)c(F)c4F)c4ccc([nH]4)c(-c4c(F)c(F)c(F)c(F)c4F)c4nc(c(-c5c(F)c(F)c(F)c(F)c5F)c5ccc2[nH]5)C=C4)C=C3)cc1
REMARK SMILES IDX 6 1 5 2 4 3 3 4 1 5 2 6 31 8 32 9 93 10 33 11 92 12 34 13
REMARK SMILES IDX 35 14 36 15 86 16 37 17 91 18 85 19 87 20 38 21 90 22 84 23
REMARK SMILES IDX 83 24 39 26 71 27 51 28 70 29 52 30 55 31 69 32 88 33 53 34
REMARK SMILES IDX 54 35 68 37 89 38 56 39 40 40 41 41 49 42 42 43 43 44 47 45
REMARK SMILES IDX 50 46 44 47 45 48 48 49 46 50 72 51 73 52 81 53 74 54 75 55
REMARK SMILES IDX 79 56 82 57 76 58 77 59 80 60 78 61 57 62 58 63 66 64 59 65
REMARK SMILES IDX 60 66 64 67 67 68 61 69 62 70 65 71 63 72 7 73 8 74 9 76
REMARK SMILES IDX 10 77 11 78 30 79 12 80 29 81 13 82 28 83 14 84 26 85 15 87
REMARK SMILES IDX 16 88 27 89 17 90 18 91 19 92 20 93 21 94 25 95 22 97 24 98
REMARK SMILES IDX 23 99
REMARK H PARENT 3 7 87 25 55 36 7 75 28 86 20 96
REMARK Flexibility Score: inf
ROOT
ATOM      1  C   UNL A   1      31.765  30.377  25.892  1.00  0.00     0.118 C 
ENDROOT
BRANCH   1   2
ATOM      2  C   UNL A   1      31.523  31.771  26.466  1.00  0.00     0.042 C 
BRANCH   2   3
ATOM      3  C   UNL A   1      32.701  32.346  27.250  1.00  0.00     0.118 C 
BRANCH   3   4
ATOM      4  N   UNL A   1      32.527  33.752  27.575  1.00  0.00    -0.352 N 
ATOM      5  O   UNL A   1      32.698  35.653  28.757  1.00  0.00    -0.269 OA
ATOM      6  C   UNL A   1      33.118  34.517  28.546  1.00  0.00     0.251 C 
ATOM      7  H   UNL A   1      31.881  34.231  27.006  1.00  0.00     0.163 HD
BRANCH   6   8
ATOM      8  C   UNL A   1      34.248  33.998  29.349  1.00  0.00     0.039 A 
ATOM      9  C   UNL A   1      35.549  34.353  28.977  1.00  0.00     0.014 A 
ATOM     10  C   UNL A   1      34.047  33.111  30.410  1.00  0.00     0.014 A 
ATOM     11  C   UNL A   1      36.642  33.844  29.683  1.00  0.00     0.010 A 
ATOM     12  C   UNL A   1      35.132  32.659  31.157  1.00  0.00     0.010 A 
ATOM     13  C   UNL A   1      36.442  33.002  30.786  1.00  0.00    -0.014 A 
BRANCH  13  14
ATOM     14  C   UNL A   1      37.585  32.400  31.517  1.00  0.00     0.031 A 
ATOM     15  C   UNL A   1      38.339  31.255  30.898  1.00  0.00     0.074 A 
ATOM     16  C   UNL A   1      37.925  32.850  32.739  1.00  0.00     0.049 A 
ATOM     17  N   UNL A   1      39.286  30.510  31.410  1.00  0.00    -0.248 NA
ATOM     18  C   UNL A   1      37.961  30.883  29.525  1.00  0.00     0.031 C 
ATOM     19  C   UNL A   1      37.272  33.950  33.448  1.00  0.00     0.029 A 
ATOM     20  N   UNL A   1      38.907  32.433  33.602  1.00  0.00    -0.354 N 
ATOM     21  C   UNL A   1      39.594  29.571  30.436  1.00  0.00     0.074 A 
ATOM     22  C   UNL A   1      38.709  29.811  29.317  1.00  0.00     0.031 C 
ATOM     23  C   UNL A   1      37.889  34.139  34.626  1.00  0.00     0.029 A 
ATOM     24  C   UNL A   1      38.954  33.150  34.772  1.00  0.00     0.049 A 
ATOM     25  H   UNL A   1      39.520  31.689  33.401  1.00  0.00     0.167 HD
ATOM     26  C   UNL A   1      40.547  28.609  30.461  1.00  0.00     0.037 A 
ATOM     27  C   UNL A   1      39.761  33.016  35.842  1.00  0.00     0.037 A 
ATOM     28  C   UNL A   1      41.457  28.398  31.555  1.00  0.00     0.049 A 
ATOM     29  C   UNL A   1      40.805  31.934  35.849  1.00  0.00     0.074 A 
ATOM     30  C   UNL A   1      42.474  27.466  31.664  1.00  0.00     0.029 A 
ATOM     31  N   UNL A   1      41.470  29.147  32.723  1.00  0.00    -0.354 N 
ATOM     32  N   UNL A   1      41.085  31.049  34.925  1.00  0.00    -0.248 NA
ATOM     33  C   UNL A   1      41.643  31.831  37.053  1.00  0.00     0.031 C 
ATOM     34  C   UNL A   1      43.088  27.634  32.909  1.00  0.00     0.029 A 
ATOM     35  C   UNL A   1      42.475  28.694  33.560  1.00  0.00     0.049 A 
ATOM     36  H   UNL A   1      40.856  29.889  32.925  1.00  0.00     0.167 HD
ATOM     37  C   UNL A   1      42.141  30.298  35.422  1.00  0.00     0.074 A 
ATOM     38  C   UNL A   1      42.461  30.839  36.728  1.00  0.00     0.031 C 
ATOM     39  C   UNL A   1      42.785  29.252  34.850  1.00  0.00     0.037 A 
BRANCH  26  40
ATOM     40  C   UNL A   1      40.661  27.716  29.263  1.00  0.00     0.064 A 
ATOM     41  C   UNL A   1      39.809  26.615  29.088  1.00  0.00     0.173 A 
ATOM     42  C   UNL A   1      41.605  27.984  28.260  1.00  0.00     0.173 A 
ATOM     43  F   UNL A   1      38.902  26.308  30.028  1.00  0.00    -0.203 F 
ATOM     44  C   UNL A   1      39.912  25.802  27.962  1.00  0.00     0.198 A 
ATOM     45  C   UNL A   1      41.686  27.185  27.123  1.00  0.00     0.198 A 
ATOM     46  F   UNL A   1      42.440  29.026  28.378  1.00  0.00    -0.203 F 
ATOM     47  F   UNL A   1      39.115  24.732  27.836  1.00  0.00    -0.200 F 
ATOM     48  C   UNL A   1      40.844  26.092  26.978  1.00  0.00     0.200 A 
ATOM     49  F   UNL A   1      42.582  27.471  26.167  1.00  0.00    -0.200 F 
ATOM     50  F   UNL A   1      40.937  25.314  25.890  1.00  0.00    -0.200 F 
ENDBRANCH  26  40
BRANCH  27  51
ATOM     51  C   UNL A   1      39.633  33.958  36.982  1.00  0.00     0.064 A 
ATOM     52  C   UNL A   1      38.829  33.637  38.084  1.00  0.00     0.173 A 
ATOM     53  C   UNL A   1      40.312  35.184  37.003  1.00  0.00     0.173 A 
ATOM     54  F   UNL A   1      38.142  32.484  38.098  1.00  0.00    -0.203 F 
ATOM     55  C   UNL A   1      38.702  34.510  39.162  1.00  0.00     0.198 A 
ATOM     56  C   UNL A   1      40.204  36.047  38.092  1.00  0.00     0.198 A 
ATOM     57  F   UNL A   1      41.095  35.536  35.972  1.00  0.00    -0.203 F 
ATOM     58  F   UNL A   1      37.904  34.193  40.190  1.00  0.00    -0.200 F 
ATOM     59  C   UNL A   1      39.395  35.712  39.168  1.00  0.00     0.200 A 
ATOM     60  F   UNL A   1      40.882  37.202  38.099  1.00  0.00    -0.200 F 
ATOM     61  F   UNL A   1      39.281  36.548  40.209  1.00  0.00    -0.200 F 
ENDBRANCH  27  51
BRANCH  39  62
ATOM     62  C   UNL A   1      43.915  28.635  35.616  1.00  0.00     0.064 A 
ATOM     63  C   UNL A   1      43.703  27.565  36.496  1.00  0.00     0.173 A 
ATOM     64  C   UNL A   1      45.232  29.075  35.415  1.00  0.00     0.173 A 
ATOM     65  F   UNL A   1      42.460  27.119  36.728  1.00  0.00    -0.203 F 
ATOM     66  C   UNL A   1      44.771  26.963  37.157  1.00  0.00     0.198 A 
ATOM     67  C   UNL A   1      46.299  28.457  36.061  1.00  0.00     0.198 A 
ATOM     68  F   UNL A   1      45.485  30.092  34.577  1.00  0.00    -0.203 F 
ATOM     69  F   UNL A   1      44.544  25.960  38.015  1.00  0.00    -0.200 F 
ATOM     70  C   UNL A   1      46.067  27.404  36.933  1.00  0.00     0.200 A 
ATOM     71  F   UNL A   1      47.551  28.876  35.835  1.00  0.00    -0.200 F 
ATOM     72  F   UNL A   1      47.093  26.815  37.562  1.00  0.00    -0.200 F 
ENDBRANCH  39  62
ENDBRANCH  13  14
ENDBRANCH   6   8
ENDBRANCH   3   4
ENDBRANCH   2   3
ENDBRANCH   1   2
BRANCH   1  73
ATOM     73  N   UNL A   1      30.983  30.156  24.687  1.00  0.00    -0.352 N 
ATOM     74  C   UNL A   1      31.023  29.102  23.816  1.00  0.00     0.251 C 
ATOM     75  H   UNL A   1      30.334  30.863  24.466  1.00  0.00     0.163 HD
ATOM     76  O   UNL A   1      30.531  29.195  22.694  1.00  0.00    -0.269 OA
BRANCH  74  77
ATOM     77  C   UNL A   1      31.639  27.830  24.231  1.00  0.00     0.041 A 
ATOM     78  C   UNL A   1      32.889  27.470  23.710  1.00  0.00     0.015 A 
ATOM     79  C   UNL A   1      31.003  27.042  25.200  1.00  0.00     0.040 A 
ATOM     80  C   UNL A   1      33.514  26.315  24.167  1.00  0.00     0.017 A 
ATOM     81  C   UNL A   1      31.614  25.861  25.611  1.00  0.00     0.056 A 
ATOM     82  C   UNL A   1      32.874  25.527  25.127  1.00  0.00     0.064 A 
ATOM     83  N   UNL A   1      30.970  24.980  26.478  1.00  0.00    -0.307 N 
ATOM     84  C   UNL A   1      33.517  24.319  25.656  1.00  0.00     0.264 A 
ATOM     85  C   UNL A   1      31.436  23.719  26.762  1.00  0.00     0.328 A 
ATOM     86  H   UNL A   1      30.137  25.278  26.912  1.00  0.00     0.171 HD
ATOM     87  O   UNL A   1      34.736  24.215  25.557  1.00  0.00    -0.268 OA
ATOM     88  N   UNL A   1      32.674  23.384  26.237  1.00  0.00    -0.260 N 
ATOM     89  O   UNL A   1      30.744  22.967  27.443  1.00  0.00    -0.248 OA
BRANCH  88  90
ATOM     90  C   UNL A   1      33.183  22.021  26.404  1.00  0.00     0.137 C 
BRANCH  90  91
ATOM     91  C   UNL A   1      32.784  21.103  25.233  1.00  0.00     0.083 C 
BRANCH  91  92
ATOM     92  C   UNL A   1      33.398  19.692  25.262  1.00  0.00     0.264 C 
BRANCH  92  93
ATOM     93  N   UNL A   1      32.421  18.664  24.885  1.00  0.00    -0.331 N 
ATOM     94  C   UNL A   1      32.527  17.439  25.711  1.00  0.00     0.291 C 
ATOM     95  C   UNL A   1      32.528  18.264  23.464  1.00  0.00     0.291 C 
ATOM     96  H   UNL A   1      31.517  19.106  25.047  1.00  0.00     0.348 HD
ATOM     97  C   UNL A   1      33.740  16.562  25.378  1.00  0.00     0.221 C 
ATOM     98  C   UNL A   1      33.720  17.336  23.155  1.00  0.00     0.221 C 
ATOM     99  O   UNL A   1      33.734  16.178  23.999  1.00  0.00    -0.370 OA
ENDBRANCH  92  93
ENDBRANCH  91  92
ENDBRANCH  90  91
ENDBRANCH  88  90
ENDBRANCH  74  77
ENDBRANCH   1  73
TORSDOF 14
ENDMDL
MODEL 2
REMARK VINA RESULT:     -13.2      5.358     11.083
REMARK SMILES O=C(NCCCNC(=O)c1ccc2c(=O)n(CCC[NH+]3CCOCC3)c(=O)[nH]c2c1)c1ccc(-c2c3nc(c(-c4c(F)c(F)c(F)c(F)c4F)c4ccc([nH]4)c(-c4c(F)c(F)c(F)c(F)c4F)c4nc(c(-c5c(F)c(F)c(F)c(F)c5F)c5ccc2[nH]5)C=C4)C=C3)cc1
REMARK SMILES IDX 6 1 5 2 4 3 3 4 1 5 2 6 31 8 32 9 93 10 33 11 92 12 34 13
REMARK SMILES IDX 35 14 36 15 86 16 37 17 91 18 85 19 87 20 38 21 90 22 84 23
REMARK SMILES IDX 83 24 39 26 71 27 51 28 70 29 52 30 55 31 69 32 88 33 53 34
REMARK SMILES IDX 54 35 68 37 89 38 56 39 40 40 41 41 49 42 42 43 43 44 47 45
REMARK SMILES IDX 50 46 44 47 45 48 48 49 46 50 72 51 73 52 81 53 74 54 75 55
REMARK SMILES IDX 79 56 82 57 76 58 77 59 80 60 78 61 57 62 58 63 66 64 59 65
REMARK SMILES IDX 60 66 64 67 67 68 61 69 62 70 65 71 63 72 7 73 8 74 9 76
REMARK SMILES IDX 10 77 11 78 30 79 12 80 29 81 13 82 28 83 14 84 26 85 15 87
REMARK SMILES IDX 16 88 27 89 17 90 18 91 19 92 20 93 21 94 25 95 22 97 24 98
REMARK SMILES IDX 23 99
REMARK H PARENT 3 7 87 25 55 36 7 75 28 86 20 96
REMARK Flexibility Score: inf
ROOT
ATOM      1  C   UNL A   1      36.582  20.734  24.984  1.00  0.00     0.118 C 
ENDROOT
BRANCH   1   2
ATOM      2  C   UNL A   1      37.768  19.773  24.987  1.00  0.00     0.042 C 
BRANCH   2   3
ATOM      3  C   UNL A   1      38.979  20.266  25.775  1.00  0.00     0.118 C 
BRANCH   3   4
ATOM      4  N   UNL A   1      40.038  19.274  25.857  1.00  0.00    -0.352 N 
ATOM      5  O   UNL A   1      42.130  18.462  25.922  1.00  0.00    -0.269 OA
ATOM      6  C   UNL A   1      41.385  19.429  26.058  1.00  0.00     0.251 C 
ATOM      7  H   UNL A   1      39.741  18.341  25.750  1.00  0.00     0.163 HD
BRANCH   6   8
ATOM      8  C   UNL A   1      41.958  20.743  26.432  1.00  0.00     0.039 A 
ATOM      9  C   UNL A   1      42.132  21.033  27.790  1.00  0.00     0.014 A 
ATOM     10  C   UNL A   1      42.252  21.714  25.471  1.00  0.00     0.014 A 
ATOM     11  C   UNL A   1      42.626  22.280  28.181  1.00  0.00     0.010 A 
ATOM     12  C   UNL A   1      42.809  22.931  25.856  1.00  0.00     0.010 A 
ATOM     13  C   UNL A   1      42.980  23.235  27.217  1.00  0.00    -0.014 A 
BRANCH  13  14
ATOM     14  C   UNL A   1      43.451  24.587  27.604  1.00  0.00     0.031 A 
ATOM     15  C   UNL A   1      42.447  25.636  27.997  1.00  0.00     0.074 A 
ATOM     16  C   UNL A   1      44.763  24.887  27.574  1.00  0.00     0.049 A 
ATOM     17  N   UNL A   1      42.630  26.907  28.254  1.00  0.00    -0.248 NA
ATOM     18  C   UNL A   1      41.043  25.203  28.089  1.00  0.00     0.031 C 
ATOM     19  C   UNL A   1      45.835  23.960  27.210  1.00  0.00     0.029 A 
ATOM     20  N   UNL A   1      45.417  26.060  27.853  1.00  0.00    -0.354 N 
ATOM     21  C   UNL A   1      41.369  27.425  28.511  1.00  0.00     0.074 A 
ATOM     22  C   UNL A   1      40.422  26.344  28.340  1.00  0.00     0.031 C 
ATOM     23  C   UNL A   1      47.014  24.593  27.315  1.00  0.00     0.029 A 
ATOM     24  C   UNL A   1      46.781  25.978  27.715  1.00  0.00     0.049 A 
ATOM     25  H   UNL A   1      44.952  26.884  28.128  1.00  0.00     0.167 HD
ATOM     26  C   UNL A   1      41.030  28.683  28.880  1.00  0.00     0.037 A 
ATOM     27  C   UNL A   1      47.730  26.917  27.886  1.00  0.00     0.037 A 
ATOM     28  C   UNL A   1      41.975  29.746  29.093  1.00  0.00     0.049 A 
ATOM     29  C   UNL A   1      47.328  28.310  28.288  1.00  0.00     0.074 A 
ATOM     30  C   UNL A   1      41.733  31.049  29.493  1.00  0.00     0.029 A 
ATOM     31  N   UNL A   1      43.348  29.621  28.941  1.00  0.00    -0.354 N 
ATOM     32  N   UNL A   1      46.132  28.789  28.524  1.00  0.00    -0.248 NA
ATOM     33  C   UNL A   1      48.411  29.293  28.442  1.00  0.00     0.031 C 
ATOM     34  C   UNL A   1      42.958  31.719  29.560  1.00  0.00     0.029 A 
ATOM     35  C   UNL A   1      43.966  30.824  29.235  1.00  0.00     0.049 A 
ATOM     36  H   UNL A   1      43.813  28.798  28.665  1.00  0.00     0.167 HD
ATOM     37  C   UNL A   1      46.316  30.120  28.873  1.00  0.00     0.074 A 
ATOM     38  C   UNL A   1      47.742  30.371  28.830  1.00  0.00     0.031 C 
ATOM     39  C   UNL A   1      45.386  31.051  29.197  1.00  0.00     0.037 A 
BRANCH  26  40
ATOM     40  C   UNL A   1      39.575  28.976  29.088  1.00  0.00     0.064 A 
ATOM     41  C   UNL A   1      38.982  28.864  30.355  1.00  0.00     0.173 A 
ATOM     42  C   UNL A   1      38.774  29.410  28.022  1.00  0.00     0.173 A 
ATOM     43  F   UNL A   1      39.703  28.437  31.402  1.00  0.00    -0.203 F 
ATOM     44  C   UNL A   1      37.633  29.156  30.542  1.00  0.00     0.198 A 
ATOM     45  C   UNL A   1      37.433  29.727  28.218  1.00  0.00     0.198 A 
ATOM     46  F   UNL A   1      39.295  29.537  26.793  1.00  0.00    -0.203 F 
ATOM     47  F   UNL A   1      37.078  29.003  31.751  1.00  0.00    -0.200 F 
ATOM     48  C   UNL A   1      36.862  29.594  29.476  1.00  0.00     0.200 A 
ATOM     49  F   UNL A   1      36.690  30.159  27.189  1.00  0.00    -0.200 F 
ATOM     50  F   UNL A   1      35.566  29.883  29.659  1.00  0.00    -0.200 F 
ENDBRANCH  26  40
BRANCH  27  51
ATOM     51  C   UNL A   1      49.160  26.559  27.710  1.00  0.00     0.064 A 
ATOM     52  C   UNL A   1      49.978  26.326  28.823  1.00  0.00     0.173 A 
ATOM     53  C   UNL A   1      49.734  26.431  26.437  1.00  0.00     0.173 A 
ATOM     54  F   UNL A   1      49.478  26.459  30.061  1.00  0.00    -0.203 F 
ATOM     55  C   UNL A   1      51.320  25.987  28.672  1.00  0.00     0.198 A 
ATOM     56  C   UNL A   1      51.071  26.069  26.286  1.00  0.00     0.198 A 
ATOM     57  F   UNL A   1      48.992  26.642  25.341  1.00  0.00    -0.203 F 
ATOM     58  F   UNL A   1      52.089  25.799  29.753  1.00  0.00    -0.200 F 
ATOM     59  C   UNL A   1      51.865  25.851  27.403  1.00  0.00     0.200 A 
ATOM     60  F   UNL A   1      51.590  25.929  25.059  1.00  0.00    -0.200 F 
ATOM     61  F   UNL A   1      53.153  25.516  27.257  1.00  0.00    -0.200 F 
ENDBRANCH  27  51
BRANCH  39  62
ATOM     62  C   UNL A   1      45.877  32.421  29.554  1.00  0.00     0.064 A 
ATOM     63  C   UNL A   1      45.988  33.432  28.590  1.00  0.00     0.173 A 
ATOM     64  C   UNL A   1      46.173  32.743  30.887  1.00  0.00     0.173 A 
ATOM     65  F   UNL A   1      45.727  33.166  27.302  1.00  0.00    -0.203 F 
ATOM     66  C   UNL A   1      46.389  34.716  28.947  1.00  0.00     0.198 A 
ATOM     67  C   UNL A   1      46.553  34.034  31.244  1.00  0.00     0.198 A 
ATOM     68  F   UNL A   1      46.075  31.810  31.847  1.00  0.00    -0.203 F 
ATOM     69  F   UNL A   1      46.516  35.661  28.005  1.00  0.00    -0.200 F 
ATOM     70  C   UNL A   1      46.663  35.018  30.273  1.00  0.00     0.200 A 
ATOM     71  F   UNL A   1      46.807  34.327  32.526  1.00  0.00    -0.200 F 
ATOM     72  F   UNL A   1      47.039  36.258  30.614  1.00  0.00    -0.200 F 
ENDBRANCH  39  62
ENDBRANCH  13  14
ENDBRANCH   6   8
ENDBRANCH   3   4
ENDBRANCH   2   3
ENDBRANCH   1   2
BRANCH   1  73
ATOM     73  N   UNL A   1      35.319  20.018  25.070  1.00  0.00    -0.352 N 
ATOM     74  C   UNL A   1      34.065  20.511  25.307  1.00  0.00     0.251 C 
ATOM     75  H   UNL A   1      35.374  19.044  24.938  1.00  0.00     0.163 HD
ATOM     76  O   UNL A   1      33.152  19.764  25.650  1.00  0.00    -0.269 OA
BRANCH  74  77
ATOM     77  C   UNL A   1      33.794  21.947  25.124  1.00  0.00     0.041 A 
ATOM     78  C   UNL A   1      33.953  22.819  26.210  1.00  0.00     0.015 A 
ATOM     79  C   UNL A   1      33.461  22.428  23.851  1.00  0.00     0.040 A 
ATOM     80  C   UNL A   1      33.786  24.186  26.020  1.00  0.00     0.017 A 
ATOM     81  C   UNL A   1      33.244  23.793  23.685  1.00  0.00     0.056 A 
ATOM     82  C   UNL A   1      33.444  24.662  24.751  1.00  0.00     0.064 A 
ATOM     83  N   UNL A   1      32.791  24.308  22.471  1.00  0.00    -0.307 N 
ATOM     84  C   UNL A   1      33.291  26.100  24.506  1.00  0.00     0.264 A 
ATOM     85  C   UNL A   1      32.376  25.607  22.307  1.00  0.00     0.328 A 
ATOM     86  H   UNL A   1      32.770  23.709  21.689  1.00  0.00     0.171 HD
ATOM     87  O   UNL A   1      33.826  26.886  25.282  1.00  0.00    -0.268 OA
ATOM     88  N   UNL A   1      32.543  26.452  23.393  1.00  0.00    -0.260 N 
ATOM     89  O   UNL A   1      31.882  25.944  21.234  1.00  0.00    -0.248 OA
BRANCH  88  90
ATOM     90  C   UNL A   1      32.022  27.819  23.328  1.00  0.00     0.137 C 
BRANCH  90  91
ATOM     91  C   UNL A   1      30.724  27.986  24.143  1.00  0.00     0.083 C 
BRANCH  91  92
ATOM     92  C   UNL A   1      29.572  28.694  23.408  1.00  0.00     0.264 C 
BRANCH  92  93
ATOM     93  N   UNL A   1      29.937  30.057  23.005  1.00  0.00    -0.331 N 
ATOM     94  C   UNL A   1      29.254  31.097  23.807  1.00  0.00     0.291 C 
ATOM     95  C   UNL A   1      29.656  30.328  21.577  1.00  0.00     0.291 C 
ATOM     96  H   UNL A   1      30.942  30.105  23.169  1.00  0.00     0.348 HD
ATOM     97  C   UNL A   1      27.770  31.278  23.466  1.00  0.00     0.221 C 
ATOM     98  C   UNL A   1      28.166  30.565  21.258  1.00  0.00     0.221 C 
ATOM     99  O   UNL A   1      27.596  31.591  22.080  1.00  0.00    -0.370 OA
ENDBRANCH  92  93
ENDBRANCH  91  92
ENDBRANCH  90  91
ENDBRANCH  88  90
ENDBRANCH  74  77
ENDBRANCH   1  73
TORSDOF 14
ENDMDL
MODEL 3
REMARK VINA RESULT:     -13.0      1.090      2.182
REMARK SMILES O=C(NCCCNC(=O)c1ccc2c(=O)n(CCC[NH+]3CCOCC3)c(=O)[nH]c2c1)c1ccc(-c2c3nc(c(-c4c(F)c(F)c(F)c(F)c4F)c4ccc([nH]4)c(-c4c(F)c(F)c(F)c(F)c4F)c4nc(c(-c5c(F)c(F)c(F)c(F)c5F)c5ccc2[nH]5)C=C4)C=C3)cc1
REMARK SMILES IDX 6 1 5 2 4 3 3 4 1 5 2 6 31 8 32 9 93 10 33 11 92 12 34 13
REMARK SMILES IDX 35 14 36 15 86 16 37 17 91 18 85 19 87 20 38 21 90 22 84 23
REMARK SMILES IDX 83 24 39 26 71 27 51 28 70 29 52 30 55 31 69 32 88 33 53 34
REMARK SMILES IDX 54 35 68 37 89 38 56 39 40 40 41 41 49 42 42 43 43 44 47 45
REMARK SMILES IDX 50 46 44 47 45 48 48 49 46 50 72 51 73 52 81 53 74 54 75 55
REMARK SMILES IDX 79 56 82 57 76 58 77 59 80 60 78 61 57 62 58 63 66 64 59 65
REMARK SMILES IDX 60 66 64 67 67 68 61 69 62 70 65 71 63 72 7 73 8 74 9 76
REMARK SMILES IDX 10 77 11 78 30 79 12 80 29 81 13 82 28 83 14 84 26 85 15 87
REMARK SMILES IDX 16 88 27 89 17 90 18 91 19 92 20 93 21 94 25 95 22 97 24 98
REMARK SMILES IDX 23 99
REMARK H PARENT 3 7 87 25 55 36 7 75 28 86 20 96
REMARK Flexibility Score: inf
ROOT
ATOM      1  C   UNL A   1      31.367  30.210  25.315  1.00  0.00     0.118 C 
ENDROOT
BRANCH   1   2
ATOM      2  C   UNL A   1      31.157  31.542  26.030  1.00  0.00     0.042 C 
BRANCH   2   3
ATOM      3  C   UNL A   1      32.338  31.993  26.886  1.00  0.00     0.118 C 
BRANCH   3   4
ATOM      4  N   UNL A   1      32.277  33.405  27.228  1.00  0.00    -0.352 N 
ATOM      5  O   UNL A   1      32.697  35.290  28.372  1.00  0.00    -0.269 OA
ATOM      6  C   UNL A   1      33.029  34.137  28.110  1.00  0.00     0.251 C 
ATOM      7  H   UNL A   1      31.586  33.917  26.749  1.00  0.00     0.163 HD
BRANCH   6   8
ATOM      8  C   UNL A   1      34.230  33.560  28.756  1.00  0.00     0.039 A 
ATOM      9  C   UNL A   1      34.088  32.381  29.497  1.00  0.00     0.014 A 
ATOM     10  C   UNL A   1      35.470  34.202  28.704  1.00  0.00     0.014 A 
ATOM     11  C   UNL A   1      35.190  31.834  30.158  1.00  0.00     0.010 A 
ATOM     12  C   UNL A   1      36.583  33.620  29.305  1.00  0.00     0.010 A 
ATOM     13  C   UNL A   1      36.450  32.443  30.058  1.00  0.00    -0.014 A 
BRANCH  13  14
ATOM     14  C   UNL A   1      37.624  31.916  30.797  1.00  0.00     0.031 A 
ATOM     15  C   UNL A   1      38.498  30.875  30.152  1.00  0.00     0.074 A 
ATOM     16  C   UNL A   1      37.889  32.340  32.046  1.00  0.00     0.049 A 
ATOM     17  N   UNL A   1      39.497  30.198  30.660  1.00  0.00    -0.248 NA
ATOM     18  C   UNL A   1      38.191  30.532  28.754  1.00  0.00     0.031 C 
ATOM     19  C   UNL A   1      37.118  33.342  32.782  1.00  0.00     0.029 A 
ATOM     20  N   UNL A   1      38.883  31.976  32.920  1.00  0.00    -0.354 N 
ATOM     21  C   UNL A   1      39.917  29.337  29.657  1.00  0.00     0.074 A 
ATOM     22  C   UNL A   1      39.042  29.544  28.523  1.00  0.00     0.031 C 
ATOM     23  C   UNL A   1      37.684  33.533  33.985  1.00  0.00     0.029 A 
ATOM     24  C   UNL A   1      38.832  32.640  34.121  1.00  0.00     0.049 A 
ATOM     25  H   UNL A   1      39.568  31.302  32.706  1.00  0.00     0.167 HD
ATOM     26  C   UNL A   1      40.954  28.466  29.669  1.00  0.00     0.037 A 
ATOM     27  C   UNL A   1      39.620  32.534  35.207  1.00  0.00     0.037 A 
ATOM     28  C   UNL A   1      41.851  28.291  30.779  1.00  0.00     0.049 A 
ATOM     29  C   UNL A   1      40.761  31.553  35.200  1.00  0.00     0.074 A 
ATOM     30  C   UNL A   1      42.947  27.452  30.879  1.00  0.00     0.029 A 
ATOM     31  N   UNL A   1      41.763  28.984  31.978  1.00  0.00    -0.354 N 
ATOM     32  N   UNL A   1      41.146  30.741  34.247  1.00  0.00    -0.248 NA
ATOM     33  C   UNL A   1      41.573  31.473  36.423  1.00  0.00     0.031 C 
ATOM     34  C   UNL A   1      43.510  27.620  32.148  1.00  0.00     0.029 A 
ATOM     35  C   UNL A   1      42.785  28.588  32.825  1.00  0.00     0.049 A 
ATOM     36  H   UNL A   1      41.078  29.656  32.194  1.00  0.00     0.167 HD
ATOM     37  C   UNL A   1      42.254  30.068  34.743  1.00  0.00     0.074 A 
ATOM     38  C   UNL A   1      42.488  30.576  36.080  1.00  0.00     0.031 C 
ATOM     39  C   UNL A   1      43.007  29.113  34.146  1.00  0.00     0.037 A 
BRANCH  26  40
ATOM     40  C   UNL A   1      41.182  27.643  28.438  1.00  0.00     0.064 A 
ATOM     41  C   UNL A   1      40.509  26.429  28.235  1.00  0.00     0.173 A 
ATOM     42  C   UNL A   1      42.052  28.089  27.431  1.00  0.00     0.173 A 
ATOM     43  F   UNL A   1      39.680  25.952  29.176  1.00  0.00    -0.203 F 
ATOM     44  C   UNL A   1      40.714  25.681  27.079  1.00  0.00     0.198 A 
ATOM     45  C   UNL A   1      42.234  27.352  26.265  1.00  0.00     0.198 A 
ATOM     46  F   UNL A   1      42.716  29.245  27.575  1.00  0.00    -0.203 F 
ATOM     47  F   UNL A   1      40.093  24.504  26.926  1.00  0.00    -0.200 F 
ATOM     48  C   UNL A   1      41.571  26.145  26.092  1.00  0.00     0.200 A 
ATOM     49  F   UNL A   1      43.055  27.806  25.307  1.00  0.00    -0.200 F 
ATOM     50  F   UNL A   1      41.761  25.428  24.976  1.00  0.00    -0.200 F 
ENDBRANCH  26  40
BRANCH  27  51
ATOM     51  C   UNL A   1      39.375  33.407  36.383  1.00  0.00     0.064 A 
ATOM     52  C   UNL A   1      39.924  34.695  36.439  1.00  0.00     0.173 A 
ATOM     53  C   UNL A   1      38.586  32.983  37.461  1.00  0.00     0.173 A 
ATOM     54  F   UNL A   1      40.704  35.135  35.441  1.00  0.00    -0.203 F 
ATOM     55  C   UNL A   1      39.699  35.525  37.535  1.00  0.00     0.198 A 
ATOM     56  C   UNL A   1      38.342  33.823  38.546  1.00  0.00     0.198 A 
ATOM     57  F   UNL A   1      38.038  31.759  37.452  1.00  0.00    -0.203 F 
ATOM     58  F   UNL A   1      40.260  36.742  37.579  1.00  0.00    -0.200 F 
ATOM     59  C   UNL A   1      38.903  35.091  38.585  1.00  0.00     0.200 A 
ATOM     60  F   UNL A   1      37.565  33.404  39.553  1.00  0.00    -0.200 F 
ATOM     61  F   UNL A   1      38.679  35.893  39.635  1.00  0.00    -0.200 F 
ENDBRANCH  27  51
BRANCH  39  62
ATOM     62  C   UNL A   1      44.170  28.569  34.919  1.00  0.00     0.064 A 
ATOM     63  C   UNL A   1      45.425  29.193  34.887  1.00  0.00     0.173 A 
ATOM     64  C   UNL A   1      44.007  27.453  35.754  1.00  0.00     0.173 A 
ATOM     65  F   UNL A   1      45.630  30.255  34.095  1.00  0.00    -0.203 F 
ATOM     66  C   UNL A   1      46.480  28.710  35.656  1.00  0.00     0.198 A 
ATOM     67  C   UNL A   1      45.059  26.987  36.538  1.00  0.00     0.198 A 
ATOM     68  F   UNL A   1      42.822  26.827  35.823  1.00  0.00    -0.203 F 
ATOM     69  F   UNL A   1      47.680  29.303  35.589  1.00  0.00    -0.200 F 
ATOM     70  C   UNL A   1      46.294  27.614  36.486  1.00  0.00     0.200 A 
ATOM     71  F   UNL A   1      44.875  25.935  37.347  1.00  0.00    -0.200 F 
ATOM     72  F   UNL A   1      47.310  27.160  37.233  1.00  0.00    -0.200 F 
ENDBRANCH  39  62
ENDBRANCH  13  14
ENDBRANCH   6   8
ENDBRANCH   3   4
ENDBRANCH   2   3
ENDBRANCH   1   2
BRANCH   1  73
ATOM     73  N   UNL A   1      30.586  30.136  24.090  1.00  0.00    -0.352 N 
ATOM     74  C   UNL A   1      30.478  29.104  23.200  1.00  0.00     0.251 C 
ATOM     75  H   UNL A   1      30.062  30.941  23.872  1.00  0.00     0.163 HD
ATOM     76  O   UNL A   1      30.031  29.293  22.071  1.00  0.00    -0.269 OA
BRANCH  74  77
ATOM     77  C   UNL A   1      30.875  27.743  23.601  1.00  0.00     0.041 A 
ATOM     78  C   UNL A   1      30.124  27.067  24.573  1.00  0.00     0.015 A 
ATOM     79  C   UNL A   1      31.944  27.118  22.947  1.00  0.00     0.040 A 
ATOM     80  C   UNL A   1      30.440  25.750  24.888  1.00  0.00     0.017 A 
ATOM     81  C   UNL A   1      32.285  25.818  23.309  1.00  0.00     0.056 A 
ATOM     82  C   UNL A   1      31.513  25.133  24.240  1.00  0.00     0.064 A 
ATOM     83  N   UNL A   1      33.414  25.194  22.779  1.00  0.00    -0.307 N 
ATOM     84  C   UNL A   1      31.856  23.735  24.524  1.00  0.00     0.264 A 
ATOM     85  C   UNL A   1      33.906  23.997  23.241  1.00  0.00     0.328 A 
ATOM     86  H   UNL A   1      33.883  25.634  22.033  1.00  0.00     0.171 HD
ATOM     87  O   UNL A   1      30.996  23.010  25.016  1.00  0.00    -0.268 OA
ATOM     88  N   UNL A   1      33.147  23.346  24.202  1.00  0.00    -0.260 N 
ATOM     89  O   UNL A   1      34.972  23.579  22.796  1.00  0.00    -0.248 OA
BRANCH  88  90
ATOM     90  C   UNL A   1      33.664  22.123  24.820  1.00  0.00     0.137 C 
BRANCH  90  91
ATOM     91  C   UNL A   1      33.249  20.859  24.043  1.00  0.00     0.083 C 
BRANCH  91  92
ATOM     92  C   UNL A   1      33.583  19.523  24.731  1.00  0.00     0.264 C 
BRANCH  92  93
ATOM     93  N   UNL A   1      32.601  18.481  24.407  1.00  0.00    -0.331 N 
ATOM     94  C   UNL A   1      32.527  17.421  25.438  1.00  0.00     0.291 C 
ATOM     95  C   UNL A   1      32.865  17.830  23.104  1.00  0.00     0.291 C 
ATOM     96  H   UNL A   1      31.713  18.979  24.365  1.00  0.00     0.348 HD
ATOM     97  C   UNL A   1      33.716  16.454  25.430  1.00  0.00     0.221 C 
ATOM     98  C   UNL A   1      34.028  16.817  23.125  1.00  0.00     0.221 C 
ATOM     99  O   UNL A   1      33.863  15.829  24.151  1.00  0.00    -0.370 OA
ENDBRANCH  92  93
ENDBRANCH  91  92
ENDBRANCH  90  91
ENDBRANCH  88  90
ENDBRANCH  74  77
ENDBRANCH   1  73
TORSDOF 14
ENDMDL
