MODEL 1
REMARK VINA RESULT:     -13.2      0.000      0.000
REMARK SMILES CCc1c(Cl)ccc2c1C=C(C(=O)NCCCNC(=O)c1ccc(-c3c4nc(c(-c5c(F)c(F)c(F)c(F)c5F)c5ccc([nH]5)c(-c5c(F)c(F)c(F)c(F)c5F)c5nc(c(-c6c(F)c(F)c(F)c(F)c6F)c6ccc3[nH]6)C=C5)C=C4)cc1)[C@@H](C(F)(F)F)O2
REMARK SMILES IDX 16 1 15 2 14 3 12 4 13 5 11 7 3 8 4 9 9 10 5 11 6 12 8 13
REMARK SMILES IDX 10 14 7 15 89 16 84 17 2 18 1 19 85 20 86 21 87 22 88 23
REMARK SMILES IDX 17 24 18 25 19 26 20 28 21 29 22 30 83 31 23 32 82 33 24 34
REMARK SMILES IDX 25 35 26 36 76 37 27 38 81 39 75 40 77 41 28 42 80 43 74 44
REMARK SMILES IDX 73 45 29 47 61 48 41 49 60 50 42 51 45 52 59 53 78 54 43 55
REMARK SMILES IDX 44 56 58 58 79 59 46 60 30 61 31 62 39 63 32 64 33 65 37 66
REMARK SMILES IDX 40 67 34 68 35 69 38 70 36 71 62 72 63 73 71 74 64 75 65 76
REMARK SMILES IDX 69 77 72 78 66 79 67 80 70 81 68 82 47 83 48 84 56 85 49 86
REMARK SMILES IDX 50 87 54 88 57 89 51 90 52 91 55 92 53 93
REMARK H PARENT 14 6 18 27 77 46 45 57
REMARK Flexibility Score: inf
ROOT
ATOM      1  C   UNL A   1      31.524  32.053  26.506  1.00  0.00     0.042 C 
ENDROOT
BRANCH   1   2
ATOM      2  C   UNL A   1      31.588  30.534  26.447  1.00  0.00     0.118 C 
BRANCH   2   3
ATOM      3  N   UNL A   1      32.447  30.071  25.366  1.00  0.00    -0.352 N 
ATOM      4  C   UNL A   1      32.856  28.888  24.856  1.00  0.00     0.251 C 
ATOM      5  O   UNL A   1      33.646  28.976  23.910  1.00  0.00    -0.270 OA
ATOM      6  H   UNL A   1      32.837  30.828  24.872  1.00  0.00     0.163 HD
BRANCH   4   7
ATOM      7  C   UNL A   1      32.428  27.541  25.338  1.00  0.00     0.067 C 
ATOM      8  C   UNL A   1      33.998  24.152  25.746  1.00  0.00    -0.019 A 
ATOM      9  C   UNL A   1      33.558  22.891  26.209  1.00  0.00     0.045 A 
ATOM     10  C   UNL A   1      33.080  25.243  25.860  1.00  0.00     0.022 A 
ATOM     11  Cl  UNL A   1      34.494  21.439  26.175  1.00  0.00    -0.084 Cl
ATOM     12  C   UNL A   1      32.278  22.726  26.762  1.00  0.00     0.024 A 
ATOM     13  C   UNL A   1      31.803  25.044  26.413  1.00  0.00     0.128 A 
ATOM     14  C   UNL A   1      33.403  26.620  25.450  1.00  0.00     0.026 C 
ATOM     15  C   UNL A   1      31.406  23.800  26.872  1.00  0.00     0.048 A 
ATOM     16  O   UNL A   1      30.893  26.050  26.578  1.00  0.00    -0.475 OA
ATOM     17  C   UNL A   1      31.015  27.170  25.664  1.00  0.00     0.314 C 
BRANCH   8  18
ATOM     18  C   UNL A   1      35.367  24.453  25.146  1.00  0.00     0.034 C 
ATOM     19  C   UNL A   1      36.674  24.018  25.791  1.00  0.00     0.009 C 
ENDBRANCH   8  18
BRANCH  17  20
ATOM     20  C   UNL A   1      30.150  26.919  24.414  1.00  0.00     0.429 C 
ATOM     21  F   UNL A   1      29.750  28.097  23.875  1.00  0.00    -0.167 F 
ATOM     22  F   UNL A   1      30.824  26.261  23.441  1.00  0.00    -0.167 F 
ATOM     23  F   UNL A   1      29.040  26.195  24.679  1.00  0.00    -0.167 F 
ENDBRANCH  17  20
ENDBRANCH   4   7
ENDBRANCH   2   3
ENDBRANCH   1   2
BRANCH   1  24
ATOM     24  C   UNL A   1      32.708  32.657  27.251  1.00  0.00     0.118 C 
BRANCH  24  25
ATOM     25  N   UNL A   1      32.472  34.049  27.626  1.00  0.00    -0.352 N 
ATOM     26  C   UNL A   1      33.028  34.813  28.625  1.00  0.00     0.251 C 
ATOM     27  H   UNL A   1      31.808  34.518  27.072  1.00  0.00     0.163 HD
ATOM     28  O   UNL A   1      32.528  35.897  28.915  1.00  0.00    -0.269 OA
BRANCH  26  29
ATOM     29  C   UNL A   1      34.208  34.325  29.366  1.00  0.00     0.039 A 
ATOM     30  C   UNL A   1      35.494  34.578  28.890  1.00  0.00     0.014 A 
ATOM     31  C   UNL A   1      34.032  33.612  30.556  1.00  0.00     0.014 A 
ATOM     32  C   UNL A   1      36.581  33.951  29.482  1.00  0.00     0.010 A 
ATOM     33  C   UNL A   1      35.141  33.072  31.215  1.00  0.00     0.010 A 
ATOM     34  C   UNL A   1      36.420  33.191  30.651  1.00  0.00    -0.014 A 
BRANCH  34  35
ATOM     35  C   UNL A   1      37.609  32.529  31.249  1.00  0.00     0.031 A 
ATOM     36  C   UNL A   1      38.049  32.859  32.649  1.00  0.00     0.074 A 
ATOM     37  C   UNL A   1      38.237  31.562  30.552  1.00  0.00     0.049 A 
ATOM     38  N   UNL A   1      39.041  32.355  33.341  1.00  0.00    -0.248 NA
ATOM     39  C   UNL A   1      37.283  33.888  33.369  1.00  0.00     0.031 C 
ATOM     40  C   UNL A   1      37.887  31.144  29.193  1.00  0.00     0.029 A 
ATOM     41  N   UNL A   1      39.268  30.727  30.900  1.00  0.00    -0.354 N 
ATOM     42  C   UNL A   1      39.031  33.019  34.561  1.00  0.00     0.074 A 
ATOM     43  C   UNL A   1      37.951  33.980  34.511  1.00  0.00     0.031 C 
ATOM     44  C   UNL A   1      38.635  30.084  28.852  1.00  0.00     0.029 A 
ATOM     45  C   UNL A   1      39.568  29.795  29.936  1.00  0.00     0.049 A 
ATOM     46  H   UNL A   1      39.748  30.789  31.757  1.00  0.00     0.167 HD
ATOM     47  C   UNL A   1      39.841  32.831  35.630  1.00  0.00     0.037 A 
ATOM     48  C   UNL A   1      40.497  28.822  29.920  1.00  0.00     0.037 A 
ATOM     49  C   UNL A   1      40.891  31.849  35.688  1.00  0.00     0.049 A 
ATOM     50  C   UNL A   1      41.404  28.662  31.105  1.00  0.00     0.074 A 
ATOM     51  C   UNL A   1      41.760  31.577  36.731  1.00  0.00     0.029 A 
ATOM     52  N   UNL A   1      41.210  30.971  34.662  1.00  0.00    -0.354 N 
ATOM     53  N   UNL A   1      41.394  29.309  32.244  1.00  0.00    -0.248 NA
ATOM     54  C   UNL A   1      42.463  27.649  30.996  1.00  0.00     0.031 C 
ATOM     55  C   UNL A   1      42.627  30.558  36.324  1.00  0.00     0.029 A 
ATOM     56  C   UNL A   1      42.273  30.167  35.043  1.00  0.00     0.049 A 
ATOM     57  H   UNL A   1      40.750  30.927  33.794  1.00  0.00     0.167 HD
ATOM     58  C   UNL A   1      42.440  28.785  32.989  1.00  0.00     0.074 A 
ATOM     59  C   UNL A   1      43.047  27.745  32.183  1.00  0.00     0.031 C 
ATOM     60  C   UNL A   1      42.865  29.140  34.225  1.00  0.00     0.037 A 
BRANCH  47  61
ATOM     61  C   UNL A   1      39.634  33.707  36.831  1.00  0.00     0.064 A 
ATOM     62  C   UNL A   1      40.198  34.988  36.911  1.00  0.00     0.173 A 
ATOM     63  C   UNL A   1      38.800  33.290  37.879  1.00  0.00     0.173 A 
ATOM     64  F   UNL A   1      41.013  35.429  35.941  1.00  0.00    -0.203 F 
ATOM     65  C   UNL A   1      39.944  35.816  38.003  1.00  0.00     0.198 A 
ATOM     66  C   UNL A   1      38.528  34.128  38.958  1.00  0.00     0.198 A 
ATOM     67  F   UNL A   1      38.231  32.075  37.848  1.00  0.00    -0.203 F 
ATOM     68  F   UNL A   1      40.517  37.025  38.072  1.00  0.00    -0.200 F 
ATOM     69  C   UNL A   1      39.102  35.389  39.019  1.00  0.00     0.200 A 
ATOM     70  F   UNL A   1      37.705  33.719  39.933  1.00  0.00    -0.200 F 
ATOM     71  F   UNL A   1      38.846  36.192  40.061  1.00  0.00    -0.200 F 
ENDBRANCH  47  61
BRANCH  48  72
ATOM     72  C   UNL A   1      40.608  27.932  28.736  1.00  0.00     0.064 A 
ATOM     73  C   UNL A   1      39.919  26.714  28.685  1.00  0.00     0.173 A 
ATOM     74  C   UNL A   1      41.378  28.295  27.621  1.00  0.00     0.173 A 
ATOM     75  F   UNL A   1      39.186  26.313  29.735  1.00  0.00    -0.203 F 
ATOM     76  C   UNL A   1      39.996  25.891  27.562  1.00  0.00     0.198 A 
ATOM     77  C   UNL A   1      41.431  27.486  26.488  1.00  0.00     0.198 A 
ATOM     78  F   UNL A   1      42.054  29.453  27.620  1.00  0.00    -0.203 F 
ATOM     79  F   UNL A   1      39.348  24.718  27.549  1.00  0.00    -0.200 F 
ATOM     80  C   UNL A   1      40.742  26.283  26.461  1.00  0.00     0.200 A 
ATOM     81  F   UNL A   1      42.139  27.878  25.420  1.00  0.00    -0.200 F 
ATOM     82  F   UNL A   1      40.802  25.500  25.376  1.00  0.00    -0.200 F 
ENDBRANCH  48  72
BRANCH  60  83
ATOM     83  C   UNL A   1      44.039  28.399  34.786  1.00  0.00     0.064 A 
ATOM     84  C   UNL A   1      45.345  28.893  34.646  1.00  0.00     0.173 A 
ATOM     85  C   UNL A   1      43.853  27.221  35.524  1.00  0.00     0.173 A 
ATOM     86  F   UNL A   1      45.572  30.008  33.936  1.00  0.00    -0.203 F 
ATOM     87  C   UNL A   1      46.424  28.224  35.215  1.00  0.00     0.198 A 
ATOM     88  C   UNL A   1      44.933  26.569  36.112  1.00  0.00     0.198 A 
ATOM     89  F   UNL A   1      42.622  26.715  35.691  1.00  0.00    -0.203 F 
ATOM     90  F   UNL A   1      47.667  28.695  35.043  1.00  0.00    -0.200 F 
ATOM     91  C   UNL A   1      46.217  27.069  35.954  1.00  0.00     0.200 A 
ATOM     92  F   UNL A   1      44.730  25.460  36.836  1.00  0.00    -0.200 F 
ATOM     93  F   UNL A   1      47.258  26.434  36.512  1.00  0.00    -0.200 F 
ENDBRANCH  60  83
ENDBRANCH  34  35
ENDBRANCH  26  29
ENDBRANCH  24  25
ENDBRANCH   1  24
TORSDOF 12
ENDMDL
MODEL 2
REMARK VINA RESULT:     -13.2      5.681     10.650
REMARK SMILES CCc1c(Cl)ccc2c1C=C(C(=O)NCCCNC(=O)c1ccc(-c3c4nc(c(-c5c(F)c(F)c(F)c(F)c5F)c5ccc([nH]5)c(-c5c(F)c(F)c(F)c(F)c5F)c5nc(c(-c6c(F)c(F)c(F)c(F)c6F)c6ccc3[nH]6)C=C5)C=C4)cc1)[C@@H](C(F)(F)F)O2
REMARK SMILES IDX 16 1 15 2 14 3 12 4 13 5 11 7 3 8 4 9 9 10 5 11 6 12 8 13
REMARK SMILES IDX 10 14 7 15 89 16 84 17 2 18 1 19 85 20 86 21 87 22 88 23
REMARK SMILES IDX 17 24 18 25 19 26 20 28 21 29 22 30 83 31 23 32 82 33 24 34
REMARK SMILES IDX 25 35 26 36 76 37 27 38 81 39 75 40 77 41 28 42 80 43 74 44
REMARK SMILES IDX 73 45 29 47 61 48 41 49 60 50 42 51 45 52 59 53 78 54 43 55
REMARK SMILES IDX 44 56 58 58 79 59 46 60 30 61 31 62 39 63 32 64 33 65 37 66
REMARK SMILES IDX 40 67 34 68 35 69 38 70 36 71 62 72 63 73 71 74 64 75 65 76
REMARK SMILES IDX 69 77 72 78 66 79 67 80 70 81 68 82 47 83 48 84 56 85 49 86
REMARK SMILES IDX 50 87 54 88 57 89 51 90 52 91 55 92 53 93
REMARK H PARENT 14 6 18 27 77 46 45 57
REMARK Flexibility Score: inf
ROOT
ATOM      1  C   UNL A   1      37.980  19.828  25.017  1.00  0.00     0.042 C 
ENDROOT
BRANCH   1   2
ATOM      2  C   UNL A   1      37.103  21.009  24.629  1.00  0.00     0.118 C 
BRANCH   2   3
ATOM      3  N   UNL A   1      36.167  21.358  25.688  1.00  0.00    -0.352 N 
ATOM      4  C   UNL A   1      35.138  22.217  25.864  1.00  0.00     0.251 C 
ATOM      5  O   UNL A   1      34.626  22.189  26.988  1.00  0.00    -0.270 OA
ATOM      6  H   UNL A   1      36.326  20.819  26.496  1.00  0.00     0.163 HD
BRANCH   4   7
ATOM      7  C   UNL A   1      34.603  23.153  24.832  1.00  0.00     0.067 C 
ATOM      8  C   UNL A   1      33.346  26.693  24.732  1.00  0.00    -0.019 A 
ATOM      9  C   UNL A   1      32.844  27.552  23.728  1.00  0.00     0.045 A 
ATOM     10  C   UNL A   1      33.829  25.413  24.311  1.00  0.00     0.022 A 
ATOM     11  Cl  UNL A   1      32.216  29.139  24.002  1.00  0.00    -0.084 Cl
ATOM     12  C   UNL A   1      32.827  27.161  22.379  1.00  0.00     0.024 A 
ATOM     13  C   UNL A   1      33.793  25.051  22.954  1.00  0.00     0.128 A 
ATOM     14  C   UNL A   1      34.408  24.423  25.234  1.00  0.00     0.026 C 
ATOM     15  C   UNL A   1      33.308  25.919  21.991  1.00  0.00     0.048 A 
ATOM     16  O   UNL A   1      34.266  23.857  22.485  1.00  0.00    -0.475 OA
ATOM     17  C   UNL A   1      34.256  22.757  23.430  1.00  0.00     0.314 C 
BRANCH   8  18
ATOM     18  C   UNL A   1      33.430  27.015  26.220  1.00  0.00     0.034 C 
ATOM     19  C   UNL A   1      34.114  28.258  26.767  1.00  0.00     0.009 C 
ENDBRANCH   8  18
BRANCH  17  20
ATOM     20  C   UNL A   1      32.923  21.994  23.327  1.00  0.00     0.429 C 
ATOM     21  F   UNL A   1      33.087  20.706  23.721  1.00  0.00    -0.167 F 
ATOM     22  F   UNL A   1      31.962  22.518  24.125  1.00  0.00    -0.167 F 
ATOM     23  F   UNL A   1      32.422  21.975  22.073  1.00  0.00    -0.167 F 
ENDBRANCH  17  20
ENDBRANCH   4   7
ENDBRANCH   2   3
ENDBRANCH   1   2
BRANCH   1  24
ATOM     24  C   UNL A   1      39.170  20.244  25.873  1.00  0.00     0.118 C 
BRANCH  24  25
ATOM     25  N   UNL A   1      40.207  19.215  25.915  1.00  0.00    -0.352 N 
ATOM     26  C   UNL A   1      41.567  19.322  26.082  1.00  0.00     0.251 C 
ATOM     27  H   UNL A   1      39.877  18.294  25.807  1.00  0.00     0.163 HD
ATOM     28  O   UNL A   1      42.288  18.352  25.861  1.00  0.00    -0.269 OA
BRANCH  26  29
ATOM     29  C   UNL A   1      42.168  20.604  26.504  1.00  0.00     0.039 A 
ATOM     30  C   UNL A   1      42.244  20.936  27.855  1.00  0.00     0.014 A 
ATOM     31  C   UNL A   1      42.667  21.484  25.538  1.00  0.00     0.014 A 
ATOM     32  C   UNL A   1      42.626  22.217  28.227  1.00  0.00     0.010 A 
ATOM     33  C   UNL A   1      43.155  22.736  25.925  1.00  0.00     0.010 A 
ATOM     34  C   UNL A   1      43.086  23.134  27.269  1.00  0.00    -0.014 A 
BRANCH  34  35
ATOM     35  C   UNL A   1      43.477  24.499  27.707  1.00  0.00     0.031 A 
ATOM     36  C   UNL A   1      44.918  24.932  27.680  1.00  0.00     0.074 A 
ATOM     37  C   UNL A   1      42.513  25.377  28.046  1.00  0.00     0.049 A 
ATOM     38  N   UNL A   1      45.435  26.094  27.994  1.00  0.00    -0.248 NA
ATOM     39  C   UNL A   1      45.911  23.935  27.248  1.00  0.00     0.031 C 
ATOM     40  C   UNL A   1      41.081  25.075  28.091  1.00  0.00     0.029 A 
ATOM     41  N   UNL A   1      42.582  26.707  28.374  1.00  0.00    -0.354 N 
ATOM     42  C   UNL A   1      46.807  25.960  27.820  1.00  0.00     0.074 A 
ATOM     43  C   UNL A   1      47.049  24.598  27.396  1.00  0.00     0.031 C 
ATOM     44  C   UNL A   1      40.402  26.202  28.351  1.00  0.00     0.029 A 
ATOM     45  C   UNL A   1      41.352  27.289  28.564  1.00  0.00     0.049 A 
ATOM     46  H   UNL A   1      43.430  27.198  28.464  1.00  0.00     0.167 HD
ATOM     47  C   UNL A   1      47.772  26.895  27.986  1.00  0.00     0.037 A 
ATOM     48  C   UNL A   1      41.023  28.553  28.886  1.00  0.00     0.037 A 
ATOM     49  C   UNL A   1      47.523  28.258  28.374  1.00  0.00     0.049 A 
ATOM     50  C   UNL A   1      42.118  29.558  29.098  1.00  0.00     0.074 A 
ATOM     51  C   UNL A   1      48.435  29.282  28.558  1.00  0.00     0.029 A 
ATOM     52  N   UNL A   1      46.267  28.790  28.627  1.00  0.00    -0.354 N 
ATOM     53  N   UNL A   1      43.411  29.412  28.949  1.00  0.00    -0.248 NA
ATOM     54  C   UNL A   1      41.710  30.898  29.543  1.00  0.00     0.031 C 
ATOM     55  C   UNL A   1      47.736  30.425  28.958  1.00  0.00     0.029 A 
ATOM     56  C   UNL A   1      46.383  30.124  28.982  1.00  0.00     0.049 A 
ATOM     57  H   UNL A   1      45.420  28.293  28.564  1.00  0.00     0.167 HD
ATOM     58  C   UNL A   1      43.973  30.637  29.277  1.00  0.00     0.074 A 
ATOM     59  C   UNL A   1      42.877  31.524  29.608  1.00  0.00     0.031 C 
ATOM     60  C   UNL A   1      45.280  30.990  29.311  1.00  0.00     0.037 A 
BRANCH  47  61
ATOM     61  C   UNL A   1      49.196  26.482  27.755  1.00  0.00     0.064 A 
ATOM     62  C   UNL A   1      49.728  26.370  26.462  1.00  0.00     0.173 A 
ATOM     63  C   UNL A   1      50.059  26.269  28.841  1.00  0.00     0.173 A 
ATOM     64  F   UNL A   1      48.942  26.551  25.391  1.00  0.00    -0.203 F 
ATOM     65  C   UNL A   1      51.070  26.049  26.265  1.00  0.00     0.198 A 
ATOM     66  C   UNL A   1      51.405  25.971  28.641  1.00  0.00     0.198 A 
ATOM     67  F   UNL A   1      49.601  26.369  30.098  1.00  0.00    -0.203 F 
ATOM     68  F   UNL A   1      51.549  25.920  25.021  1.00  0.00    -0.200 F 
ATOM     69  C   UNL A   1      51.908  25.860  27.354  1.00  0.00     0.200 A 
ATOM     70  F   UNL A   1      52.217  25.800  29.694  1.00  0.00    -0.200 F 
ATOM     71  F   UNL A   1      53.202  25.567  27.162  1.00  0.00    -0.200 F 
ENDBRANCH  47  61
BRANCH  48  72
ATOM     72  C   UNL A   1      39.593  28.928  29.026  1.00  0.00     0.064 A 
ATOM     73  C   UNL A   1      38.849  29.353  27.919  1.00  0.00     0.173 A 
ATOM     74  C   UNL A   1      38.934  28.837  30.262  1.00  0.00     0.173 A 
ATOM     75  F   UNL A   1      39.440  29.475  26.721  1.00  0.00    -0.203 F 
ATOM     76  C   UNL A   1      37.498  29.674  28.041  1.00  0.00     0.198 A 
ATOM     77  C   UNL A   1      37.577  29.131  30.377  1.00  0.00     0.198 A 
ATOM     78  F   UNL A   1      39.601  28.433  31.352  1.00  0.00    -0.203 F 
ATOM     79  F   UNL A   1      36.815  30.105  26.971  1.00  0.00    -0.200 F 
ATOM     80  C   UNL A   1      36.861  29.553  29.266  1.00  0.00     0.200 A 
ATOM     81  F   UNL A   1      36.962  28.995  31.559  1.00  0.00    -0.200 F 
ATOM     82  F   UNL A   1      35.559  29.846  29.379  1.00  0.00    -0.200 F 
ENDBRANCH  48  72
BRANCH  60  83
ATOM     83  C   UNL A   1      45.601  32.396  29.717  1.00  0.00     0.064 A 
ATOM     84  C   UNL A   1      45.882  32.721  31.051  1.00  0.00     0.173 A 
ATOM     85  C   UNL A   1      45.688  33.413  28.755  1.00  0.00     0.173 A 
ATOM     86  F   UNL A   1      45.797  31.784  32.007  1.00  0.00    -0.203 F 
ATOM     87  C   UNL A   1      46.229  34.021  31.410  1.00  0.00     0.198 A 
ATOM     88  C   UNL A   1      46.059  34.705  29.114  1.00  0.00     0.198 A 
ATOM     89  F   UNL A   1      45.434  33.148  27.464  1.00  0.00    -0.203 F 
ATOM     90  F   UNL A   1      46.464  34.318  32.695  1.00  0.00    -0.200 F 
ATOM     91  C   UNL A   1      46.326  35.009  30.442  1.00  0.00     0.200 A 
ATOM     92  F   UNL A   1      46.164  35.656  28.176  1.00  0.00    -0.200 F 
ATOM     93  F   UNL A   1      46.672  36.257  30.788  1.00  0.00    -0.200 F 
ENDBRANCH  60  83
ENDBRANCH  34  35
ENDBRANCH  26  29
ENDBRANCH  24  25
ENDBRANCH   1  24
TORSDOF 12
ENDMDL
MODEL 3
REMARK VINA RESULT:     -13.2      0.168      1.652
REMARK SMILES CCc1c(Cl)ccc2c1C=C(C(=O)NCCCNC(=O)c1ccc(-c3c4nc(c(-c5c(F)c(F)c(F)c(F)c5F)c5ccc([nH]5)c(-c5c(F)c(F)c(F)c(F)c5F)c5nc(c(-c6c(F)c(F)c(F)c(F)c6F)c6ccc3[nH]6)C=C5)C=C4)cc1)[C@@H](C(F)(F)F)O2
REMARK SMILES IDX 16 1 15 2 14 3 12 4 13 5 11 7 3 8 4 9 9 10 5 11 6 12 8 13
REMARK SMILES IDX 10 14 7 15 89 16 84 17 2 18 1 19 85 20 86 21 87 22 88 23
REMARK SMILES IDX 17 24 18 25 19 26 20 28 21 29 22 30 83 31 23 32 82 33 24 34
REMARK SMILES IDX 25 35 26 36 76 37 27 38 81 39 75 40 77 41 28 42 80 43 74 44
REMARK SMILES IDX 73 45 29 47 61 48 41 49 60 50 42 51 45 52 59 53 78 54 43 55
REMARK SMILES IDX 44 56 58 58 79 59 46 60 30 61 31 62 39 63 32 64 33 65 37 66
REMARK SMILES IDX 40 67 34 68 35 69 38 70 36 71 62 72 63 73 71 74 64 75 65 76
REMARK SMILES IDX 69 77 72 78 66 79 67 80 70 81 68 82 47 83 48 84 56 85 49 86
REMARK SMILES IDX 50 87 54 88 57 89 51 90 52 91 55 92 53 93
REMARK H PARENT 14 6 18 27 77 46 45 57
REMARK Flexibility Score: inf
ROOT
ATOM      1  C   UNL A   1      31.442  32.033  26.492  1.00  0.00     0.042 C 
ENDROOT
BRANCH   1   2
ATOM      2  C   UNL A   1      31.518  30.514  26.437  1.00  0.00     0.118 C 
BRANCH   2   3
ATOM      3  N   UNL A   1      32.405  30.056  25.377  1.00  0.00    -0.352 N 
ATOM      4  C   UNL A   1      32.834  28.874  24.879  1.00  0.00     0.251 C 
ATOM      5  O   UNL A   1      33.644  28.966  23.951  1.00  0.00    -0.270 OA
ATOM      6  H   UNL A   1      32.800  30.814  24.889  1.00  0.00     0.163 HD
BRANCH   4   7
ATOM      7  C   UNL A   1      32.405  27.525  25.355  1.00  0.00     0.067 C 
ATOM      8  C   UNL A   1      33.993  24.149  25.807  1.00  0.00    -0.019 A 
ATOM      9  C   UNL A   1      33.552  22.887  26.264  1.00  0.00     0.045 A 
ATOM     10  C   UNL A   1      33.063  25.234  25.898  1.00  0.00     0.022 A 
ATOM     11  Cl  UNL A   1      34.501  21.442  26.255  1.00  0.00    -0.084 Cl
ATOM     12  C   UNL A   1      32.261  22.713  26.787  1.00  0.00     0.024 A 
ATOM     13  C   UNL A   1      31.776  25.026  26.422  1.00  0.00     0.128 A 
ATOM     14  C   UNL A   1      33.385  26.612  25.491  1.00  0.00     0.026 C 
ATOM     15  C   UNL A   1      31.378  23.780  26.875  1.00  0.00     0.048 A 
ATOM     16  O   UNL A   1      30.854  26.025  26.563  1.00  0.00    -0.475 OA
ATOM     17  C   UNL A   1      30.988  27.143  25.649  1.00  0.00     0.314 C 
BRANCH   8  18
ATOM     18  C   UNL A   1      35.373  24.460  25.238  1.00  0.00     0.034 C 
ATOM     19  C   UNL A   1      36.660  23.892  25.815  1.00  0.00     0.009 C 
ENDBRANCH   8  18
BRANCH  17  20
ATOM     20  C   UNL A   1      30.154  26.882  24.381  1.00  0.00     0.429 C 
ATOM     21  F   UNL A   1      29.090  26.092  24.673  1.00  0.00    -0.167 F 
ATOM     22  F   UNL A   1      29.651  28.021  23.848  1.00  0.00    -0.167 F 
ATOM     23  F   UNL A   1      30.859  26.271  23.404  1.00  0.00    -0.167 F 
ENDBRANCH  17  20
ENDBRANCH   4   7
ENDBRANCH   2   3
ENDBRANCH   1   2
BRANCH   1  24
ATOM     24  C   UNL A   1      32.620  32.647  27.240  1.00  0.00     0.118 C 
BRANCH  24  25
ATOM     25  N   UNL A   1      32.388  34.049  27.578  1.00  0.00    -0.352 N 
ATOM     26  C   UNL A   1      32.958  34.841  28.546  1.00  0.00     0.251 C 
ATOM     27  H   UNL A   1      31.714  34.501  27.022  1.00  0.00     0.163 HD
ATOM     28  O   UNL A   1      32.461  35.933  28.814  1.00  0.00    -0.269 OA
BRANCH  26  29
ATOM     29  C   UNL A   1      34.151  34.377  29.282  1.00  0.00     0.039 A 
ATOM     30  C   UNL A   1      35.428  34.589  28.763  1.00  0.00     0.014 A 
ATOM     31  C   UNL A   1      33.996  33.727  30.511  1.00  0.00     0.014 A 
ATOM     32  C   UNL A   1      36.522  33.978  29.359  1.00  0.00     0.010 A 
ATOM     33  C   UNL A   1      35.115  33.206  31.168  1.00  0.00     0.010 A 
ATOM     34  C   UNL A   1      36.381  33.280  30.568  1.00  0.00    -0.014 A 
BRANCH  34  35
ATOM     35  C   UNL A   1      37.577  32.634  31.170  1.00  0.00     0.031 A 
ATOM     36  C   UNL A   1      38.018  32.981  32.565  1.00  0.00     0.074 A 
ATOM     37  C   UNL A   1      38.211  31.665  30.481  1.00  0.00     0.049 A 
ATOM     38  N   UNL A   1      39.016  32.492  33.260  1.00  0.00    -0.248 NA
ATOM     39  C   UNL A   1      37.246  34.012  33.277  1.00  0.00     0.031 C 
ATOM     40  C   UNL A   1      37.861  31.230  29.127  1.00  0.00     0.029 A 
ATOM     41  N   UNL A   1      39.249  30.842  30.835  1.00  0.00    -0.354 N 
ATOM     42  C   UNL A   1      39.003  33.169  34.473  1.00  0.00     0.074 A 
ATOM     43  C   UNL A   1      37.916  34.121  34.416  1.00  0.00     0.031 C 
ATOM     44  C   UNL A   1      38.616  30.173  28.795  1.00  0.00     0.029 A 
ATOM     45  C   UNL A   1      39.554  29.902  29.880  1.00  0.00     0.049 A 
ATOM     46  H   UNL A   1      39.731  30.916  31.690  1.00  0.00     0.167 HD
ATOM     47  C   UNL A   1      39.818  32.998  35.541  1.00  0.00     0.037 A 
ATOM     48  C   UNL A   1      40.491  28.937  29.871  1.00  0.00     0.037 A 
ATOM     49  C   UNL A   1      40.876  32.026  35.607  1.00  0.00     0.049 A 
ATOM     50  C   UNL A   1      41.402  28.796  31.055  1.00  0.00     0.074 A 
ATOM     51  C   UNL A   1      41.750  31.771  36.650  1.00  0.00     0.029 A 
ATOM     52  N   UNL A   1      41.199  31.140  34.589  1.00  0.00    -0.354 N 
ATOM     53  N   UNL A   1      41.390  29.455  32.187  1.00  0.00    -0.248 NA
ATOM     54  C   UNL A   1      42.469  27.790  30.954  1.00  0.00     0.031 C 
ATOM     55  C   UNL A   1      42.624  30.755  36.251  1.00  0.00     0.029 A 
ATOM     56  C   UNL A   1      42.269  30.348  34.975  1.00  0.00     0.049 A 
ATOM     57  H   UNL A   1      40.737  31.083  33.722  1.00  0.00     0.167 HD
ATOM     58  C   UNL A   1      42.442  28.946  32.935  1.00  0.00     0.074 A 
ATOM     59  C   UNL A   1      43.055  27.903  32.138  1.00  0.00     0.031 C 
ATOM     60  C   UNL A   1      42.867  29.318  34.166  1.00  0.00     0.037 A 
BRANCH  47  61
ATOM     61  C   UNL A   1      39.607  33.885  36.734  1.00  0.00     0.064 A 
ATOM     62  C   UNL A   1      38.809  33.484  37.815  1.00  0.00     0.173 A 
ATOM     63  C   UNL A   1      40.271  35.117  36.829  1.00  0.00     0.173 A 
ATOM     64  F   UNL A   1      38.143  32.320  37.767  1.00  0.00    -0.203 F 
ATOM     65  C   UNL A   1      38.674  34.289  38.943  1.00  0.00     0.198 A 
ATOM     66  C   UNL A   1      40.154  35.910  37.969  1.00  0.00     0.198 A 
ATOM     67  F   UNL A   1      41.050  35.545  35.824  1.00  0.00    -0.203 F 
ATOM     68  F   UNL A   1      37.884  33.898  39.952  1.00  0.00    -0.200 F 
ATOM     69  C   UNL A   1      39.354  35.496  39.024  1.00  0.00     0.200 A 
ATOM     70  F   UNL A   1      40.820  37.070  38.049  1.00  0.00    -0.200 F 
ATOM     71  F   UNL A   1      39.236  36.262  40.117  1.00  0.00    -0.200 F 
ENDBRANCH  47  61
BRANCH  48  72
ATOM     72  C   UNL A   1      40.606  28.035  28.696  1.00  0.00     0.064 A 
ATOM     73  C   UNL A   1      39.927  26.811  28.659  1.00  0.00     0.173 A 
ATOM     74  C   UNL A   1      41.371  28.393  27.575  1.00  0.00     0.173 A 
ATOM     75  F   UNL A   1      39.199  26.416  29.714  1.00  0.00    -0.203 F 
ATOM     76  C   UNL A   1      40.006  25.978  27.544  1.00  0.00     0.198 A 
ATOM     77  C   UNL A   1      41.427  27.573  26.450  1.00  0.00     0.198 A 
ATOM     78  F   UNL A   1      42.038  29.556  27.561  1.00  0.00    -0.203 F 
ATOM     79  F   UNL A   1      39.368  24.800  27.544  1.00  0.00    -0.200 F 
ATOM     80  C   UNL A   1      40.748  26.364  26.438  1.00  0.00     0.200 A 
ATOM     81  F   UNL A   1      42.130  27.959  25.377  1.00  0.00    -0.200 F 
ATOM     82  F   UNL A   1      40.811  25.571  25.360  1.00  0.00    -0.200 F 
ENDBRANCH  48  72
BRANCH  60  83
ATOM     83  C   UNL A   1      44.049  28.592  34.732  1.00  0.00     0.064 A 
ATOM     84  C   UNL A   1      43.894  27.393  35.443  1.00  0.00     0.173 A 
ATOM     85  C   UNL A   1      45.350  29.065  34.508  1.00  0.00     0.173 A 
ATOM     86  F   UNL A   1      42.667  26.911  35.693  1.00  0.00    -0.203 F 
ATOM     87  C   UNL A   1      45.002  26.700  35.921  1.00  0.00     0.198 A 
ATOM     88  C   UNL A   1      46.456  28.355  34.967  1.00  0.00     0.198 A 
ATOM     89  F   UNL A   1      45.550  30.204  33.828  1.00  0.00    -0.203 F 
ATOM     90  F   UNL A   1      44.830  25.572  36.625  1.00  0.00    -0.200 F 
ATOM     91  C   UNL A   1      46.281  27.175  35.675  1.00  0.00     0.200 A 
ATOM     92  F   UNL A   1      47.692  28.810  34.719  1.00  0.00    -0.200 F 
ATOM     93  F   UNL A   1      47.347  26.498  36.126  1.00  0.00    -0.200 F 
ENDBRANCH  60  83
ENDBRANCH  34  35
ENDBRANCH  26  29
ENDBRANCH  24  25
ENDBRANCH   1  24
TORSDOF 12
ENDMDL
