MODEL 1
REMARK VINA RESULT:     -11.5      0.000      0.000
REMARK SMILES O=C(NCCCNC(=O)c1cc(-c2ccoc2)n[nH]1)c1ccc(-c2c3nc(c(-c4c(F)c(F)c(F)c(F)c4F)c4ccc([nH]4)c(-c4c(F)c(F)c(F)c(F)c4F)c4nc(c(-c5c(F)c(F)c(F)c(F)c5F)c5ccc2[nH]5)C=C4)C=C3)cc1
REMARK SMILES IDX 4 1 3 2 1 3 2 4 20 6 21 7 82 8 22 9 81 10 23 11 24 12 25 13
REMARK SMILES IDX 75 14 26 15 80 16 74 17 76 18 27 19 79 20 73 21 72 22 28 24
REMARK SMILES IDX 60 25 40 26 59 27 41 28 44 29 58 30 77 31 42 32 43 33 57 35
REMARK SMILES IDX 78 36 45 37 29 38 30 39 38 40 31 41 32 42 36 43 39 44 33 45
REMARK SMILES IDX 34 46 37 47 35 48 61 49 62 50 70 51 63 52 64 53 68 54 71 55
REMARK SMILES IDX 65 56 66 57 69 58 67 59 46 60 47 61 55 62 48 63 49 64 53 65
REMARK SMILES IDX 56 66 50 67 51 68 54 69 52 70 5 71 6 72 7 73 8 74 9 76 10 77
REMARK SMILES IDX 11 78 19 79 12 80 18 81 13 83 14 84 17 85 15 86 16 87
REMARK H PARENT 3 5 76 23 44 34 7 75 19 82
REMARK Flexibility Score: inf
ROOT
ATOM      1  C   UNL A   1      41.285  21.855  26.772  1.00  0.00     0.118 C 
ENDROOT
BRANCH   1   2
ATOM      2  N   UNL A   1      40.011  22.083  26.106  1.00  0.00    -0.352 N 
ATOM      3  O   UNL A   1      37.994  22.991  25.735  1.00  0.00    -0.269 OA
ATOM      4  C   UNL A   1      39.117  23.117  26.214  1.00  0.00     0.251 C 
ATOM      5  H   UNL A   1      39.746  21.376  25.474  1.00  0.00     0.163 HD
BRANCH   4   6
ATOM      6  C   UNL A   1      39.481  24.376  26.899  1.00  0.00     0.039 A 
ATOM      7  C   UNL A   1      39.194  24.581  28.251  1.00  0.00     0.014 A 
ATOM      8  C   UNL A   1      40.206  25.338  26.188  1.00  0.00     0.014 A 
ATOM      9  C   UNL A   1      39.536  25.787  28.862  1.00  0.00     0.010 A 
ATOM     10  C   UNL A   1      40.606  26.517  26.817  1.00  0.00     0.010 A 
ATOM     11  C   UNL A   1      40.256  26.760  28.154  1.00  0.00    -0.014 A 
BRANCH  11  12
ATOM     12  C   UNL A   1      40.690  28.009  28.826  1.00  0.00     0.031 A 
ATOM     13  C   UNL A   1      42.097  28.159  29.325  1.00  0.00     0.074 A 
ATOM     14  C   UNL A   1      39.796  28.997  29.018  1.00  0.00     0.049 A 
ATOM     15  N   UNL A   1      42.633  29.138  30.007  1.00  0.00    -0.248 NA
ATOM     16  C   UNL A   1      43.022  27.054  29.028  1.00  0.00     0.031 C 
ATOM     17  C   UNL A   1      38.397  28.959  28.591  1.00  0.00     0.029 A 
ATOM     18  N   UNL A   1      39.924  30.214  29.639  1.00  0.00    -0.354 N 
ATOM     19  C   UNL A   1      43.947  28.760  30.243  1.00  0.00     0.074 A 
ATOM     20  C   UNL A   1      44.124  27.453  29.648  1.00  0.00     0.031 C 
ATOM     21  C   UNL A   1      37.796  30.100  28.960  1.00  0.00     0.029 A 
ATOM     22  C   UNL A   1      38.752  30.926  29.691  1.00  0.00     0.049 A 
ATOM     23  H   UNL A   1      40.774  30.544  30.009  1.00  0.00     0.167 HD
ATOM     24  C   UNL A   1      44.917  29.447  30.895  1.00  0.00     0.037 A 
ATOM     25  C   UNL A   1      38.468  32.097  30.289  1.00  0.00     0.037 A 
ATOM     26  C   UNL A   1      44.739  30.756  31.468  1.00  0.00     0.049 A 
ATOM     27  C   UNL A   1      39.553  32.834  31.019  1.00  0.00     0.074 A 
ATOM     28  C   UNL A   1      45.677  31.560  32.092  1.00  0.00     0.029 A 
ATOM     29  N   UNL A   1      43.538  31.450  31.493  1.00  0.00    -0.354 N 
ATOM     30  N   UNL A   1      40.806  32.490  31.197  1.00  0.00    -0.248 NA
ATOM     31  C   UNL A   1      39.190  34.118  31.633  1.00  0.00     0.031 C 
ATOM     32  C   UNL A   1      45.033  32.721  32.534  1.00  0.00     0.029 A 
ATOM     33  C   UNL A   1      43.704  32.661  32.146  1.00  0.00     0.049 A 
ATOM     34  H   UNL A   1      42.691  31.130  31.104  1.00  0.00     0.167 HD
ATOM     35  C   UNL A   1      41.384  33.518  31.925  1.00  0.00     0.074 A 
ATOM     36  C   UNL A   1      40.348  34.505  32.152  1.00  0.00     0.031 C 
ATOM     37  C   UNL A   1      42.662  33.633  32.362  1.00  0.00     0.037 A 
BRANCH  24  38
ATOM     38  C   UNL A   1      46.254  28.783  31.043  1.00  0.00     0.064 A 
ATOM     39  C   UNL A   1      47.269  28.946  30.087  1.00  0.00     0.173 A 
ATOM     40  C   UNL A   1      46.530  27.992  32.167  1.00  0.00     0.173 A 
ATOM     41  F   UNL A   1      47.051  29.683  28.989  1.00  0.00    -0.203 F 
ATOM     42  C   UNL A   1      48.501  28.315  30.240  1.00  0.00     0.198 A 
ATOM     43  C   UNL A   1      47.772  27.384  32.328  1.00  0.00     0.198 A 
ATOM     44  F   UNL A   1      45.596  27.810  33.112  1.00  0.00    -0.203 F 
ATOM     45  F   UNL A   1      49.439  28.444  29.292  1.00  0.00    -0.200 F 
ATOM     46  C   UNL A   1      48.754  27.538  31.361  1.00  0.00     0.200 A 
ATOM     47  F   UNL A   1      48.018  26.642  33.417  1.00  0.00    -0.200 F 
ATOM     48  F   UNL A   1      49.939  26.931  31.505  1.00  0.00    -0.200 F 
ENDBRANCH  24  38
BRANCH  25  49
ATOM     49  C   UNL A   1      37.084  32.625  30.218  1.00  0.00     0.064 A 
ATOM     50  C   UNL A   1      36.165  32.384  31.247  1.00  0.00     0.173 A 
ATOM     51  C   UNL A   1      36.674  33.432  29.146  1.00  0.00     0.173 A 
ATOM     52  F   UNL A   1      36.508  31.604  32.282  1.00  0.00    -0.203 F 
ATOM     53  C   UNL A   1      34.886  32.936  31.209  1.00  0.00     0.198 A 
ATOM     54  C   UNL A   1      35.404  34.002  29.120  1.00  0.00     0.198 A 
ATOM     55  F   UNL A   1      37.523  33.696  28.142  1.00  0.00    -0.203 F 
ATOM     56  F   UNL A   1      34.018  32.679  32.196  1.00  0.00    -0.200 F 
ATOM     57  C   UNL A   1      34.511  33.753  30.152  1.00  0.00     0.200 A 
ATOM     58  F   UNL A   1      35.051  34.804  28.106  1.00  0.00    -0.200 F 
ATOM     59  F   UNL A   1      33.288  34.299  30.127  1.00  0.00    -0.200 F 
ENDBRANCH  25  49
BRANCH  37  60
ATOM     60  C   UNL A   1      43.025  34.880  33.109  1.00  0.00     0.064 A 
ATOM     61  C   UNL A   1      43.456  36.035  32.441  1.00  0.00     0.173 A 
ATOM     62  C   UNL A   1      42.874  34.940  34.503  1.00  0.00     0.173 A 
ATOM     63  F   UNL A   1      43.630  36.020  31.112  1.00  0.00    -0.203 F 
ATOM     64  C   UNL A   1      43.733  37.205  33.144  1.00  0.00     0.198 A 
ATOM     65  C   UNL A   1      43.130  36.117  35.200  1.00  0.00     0.198 A 
ATOM     66  F   UNL A   1      42.460  33.862  35.184  1.00  0.00    -0.203 F 
ATOM     67  F   UNL A   1      44.170  38.290  32.491  1.00  0.00    -0.200 F 
ATOM     68  C   UNL A   1      43.561  37.248  34.520  1.00  0.00     0.200 A 
ATOM     69  F   UNL A   1      42.955  36.160  36.528  1.00  0.00    -0.200 F 
ATOM     70  F   UNL A   1      43.815  38.379  35.193  1.00  0.00    -0.200 F 
ENDBRANCH  37  60
ENDBRANCH  11  12
ENDBRANCH   4   6
ENDBRANCH   1   2
BRANCH   1  71
ATOM     71  C   UNL A   1      41.520  20.379  27.080  1.00  0.00     0.042 C 
BRANCH  71  72
ATOM     72  C   UNL A   1      41.760  19.521  25.840  1.00  0.00     0.118 C 
BRANCH  72  73
ATOM     73  N   UNL A   1      43.013  18.783  25.922  1.00  0.00    -0.351 N 
ATOM     74  C   UNL A   1      44.235  19.092  25.381  1.00  0.00     0.269 C 
ATOM     75  H   UNL A   1      42.978  17.946  26.440  1.00  0.00     0.163 HD
ATOM     76  O   UNL A   1      45.067  18.194  25.258  1.00  0.00    -0.268 OA
BRANCH  74  77
ATOM     77  C   UNL A   1      44.475  20.429  24.935  1.00  0.00     0.123 A 
ATOM     78  C   UNL A   1      44.733  21.601  25.618  1.00  0.00     0.064 A 
ATOM     79  N   UNL A   1      44.545  20.772  23.612  1.00  0.00    -0.272 N 
ATOM     80  C   UNL A   1      44.732  22.605  24.632  1.00  0.00     0.096 A 
ATOM     81  N   UNL A   1      44.585  22.102  23.403  1.00  0.00    -0.175 NA
ATOM     82  H   UNL A   1      44.565  20.111  22.882  1.00  0.00     0.190 HD
BRANCH  80  83
ATOM     83  C   UNL A   1      44.776  24.025  24.930  1.00  0.00     0.040 A 
ATOM     84  C   UNL A   1      43.662  24.866  25.167  1.00  0.00     0.052 A 
ATOM     85  C   UNL A   1      45.891  24.827  24.986  1.00  0.00     0.205 A 
ATOM     86  C   UNL A   1      44.177  26.130  25.343  1.00  0.00     0.195 A 
ATOM     87  O   UNL A   1      45.532  26.116  25.226  1.00  0.00    -0.472 OA
ENDBRANCH  80  83
ENDBRANCH  74  77
ENDBRANCH  72  73
ENDBRANCH  71  72
ENDBRANCH   1  71
TORSDOF 11
ENDMDL
MODEL 2
REMARK VINA RESULT:     -11.4      4.101     11.382
REMARK SMILES O=C(NCCCNC(=O)c1cc(-c2ccoc2)n[nH]1)c1ccc(-c2c3nc(c(-c4c(F)c(F)c(F)c(F)c4F)c4ccc([nH]4)c(-c4c(F)c(F)c(F)c(F)c4F)c4nc(c(-c5c(F)c(F)c(F)c(F)c5F)c5ccc2[nH]5)C=C4)C=C3)cc1
REMARK SMILES IDX 4 1 3 2 1 3 2 4 20 6 21 7 82 8 22 9 81 10 23 11 24 12 25 13
REMARK SMILES IDX 75 14 26 15 80 16 74 17 76 18 27 19 79 20 73 21 72 22 28 24
REMARK SMILES IDX 60 25 40 26 59 27 41 28 44 29 58 30 77 31 42 32 43 33 57 35
REMARK SMILES IDX 78 36 45 37 29 38 30 39 38 40 31 41 32 42 36 43 39 44 33 45
REMARK SMILES IDX 34 46 37 47 35 48 61 49 62 50 70 51 63 52 64 53 68 54 71 55
REMARK SMILES IDX 65 56 66 57 69 58 67 59 46 60 47 61 55 62 48 63 49 64 53 65
REMARK SMILES IDX 56 66 50 67 51 68 54 69 52 70 5 71 6 72 7 73 8 74 9 76 10 77
REMARK SMILES IDX 11 78 19 79 12 80 18 81 13 83 14 84 17 85 15 86 16 87
REMARK H PARENT 3 5 76 23 44 34 7 75 19 82
REMARK Flexibility Score: inf
ROOT
ATOM      1  C   UNL A   1      34.818  32.875  28.733  1.00  0.00     0.118 C 
ENDROOT
BRANCH   1   2
ATOM      2  N   UNL A   1      34.109  31.710  28.223  1.00  0.00    -0.352 N 
ATOM      3  O   UNL A   1      33.828  29.719  27.230  1.00  0.00    -0.269 OA
ATOM      4  C   UNL A   1      34.570  30.473  27.854  1.00  0.00     0.251 C 
ATOM      5  H   UNL A   1      33.137  31.832  28.128  1.00  0.00     0.163 HD
BRANCH   4   6
ATOM      6  C   UNL A   1      35.942  30.034  28.189  1.00  0.00     0.039 A 
ATOM      7  C   UNL A   1      36.988  30.139  27.268  1.00  0.00     0.014 A 
ATOM      8  C   UNL A   1      36.201  29.589  29.489  1.00  0.00     0.014 A 
ATOM      9  C   UNL A   1      38.266  29.700  27.610  1.00  0.00     0.010 A 
ATOM     10  C   UNL A   1      37.495  29.211  29.852  1.00  0.00     0.010 A 
ATOM     11  C   UNL A   1      38.534  29.244  28.909  1.00  0.00    -0.014 A 
BRANCH  11  12
ATOM     12  C   UNL A   1      39.910  28.853  29.299  1.00  0.00     0.031 A 
ATOM     13  C   UNL A   1      40.769  29.782  30.106  1.00  0.00     0.074 A 
ATOM     14  C   UNL A   1      40.398  27.668  28.887  1.00  0.00     0.049 A 
ATOM     15  N   UNL A   1      42.019  29.648  30.468  1.00  0.00    -0.248 NA
ATOM     16  C   UNL A   1      40.141  31.033  30.558  1.00  0.00     0.031 C 
ATOM     17  C   UNL A   1      39.663  26.690  28.084  1.00  0.00     0.029 A 
ATOM     18  N   UNL A   1      41.631  27.095  29.068  1.00  0.00    -0.354 N 
ATOM     19  C   UNL A   1      42.337  30.805  31.165  1.00  0.00     0.074 A 
ATOM     20  C   UNL A   1      41.154  31.639  31.162  1.00  0.00     0.031 C 
ATOM     21  C   UNL A   1      40.456  25.636  27.844  1.00  0.00     0.029 A 
ATOM     22  C   UNL A   1      41.770  25.887  28.431  1.00  0.00     0.049 A 
ATOM     23  H   UNL A   1      42.345  27.508  29.604  1.00  0.00     0.167 HD
ATOM     24  C   UNL A   1      43.510  31.135  31.758  1.00  0.00     0.037 A 
ATOM     25  C   UNL A   1      42.842  25.085  28.305  1.00  0.00     0.037 A 
ATOM     26  C   UNL A   1      44.677  30.292  31.774  1.00  0.00     0.049 A 
ATOM     27  C   UNL A   1      44.137  25.477  28.956  1.00  0.00     0.074 A 
ATOM     28  C   UNL A   1      45.891  30.510  32.401  1.00  0.00     0.029 A 
ATOM     29  N   UNL A   1      44.776  29.069  31.125  1.00  0.00    -0.354 N 
ATOM     30  N   UNL A   1      44.414  26.551  29.654  1.00  0.00    -0.248 NA
ATOM     31  C   UNL A   1      45.267  24.552  28.803  1.00  0.00     0.031 C 
ATOM     32  C   UNL A   1      46.740  29.441  32.094  1.00  0.00     0.029 A 
ATOM     33  C   UNL A   1      46.041  28.534  31.313  1.00  0.00     0.049 A 
ATOM     34  H   UNL A   1      44.055  28.644  30.606  1.00  0.00     0.167 HD
ATOM     35  C   UNL A   1      45.740  26.426  30.038  1.00  0.00     0.074 A 
ATOM     36  C   UNL A   1      46.213  25.166  29.501  1.00  0.00     0.031 C 
ATOM     37  C   UNL A   1      46.495  27.278  30.774  1.00  0.00     0.037 A 
BRANCH  24  38
ATOM     38  C   UNL A   1      43.596  32.478  32.420  1.00  0.00     0.064 A 
ATOM     39  C   UNL A   1      44.026  33.618  31.724  1.00  0.00     0.173 A 
ATOM     40  C   UNL A   1      43.221  32.630  33.763  1.00  0.00     0.173 A 
ATOM     41  F   UNL A   1      44.406  33.524  30.442  1.00  0.00    -0.203 F 
ATOM     42  C   UNL A   1      44.106  34.855  32.360  1.00  0.00     0.198 A 
ATOM     43  C   UNL A   1      43.278  33.873  34.387  1.00  0.00     0.198 A 
ATOM     44  F   UNL A   1      42.798  31.572  34.471  1.00  0.00    -0.203 F 
ATOM     45  F   UNL A   1      44.565  35.921  31.690  1.00  0.00    -0.200 F 
ATOM     46  C   UNL A   1      43.728  34.983  33.688  1.00  0.00     0.200 A 
ATOM     47  F   UNL A   1      42.904  33.997  35.668  1.00  0.00    -0.200 F 
ATOM     48  F   UNL A   1      43.807  36.174  34.297  1.00  0.00    -0.200 F 
ENDBRANCH  24  38
BRANCH  25  49
ATOM     49  C   UNL A   1      42.718  23.835  27.515  1.00  0.00     0.064 A 
ATOM     50  C   UNL A   1      43.100  23.791  26.169  1.00  0.00     0.173 A 
ATOM     51  C   UNL A   1      42.272  22.647  28.112  1.00  0.00     0.173 A 
ATOM     52  F   UNL A   1      43.516  24.907  25.553  1.00  0.00    -0.203 F 
ATOM     53  C   UNL A   1      43.044  22.599  25.448  1.00  0.00     0.198 A 
ATOM     54  C   UNL A   1      42.238  21.452  27.397  1.00  0.00     0.198 A 
ATOM     55  F   UNL A   1      41.902  22.640  29.401  1.00  0.00    -0.203 F 
ATOM     56  F   UNL A   1      43.400  22.584  24.156  1.00  0.00    -0.200 F 
ATOM     57  C   UNL A   1      42.624  21.430  26.065  1.00  0.00     0.200 A 
ATOM     58  F   UNL A   1      41.848  20.322  28.001  1.00  0.00    -0.200 F 
ATOM     59  F   UNL A   1      42.591  20.282  25.375  1.00  0.00    -0.200 F 
ENDBRANCH  25  49
BRANCH  37  60
ATOM     60  C   UNL A   1      47.907  26.870  31.066  1.00  0.00     0.064 A 
ATOM     61  C   UNL A   1      48.219  26.043  32.154  1.00  0.00     0.173 A 
ATOM     62  C   UNL A   1      48.948  27.257  30.209  1.00  0.00     0.173 A 
ATOM     63  F   UNL A   1      47.260  25.660  33.009  1.00  0.00    -0.203 F 
ATOM     64  C   UNL A   1      49.528  25.623  32.379  1.00  0.00     0.198 A 
ATOM     65  C   UNL A   1      50.251  26.818  30.425  1.00  0.00     0.198 A 
ATOM     66  F   UNL A   1      48.696  28.045  29.154  1.00  0.00    -0.203 F 
ATOM     67  F   UNL A   1      49.811  24.855  33.440  1.00  0.00    -0.200 F 
ATOM     68  C   UNL A   1      50.541  26.004  31.510  1.00  0.00     0.200 A 
ATOM     69  F   UNL A   1      51.227  27.179  29.579  1.00  0.00    -0.200 F 
ATOM     70  F   UNL A   1      51.797  25.588  31.720  1.00  0.00    -0.200 F 
ENDBRANCH  37  60
ENDBRANCH  11  12
ENDBRANCH   4   6
ENDBRANCH   1   2
BRANCH   1  71
ATOM     71  C   UNL A   1      34.256  34.181  28.179  1.00  0.00     0.042 C 
BRANCH  71  72
ATOM     72  C   UNL A   1      32.935  34.604  28.819  1.00  0.00     0.118 C 
BRANCH  72  73
ATOM     73  N   UNL A   1      33.014  35.937  29.401  1.00  0.00    -0.351 N 
ATOM     74  C   UNL A   1      33.200  36.299  30.710  1.00  0.00     0.269 C 
ATOM     75  H   UNL A   1      32.921  36.682  28.763  1.00  0.00     0.163 HD
ATOM     76  O   UNL A   1      32.890  37.438  31.054  1.00  0.00    -0.268 OA
BRANCH  74  77
ATOM     77  C   UNL A   1      33.698  35.326  31.632  1.00  0.00     0.123 A 
ATOM     78  C   UNL A   1      34.974  34.865  31.893  1.00  0.00     0.064 A 
ATOM     79  N   UNL A   1      32.900  34.673  32.531  1.00  0.00    -0.272 N 
ATOM     80  C   UNL A   1      34.799  33.805  32.801  1.00  0.00     0.096 A 
ATOM     81  N   UNL A   1      33.523  33.665  33.170  1.00  0.00    -0.175 NA
ATOM     82  H   UNL A   1      31.960  34.916  32.695  1.00  0.00     0.190 HD
BRANCH  80  83
ATOM     83  C   UNL A   1      35.865  32.906  33.203  1.00  0.00     0.040 A 
ATOM     84  C   UNL A   1      36.332  31.783  32.478  1.00  0.00     0.052 A 
ATOM     85  C   UNL A   1      36.582  32.940  34.375  1.00  0.00     0.205 A 
ATOM     86  C   UNL A   1      37.299  31.203  33.265  1.00  0.00     0.195 A 
ATOM     87  O   UNL A   1      37.452  31.896  34.426  1.00  0.00    -0.472 OA
ENDBRANCH  80  83
ENDBRANCH  74  77
ENDBRANCH  72  73
ENDBRANCH  71  72
ENDBRANCH   1  71
TORSDOF 11
ENDMDL
MODEL 3
REMARK VINA RESULT:     -11.4      4.062     11.380
REMARK SMILES O=C(NCCCNC(=O)c1cc(-c2ccoc2)n[nH]1)c1ccc(-c2c3nc(c(-c4c(F)c(F)c(F)c(F)c4F)c4ccc([nH]4)c(-c4c(F)c(F)c(F)c(F)c4F)c4nc(c(-c5c(F)c(F)c(F)c(F)c5F)c5ccc2[nH]5)C=C4)C=C3)cc1
REMARK SMILES IDX 4 1 3 2 1 3 2 4 20 6 21 7 82 8 22 9 81 10 23 11 24 12 25 13
REMARK SMILES IDX 75 14 26 15 80 16 74 17 76 18 27 19 79 20 73 21 72 22 28 24
REMARK SMILES IDX 60 25 40 26 59 27 41 28 44 29 58 30 77 31 42 32 43 33 57 35
REMARK SMILES IDX 78 36 45 37 29 38 30 39 38 40 31 41 32 42 36 43 39 44 33 45
REMARK SMILES IDX 34 46 37 47 35 48 61 49 62 50 70 51 63 52 64 53 68 54 71 55
REMARK SMILES IDX 65 56 66 57 69 58 67 59 46 60 47 61 55 62 48 63 49 64 53 65
REMARK SMILES IDX 56 66 50 67 51 68 54 69 52 70 5 71 6 72 7 73 8 74 9 76 10 77
REMARK SMILES IDX 11 78 19 79 12 80 18 81 13 83 14 84 17 85 15 86 16 87
REMARK H PARENT 3 5 76 23 44 34 7 75 19 82
REMARK Flexibility Score: inf
ROOT
ATOM      1  C   UNL A   1      34.544  32.573  28.833  1.00  0.00     0.118 C 
ENDROOT
BRANCH   1   2
ATOM      2  N   UNL A   1      33.987  31.379  28.214  1.00  0.00    -0.352 N 
ATOM      3  O   UNL A   1      33.969  29.426  27.109  1.00  0.00    -0.269 OA
ATOM      4  C   UNL A   1      34.588  30.209  27.826  1.00  0.00     0.251 C 
ATOM      5  H   UNL A   1      33.018  31.418  28.046  1.00  0.00     0.163 HD
BRANCH   4   6
ATOM      6  C   UNL A   1      35.965  29.876  28.250  1.00  0.00     0.039 A 
ATOM      7  C   UNL A   1      36.227  29.309  29.500  1.00  0.00     0.014 A 
ATOM      8  C   UNL A   1      37.007  30.056  27.335  1.00  0.00     0.014 A 
ATOM      9  C   UNL A   1      37.539  29.022  29.876  1.00  0.00     0.010 A 
ATOM     10  C   UNL A   1      38.312  29.708  27.687  1.00  0.00     0.010 A 
ATOM     11  C   UNL A   1      38.591  29.208  28.968  1.00  0.00    -0.014 A 
BRANCH  11  12
ATOM     12  C   UNL A   1      39.977  28.828  29.337  1.00  0.00     0.031 A 
ATOM     13  C   UNL A   1      40.834  29.758  30.143  1.00  0.00     0.074 A 
ATOM     14  C   UNL A   1      40.473  27.654  28.905  1.00  0.00     0.049 A 
ATOM     15  N   UNL A   1      42.091  29.635  30.489  1.00  0.00    -0.248 NA
ATOM     16  C   UNL A   1      40.198  30.997  30.617  1.00  0.00     0.031 C 
ATOM     17  C   UNL A   1      39.739  26.676  28.101  1.00  0.00     0.029 A 
ATOM     18  N   UNL A   1      41.715  27.092  29.065  1.00  0.00    -0.354 N 
ATOM     19  C   UNL A   1      42.404  30.787  31.195  1.00  0.00     0.074 A 
ATOM     20  C   UNL A   1      41.212  31.608  31.215  1.00  0.00     0.031 C 
ATOM     21  C   UNL A   1      40.542  25.634  27.840  1.00  0.00     0.029 A 
ATOM     22  C   UNL A   1      41.859  25.893  28.413  1.00  0.00     0.049 A 
ATOM     23  H   UNL A   1      42.431  27.508  29.597  1.00  0.00     0.167 HD
ATOM     24  C   UNL A   1      43.580  31.124  31.777  1.00  0.00     0.037 A 
ATOM     25  C   UNL A   1      42.939  25.105  28.265  1.00  0.00     0.037 A 
ATOM     26  C   UNL A   1      44.757  30.294  31.770  1.00  0.00     0.049 A 
ATOM     27  C   UNL A   1      44.237  25.505  28.905  1.00  0.00     0.074 A 
ATOM     28  C   UNL A   1      45.976  30.520  32.385  1.00  0.00     0.029 A 
ATOM     29  N   UNL A   1      44.862  29.080  31.106  1.00  0.00    -0.354 N 
ATOM     30  N   UNL A   1      44.510  26.575  29.612  1.00  0.00    -0.248 NA
ATOM     31  C   UNL A   1      45.375  24.594  28.728  1.00  0.00     0.031 C 
ATOM     32  C   UNL A   1      46.834  29.464  32.055  1.00  0.00     0.029 A 
ATOM     33  C   UNL A   1      46.135  28.558  31.273  1.00  0.00     0.049 A 
ATOM     34  H   UNL A   1      44.139  28.653  30.591  1.00  0.00     0.167 HD
ATOM     35  C   UNL A   1      45.843  26.460  29.978  1.00  0.00     0.074 A 
ATOM     36  C   UNL A   1      46.323  25.211  29.422  1.00  0.00     0.031 C 
ATOM     37  C   UNL A   1      46.597  27.312  30.714  1.00  0.00     0.037 A 
BRANCH  24  38
ATOM     38  C   UNL A   1      43.659  32.461  32.453  1.00  0.00     0.064 A 
ATOM     39  C   UNL A   1      43.354  32.621  33.813  1.00  0.00     0.173 A 
ATOM     40  C   UNL A   1      44.069  33.594  31.734  1.00  0.00     0.173 A 
ATOM     41  F   UNL A   1      42.947  31.571  34.541  1.00  0.00    -0.203 F 
ATOM     42  C   UNL A   1      43.427  33.872  34.419  1.00  0.00     0.198 A 
ATOM     43  C   UNL A   1      44.164  34.838  32.350  1.00  0.00     0.198 A 
ATOM     44  F   UNL A   1      44.377  33.494  30.432  1.00  0.00    -0.203 F 
ATOM     45  F   UNL A   1      43.083  34.011  35.708  1.00  0.00    -0.200 F 
ATOM     46  C   UNL A   1      43.835  34.979  33.690  1.00  0.00     0.200 A 
ATOM     47  F   UNL A   1      44.569  35.905  31.647  1.00  0.00    -0.200 F 
ATOM     48  F   UNL A   1      43.903  36.182  34.276  1.00  0.00    -0.200 F 
ENDBRANCH  24  38
BRANCH  25  49
ATOM     49  C   UNL A   1      42.819  23.863  27.464  1.00  0.00     0.064 A 
ATOM     50  C   UNL A   1      43.151  23.847  26.104  1.00  0.00     0.173 A 
ATOM     51  C   UNL A   1      42.429  22.654  28.060  1.00  0.00     0.173 A 
ATOM     52  F   UNL A   1      43.513  24.982  25.488  1.00  0.00    -0.203 F 
ATOM     53  C   UNL A   1      43.101  22.664  25.368  1.00  0.00     0.198 A 
ATOM     54  C   UNL A   1      42.402  21.469  27.330  1.00  0.00     0.198 A 
ATOM     55  F   UNL A   1      42.110  22.621  29.362  1.00  0.00    -0.203 F 
ATOM     56  F   UNL A   1      43.407  22.675  24.064  1.00  0.00    -0.200 F 
ATOM     57  C   UNL A   1      42.737  21.475  25.984  1.00  0.00     0.200 A 
ATOM     58  F   UNL A   1      42.066  20.320  27.933  1.00  0.00    -0.200 F 
ATOM     59  F   UNL A   1      42.709  20.335  25.280  1.00  0.00    -0.200 F 
ENDBRANCH  25  49
BRANCH  37  60
ATOM     60  C   UNL A   1      48.017  26.918  30.985  1.00  0.00     0.064 A 
ATOM     61  C   UNL A   1      48.346  26.038  32.025  1.00  0.00     0.173 A 
ATOM     62  C   UNL A   1      49.050  27.373  30.152  1.00  0.00     0.173 A 
ATOM     63  F   UNL A   1      47.394  25.589  32.857  1.00  0.00    -0.203 F 
ATOM     64  C   UNL A   1      49.663  25.633  32.228  1.00  0.00     0.198 A 
ATOM     65  C   UNL A   1      50.362  26.950  30.344  1.00  0.00     0.198 A 
ATOM     66  F   UNL A   1      48.782  28.213  29.142  1.00  0.00    -0.203 F 
ATOM     67  F   UNL A   1      49.961  24.813  33.245  1.00  0.00    -0.200 F 
ATOM     68  C   UNL A   1      50.668  26.082  31.383  1.00  0.00     0.200 A 
ATOM     69  F   UNL A   1      51.330  27.377  29.521  1.00  0.00    -0.200 F 
ATOM     70  F   UNL A   1      51.932  25.681  31.571  1.00  0.00    -0.200 F 
ENDBRANCH  37  60
ENDBRANCH  11  12
ENDBRANCH   4   6
ENDBRANCH   1   2
BRANCH   1  71
ATOM     71  C   UNL A   1      33.728  33.822  28.514  1.00  0.00     0.042 C 
BRANCH  71  72
ATOM     72  C   UNL A   1      34.473  35.129  28.779  1.00  0.00     0.118 C 
BRANCH  72  73
ATOM     73  N   UNL A   1      33.645  36.093  29.492  1.00  0.00    -0.351 N 
ATOM     74  C   UNL A   1      33.133  36.020  30.762  1.00  0.00     0.269 C 
ATOM     75  H   UNL A   1      33.421  36.910  28.990  1.00  0.00     0.163 HD
ATOM     76  O   UNL A   1      32.186  36.747  31.057  1.00  0.00    -0.268 OA
BRANCH  74  77
ATOM     77  C   UNL A   1      33.687  35.071  31.677  1.00  0.00     0.123 A 
ATOM     78  C   UNL A   1      34.975  34.611  31.868  1.00  0.00     0.064 A 
ATOM     79  N   UNL A   1      32.946  34.446  32.643  1.00  0.00    -0.272 N 
ATOM     80  C   UNL A   1      34.856  33.576  32.815  1.00  0.00     0.096 A 
ATOM     81  N   UNL A   1      33.606  33.453  33.269  1.00  0.00    -0.175 NA
ATOM     82  H   UNL A   1      32.019  34.699  32.861  1.00  0.00     0.190 HD
BRANCH  80  83
ATOM     83  C   UNL A   1      35.943  32.683  33.172  1.00  0.00     0.040 A 
ATOM     84  C   UNL A   1      36.415  31.590  32.406  1.00  0.00     0.052 A 
ATOM     85  C   UNL A   1      36.679  32.694  34.333  1.00  0.00     0.205 A 
ATOM     86  C   UNL A   1      37.405  31.003  33.160  1.00  0.00     0.195 A 
ATOM     87  O   UNL A   1      37.566  31.663  34.338  1.00  0.00    -0.472 OA
ENDBRANCH  80  83
ENDBRANCH  74  77
ENDBRANCH  72  73
ENDBRANCH  71  72
ENDBRANCH   1  71
TORSDOF 11
ENDMDL
