MODEL 1
REMARK VINA RESULT:     -11.8      0.000      0.000
REMARK SMILES O=C(Cc1cccnc1Cl)NCCCNC(=O)c1ccc(-c2c3nc(c(-c4c(F)c(F)c(F)c(F)c4F)c4ccc([nH]4)c(-c4c(F)c(F)c(F)c(F)c4F)c4nc(c(-c5c(F)c(F)c(F)c(F)c5F)c5ccc2[nH]5)C=C4)C=C3)cc1
REMARK SMILES IDX 13 1 12 2 11 3 1 4 2 5 3 7 4 8 5 9 9 10 6 11 8 12 10 13 7 14
REMARK SMILES IDX 14 15 15 16 16 17 17 19 18 20 19 21 80 22 20 23 79 24 21 25
REMARK SMILES IDX 22 26 23 27 73 28 24 29 78 30 72 31 74 32 25 33 77 34 71 35
REMARK SMILES IDX 70 36 26 38 58 39 38 40 57 41 39 42 42 43 56 44 75 45 40 46
REMARK SMILES IDX 41 47 55 49 76 50 43 51 27 52 28 53 36 54 29 55 30 56 34 57
REMARK SMILES IDX 37 58 31 59 32 60 35 61 33 62 59 63 60 64 68 65 61 66 62 67
REMARK SMILES IDX 66 68 69 69 63 70 64 71 67 72 65 73 44 74 45 75 53 76 46 77
REMARK SMILES IDX 47 78 51 79 54 80 48 81 49 82 52 83 50 84
REMARK H PARENT 11 6 15 18 74 37 42 48
REMARK Flexibility Score: inf
ROOT
ATOM      1  C   UNL A   1      31.532  31.983  26.586  1.00  0.00     0.042 C 
ENDROOT
BRANCH   1   2
ATOM      2  C   UNL A   1      31.743  30.487  26.380  1.00  0.00     0.117 C 
BRANCH   2   3
ATOM      3  N   UNL A   1      31.383  30.065  25.042  1.00  0.00    -0.356 N 
ATOM      4  O   UNL A   1      33.244  28.779  24.649  1.00  0.00    -0.275 OA
ATOM      5  C   UNL A   1      32.161  29.220  24.280  1.00  0.00     0.224 C 
ATOM      6  H   UNL A   1      30.540  30.398  24.657  1.00  0.00     0.163 HD
BRANCH   5   7
ATOM      7  C   UNL A   1      31.588  28.903  22.908  1.00  0.00     0.138 C 
BRANCH   7   8
ATOM      8  C   UNL A   1      30.086  29.015  22.856  1.00  0.00    -0.001 A 
ATOM      9  C   UNL A   1      29.490  30.141  22.276  1.00  0.00     0.009 A 
ATOM     10  C   UNL A   1      29.225  28.021  23.319  1.00  0.00     0.132 A 
ATOM     11  C   UNL A   1      28.102  30.226  22.188  1.00  0.00     0.020 A 
ATOM     12  N   UNL A   1      27.880  28.071  23.238  1.00  0.00    -0.244 NA
ATOM     13  Cl  UNL A   1      29.787  26.557  24.034  1.00  0.00    -0.062 Cl
ATOM     14  C   UNL A   1      27.348  29.174  22.675  1.00  0.00     0.113 A 
ENDBRANCH   7   8
ENDBRANCH   5   7
ENDBRANCH   2   3
ENDBRANCH   1   2
BRANCH   1  15
ATOM     15  C   UNL A   1      32.719  32.721  27.202  1.00  0.00     0.118 C 
BRANCH  15  16
ATOM     16  N   UNL A   1      32.410  34.085  27.603  1.00  0.00    -0.352 N 
ATOM     17  C   UNL A   1      32.989  34.876  28.566  1.00  0.00     0.251 C 
ATOM     18  H   UNL A   1      31.673  34.508  27.108  1.00  0.00     0.163 HD
ATOM     19  O   UNL A   1      32.489  35.968  28.837  1.00  0.00    -0.269 OA
BRANCH  17  20
ATOM     20  C   UNL A   1      34.184  34.419  29.309  1.00  0.00     0.039 A 
ATOM     21  C   UNL A   1      34.001  33.794  30.547  1.00  0.00     0.014 A 
ATOM     22  C   UNL A   1      35.475  34.606  28.811  1.00  0.00     0.014 A 
ATOM     23  C   UNL A   1      35.102  33.286  31.242  1.00  0.00     0.010 A 
ATOM     24  C   UNL A   1      36.565  34.037  29.468  1.00  0.00     0.010 A 
ATOM     25  C   UNL A   1      36.389  33.360  30.686  1.00  0.00    -0.014 A 
BRANCH  25  26
ATOM     26  C   UNL A   1      37.549  32.700  31.342  1.00  0.00     0.031 A 
ATOM     27  C   UNL A   1      38.259  31.553  30.679  1.00  0.00     0.074 A 
ATOM     28  C   UNL A   1      37.923  33.096  32.575  1.00  0.00     0.049 A 
ATOM     29  N   UNL A   1      39.240  30.813  31.131  1.00  0.00    -0.248 NA
ATOM     30  C   UNL A   1      37.789  31.171  29.339  1.00  0.00     0.031 C 
ATOM     31  C   UNL A   1      37.290  34.167  33.347  1.00  0.00     0.029 A 
ATOM     32  N   UNL A   1      38.917  32.634  33.404  1.00  0.00    -0.354 N 
ATOM     33  C   UNL A   1      39.499  29.876  30.139  1.00  0.00     0.074 A 
ATOM     34  C   UNL A   1      38.537  30.108  29.082  1.00  0.00     0.031 C 
ATOM     35  C   UNL A   1      37.922  34.295  34.524  1.00  0.00     0.029 A 
ATOM     36  C   UNL A   1      38.974  33.286  34.612  1.00  0.00     0.049 A 
ATOM     37  H   UNL A   1      39.530  31.906  33.156  1.00  0.00     0.167 HD
ATOM     38  C   UNL A   1      40.461  28.923  30.105  1.00  0.00     0.037 A 
ATOM     39  C   UNL A   1      39.772  33.087  35.678  1.00  0.00     0.037 A 
ATOM     40  C   UNL A   1      41.425  28.703  31.152  1.00  0.00     0.049 A 
ATOM     41  C   UNL A   1      40.815  32.003  35.624  1.00  0.00     0.074 A 
ATOM     42  C   UNL A   1      42.475  27.801  31.183  1.00  0.00     0.029 A 
ATOM     43  N   UNL A   1      41.454  29.387  32.359  1.00  0.00    -0.354 N 
ATOM     44  N   UNL A   1      41.094  31.170  34.651  1.00  0.00    -0.248 NA
ATOM     45  C   UNL A   1      41.658  31.837  36.816  1.00  0.00     0.031 C 
ATOM     46  C   UNL A   1      43.102  27.898  32.429  1.00  0.00     0.029 A 
ATOM     47  C   UNL A   1      42.483  28.904  33.153  1.00  0.00     0.049 A 
ATOM     48  H   UNL A   1      40.835  30.108  32.615  1.00  0.00     0.167 HD
ATOM     49  C   UNL A   1      42.160  30.401  35.102  1.00  0.00     0.074 A 
ATOM     50  C   UNL A   1      42.489  30.879  36.428  1.00  0.00     0.031 C 
ATOM     51  C   UNL A   1      42.805  29.389  34.472  1.00  0.00     0.037 A 
BRANCH  38  52
ATOM     52  C   UNL A   1      40.521  28.037  28.893  1.00  0.00     0.064 A 
ATOM     53  C   UNL A   1      39.798  26.836  28.823  1.00  0.00     0.173 A 
ATOM     54  C   UNL A   1      41.272  28.415  27.770  1.00  0.00     0.173 A 
ATOM     55  F   UNL A   1      39.070  26.423  29.872  1.00  0.00    -0.203 F 
ATOM     56  C   UNL A   1      39.848  26.033  27.685  1.00  0.00     0.198 A 
ATOM     57  C   UNL A   1      41.294  27.627  26.623  1.00  0.00     0.198 A 
ATOM     58  F   UNL A   1      41.976  29.558  27.778  1.00  0.00    -0.203 F 
ATOM     59  F   UNL A   1      39.188  24.868  27.660  1.00  0.00    -0.200 F 
ATOM     60  C   UNL A   1      40.589  26.433  26.583  1.00  0.00     0.200 A 
ATOM     61  F   UNL A   1      41.998  28.023  25.552  1.00  0.00    -0.200 F 
ATOM     62  F   UNL A   1      40.629  25.665  25.486  1.00  0.00    -0.200 F 
ENDBRANCH  38  52
BRANCH  39  63
ATOM     63  C   UNL A   1      39.623  33.940  36.888  1.00  0.00     0.064 A 
ATOM     64  C   UNL A   1      38.826  33.528  37.965  1.00  0.00     0.173 A 
ATOM     65  C   UNL A   1      40.263  35.183  36.988  1.00  0.00     0.173 A 
ATOM     66  F   UNL A   1      38.174  32.357  37.907  1.00  0.00    -0.203 F 
ATOM     67  C   UNL A   1      38.658  34.338  39.086  1.00  0.00     0.198 A 
ATOM     68  C   UNL A   1      40.121  35.978  38.123  1.00  0.00     0.198 A 
ATOM     69  F   UNL A   1      41.041  35.622  35.986  1.00  0.00    -0.203 F 
ATOM     70  F   UNL A   1      37.850  33.943  40.080  1.00  0.00    -0.200 F 
ATOM     71  C   UNL A   1      39.310  35.559  39.168  1.00  0.00     0.200 A 
ATOM     72  F   UNL A   1      40.765  37.150  38.203  1.00  0.00    -0.200 F 
ATOM     73  F   UNL A   1      39.152  36.335  40.248  1.00  0.00    -0.200 F 
ENDBRANCH  39  63
BRANCH  51  74
ATOM     74  C   UNL A   1      43.957  28.751  35.195  1.00  0.00     0.064 A 
ATOM     75  C   UNL A   1      45.271  29.224  35.053  1.00  0.00     0.173 A 
ATOM     76  C   UNL A   1      43.740  27.672  36.066  1.00  0.00     0.173 A 
ATOM     77  F   UNL A   1      45.535  30.242  34.221  1.00  0.00    -0.203 F 
ATOM     78  C   UNL A   1      46.326  28.622  35.734  1.00  0.00     0.198 A 
ATOM     79  C   UNL A   1      44.793  27.095  36.770  1.00  0.00     0.198 A 
ATOM     80  F   UNL A   1      42.503  27.185  36.243  1.00  0.00    -0.203 F 
ATOM     81  F   UNL A   1      47.579  29.057  35.541  1.00  0.00    -0.200 F 
ATOM     82  C   UNL A   1      46.085  27.564  36.598  1.00  0.00     0.200 A 
ATOM     83  F   UNL A   1      44.556  26.082  37.616  1.00  0.00    -0.200 F 
ATOM     84  F   UNL A   1      47.101  26.991  37.258  1.00  0.00    -0.200 F 
ENDBRANCH  51  74
ENDBRANCH  25  26
ENDBRANCH  17  20
ENDBRANCH  15  16
ENDBRANCH   1  15
TORSDOF 11
ENDMDL
MODEL 2
REMARK VINA RESULT:     -11.6      1.201      2.329
REMARK SMILES O=C(Cc1cccnc1Cl)NCCCNC(=O)c1ccc(-c2c3nc(c(-c4c(F)c(F)c(F)c(F)c4F)c4ccc([nH]4)c(-c4c(F)c(F)c(F)c(F)c4F)c4nc(c(-c5c(F)c(F)c(F)c(F)c5F)c5ccc2[nH]5)C=C4)C=C3)cc1
REMARK SMILES IDX 13 1 12 2 11 3 1 4 2 5 3 7 4 8 5 9 9 10 6 11 8 12 10 13 7 14
REMARK SMILES IDX 14 15 15 16 16 17 17 19 18 20 19 21 80 22 20 23 79 24 21 25
REMARK SMILES IDX 22 26 23 27 73 28 24 29 78 30 72 31 74 32 25 33 77 34 71 35
REMARK SMILES IDX 70 36 26 38 58 39 38 40 57 41 39 42 42 43 56 44 75 45 40 46
REMARK SMILES IDX 41 47 55 49 76 50 43 51 27 52 28 53 36 54 29 55 30 56 34 57
REMARK SMILES IDX 37 58 31 59 32 60 35 61 33 62 59 63 60 64 68 65 61 66 62 67
REMARK SMILES IDX 66 68 69 69 63 70 64 71 67 72 65 73 44 74 45 75 53 76 46 77
REMARK SMILES IDX 47 78 51 79 54 80 48 81 49 82 52 83 50 84
REMARK H PARENT 11 6 15 18 74 37 42 48
REMARK Flexibility Score: inf
ROOT
ATOM      1  C   UNL A   1      31.578  32.103  26.633  1.00  0.00     0.042 C 
ENDROOT
BRANCH   1   2
ATOM      2  C   UNL A   1      31.776  30.595  26.531  1.00  0.00     0.117 C 
BRANCH   2   3
ATOM      3  N   UNL A   1      31.497  30.097  25.199  1.00  0.00    -0.356 N 
ATOM      4  O   UNL A   1      31.693  27.863  25.694  1.00  0.00    -0.275 OA
ATOM      5  C   UNL A   1      31.459  28.756  24.885  1.00  0.00     0.224 C 
ATOM      6  H   UNL A   1      31.327  30.750  24.482  1.00  0.00     0.163 HD
BRANCH   5   7
ATOM      7  C   UNL A   1      31.140  28.459  23.429  1.00  0.00     0.138 C 
BRANCH   7   8
ATOM      8  C   UNL A   1      31.819  27.213  22.920  1.00  0.00    -0.001 A 
ATOM      9  C   UNL A   1      31.120  26.002  22.885  1.00  0.00     0.009 A 
ATOM     10  C   UNL A   1      33.122  27.197  22.423  1.00  0.00     0.132 A 
ATOM     11  C   UNL A   1      31.730  24.859  22.374  1.00  0.00     0.020 A 
ATOM     12  N   UNL A   1      33.735  26.109  21.912  1.00  0.00    -0.244 NA
ATOM     13  Cl  UNL A   1      34.117  28.602  22.363  1.00  0.00    -0.062 Cl
ATOM     14  C   UNL A   1      33.026  24.964  21.900  1.00  0.00     0.113 A 
ENDBRANCH   7   8
ENDBRANCH   5   7
ENDBRANCH   2   3
ENDBRANCH   1   2
BRANCH   1  15
ATOM     15  C   UNL A   1      32.777  32.874  27.180  1.00  0.00     0.118 C 
BRANCH  15  16
ATOM     16  N   UNL A   1      32.449  34.219  27.628  1.00  0.00    -0.352 N 
ATOM     17  C   UNL A   1      33.007  34.980  28.626  1.00  0.00     0.251 C 
ATOM     18  H   UNL A   1      31.713  34.652  27.139  1.00  0.00     0.163 HD
ATOM     19  O   UNL A   1      32.492  36.055  28.931  1.00  0.00    -0.269 OA
BRANCH  17  20
ATOM     20  C   UNL A   1      34.198  34.508  29.367  1.00  0.00     0.039 A 
ATOM     21  C   UNL A   1      34.012  33.905  30.615  1.00  0.00     0.014 A 
ATOM     22  C   UNL A   1      35.488  34.661  28.856  1.00  0.00     0.014 A 
ATOM     23  C   UNL A   1      35.107  33.384  31.309  1.00  0.00     0.010 A 
ATOM     24  C   UNL A   1      36.572  34.078  29.513  1.00  0.00     0.010 A 
ATOM     25  C   UNL A   1      36.391  33.422  30.742  1.00  0.00    -0.014 A 
BRANCH  25  26
ATOM     26  C   UNL A   1      37.542  32.748  31.399  1.00  0.00     0.031 A 
ATOM     27  C   UNL A   1      38.233  31.587  30.739  1.00  0.00     0.074 A 
ATOM     28  C   UNL A   1      37.925  33.143  32.629  1.00  0.00     0.049 A 
ATOM     29  N   UNL A   1      39.203  30.834  31.193  1.00  0.00    -0.248 NA
ATOM     30  C   UNL A   1      37.754  31.206  29.402  1.00  0.00     0.031 C 
ATOM     31  C   UNL A   1      37.310  34.227  33.397  1.00  0.00     0.029 A 
ATOM     32  N   UNL A   1      38.913  32.669  33.459  1.00  0.00    -0.354 N 
ATOM     33  C   UNL A   1      39.445  29.888  30.205  1.00  0.00     0.074 A 
ATOM     34  C   UNL A   1      38.485  30.130  29.149  1.00  0.00     0.031 C 
ATOM     35  C   UNL A   1      37.946  34.350  34.573  1.00  0.00     0.029 A 
ATOM     36  C   UNL A   1      38.982  33.326  34.663  1.00  0.00     0.049 A 
ATOM     37  H   UNL A   1      39.514  31.931  33.212  1.00  0.00     0.167 HD
ATOM     38  C   UNL A   1      40.393  28.921  30.173  1.00  0.00     0.037 A 
ATOM     39  C   UNL A   1      39.779  33.119  35.729  1.00  0.00     0.037 A 
ATOM     40  C   UNL A   1      41.356  28.690  31.219  1.00  0.00     0.049 A 
ATOM     41  C   UNL A   1      40.806  32.019  35.678  1.00  0.00     0.074 A 
ATOM     42  C   UNL A   1      42.391  27.772  31.252  1.00  0.00     0.029 A 
ATOM     43  N   UNL A   1      41.397  29.379  32.423  1.00  0.00    -0.354 N 
ATOM     44  N   UNL A   1      41.070  31.178  34.708  1.00  0.00    -0.248 NA
ATOM     45  C   UNL A   1      41.649  31.845  36.869  1.00  0.00     0.031 C 
ATOM     46  C   UNL A   1      43.022  27.865  32.496  1.00  0.00     0.029 A 
ATOM     47  C   UNL A   1      42.421  28.884  33.217  1.00  0.00     0.049 A 
ATOM     48  H   UNL A   1      40.790  30.111  32.677  1.00  0.00     0.167 HD
ATOM     49  C   UNL A   1      42.124  30.394  35.160  1.00  0.00     0.074 A 
ATOM     50  C   UNL A   1      42.463  30.873  36.483  1.00  0.00     0.031 C 
ATOM     51  C   UNL A   1      42.753  29.369  34.534  1.00  0.00     0.037 A 
BRANCH  38  52
ATOM     52  C   UNL A   1      40.436  28.028  28.965  1.00  0.00     0.064 A 
ATOM     53  C   UNL A   1      41.211  28.348  27.840  1.00  0.00     0.173 A 
ATOM     54  C   UNL A   1      39.732  26.814  28.951  1.00  0.00     0.173 A 
ATOM     55  F   UNL A   1      41.898  29.500  27.798  1.00  0.00    -0.203 F 
ATOM     56  C   UNL A   1      41.256  27.501  26.735  1.00  0.00     0.198 A 
ATOM     57  C   UNL A   1      39.805  25.955  27.858  1.00  0.00     0.198 A 
ATOM     58  F   UNL A   1      38.982  26.453  30.003  1.00  0.00    -0.203 F 
ATOM     59  F   UNL A   1      41.965  27.851  25.653  1.00  0.00    -0.200 F 
ATOM     60  C   UNL A   1      40.560  26.302  26.747  1.00  0.00     0.200 A 
ATOM     61  F   UNL A   1      39.144  24.788  27.878  1.00  0.00    -0.200 F 
ATOM     62  F   UNL A   1      40.612  25.483  25.688  1.00  0.00    -0.200 F 
ENDBRANCH  38  52
BRANCH  39  63
ATOM     63  C   UNL A   1      39.647  33.979  36.935  1.00  0.00     0.064 A 
ATOM     64  C   UNL A   1      40.308  35.213  37.015  1.00  0.00     0.173 A 
ATOM     65  C   UNL A   1      38.869  33.585  38.032  1.00  0.00     0.173 A 
ATOM     66  F   UNL A   1      41.083  35.625  36.000  1.00  0.00    -0.203 F 
ATOM     67  C   UNL A   1      40.213  36.008  38.155  1.00  0.00     0.198 A 
ATOM     68  C   UNL A   1      38.748  34.394  39.159  1.00  0.00     0.198 A 
ATOM     69  F   UNL A   1      38.213  32.415  38.005  1.00  0.00    -0.203 F 
ATOM     70  F   UNL A   1      40.896  37.159  38.225  1.00  0.00    -0.200 F 
ATOM     71  C   UNL A   1      39.428  35.602  39.224  1.00  0.00     0.200 A 
ATOM     72  F   UNL A   1      37.977  34.005  40.182  1.00  0.00    -0.200 F 
ATOM     73  F   UNL A   1      39.334  36.369  40.317  1.00  0.00    -0.200 F 
ENDBRANCH  39  63
BRANCH  51  74
ATOM     74  C   UNL A   1      43.896  28.716  35.257  1.00  0.00     0.064 A 
ATOM     75  C   UNL A   1      45.219  29.153  35.091  1.00  0.00     0.173 A 
ATOM     76  C   UNL A   1      43.661  27.661  36.152  1.00  0.00     0.173 A 
ATOM     77  F   UNL A   1      45.501  30.147  34.236  1.00  0.00    -0.203 F 
ATOM     78  C   UNL A   1      46.267  28.537  35.773  1.00  0.00     0.198 A 
ATOM     79  C   UNL A   1      44.707  27.071  36.856  1.00  0.00     0.198 A 
ATOM     80  F   UNL A   1      42.414  27.209  36.352  1.00  0.00    -0.203 F 
ATOM     81  F   UNL A   1      47.528  28.936  35.558  1.00  0.00    -0.200 F 
ATOM     82  C   UNL A   1      46.008  27.504  36.661  1.00  0.00     0.200 A 
ATOM     83  F   UNL A   1      44.454  26.082  37.725  1.00  0.00    -0.200 F 
ATOM     84  F   UNL A   1      47.017  26.918  37.321  1.00  0.00    -0.200 F 
ENDBRANCH  51  74
ENDBRANCH  25  26
ENDBRANCH  17  20
ENDBRANCH  15  16
ENDBRANCH   1  15
TORSDOF 11
ENDMDL
MODEL 3
REMARK VINA RESULT:     -11.6      2.094      3.172
REMARK SMILES O=C(Cc1cccnc1Cl)NCCCNC(=O)c1ccc(-c2c3nc(c(-c4c(F)c(F)c(F)c(F)c4F)c4ccc([nH]4)c(-c4c(F)c(F)c(F)c(F)c4F)c4nc(c(-c5c(F)c(F)c(F)c(F)c5F)c5ccc2[nH]5)C=C4)C=C3)cc1
REMARK SMILES IDX 13 1 12 2 11 3 1 4 2 5 3 7 4 8 5 9 9 10 6 11 8 12 10 13 7 14
REMARK SMILES IDX 14 15 15 16 16 17 17 19 18 20 19 21 80 22 20 23 79 24 21 25
REMARK SMILES IDX 22 26 23 27 73 28 24 29 78 30 72 31 74 32 25 33 77 34 71 35
REMARK SMILES IDX 70 36 26 38 58 39 38 40 57 41 39 42 42 43 56 44 75 45 40 46
REMARK SMILES IDX 41 47 55 49 76 50 43 51 27 52 28 53 36 54 29 55 30 56 34 57
REMARK SMILES IDX 37 58 31 59 32 60 35 61 33 62 59 63 60 64 68 65 61 66 62 67
REMARK SMILES IDX 66 68 69 69 63 70 64 71 67 72 65 73 44 74 45 75 53 76 46 77
REMARK SMILES IDX 47 78 51 79 54 80 48 81 49 82 52 83 50 84
REMARK H PARENT 11 6 15 18 74 37 42 48
REMARK Flexibility Score: inf
ROOT
ATOM      1  C   UNL A   1      33.679  29.295  24.129  1.00  0.00     0.042 C 
ENDROOT
BRANCH   1   2
ATOM      2  C   UNL A   1      32.794  28.909  22.949  1.00  0.00     0.117 C 
BRANCH   2   3
ATOM      3  N   UNL A   1      31.407  29.262  23.170  1.00  0.00    -0.356 N 
ATOM      4  O   UNL A   1      30.489  27.574  21.913  1.00  0.00    -0.275 OA
ATOM      5  C   UNL A   1      30.351  28.549  22.644  1.00  0.00     0.224 C 
ATOM      6  H   UNL A   1      31.208  30.052  23.723  1.00  0.00     0.163 HD
BRANCH   5   7
ATOM      7  C   UNL A   1      28.979  29.093  23.009  1.00  0.00     0.138 C 
BRANCH   7   8
ATOM      8  C   UNL A   1      28.673  30.411  22.346  1.00  0.00    -0.001 A 
ATOM      9  C   UNL A   1      28.142  30.433  21.051  1.00  0.00     0.009 A 
ATOM     10  C   UNL A   1      28.844  31.645  22.971  1.00  0.00     0.132 A 
ATOM     11  C   UNL A   1      27.816  31.647  20.452  1.00  0.00     0.020 A 
ATOM     12  N   UNL A   1      28.528  32.835  22.421  1.00  0.00    -0.244 NA
ATOM     13  Cl  UNL A   1      29.457  31.803  24.573  1.00  0.00    -0.062 Cl
ATOM     14  C   UNL A   1      28.022  32.810  21.173  1.00  0.00     0.113 A 
ENDBRANCH   7   8
ENDBRANCH   5   7
ENDBRANCH   2   3
ENDBRANCH   1   2
BRANCH   1  15
ATOM     15  C   UNL A   1      33.005  29.199  25.497  1.00  0.00     0.118 C 
BRANCH  15  16
ATOM     16  N   UNL A   1      32.593  30.487  26.033  1.00  0.00    -0.352 N 
ATOM     17  C   UNL A   1      33.169  31.265  27.008  1.00  0.00     0.251 C 
ATOM     18  H   UNL A   1      31.773  30.860  25.636  1.00  0.00     0.163 HD
ATOM     19  O   UNL A   1      32.584  32.271  27.408  1.00  0.00    -0.269 OA
BRANCH  17  20
ATOM     20  C   UNL A   1      34.467  30.891  27.610  1.00  0.00     0.039 A 
ATOM     21  C   UNL A   1      35.447  31.878  27.753  1.00  0.00     0.014 A 
ATOM     22  C   UNL A   1      34.735  29.584  28.024  1.00  0.00     0.014 A 
ATOM     23  C   UNL A   1      36.658  31.576  28.383  1.00  0.00     0.010 A 
ATOM     24  C   UNL A   1      35.912  29.299  28.716  1.00  0.00     0.010 A 
ATOM     25  C   UNL A   1      36.882  30.296  28.913  1.00  0.00    -0.014 A 
BRANCH  25  26
ATOM     26  C   UNL A   1      38.102  29.997  29.710  1.00  0.00     0.031 A 
ATOM     27  C   UNL A   1      39.147  29.050  29.190  1.00  0.00     0.074 A 
ATOM     28  C   UNL A   1      38.235  30.531  30.940  1.00  0.00     0.049 A 
ATOM     29  N   UNL A   1      40.236  28.617  29.774  1.00  0.00    -0.248 NA
ATOM     30  C   UNL A   1      38.928  28.498  27.844  1.00  0.00     0.031 C 
ATOM     31  C   UNL A   1      37.272  31.431  31.579  1.00  0.00     0.029 A 
ATOM     32  N   UNL A   1      39.226  30.386  31.880  1.00  0.00    -0.354 N 
ATOM     33  C   UNL A   1      40.827  27.739  28.875  1.00  0.00     0.074 A 
ATOM     34  C   UNL A   1      39.949  27.661  27.727  1.00  0.00     0.031 C 
ATOM     35  C   UNL A   1      37.728  31.773  32.794  1.00  0.00     0.029 A 
ATOM     36  C   UNL A   1      38.991  31.083  33.040  1.00  0.00     0.049 A 
ATOM     37  H   UNL A   1      40.029  29.836  31.735  1.00  0.00     0.167 HD
ATOM     38  C   UNL A   1      42.002  27.074  28.988  1.00  0.00     0.037 A 
ATOM     39  C   UNL A   1      39.703  31.150  34.181  1.00  0.00     0.037 A 
ATOM     40  C   UNL A   1      42.880  27.163  30.126  1.00  0.00     0.049 A 
ATOM     41  C   UNL A   1      40.992  30.380  34.291  1.00  0.00     0.074 A 
ATOM     42  C   UNL A   1      44.119  26.573  30.308  1.00  0.00     0.029 A 
ATOM     43  N   UNL A   1      42.610  27.883  31.281  1.00  0.00    -0.354 N 
ATOM     44  N   UNL A   1      41.573  29.608  33.405  1.00  0.00    -0.248 NA
ATOM     45  C   UNL A   1      41.725  30.496  35.559  1.00  0.00     0.031 C 
ATOM     46  C   UNL A   1      44.572  26.889  31.593  1.00  0.00     0.029 A 
ATOM     47  C   UNL A   1      43.644  27.726  32.191  1.00  0.00     0.049 A 
ATOM     48  H   UNL A   1      41.802  28.426  31.433  1.00  0.00     0.167 HD
ATOM     49  C   UNL A   1      42.751  29.169  33.997  1.00  0.00     0.074 A 
ATOM     50  C   UNL A   1      42.810  29.776  35.310  1.00  0.00     0.031 C 
ATOM     51  C   UNL A   1      43.696  28.337  33.496  1.00  0.00     0.037 A 
BRANCH  38  52
ATOM     52  C   UNL A   1      42.410  26.182  27.850  1.00  0.00     0.064 A 
ATOM     53  C   UNL A   1      41.954  24.858  27.752  1.00  0.00     0.173 A 
ATOM     54  C   UNL A   1      43.229  26.669  26.821  1.00  0.00     0.173 A 
ATOM     55  F   UNL A   1      41.175  24.339  28.713  1.00  0.00    -0.203 F 
ATOM     56  C   UNL A   1      42.326  24.048  26.680  1.00  0.00     0.198 A 
ATOM     57  C   UNL A   1      43.573  25.868  25.735  1.00  0.00     0.198 A 
ATOM     58  F   UNL A   1      43.687  27.931  26.859  1.00  0.00    -0.203 F 
ATOM     59  F   UNL A   1      41.916  22.774  26.633  1.00  0.00    -0.200 F 
ATOM     60  C   UNL A   1      43.128  24.556  25.670  1.00  0.00     0.200 A 
ATOM     61  F   UNL A   1      44.335  26.365  24.750  1.00  0.00    -0.200 F 
ATOM     62  F   UNL A   1      43.477  23.780  24.635  1.00  0.00    -0.200 F 
ENDBRANCH  38  52
BRANCH  39  63
ATOM     63  C   UNL A   1      39.218  31.986  35.312  1.00  0.00     0.064 A 
ATOM     64  C   UNL A   1      38.448  31.428  36.342  1.00  0.00     0.173 A 
ATOM     65  C   UNL A   1      39.503  33.357  35.381  1.00  0.00     0.173 A 
ATOM     66  F   UNL A   1      38.129  30.125  36.309  1.00  0.00    -0.203 F 
ATOM     67  C   UNL A   1      37.965  32.213  37.386  1.00  0.00     0.198 A 
ATOM     68  C   UNL A   1      39.047  34.135  36.442  1.00  0.00     0.198 A 
ATOM     69  F   UNL A   1      40.239  33.941  34.423  1.00  0.00    -0.203 F 
ATOM     70  F   UNL A   1      37.189  31.663  38.331  1.00  0.00    -0.200 F 
ATOM     71  C   UNL A   1      38.270  33.565  37.440  1.00  0.00     0.200 A 
ATOM     72  F   UNL A   1      39.357  35.438  36.498  1.00  0.00    -0.200 F 
ATOM     73  F   UNL A   1      37.808  34.318  38.446  1.00  0.00    -0.200 F 
ENDBRANCH  39  63
BRANCH  51  74
ATOM     74  C   UNL A   1      44.896  28.059  34.356  1.00  0.00     0.064 A 
ATOM     75  C   UNL A   1      44.938  26.962  35.230  1.00  0.00     0.173 A 
ATOM     76  C   UNL A   1      46.030  28.881  34.281  1.00  0.00     0.173 A 
ATOM     77  F   UNL A   1      43.875  26.154  35.353  1.00  0.00    -0.203 F 
ATOM     78  C   UNL A   1      46.061  26.718  36.018  1.00  0.00     0.198 A 
ATOM     79  C   UNL A   1      47.163  28.614  35.045  1.00  0.00     0.198 A 
ATOM     80  F   UNL A   1      46.045  29.940  33.457  1.00  0.00    -0.203 F 
ATOM     81  F   UNL A   1      46.058  25.695  36.885  1.00  0.00    -0.200 F 
ATOM     82  C   UNL A   1      47.174  27.538  35.918  1.00  0.00     0.200 A 
ATOM     83  F   UNL A   1      48.243  29.399  34.937  1.00  0.00    -0.200 F 
ATOM     84  F   UNL A   1      48.256  27.296  36.672  1.00  0.00    -0.200 F 
ENDBRANCH  51  74
ENDBRANCH  25  26
ENDBRANCH  17  20
ENDBRANCH  15  16
ENDBRANCH   1  15
TORSDOF 11
ENDMDL
