MODEL 1
REMARK VINA RESULT:     -12.8      0.000      0.000
REMARK SMILES O=C(NCCCNC(=O)c1ccc(-c2c3nc(c(-c4c(F)c(F)c(F)c(F)c4F)c4ccc([nH]4)c(-c4c(F)c(F)c(F)c(F)c4F)c4nc(c(-c5c(F)c(F)c(F)c(F)c5F)c5ccc2[nH]5)C=C4)C=C3)cc1)c1ccc(O[C@@H]2[NH+]=C(Cl)[NH+]=C3N=CN=C32)cc1
REMARK SMILES IDX 5 1 4 2 3 3 1 4 2 5 73 7 74 8 89 9 75 10 88 11 76 12 77 13
REMARK SMILES IDX 78 14 79 15 87 16 80 17 83 19 86 20 81 21 82 22 84 23 85 24
REMARK SMILES IDX 6 26 7 27 8 28 9 30 10 31 11 32 72 33 12 34 71 35 13 36
REMARK SMILES IDX 14 37 15 38 65 39 16 40 70 41 64 42 66 43 17 44 69 45 63 46
REMARK SMILES IDX 62 47 18 49 50 50 30 51 49 52 31 53 34 54 48 55 67 56 32 57
REMARK SMILES IDX 33 58 47 60 68 61 35 62 19 63 20 64 28 65 21 66 22 67 26 68
REMARK SMILES IDX 29 69 23 70 24 71 27 72 25 73 51 74 52 75 60 76 53 77 54 78
REMARK SMILES IDX 58 79 61 80 55 81 56 82 59 83 57 84 36 85 37 86 45 87 38 88
REMARK SMILES IDX 39 89 43 90 46 91 40 92 41 93 44 94 42 95
REMARK H PARENT 3 6 79 18 82 25 7 29 66 48 34 59
REMARK Flexibility Score: inf
ROOT
ATOM      1  C   UNL A   1      32.118  28.362  25.379  1.00  0.00     0.042 C 
ENDROOT
BRANCH   1   2
ATOM      2  C   UNL A   1      31.639  28.080  23.969  1.00  0.00     0.118 C 
BRANCH   2   3
ATOM      3  N   UNL A   1      30.201  27.862  23.894  1.00  0.00    -0.352 N 
ATOM      4  O   UNL A   1      28.284  26.692  23.710  1.00  0.00    -0.269 OA
ATOM      5  C   UNL A   1      29.478  26.696  23.992  1.00  0.00     0.251 C 
ATOM      6  H   UNL A   1      29.663  28.674  23.749  1.00  0.00     0.163 HD
BRANCH   5   7
ATOM      7  C   UNL A   1      30.142  25.447  24.426  1.00  0.00     0.040 A 
ATOM      8  C   UNL A   1      30.303  25.168  25.784  1.00  0.00     0.017 A 
ATOM      9  C   UNL A   1      30.607  24.541  23.465  1.00  0.00     0.017 A 
ATOM     10  C   UNL A   1      31.053  24.075  26.180  1.00  0.00     0.047 A 
ATOM     11  C   UNL A   1      31.263  23.375  23.873  1.00  0.00     0.047 A 
ATOM     12  C   UNL A   1      31.463  23.141  25.233  1.00  0.00     0.127 A 
BRANCH  12  13
ATOM     13  O   UNL A   1      32.047  21.974  25.644  1.00  0.00    -0.429 OA
BRANCH  13  14
ATOM     14  C   UNL A   1      32.804  21.353  24.579  1.00  0.00     0.521 C 
ATOM     15  N   UNL A   1      32.520  19.939  24.315  1.00  0.00    -0.130 N 
ATOM     16  C   UNL A   1      34.261  21.581  24.750  1.00  0.00     0.246 C 
ATOM     17  C   UNL A   1      33.396  19.029  24.535  1.00  0.00     0.517 C 
ATOM     18  H   UNL A   1      31.638  19.683  23.962  1.00  0.00     0.458 HD
ATOM     19  C   UNL A   1      35.093  20.409  25.000  1.00  0.00     0.341 C 
ATOM     20  N   UNL A   1      35.013  22.634  24.851  1.00  0.00    -0.222 NA
ATOM     21  Cl  UNL A   1      32.924  17.405  24.272  1.00  0.00     0.068 Cl
ATOM     22  N   UNL A   1      34.688  19.197  24.928  1.00  0.00    -0.118 N 
ATOM     23  N   UNL A   1      36.352  20.821  25.309  1.00  0.00    -0.173 NA
ATOM     24  C   UNL A   1      36.262  22.116  25.194  1.00  0.00     0.230 C 
ATOM     25  H   UNL A   1      35.272  18.436  25.145  1.00  0.00     0.464 HD
ENDBRANCH  13  14
ENDBRANCH  12  13
ENDBRANCH   5   7
ENDBRANCH   2   3
ENDBRANCH   1   2
BRANCH   1  26
ATOM     26  C   UNL A   1      33.286  29.327  25.448  1.00  0.00     0.118 C 
BRANCH  26  27
ATOM     27  N   UNL A   1      32.899  30.646  25.926  1.00  0.00    -0.352 N 
ATOM     28  C   UNL A   1      33.366  31.389  26.980  1.00  0.00     0.251 C 
ATOM     29  H   UNL A   1      32.182  31.077  25.408  1.00  0.00     0.163 HD
ATOM     30  O   UNL A   1      32.760  32.401  27.319  1.00  0.00    -0.269 OA
BRANCH  28  31
ATOM     31  C   UNL A   1      34.580  30.978  27.722  1.00  0.00     0.039 A 
ATOM     32  C   UNL A   1      35.592  31.920  27.929  1.00  0.00     0.014 A 
ATOM     33  C   UNL A   1      34.750  29.668  28.173  1.00  0.00     0.014 A 
ATOM     34  C   UNL A   1      36.746  31.558  28.626  1.00  0.00     0.010 A 
ATOM     35  C   UNL A   1      35.845  29.339  28.964  1.00  0.00     0.010 A 
ATOM     36  C   UNL A   1      36.869  30.271  29.172  1.00  0.00    -0.014 A 
BRANCH  36  37
ATOM     37  C   UNL A   1      38.087  29.863  29.913  1.00  0.00     0.031 A 
ATOM     38  C   UNL A   1      38.311  30.358  31.317  1.00  0.00     0.074 A 
ATOM     39  C   UNL A   1      39.012  29.096  29.308  1.00  0.00     0.049 A 
ATOM     40  N   UNL A   1      39.327  30.149  32.117  1.00  0.00    -0.248 NA
ATOM     41  C   UNL A   1      37.274  31.233  31.886  1.00  0.00     0.031 C 
ATOM     42  C   UNL A   1      38.943  28.615  27.928  1.00  0.00     0.029 A 
ATOM     43  N   UNL A   1      40.200  28.593  29.777  1.00  0.00    -0.354 N 
ATOM     44  C   UNL A   1      39.062  30.888  33.263  1.00  0.00     0.074 A 
ATOM     45  C   UNL A   1      37.822  31.596  33.035  1.00  0.00     0.031 C 
ATOM     46  C   UNL A   1      40.024  27.860  27.671  1.00  0.00     0.029 A 
ATOM     47  C   UNL A   1      40.872  27.825  28.859  1.00  0.00     0.049 A 
ATOM     48  H   UNL A   1      40.536  28.765  30.687  1.00  0.00     0.167 HD
ATOM     49  C   UNL A   1      39.773  30.948  34.414  1.00  0.00     0.037 A 
ATOM     50  C   UNL A   1      42.037  27.162  28.969  1.00  0.00     0.037 A 
ATOM     51  C   UNL A   1      40.979  30.203  34.655  1.00  0.00     0.049 A 
ATOM     52  C   UNL A   1      42.776  27.194  30.279  1.00  0.00     0.074 A 
ATOM     53  C   UNL A   1      41.736  30.133  35.812  1.00  0.00     0.029 A 
ATOM     54  N   UNL A   1      41.601  29.391  33.718  1.00  0.00    -0.354 N 
ATOM     55  N   UNL A   1      42.477  27.833  31.383  1.00  0.00    -0.248 NA
ATOM     56  C   UNL A   1      44.007  26.396  30.361  1.00  0.00     0.031 C 
ATOM     57  C   UNL A   1      42.834  29.301  35.565  1.00  0.00     0.029 A 
ATOM     58  C   UNL A   1      42.738  28.821  34.268  1.00  0.00     0.049 A 
ATOM     59  H   UNL A   1      41.281  29.240  32.800  1.00  0.00     0.167 HD
ATOM     60  C   UNL A   1      43.464  27.496  32.299  1.00  0.00     0.074 A 
ATOM     61  C   UNL A   1      44.362  26.581  31.624  1.00  0.00     0.031 C 
ATOM     62  C   UNL A   1      43.614  27.908  33.582  1.00  0.00     0.037 A 
BRANCH  49  63
ATOM     63  C   UNL A   1      39.253  31.843  35.501  1.00  0.00     0.064 A 
ATOM     64  C   UNL A   1      38.405  31.360  36.511  1.00  0.00     0.173 A 
ATOM     65  C   UNL A   1      39.619  33.197  35.545  1.00  0.00     0.173 A 
ATOM     66  F   UNL A   1      38.011  30.077  36.505  1.00  0.00    -0.203 F 
ATOM     67  C   UNL A   1      37.916  32.206  37.502  1.00  0.00     0.198 A 
ATOM     68  C   UNL A   1      39.153  34.033  36.557  1.00  0.00     0.198 A 
ATOM     69  F   UNL A   1      40.430  33.709  34.608  1.00  0.00    -0.203 F 
ATOM     70  F   UNL A   1      37.063  31.734  38.422  1.00  0.00    -0.200 F 
ATOM     71  C   UNL A   1      38.295  33.539  37.528  1.00  0.00     0.200 A 
ATOM     72  F   UNL A   1      39.528  35.318  36.588  1.00  0.00    -0.200 F 
ATOM     73  F   UNL A   1      37.826  34.351  38.486  1.00  0.00    -0.200 F 
ENDBRANCH  49  63
BRANCH  50  74
ATOM     74  C   UNL A   1      42.547  26.369  27.822  1.00  0.00     0.064 A 
ATOM     75  C   UNL A   1      43.491  26.910  26.939  1.00  0.00     0.173 A 
ATOM     76  C   UNL A   1      42.113  25.056  27.592  1.00  0.00     0.173 A 
ATOM     77  F   UNL A   1      43.922  28.169  27.110  1.00  0.00    -0.203 F 
ATOM     78  C   UNL A   1      43.967  26.176  25.856  1.00  0.00     0.198 A 
ATOM     79  C   UNL A   1      42.610  24.313  26.524  1.00  0.00     0.198 A 
ATOM     80  F   UNL A   1      41.218  24.490  28.415  1.00  0.00    -0.203 F 
ATOM     81  F   UNL A   1      44.838  26.731  25.003  1.00  0.00    -0.200 F 
ATOM     82  C   UNL A   1      43.530  24.875  25.652  1.00  0.00     0.200 A 
ATOM     83  F   UNL A   1      42.196  23.052  26.337  1.00  0.00    -0.200 F 
ATOM     84  F   UNL A   1      43.992  24.167  24.614  1.00  0.00    -0.200 F 
ENDBRANCH  50  74
BRANCH  62  85
ATOM     85  C   UNL A   1      44.774  27.344  34.347  1.00  0.00     0.064 A 
ATOM     86  C   UNL A   1      44.666  26.144  35.066  1.00  0.00     0.173 A 
ATOM     87  C   UNL A   1      46.015  27.998  34.338  1.00  0.00     0.173 A 
ATOM     88  F   UNL A   1      43.495  25.490  35.116  1.00  0.00    -0.203 F 
ATOM     89  C   UNL A   1      45.751  25.636  35.775  1.00  0.00     0.198 A 
ATOM     90  C   UNL A   1      47.106  27.472  35.024  1.00  0.00     0.198 A 
ATOM     91  F   UNL A   1      46.170  29.144  33.659  1.00  0.00    -0.203 F 
ATOM     92  F   UNL A   1      45.612  24.515  36.497  1.00  0.00    -0.200 F 
ATOM     93  C   UNL A   1      46.970  26.297  35.748  1.00  0.00     0.200 A 
ATOM     94  F   UNL A   1      48.286  28.105  34.989  1.00  0.00    -0.200 F 
ATOM     95  F   UNL A   1      48.015  25.806  36.430  1.00  0.00    -0.200 F 
ENDBRANCH  62  85
ENDBRANCH  36  37
ENDBRANCH  28  31
ENDBRANCH  26  27
ENDBRANCH   1  26
TORSDOF 12
ENDMDL
MODEL 2
REMARK VINA RESULT:     -12.8      1.019      2.167
REMARK SMILES O=C(NCCCNC(=O)c1ccc(-c2c3nc(c(-c4c(F)c(F)c(F)c(F)c4F)c4ccc([nH]4)c(-c4c(F)c(F)c(F)c(F)c4F)c4nc(c(-c5c(F)c(F)c(F)c(F)c5F)c5ccc2[nH]5)C=C4)C=C3)cc1)c1ccc(O[C@@H]2[NH+]=C(Cl)[NH+]=C3N=CN=C32)cc1
REMARK SMILES IDX 5 1 4 2 3 3 1 4 2 5 73 7 74 8 89 9 75 10 88 11 76 12 77 13
REMARK SMILES IDX 78 14 79 15 87 16 80 17 83 19 86 20 81 21 82 22 84 23 85 24
REMARK SMILES IDX 6 26 7 27 8 28 9 30 10 31 11 32 72 33 12 34 71 35 13 36
REMARK SMILES IDX 14 37 15 38 65 39 16 40 70 41 64 42 66 43 17 44 69 45 63 46
REMARK SMILES IDX 62 47 18 49 50 50 30 51 49 52 31 53 34 54 48 55 67 56 32 57
REMARK SMILES IDX 33 58 47 60 68 61 35 62 19 63 20 64 28 65 21 66 22 67 26 68
REMARK SMILES IDX 29 69 23 70 24 71 27 72 25 73 51 74 52 75 60 76 53 77 54 78
REMARK SMILES IDX 58 79 61 80 55 81 56 82 59 83 57 84 36 85 37 86 45 87 38 88
REMARK SMILES IDX 39 89 43 90 46 91 40 92 41 93 44 94 42 95
REMARK H PARENT 3 6 79 18 82 25 7 29 66 48 34 59
REMARK Flexibility Score: inf
ROOT
ATOM      1  C   UNL A   1      31.789  28.725  26.398  1.00  0.00     0.042 C 
ENDROOT
BRANCH   1   2
ATOM      2  C   UNL A   1      31.595  27.497  25.532  1.00  0.00     0.118 C 
BRANCH   2   3
ATOM      3  N   UNL A   1      31.001  27.806  24.238  1.00  0.00    -0.352 N 
ATOM      4  O   UNL A   1      30.612  27.599  22.028  1.00  0.00    -0.269 OA
ATOM      5  C   UNL A   1      31.005  27.082  23.069  1.00  0.00     0.251 C 
ATOM      6  H   UNL A   1      30.524  28.665  24.193  1.00  0.00     0.163 HD
BRANCH   5   7
ATOM      7  C   UNL A   1      31.493  25.685  23.064  1.00  0.00     0.040 A 
ATOM      8  C   UNL A   1      30.663  24.646  23.490  1.00  0.00     0.017 A 
ATOM      9  C   UNL A   1      32.793  25.408  22.627  1.00  0.00     0.017 A 
ATOM     10  C   UNL A   1      31.173  23.366  23.623  1.00  0.00     0.047 A 
ATOM     11  C   UNL A   1      33.267  24.093  22.651  1.00  0.00     0.047 A 
ATOM     12  C   UNL A   1      32.442  23.076  23.132  1.00  0.00     0.127 A 
BRANCH  12  13
ATOM     13  O   UNL A   1      32.874  21.777  23.101  1.00  0.00    -0.429 OA
BRANCH  13  14
ATOM     14  C   UNL A   1      33.237  21.305  24.418  1.00  0.00     0.521 C 
ATOM     15  N   UNL A   1      34.525  21.766  24.946  1.00  0.00    -0.130 N 
ATOM     16  C   UNL A   1      33.121  19.827  24.512  1.00  0.00     0.246 C 
ATOM     17  C   UNL A   1      35.497  20.954  25.141  1.00  0.00     0.517 C 
ATOM     18  H   UNL A   1      34.646  22.721  25.155  1.00  0.00     0.458 HD
ATOM     19  C   UNL A   1      34.352  19.077  24.731  1.00  0.00     0.341 C 
ATOM     20  N   UNL A   1      32.161  18.974  24.324  1.00  0.00    -0.222 NA
ATOM     21  Cl  UNL A   1      36.980  21.618  25.677  1.00  0.00     0.068 Cl
ATOM     22  N   UNL A   1      35.489  19.600  25.002  1.00  0.00    -0.118 N 
ATOM     23  N   UNL A   1      34.085  17.749  24.607  1.00  0.00    -0.173 NA
ATOM     24  C   UNL A   1      32.801  17.737  24.389  1.00  0.00     0.230 C 
ATOM     25  H   UNL A   1      36.304  19.059  25.103  1.00  0.00     0.464 HD
ENDBRANCH  13  14
ENDBRANCH  12  13
ENDBRANCH   5   7
ENDBRANCH   2   3
ENDBRANCH   1   2
BRANCH   1  26
ATOM     26  C   UNL A   1      32.985  29.570  26.003  1.00  0.00     0.118 C 
BRANCH  26  27
ATOM     27  N   UNL A   1      32.805  30.981  26.315  1.00  0.00    -0.352 N 
ATOM     28  C   UNL A   1      33.443  31.785  27.224  1.00  0.00     0.251 C 
ATOM     29  H   UNL A   1      32.108  31.433  25.787  1.00  0.00     0.163 HD
ATOM     30  O   UNL A   1      32.997  32.906  27.455  1.00  0.00    -0.269 OA
BRANCH  28  31
ATOM     31  C   UNL A   1      34.651  31.315  27.939  1.00  0.00     0.039 A 
ATOM     32  C   UNL A   1      35.736  32.187  28.072  1.00  0.00     0.014 A 
ATOM     33  C   UNL A   1      34.743  30.015  28.439  1.00  0.00     0.014 A 
ATOM     34  C   UNL A   1      36.886  31.768  28.743  1.00  0.00     0.010 A 
ATOM     35  C   UNL A   1      35.840  29.637  29.205  1.00  0.00     0.010 A 
ATOM     36  C   UNL A   1      36.936  30.497  29.337  1.00  0.00    -0.014 A 
BRANCH  36  37
ATOM     37  C   UNL A   1      38.149  30.030  30.052  1.00  0.00     0.031 A 
ATOM     38  C   UNL A   1      38.410  30.485  31.463  1.00  0.00     0.074 A 
ATOM     39  C   UNL A   1      39.037  29.244  29.418  1.00  0.00     0.049 A 
ATOM     40  N   UNL A   1      39.428  30.223  32.244  1.00  0.00    -0.248 NA
ATOM     41  C   UNL A   1      37.413  31.385  32.065  1.00  0.00     0.031 C 
ATOM     42  C   UNL A   1      38.932  28.796  28.028  1.00  0.00     0.029 A 
ATOM     43  N   UNL A   1      40.212  28.688  29.859  1.00  0.00    -0.354 N 
ATOM     44  C   UNL A   1      39.206  30.945  33.409  1.00  0.00     0.074 A 
ATOM     45  C   UNL A   1      37.989  31.702  33.214  1.00  0.00     0.031 C 
ATOM     46  C   UNL A   1      39.981  28.008  27.740  1.00  0.00     0.029 A 
ATOM     47  C   UNL A   1      40.843  27.917  28.915  1.00  0.00     0.049 A 
ATOM     48  H   UNL A   1      40.567  28.828  30.767  1.00  0.00     0.167 HD
ATOM     49  C   UNL A   1      39.934  30.954  34.550  1.00  0.00     0.037 A 
ATOM     50  C   UNL A   1      41.985  27.210  28.994  1.00  0.00     0.037 A 
ATOM     51  C   UNL A   1      41.115  30.162  34.758  1.00  0.00     0.049 A 
ATOM     52  C   UNL A   1      42.743  27.186  30.293  1.00  0.00     0.074 A 
ATOM     53  C   UNL A   1      41.884  30.038  35.902  1.00  0.00     0.029 A 
ATOM     54  N   UNL A   1      41.694  29.348  33.796  1.00  0.00    -0.354 N 
ATOM     55  N   UNL A   1      42.481  27.812  31.415  1.00  0.00    -0.248 NA
ATOM     56  C   UNL A   1      43.945  26.343  30.341  1.00  0.00     0.031 C 
ATOM     57  C   UNL A   1      42.948  29.174  35.622  1.00  0.00     0.029 A 
ATOM     58  C   UNL A   1      42.817  28.726  34.317  1.00  0.00     0.049 A 
ATOM     59  H   UNL A   1      41.357  29.230  32.879  1.00  0.00     0.167 HD
ATOM     60  C   UNL A   1      43.468  27.419  32.309  1.00  0.00     0.074 A 
ATOM     61  C   UNL A   1      44.323  26.488  31.603  1.00  0.00     0.031 C 
ATOM     62  C   UNL A   1      43.650  27.797  33.599  1.00  0.00     0.037 A 
BRANCH  49  63
ATOM     63  C   UNL A   1      39.461  31.843  35.664  1.00  0.00     0.064 A 
ATOM     64  C   UNL A   1      39.930  33.159  35.807  1.00  0.00     0.173 A 
ATOM     65  C   UNL A   1      38.514  31.381  36.591  1.00  0.00     0.173 A 
ATOM     66  F   UNL A   1      40.848  33.644  34.957  1.00  0.00    -0.203 F 
ATOM     67  C   UNL A   1      39.495  33.965  36.855  1.00  0.00     0.198 A 
ATOM     68  C   UNL A   1      38.058  32.201  37.620  1.00  0.00     0.198 A 
ATOM     69  F   UNL A   1      38.029  30.133  36.498  1.00  0.00    -0.203 F 
ATOM     70  F   UNL A   1      40.000  35.198  37.003  1.00  0.00    -0.200 F 
ATOM     71  C   UNL A   1      38.556  33.489  37.756  1.00  0.00     0.200 A 
ATOM     72  F   UNL A   1      37.142  31.744  38.484  1.00  0.00    -0.200 F 
ATOM     73  F   UNL A   1      38.136  34.268  38.763  1.00  0.00    -0.200 F 
ENDBRANCH  49  63
BRANCH  50  74
ATOM     74  C   UNL A   1      42.450  26.425  27.823  1.00  0.00     0.064 A 
ATOM     75  C   UNL A   1      43.417  26.942  26.950  1.00  0.00     0.173 A 
ATOM     76  C   UNL A   1      41.949  25.143  27.559  1.00  0.00     0.173 A 
ATOM     77  F   UNL A   1      43.912  28.172  27.155  1.00  0.00    -0.203 F 
ATOM     78  C   UNL A   1      43.853  26.215  25.845  1.00  0.00     0.198 A 
ATOM     79  C   UNL A   1      42.404  24.405  26.467  1.00  0.00     0.198 A 
ATOM     80  F   UNL A   1      41.030  24.600  28.369  1.00  0.00    -0.203 F 
ATOM     81  F   UNL A   1      44.748  26.749  25.004  1.00  0.00    -0.200 F 
ATOM     82  C   UNL A   1      43.349  24.945  25.607  1.00  0.00     0.200 A 
ATOM     83  F   UNL A   1      41.926  23.173  26.248  1.00  0.00    -0.200 F 
ATOM     84  F   UNL A   1      43.772  24.243  24.548  1.00  0.00    -0.200 F 
ENDBRANCH  50  74
BRANCH  62  85
ATOM     85  C   UNL A   1      44.799  27.175  34.335  1.00  0.00     0.064 A 
ATOM     86  C   UNL A   1      46.064  27.781  34.370  1.00  0.00     0.173 A 
ATOM     87  C   UNL A   1      44.625  25.971  35.034  1.00  0.00     0.173 A 
ATOM     88  F   UNL A   1      46.283  28.925  33.705  1.00  0.00    -0.203 F 
ATOM     89  C   UNL A   1      47.121  27.188  35.055  1.00  0.00     0.198 A 
ATOM     90  C   UNL A   1      45.676  25.396  35.741  1.00  0.00     0.198 A 
ATOM     91  F   UNL A   1      43.432  25.358  35.037  1.00  0.00    -0.203 F 
ATOM     92  F   UNL A   1      48.334  27.757  35.034  1.00  0.00    -0.200 F 
ATOM     93  C   UNL A   1      46.924  26.000  35.744  1.00  0.00     0.200 A 
ATOM     94  F   UNL A   1      45.483  24.254  36.416  1.00  0.00    -0.200 F 
ATOM     95  F   UNL A   1      47.944  25.431  36.403  1.00  0.00    -0.200 F 
ENDBRANCH  62  85
ENDBRANCH  36  37
ENDBRANCH  28  31
ENDBRANCH  26  27
ENDBRANCH   1  26
TORSDOF 12
ENDMDL
MODEL 3
REMARK VINA RESULT:     -12.8      1.005      1.850
REMARK SMILES O=C(NCCCNC(=O)c1ccc(-c2c3nc(c(-c4c(F)c(F)c(F)c(F)c4F)c4ccc([nH]4)c(-c4c(F)c(F)c(F)c(F)c4F)c4nc(c(-c5c(F)c(F)c(F)c(F)c5F)c5ccc2[nH]5)C=C4)C=C3)cc1)c1ccc(O[C@@H]2[NH+]=C(Cl)[NH+]=C3N=CN=C32)cc1
REMARK SMILES IDX 5 1 4 2 3 3 1 4 2 5 73 7 74 8 89 9 75 10 88 11 76 12 77 13
REMARK SMILES IDX 78 14 79 15 87 16 80 17 83 19 86 20 81 21 82 22 84 23 85 24
REMARK SMILES IDX 6 26 7 27 8 28 9 30 10 31 11 32 72 33 12 34 71 35 13 36
REMARK SMILES IDX 14 37 15 38 65 39 16 40 70 41 64 42 66 43 17 44 69 45 63 46
REMARK SMILES IDX 62 47 18 49 50 50 30 51 49 52 31 53 34 54 48 55 67 56 32 57
REMARK SMILES IDX 33 58 47 60 68 61 35 62 19 63 20 64 28 65 21 66 22 67 26 68
REMARK SMILES IDX 29 69 23 70 24 71 27 72 25 73 51 74 52 75 60 76 53 77 54 78
REMARK SMILES IDX 58 79 61 80 55 81 56 82 59 83 57 84 36 85 37 86 45 87 38 88
REMARK SMILES IDX 39 89 43 90 46 91 40 92 41 93 44 94 42 95
REMARK H PARENT 3 6 79 18 82 25 7 29 66 48 34 59
REMARK Flexibility Score: inf
ROOT
ATOM      1  C   UNL A   1      31.768  28.513  26.406  1.00  0.00     0.042 C 
ENDROOT
BRANCH   1   2
ATOM      2  C   UNL A   1      31.452  27.311  25.539  1.00  0.00     0.118 C 
BRANCH   2   3
ATOM      3  N   UNL A   1      30.939  27.680  24.226  1.00  0.00    -0.352 N 
ATOM      4  O   UNL A   1      30.652  27.546  21.995  1.00  0.00    -0.269 OA
ATOM      5  C   UNL A   1      30.968  26.986  23.040  1.00  0.00     0.251 C 
ATOM      6  H   UNL A   1      30.506  28.562  24.181  1.00  0.00     0.163 HD
BRANCH   5   7
ATOM      7  C   UNL A   1      31.390  25.567  23.021  1.00  0.00     0.040 A 
ATOM      8  C   UNL A   1      30.586  24.584  23.599  1.00  0.00     0.017 A 
ATOM      9  C   UNL A   1      32.603  25.214  22.417  1.00  0.00     0.017 A 
ATOM     10  C   UNL A   1      31.054  23.286  23.709  1.00  0.00     0.047 A 
ATOM     11  C   UNL A   1      33.018  23.879  22.425  1.00  0.00     0.047 A 
ATOM     12  C   UNL A   1      32.227  22.920  23.056  1.00  0.00     0.127 A 
BRANCH  12  13
ATOM     13  O   UNL A   1      32.594  21.601  23.016  1.00  0.00    -0.429 OA
BRANCH  13  14
ATOM     14  C   UNL A   1      32.951  21.107  24.327  1.00  0.00     0.521 C 
ATOM     15  N   UNL A   1      34.180  21.647  24.916  1.00  0.00    -0.130 N 
ATOM     16  C   UNL A   1      32.952  19.622  24.361  1.00  0.00     0.246 C 
ATOM     17  C   UNL A   1      35.207  20.906  25.115  1.00  0.00     0.517 C 
ATOM     18  H   UNL A   1      34.217  22.599  25.164  1.00  0.00     0.458 HD
ATOM     19  C   UNL A   1      34.231  18.963  24.596  1.00  0.00     0.341 C 
ATOM     20  N   UNL A   1      32.069  18.705  24.108  1.00  0.00    -0.222 NA
ATOM     21  Cl  UNL A   1      36.615  21.664  25.728  1.00  0.00     0.068 Cl
ATOM     22  N   UNL A   1      35.312  19.563  24.926  1.00  0.00    -0.118 N 
ATOM     23  N   UNL A   1      34.075  17.624  24.413  1.00  0.00    -0.173 NA
ATOM     24  C   UNL A   1      32.804  17.520  24.149  1.00  0.00     0.230 C 
ATOM     25  H   UNL A   1      36.165  19.084  25.035  1.00  0.00     0.464 HD
ENDBRANCH  13  14
ENDBRANCH  12  13
ENDBRANCH   5   7
ENDBRANCH   2   3
ENDBRANCH   1   2
BRANCH   1  26
ATOM     26  C   UNL A   1      32.851  29.410  25.839  1.00  0.00     0.118 C 
BRANCH  26  27
ATOM     27  N   UNL A   1      32.629  30.817  26.138  1.00  0.00    -0.352 N 
ATOM     28  C   UNL A   1      33.244  31.649  27.038  1.00  0.00     0.251 C 
ATOM     29  H   UNL A   1      31.920  31.243  25.605  1.00  0.00     0.163 HD
ATOM     30  O   UNL A   1      32.764  32.758  27.258  1.00  0.00    -0.269 OA
BRANCH  28  31
ATOM     31  C   UNL A   1      34.465  31.222  27.758  1.00  0.00     0.039 A 
ATOM     32  C   UNL A   1      35.482  32.158  27.970  1.00  0.00     0.014 A 
ATOM     33  C   UNL A   1      34.636  29.904  28.184  1.00  0.00     0.014 A 
ATOM     34  C   UNL A   1      36.643  31.781  28.646  1.00  0.00     0.010 A 
ATOM     35  C   UNL A   1      35.740  29.558  28.956  1.00  0.00     0.010 A 
ATOM     36  C   UNL A   1      36.769  30.483  29.168  1.00  0.00    -0.014 A 
BRANCH  36  37
ATOM     37  C   UNL A   1      37.995  30.059  29.887  1.00  0.00     0.031 A 
ATOM     38  C   UNL A   1      38.239  30.532  31.295  1.00  0.00     0.074 A 
ATOM     39  C   UNL A   1      38.909  29.298  29.259  1.00  0.00     0.049 A 
ATOM     40  N   UNL A   1      39.264  30.307  32.079  1.00  0.00    -0.248 NA
ATOM     41  C   UNL A   1      37.213  31.403  31.890  1.00  0.00     0.031 C 
ATOM     42  C   UNL A   1      38.820  28.837  27.872  1.00  0.00     0.029 A 
ATOM     43  N   UNL A   1      40.100  28.783  29.705  1.00  0.00    -0.354 N 
ATOM     44  C   UNL A   1      39.018  31.030  33.239  1.00  0.00     0.074 A 
ATOM     45  C   UNL A   1      37.778  31.746  33.038  1.00  0.00     0.031 C 
ATOM     46  C   UNL A   1      39.893  28.082  27.591  1.00  0.00     0.029 A 
ATOM     47  C   UNL A   1      40.757  28.026  28.767  1.00  0.00     0.049 A 
ATOM     48  H   UNL A   1      40.449  28.939  30.613  1.00  0.00     0.167 HD
ATOM     49  C   UNL A   1      39.743  31.069  34.381  1.00  0.00     0.037 A 
ATOM     50  C   UNL A   1      41.921  27.356  28.852  1.00  0.00     0.037 A 
ATOM     51  C   UNL A   1      40.949  30.316  34.596  1.00  0.00     0.049 A 
ATOM     52  C   UNL A   1      42.676  27.365  30.153  1.00  0.00     0.074 A 
ATOM     53  C   UNL A   1      41.720  30.225  35.742  1.00  0.00     0.029 A 
ATOM     54  N   UNL A   1      41.555  29.515  33.639  1.00  0.00    -0.354 N 
ATOM     55  N   UNL A   1      42.394  27.989  31.269  1.00  0.00    -0.248 NA
ATOM     56  C   UNL A   1      43.905  26.561  30.207  1.00  0.00     0.031 C 
ATOM     57  C   UNL A   1      42.811  29.393  35.468  1.00  0.00     0.029 A 
ATOM     58  C   UNL A   1      42.696  28.932  34.166  1.00  0.00     0.049 A 
ATOM     59  H   UNL A   1      41.223  29.380  32.723  1.00  0.00     0.167 HD
ATOM     60  C   UNL A   1      43.391  27.634  32.168  1.00  0.00     0.074 A 
ATOM     61  C   UNL A   1      44.276  26.726  31.468  1.00  0.00     0.031 C 
ATOM     62  C   UNL A   1      43.560  28.026  33.455  1.00  0.00     0.037 A 
BRANCH  49  63
ATOM     63  C   UNL A   1      39.241  31.950  35.488  1.00  0.00     0.064 A 
ATOM     64  C   UNL A   1      38.419  31.451  36.512  1.00  0.00     0.173 A 
ATOM     65  C   UNL A   1      39.598  33.306  35.538  1.00  0.00     0.173 A 
ATOM     66  F   UNL A   1      38.035  30.166  36.503  1.00  0.00    -0.203 F 
ATOM     67  C   UNL A   1      37.947  32.284  37.522  1.00  0.00     0.198 A 
ATOM     68  C   UNL A   1      39.149  34.129  36.567  1.00  0.00     0.198 A 
ATOM     69  F   UNL A   1      40.385  33.834  34.587  1.00  0.00    -0.203 F 
ATOM     70  F   UNL A   1      37.118  31.797  38.456  1.00  0.00    -0.200 F 
ATOM     71  C   UNL A   1      38.316  33.620  37.553  1.00  0.00     0.200 A 
ATOM     72  F   UNL A   1      39.515  35.417  36.602  1.00  0.00    -0.200 F 
ATOM     73  F   UNL A   1      37.863  34.419  38.528  1.00  0.00    -0.200 F 
ENDBRANCH  49  63
BRANCH  50  74
ATOM     74  C   UNL A   1      42.412  26.579  27.687  1.00  0.00     0.064 A 
ATOM     75  C   UNL A   1      41.934  25.285  27.435  1.00  0.00     0.173 A 
ATOM     76  C   UNL A   1      43.355  27.113  26.798  1.00  0.00     0.173 A 
ATOM     77  F   UNL A   1      41.043  24.728  28.268  1.00  0.00    -0.203 F 
ATOM     78  C   UNL A   1      42.396  24.546  26.348  1.00  0.00     0.198 A 
ATOM     79  C   UNL A   1      43.798  26.382  25.697  1.00  0.00     0.198 A 
ATOM     80  F   UNL A   1      43.835  28.349  26.990  1.00  0.00    -0.203 F 
ATOM     81  F   UNL A   1      41.954  23.297  26.154  1.00  0.00    -0.200 F 
ATOM     82  C   UNL A   1      43.324  25.097  25.477  1.00  0.00     0.200 A 
ATOM     83  F   UNL A   1      44.684  26.922  24.849  1.00  0.00    -0.200 F 
ATOM     84  F   UNL A   1      43.764  24.389  24.430  1.00  0.00    -0.200 F 
ENDBRANCH  50  74
BRANCH  62  85
ATOM     85  C   UNL A   1      44.726  27.445  34.196  1.00  0.00     0.064 A 
ATOM     86  C   UNL A   1      44.624  26.232  34.894  1.00  0.00     0.173 A 
ATOM     87  C   UNL A   1      45.969  28.098  34.187  1.00  0.00     0.173 A 
ATOM     88  F   UNL A   1      43.453  25.579  34.944  1.00  0.00    -0.203 F 
ATOM     89  C   UNL A   1      45.716  25.709  35.581  1.00  0.00     0.198 A 
ATOM     90  C   UNL A   1      47.066  27.557  34.851  1.00  0.00     0.198 A 
ATOM     91  F   UNL A   1      46.119  29.256  33.527  1.00  0.00    -0.203 F 
ATOM     92  F   UNL A   1      45.583  24.576  36.283  1.00  0.00    -0.200 F 
ATOM     93  C   UNL A   1      46.936  26.369  35.553  1.00  0.00     0.200 A 
ATOM     94  F   UNL A   1      48.247  28.189  34.814  1.00  0.00    -0.200 F 
ATOM     95  F   UNL A   1      47.987  25.863  36.215  1.00  0.00    -0.200 F 
ENDBRANCH  62  85
ENDBRANCH  36  37
ENDBRANCH  28  31
ENDBRANCH  26  27
ENDBRANCH   1  26
TORSDOF 12
ENDMDL
