MODEL 1
REMARK VINA RESULT:     -12.3      0.000      0.000
REMARK SMILES O=C(NCCCNC(=O)[C@H]1CCCN(C(=O)CCOc2ccc(F)cc2)C1)c1ccc(-c2c3nc(c(-c4c(F)c(F)c(F)c(F)c4F)c4ccc([nH]4)c(-c4c(F)c(F)c(F)c(F)c4F)c4nc(c(-c5c(F)c(F)c(F)c(F)c5F)c5ccc2[nH]5)C=C4)C=C3)cc1
REMARK SMILES IDX 7 1 8 2 9 3 6 5 5 6 4 7 3 8 1 9 2 10 28 12 29 13 90 14 30 15
REMARK SMILES IDX 89 16 31 17 32 18 33 19 83 20 34 21 88 22 82 23 84 24 35 25
REMARK SMILES IDX 87 26 81 27 80 28 36 30 68 31 48 32 67 33 49 34 52 35 66 36
REMARK SMILES IDX 85 37 50 38 51 39 65 41 86 42 53 43 37 44 38 45 46 46 39 47
REMARK SMILES IDX 40 48 44 49 47 50 41 51 42 52 45 53 43 54 69 55 70 56 78 57
REMARK SMILES IDX 71 58 72 59 76 60 79 61 73 62 74 63 77 64 75 65 54 66 55 67
REMARK SMILES IDX 63 68 56 69 57 70 61 71 64 72 58 73 59 74 62 75 60 76 10 77
REMARK SMILES IDX 11 78 27 79 12 80 14 81 13 82 15 83 16 84 17 85 18 86 19 87
REMARK SMILES IDX 20 88 21 89 26 90 22 91 25 92 23 93 24 94
REMARK H PARENT 7 4 3 11 84 29 52 40
REMARK Flexibility Score: inf
ROOT
ATOM      1  N   UNL A   1      32.949  30.347  26.894  1.00  0.00    -0.356 N 
ATOM      2  C   UNL A   1      33.605  29.191  26.591  1.00  0.00     0.224 C 
ATOM      3  O   UNL A   1      34.701  28.998  27.121  1.00  0.00    -0.275 OA
ATOM      4  H   UNL A   1      33.453  30.974  27.460  1.00  0.00     0.163 HD
ENDROOT
BRANCH   1   5
ATOM      5  C   UNL A   1      31.623  30.798  26.513  1.00  0.00     0.117 C 
BRANCH   5   6
ATOM      6  C   UNL A   1      31.414  32.272  26.839  1.00  0.00     0.042 C 
BRANCH   6   7
ATOM      7  C   UNL A   1      32.703  32.976  27.240  1.00  0.00     0.118 C 
BRANCH   7   8
ATOM      8  N   UNL A   1      32.481  34.337  27.719  1.00  0.00    -0.352 N 
ATOM      9  O   UNL A   1      32.687  36.111  29.098  1.00  0.00    -0.269 OA
ATOM     10  C   UNL A   1      33.095  35.005  28.748  1.00  0.00     0.251 C 
ATOM     11  H   UNL A   1      31.794  34.848  27.233  1.00  0.00     0.163 HD
BRANCH  10  12
ATOM     12  C   UNL A   1      34.238  34.385  29.452  1.00  0.00     0.039 A 
ATOM     13  C   UNL A   1      34.027  33.606  30.592  1.00  0.00     0.014 A 
ATOM     14  C   UNL A   1      35.532  34.568  28.956  1.00  0.00     0.014 A 
ATOM     15  C   UNL A   1      35.112  33.124  31.310  1.00  0.00     0.010 A 
ATOM     16  C   UNL A   1      36.619  33.995  29.623  1.00  0.00     0.010 A 
ATOM     17  C   UNL A   1      36.416  33.277  30.811  1.00  0.00    -0.014 A 
BRANCH  17  18
ATOM     18  C   UNL A   1      37.524  32.553  31.480  1.00  0.00     0.031 A 
ATOM     19  C   UNL A   1      38.219  31.397  30.825  1.00  0.00     0.074 A 
ATOM     20  C   UNL A   1      37.905  32.982  32.700  1.00  0.00     0.049 A 
ATOM     21  N   UNL A   1      39.199  30.663  31.290  1.00  0.00    -0.248 NA
ATOM     22  C   UNL A   1      37.764  31.006  29.482  1.00  0.00     0.031 C 
ATOM     23  C   UNL A   1      37.285  34.093  33.428  1.00  0.00     0.029 A 
ATOM     24  N   UNL A   1      38.905  32.558  33.538  1.00  0.00    -0.354 N 
ATOM     25  C   UNL A   1      39.469  29.721  30.308  1.00  0.00     0.074 A 
ATOM     26  C   UNL A   1      38.541  29.959  29.225  1.00  0.00     0.031 C 
ATOM     27  C   UNL A   1      37.942  34.290  34.579  1.00  0.00     0.029 A 
ATOM     28  C   UNL A   1      38.973  33.270  34.711  1.00  0.00     0.049 A 
ATOM     29  H   UNL A   1      39.513  31.816  33.319  1.00  0.00     0.167 HD
ATOM     30  C   UNL A   1      40.417  28.754  30.321  1.00  0.00     0.037 A 
ATOM     31  C   UNL A   1      39.755  33.101  35.793  1.00  0.00     0.037 A 
ATOM     32  C   UNL A   1      41.349  28.547  31.400  1.00  0.00     0.049 A 
ATOM     33  C   UNL A   1      40.763  31.989  35.787  1.00  0.00     0.074 A 
ATOM     34  C   UNL A   1      42.380  27.625  31.476  1.00  0.00     0.029 A 
ATOM     35  N   UNL A   1      41.362  29.261  32.588  1.00  0.00    -0.354 N 
ATOM     36  N   UNL A   1      41.040  31.135  34.833  1.00  0.00    -0.248 NA
ATOM     37  C   UNL A   1      41.561  31.808  37.008  1.00  0.00     0.031 C 
ATOM     38  C   UNL A   1      42.975  27.739  32.734  1.00  0.00     0.029 A 
ATOM     39  C   UNL A   1      42.357  28.772  33.419  1.00  0.00     0.049 A 
ATOM     40  H   UNL A   1      40.756  30.004  32.808  1.00  0.00     0.167 HD
ATOM     41  C   UNL A   1      42.045  30.322  35.331  1.00  0.00     0.074 A 
ATOM     42  C   UNL A   1      42.352  30.803  36.662  1.00  0.00     0.031 C 
ATOM     43  C   UNL A   1      42.650  29.263  34.741  1.00  0.00     0.037 A 
BRANCH  30  44
ATOM     44  C   UNL A   1      40.520  27.826  29.145  1.00  0.00     0.064 A 
ATOM     45  C   UNL A   1      41.333  28.164  28.051  1.00  0.00     0.173 A 
ATOM     46  C   UNL A   1      39.698  26.697  29.029  1.00  0.00     0.173 A 
ATOM     47  F   UNL A   1      42.131  29.242  28.109  1.00  0.00    -0.203 F 
ATOM     48  C   UNL A   1      41.290  27.427  26.871  1.00  0.00     0.198 A 
ATOM     49  C   UNL A   1      39.676  25.947  27.855  1.00  0.00     0.198 A 
ATOM     50  F   UNL A   1      38.906  26.331  30.047  1.00  0.00    -0.203 F 
ATOM     51  F   UNL A   1      42.033  27.802  25.820  1.00  0.00    -0.200 F 
ATOM     52  C   UNL A   1      40.458  26.322  26.772  1.00  0.00     0.200 A 
ATOM     53  F   UNL A   1      38.881  24.873  27.763  1.00  0.00    -0.200 F 
ATOM     54  F   UNL A   1      40.404  25.623  25.630  1.00  0.00    -0.200 F 
ENDBRANCH  30  44
BRANCH  31  55
ATOM     55  C   UNL A   1      39.578  33.985  36.974  1.00  0.00     0.064 A 
ATOM     56  C   UNL A   1      40.223  35.230  37.052  1.00  0.00     0.173 A 
ATOM     57  C   UNL A   1      38.778  33.599  38.057  1.00  0.00     0.173 A 
ATOM     58  F   UNL A   1      41.005  35.646  36.046  1.00  0.00    -0.203 F 
ATOM     59  C   UNL A   1      40.092  36.042  38.175  1.00  0.00     0.198 A 
ATOM     60  C   UNL A   1      38.617  34.430  39.164  1.00  0.00     0.198 A 
ATOM     61  F   UNL A   1      38.126  32.428  38.024  1.00  0.00    -0.203 F 
ATOM     62  F   UNL A   1      40.755  37.204  38.239  1.00  0.00    -0.200 F 
ATOM     63  C   UNL A   1      39.281  35.646  39.227  1.00  0.00     0.200 A 
ATOM     64  F   UNL A   1      37.809  34.057  40.166  1.00  0.00    -0.200 F 
ATOM     65  F   UNL A   1      39.137  36.437  40.298  1.00  0.00    -0.200 F 
ENDBRANCH  31  55
BRANCH  43  66
ATOM     66  C   UNL A   1      43.711  28.547  35.523  1.00  0.00     0.064 A 
ATOM     67  C   UNL A   1      45.067  28.849  35.327  1.00  0.00     0.173 A 
ATOM     68  C   UNL A   1      43.388  27.503  36.402  1.00  0.00     0.173 A 
ATOM     69  F   UNL A   1      45.428  29.834  34.492  1.00  0.00    -0.203 F 
ATOM     70  C   UNL A   1      46.062  28.113  35.963  1.00  0.00     0.198 A 
ATOM     71  C   UNL A   1      44.385  26.790  37.060  1.00  0.00     0.198 A 
ATOM     72  F   UNL A   1      42.104  27.189  36.633  1.00  0.00    -0.203 F 
ATOM     73  F   UNL A   1      47.352  28.388  35.726  1.00  0.00    -0.200 F 
ATOM     74  C   UNL A   1      45.720  27.086  36.830  1.00  0.00     0.200 A 
ATOM     75  F   UNL A   1      44.053  25.816  37.918  1.00  0.00    -0.200 F 
ATOM     76  F   UNL A   1      46.680  26.381  37.447  1.00  0.00    -0.200 F 
ENDBRANCH  43  66
ENDBRANCH  17  18
ENDBRANCH  10  12
ENDBRANCH   7   8
ENDBRANCH   6   7
ENDBRANCH   5   6
ENDBRANCH   1   5
BRANCH   2  77
ATOM     77  C   UNL A   1      33.015  28.201  25.602  1.00  0.00     0.098 C 
ATOM     78  C   UNL A   1      34.160  27.495  24.862  1.00  0.00     0.017 C 
ATOM     79  C   UNL A   1      32.144  27.177  26.329  1.00  0.00     0.132 C 
ATOM     80  C   UNL A   1      33.649  26.374  23.964  1.00  0.00     0.022 C 
ATOM     81  N   UNL A   1      31.628  26.181  25.375  1.00  0.00    -0.342 N 
ATOM     82  C   UNL A   1      32.669  25.435  24.666  1.00  0.00     0.119 C 
BRANCH  81  83
ATOM     83  C   UNL A   1      30.258  26.049  25.198  1.00  0.00     0.226 C 
ATOM     84  O   UNL A   1      29.531  25.599  26.090  1.00  0.00    -0.275 OA
BRANCH  83  85
ATOM     85  C   UNL A   1      29.622  26.453  23.878  1.00  0.00     0.141 C 
BRANCH  85  86
ATOM     86  C   UNL A   1      30.173  27.758  23.307  1.00  0.00     0.239 C 
BRANCH  86  87
ATOM     87  O   UNL A   1      29.287  28.390  22.380  1.00  0.00    -0.493 OA
BRANCH  87  88
ATOM     88  C   UNL A   1      28.964  29.705  22.569  1.00  0.00     0.119 A 
ATOM     89  C   UNL A   1      29.188  30.447  23.729  1.00  0.00     0.049 A 
ATOM     90  C   UNL A   1      28.420  30.345  21.445  1.00  0.00     0.049 A 
ATOM     91  C   UNL A   1      28.961  31.823  23.737  1.00  0.00     0.043 A 
ATOM     92  C   UNL A   1      28.212  31.726  21.446  1.00  0.00     0.043 A 
ATOM     93  C   UNL A   1      28.511  32.456  22.587  1.00  0.00     0.123 A 
ATOM     94  F   UNL A   1      28.403  33.791  22.572  1.00  0.00    -0.207 F 
ENDBRANCH  87  88
ENDBRANCH  86  87
ENDBRANCH  85  86
ENDBRANCH  83  85
ENDBRANCH  81  83
ENDBRANCH   2  77
TORSDOF 15
ENDMDL
MODEL 2
REMARK VINA RESULT:     -12.3      6.153     10.568
REMARK SMILES O=C(NCCCNC(=O)[C@H]1CCCN(C(=O)CCOc2ccc(F)cc2)C1)c1ccc(-c2c3nc(c(-c4c(F)c(F)c(F)c(F)c4F)c4ccc([nH]4)c(-c4c(F)c(F)c(F)c(F)c4F)c4nc(c(-c5c(F)c(F)c(F)c(F)c5F)c5ccc2[nH]5)C=C4)C=C3)cc1
REMARK SMILES IDX 7 1 8 2 9 3 6 5 5 6 4 7 3 8 1 9 2 10 28 12 29 13 90 14 30 15
REMARK SMILES IDX 89 16 31 17 32 18 33 19 83 20 34 21 88 22 82 23 84 24 35 25
REMARK SMILES IDX 87 26 81 27 80 28 36 30 68 31 48 32 67 33 49 34 52 35 66 36
REMARK SMILES IDX 85 37 50 38 51 39 65 41 86 42 53 43 37 44 38 45 46 46 39 47
REMARK SMILES IDX 40 48 44 49 47 50 41 51 42 52 45 53 43 54 69 55 70 56 78 57
REMARK SMILES IDX 71 58 72 59 76 60 79 61 73 62 74 63 77 64 75 65 54 66 55 67
REMARK SMILES IDX 63 68 56 69 57 70 61 71 64 72 58 73 59 74 62 75 60 76 10 77
REMARK SMILES IDX 11 78 27 79 12 80 14 81 13 82 15 83 16 84 17 85 18 86 19 87
REMARK SMILES IDX 20 88 21 89 26 90 22 91 25 92 23 93 24 94
REMARK H PARENT 7 4 3 11 84 29 52 40
REMARK Flexibility Score: inf
ROOT
ATOM      1  N   UNL A   1      37.628  22.037  25.286  1.00  0.00    -0.356 N 
ATOM      2  C   UNL A   1      36.883  23.112  25.669  1.00  0.00     0.224 C 
ATOM      3  O   UNL A   1      37.478  24.087  26.133  1.00  0.00    -0.275 OA
ATOM      4  H   UNL A   1      38.588  22.104  25.489  1.00  0.00     0.163 HD
ENDROOT
BRANCH   1   5
ATOM      5  C   UNL A   1      37.227  20.809  24.625  1.00  0.00     0.117 C 
BRANCH   5   6
ATOM      6  C   UNL A   1      38.158  19.652  24.972  1.00  0.00     0.042 C 
BRANCH   6   7
ATOM      7  C   UNL A   1      39.278  20.060  25.920  1.00  0.00     0.118 C 
BRANCH   7   8
ATOM      8  N   UNL A   1      40.382  19.107  25.939  1.00  0.00    -0.352 N 
ATOM      9  O   UNL A   1      42.532  18.421  25.950  1.00  0.00    -0.269 OA
ATOM     10  C   UNL A   1      41.726  19.338  26.093  1.00  0.00     0.251 C 
ATOM     11  H   UNL A   1      40.126  18.163  25.825  1.00  0.00     0.163 HD
BRANCH  10  12
ATOM     12  C   UNL A   1      42.207  20.699  26.412  1.00  0.00     0.039 A 
ATOM     13  C   UNL A   1      42.452  21.620  25.391  1.00  0.00     0.014 A 
ATOM     14  C   UNL A   1      42.397  21.066  27.748  1.00  0.00     0.014 A 
ATOM     15  C   UNL A   1      43.010  22.853  25.692  1.00  0.00     0.010 A 
ATOM     16  C   UNL A   1      42.864  22.346  28.057  1.00  0.00     0.010 A 
ATOM     17  C   UNL A   1      43.184  23.246  27.029  1.00  0.00    -0.014 A 
BRANCH  17  18
ATOM     18  C   UNL A   1      43.564  24.650  27.316  1.00  0.00     0.031 A 
ATOM     19  C   UNL A   1      44.957  25.153  27.082  1.00  0.00     0.074 A 
ATOM     20  C   UNL A   1      42.605  25.476  27.780  1.00  0.00     0.049 A 
ATOM     21  N   UNL A   1      45.439  26.352  27.293  1.00  0.00    -0.248 NA
ATOM     22  C   UNL A   1      45.941  24.198  26.548  1.00  0.00     0.031 C 
ATOM     23  C   UNL A   1      41.219  25.081  28.051  1.00  0.00     0.029 A 
ATOM     24  N   UNL A   1      42.632  26.812  28.091  1.00  0.00    -0.354 N 
ATOM     25  C   UNL A   1      46.777  26.295  26.931  1.00  0.00     0.074 A 
ATOM     26  C   UNL A   1      47.043  24.939  26.503  1.00  0.00     0.031 C 
ATOM     27  C   UNL A   1      40.522  26.155  28.444  1.00  0.00     0.029 A 
ATOM     28  C   UNL A   1      41.425  27.294  28.536  1.00  0.00     0.049 A 
ATOM     29  H   UNL A   1      43.438  27.369  28.004  1.00  0.00     0.167 HD
ATOM     30  C   UNL A   1      47.689  27.295  26.952  1.00  0.00     0.037 A 
ATOM     31  C   UNL A   1      41.086  28.510  29.002  1.00  0.00     0.037 A 
ATOM     32  C   UNL A   1      47.400  28.647  27.361  1.00  0.00     0.049 A 
ATOM     33  C   UNL A   1      42.136  29.580  29.052  1.00  0.00     0.074 A 
ATOM     34  C   UNL A   1      48.248  29.742  27.363  1.00  0.00     0.029 A 
ATOM     35  N   UNL A   1      46.177  29.088  27.842  1.00  0.00    -0.354 N 
ATOM     36  N   UNL A   1      43.385  29.525  28.663  1.00  0.00    -0.248 NA
ATOM     37  C   UNL A   1      41.737  30.878  29.615  1.00  0.00     0.031 C 
ATOM     38  C   UNL A   1      47.559  30.827  27.906  1.00  0.00     0.029 A 
ATOM     39  C   UNL A   1      46.262  30.429  28.184  1.00  0.00     0.049 A 
ATOM     40  H   UNL A   1      45.369  28.532  27.929  1.00  0.00     0.167 HD
ATOM     41  C   UNL A   1      43.920  30.777  28.924  1.00  0.00     0.074 A 
ATOM     42  C   UNL A   1      42.851  31.582  29.478  1.00  0.00     0.031 C 
ATOM     43  C   UNL A   1      45.188  31.215  28.733  1.00  0.00     0.037 A 
BRANCH  30  44
ATOM     44  C   UNL A   1      49.099  27.000  26.529  1.00  0.00     0.064 A 
ATOM     45  C   UNL A   1      49.465  27.109  25.177  1.00  0.00     0.173 A 
ATOM     46  C   UNL A   1      50.033  26.457  27.420  1.00  0.00     0.173 A 
ATOM     47  F   UNL A   1      48.602  27.614  24.281  1.00  0.00    -0.203 F 
ATOM     48  C   UNL A   1      50.700  26.650  24.729  1.00  0.00     0.198 A 
ATOM     49  C   UNL A   1      51.278  26.020  26.973  1.00  0.00     0.198 A 
ATOM     50  F   UNL A   1      49.733  26.335  28.722  1.00  0.00    -0.203 F 
ATOM     51  F   UNL A   1      51.005  26.712  23.426  1.00  0.00    -0.200 F 
ATOM     52  C   UNL A   1      51.604  26.102  25.626  1.00  0.00     0.200 A 
ATOM     53  F   UNL A   1      52.156  25.501  27.841  1.00  0.00    -0.200 F 
ATOM     54  F   UNL A   1      52.786  25.643  25.192  1.00  0.00    -0.200 F 
ENDBRANCH  30  44
BRANCH  31  55
ATOM     55  C   UNL A   1      39.703  28.752  29.488  1.00  0.00     0.064 A 
ATOM     56  C   UNL A   1      38.709  29.252  28.630  1.00  0.00     0.173 A 
ATOM     57  C   UNL A   1      39.348  28.508  30.821  1.00  0.00     0.173 A 
ATOM     58  F   UNL A   1      38.996  29.509  27.346  1.00  0.00    -0.203 F 
ATOM     59  C   UNL A   1      37.424  29.520  29.094  1.00  0.00     0.198 A 
ATOM     60  C   UNL A   1      38.050  28.740  31.273  1.00  0.00     0.198 A 
ATOM     61  F   UNL A   1      40.255  28.013  31.675  1.00  0.00    -0.203 F 
ATOM     62  F   UNL A   1      36.510  30.039  28.263  1.00  0.00    -0.200 F 
ATOM     63  C   UNL A   1      37.092  29.254  30.412  1.00  0.00     0.200 A 
ATOM     64  F   UNL A   1      37.726  28.454  32.541  1.00  0.00    -0.200 F 
ATOM     65  F   UNL A   1      35.849  29.489  30.853  1.00  0.00    -0.200 F 
ENDBRANCH  31  55
BRANCH  43  66
ATOM     66  C   UNL A   1      45.497  32.630  29.120  1.00  0.00     0.064 A 
ATOM     67  C   UNL A   1      45.942  32.934  30.416  1.00  0.00     0.173 A 
ATOM     68  C   UNL A   1      45.269  33.694  28.236  1.00  0.00     0.173 A 
ATOM     69  F   UNL A   1      46.168  31.952  31.302  1.00  0.00    -0.203 F 
ATOM     70  C   UNL A   1      46.122  34.253  30.819  1.00  0.00     0.198 A 
ATOM     71  C   UNL A   1      45.480  35.010  28.632  1.00  0.00     0.198 A 
ATOM     72  F   UNL A   1      44.859  33.451  26.981  1.00  0.00    -0.203 F 
ATOM     73  F   UNL A   1      46.504  34.523  32.075  1.00  0.00    -0.200 F 
ATOM     74  C   UNL A   1      45.893  35.290  29.926  1.00  0.00     0.200 A 
ATOM     75  F   UNL A   1      45.285  36.009  27.761  1.00  0.00    -0.200 F 
ATOM     76  F   UNL A   1      46.073  36.561  30.314  1.00  0.00    -0.200 F 
ENDBRANCH  43  66
ENDBRANCH  17  18
ENDBRANCH  10  12
ENDBRANCH   7   8
ENDBRANCH   6   7
ENDBRANCH   5   6
ENDBRANCH   1   5
BRANCH   2  77
ATOM     77  C   UNL A   1      35.368  23.084  25.561  1.00  0.00     0.098 C 
ATOM     78  C   UNL A   1      34.773  22.904  26.965  1.00  0.00     0.017 C 
ATOM     79  C   UNL A   1      34.854  24.378  24.930  1.00  0.00     0.132 C 
ATOM     80  C   UNL A   1      33.253  23.022  26.955  1.00  0.00     0.022 C 
ATOM     81  N   UNL A   1      33.383  24.373  24.889  1.00  0.00    -0.342 N 
ATOM     82  C   UNL A   1      32.747  24.251  26.201  1.00  0.00     0.119 C 
BRANCH  81  83
ATOM     83  C   UNL A   1      32.734  24.446  23.665  1.00  0.00     0.226 C 
ATOM     84  O   UNL A   1      33.013  25.319  22.835  1.00  0.00    -0.275 OA
BRANCH  83  85
ATOM     85  C   UNL A   1      31.643  23.444  23.324  1.00  0.00     0.141 C 
BRANCH  85  86
ATOM     86  C   UNL A   1      32.177  22.061  22.956  1.00  0.00     0.239 C 
BRANCH  86  87
ATOM     87  O   UNL A   1      32.374  21.210  24.088  1.00  0.00    -0.493 OA
BRANCH  87  88
ATOM     88  C   UNL A   1      32.711  19.901  23.878  1.00  0.00     0.119 A 
ATOM     89  C   UNL A   1      32.145  19.051  22.928  1.00  0.00     0.049 A 
ATOM     90  C   UNL A   1      33.771  19.432  24.667  1.00  0.00     0.049 A 
ATOM     91  C   UNL A   1      32.690  17.786  22.705  1.00  0.00     0.043 A 
ATOM     92  C   UNL A   1      34.330  18.174  24.430  1.00  0.00     0.043 A 
ATOM     93  C   UNL A   1      33.799  17.374  23.430  1.00  0.00     0.123 A 
ATOM     94  F   UNL A   1      34.381  16.205  23.131  1.00  0.00    -0.207 F 
ENDBRANCH  87  88
ENDBRANCH  86  87
ENDBRANCH  85  86
ENDBRANCH  83  85
ENDBRANCH  81  83
ENDBRANCH   2  77
TORSDOF 15
ENDMDL
MODEL 3
REMARK VINA RESULT:     -12.2      6.136     11.562
REMARK SMILES O=C(NCCCNC(=O)[C@H]1CCCN(C(=O)CCOc2ccc(F)cc2)C1)c1ccc(-c2c3nc(c(-c4c(F)c(F)c(F)c(F)c4F)c4ccc([nH]4)c(-c4c(F)c(F)c(F)c(F)c4F)c4nc(c(-c5c(F)c(F)c(F)c(F)c5F)c5ccc2[nH]5)C=C4)C=C3)cc1
REMARK SMILES IDX 7 1 8 2 9 3 6 5 5 6 4 7 3 8 1 9 2 10 28 12 29 13 90 14 30 15
REMARK SMILES IDX 89 16 31 17 32 18 33 19 83 20 34 21 88 22 82 23 84 24 35 25
REMARK SMILES IDX 87 26 81 27 80 28 36 30 68 31 48 32 67 33 49 34 52 35 66 36
REMARK SMILES IDX 85 37 50 38 51 39 65 41 86 42 53 43 37 44 38 45 46 46 39 47
REMARK SMILES IDX 40 48 44 49 47 50 41 51 42 52 45 53 43 54 69 55 70 56 78 57
REMARK SMILES IDX 71 58 72 59 76 60 79 61 73 62 74 63 77 64 75 65 54 66 55 67
REMARK SMILES IDX 63 68 56 69 57 70 61 71 64 72 58 73 59 74 62 75 60 76 10 77
REMARK SMILES IDX 11 78 27 79 12 80 14 81 13 82 15 83 16 84 17 85 18 86 19 87
REMARK SMILES IDX 20 88 21 89 26 90 22 91 25 92 23 93 24 94
REMARK H PARENT 7 4 3 11 84 29 52 40
REMARK Flexibility Score: inf
ROOT
ATOM      1  N   UNL A   1      37.638  21.959  25.311  1.00  0.00    -0.356 N 
ATOM      2  C   UNL A   1      36.922  23.064  25.663  1.00  0.00     0.224 C 
ATOM      3  O   UNL A   1      37.543  24.037  26.096  1.00  0.00    -0.275 OA
ATOM      4  H   UNL A   1      38.600  22.007  25.511  1.00  0.00     0.163 HD
ENDROOT
BRANCH   1   5
ATOM      5  C   UNL A   1      37.204  20.722  24.689  1.00  0.00     0.117 C 
BRANCH   5   6
ATOM      6  C   UNL A   1      38.200  19.592  24.926  1.00  0.00     0.042 C 
BRANCH   6   7
ATOM      7  C   UNL A   1      39.246  19.938  25.977  1.00  0.00     0.118 C 
BRANCH   7   8
ATOM      8  N   UNL A   1      40.391  19.035  25.957  1.00  0.00    -0.352 N 
ATOM      9  O   UNL A   1      42.570  18.448  25.909  1.00  0.00    -0.269 OA
ATOM     10  C   UNL A   1      41.727  19.326  26.083  1.00  0.00     0.251 C 
ATOM     11  H   UNL A   1      40.176  18.082  25.835  1.00  0.00     0.163 HD
BRANCH  10  12
ATOM     12  C   UNL A   1      42.154  20.703  26.410  1.00  0.00     0.039 A 
ATOM     13  C   UNL A   1      42.365  21.637  25.395  1.00  0.00     0.014 A 
ATOM     14  C   UNL A   1      42.327  21.069  27.749  1.00  0.00     0.014 A 
ATOM     15  C   UNL A   1      42.874  22.890  25.703  1.00  0.00     0.010 A 
ATOM     16  C   UNL A   1      42.742  22.365  28.066  1.00  0.00     0.010 A 
ATOM     17  C   UNL A   1      43.029  23.282  27.043  1.00  0.00    -0.014 A 
BRANCH  17  18
ATOM     18  C   UNL A   1      43.353  24.699  27.338  1.00  0.00     0.031 A 
ATOM     19  C   UNL A   1      42.336  25.637  27.917  1.00  0.00     0.074 A 
ATOM     20  C   UNL A   1      44.609  25.120  27.086  1.00  0.00     0.049 A 
ATOM     21  N   UNL A   1      42.472  26.902  28.221  1.00  0.00    -0.248 NA
ATOM     22  C   UNL A   1      40.995  25.096  28.190  1.00  0.00     0.031 C 
ATOM     23  C   UNL A   1      45.671  24.286  26.512  1.00  0.00     0.029 A 
ATOM     24  N   UNL A   1      45.216  26.332  27.288  1.00  0.00    -0.354 N 
ATOM     25  C   UNL A   1      41.239  27.313  28.708  1.00  0.00     0.074 A 
ATOM     26  C   UNL A   1      40.356  26.169  28.645  1.00  0.00     0.031 C 
ATOM     27  C   UNL A   1      46.804  24.997  26.449  1.00  0.00     0.029 A 
ATOM     28  C   UNL A   1      46.533  26.356  26.896  1.00  0.00     0.049 A 
ATOM     29  H   UNL A   1      44.753  27.109  27.675  1.00  0.00     0.167 HD
ATOM     30  C   UNL A   1      40.892  28.537  29.170  1.00  0.00     0.037 A 
ATOM     31  C   UNL A   1      47.419  27.369  26.864  1.00  0.00     0.037 A 
ATOM     32  C   UNL A   1      41.792  29.659  29.248  1.00  0.00     0.049 A 
ATOM     33  C   UNL A   1      46.983  28.722  27.343  1.00  0.00     0.074 A 
ATOM     34  C   UNL A   1      41.544  30.925  29.753  1.00  0.00     0.029 A 
ATOM     35  N   UNL A   1      43.106  29.657  28.805  1.00  0.00    -0.354 N 
ATOM     36  N   UNL A   1      45.828  29.084  27.844  1.00  0.00    -0.248 NA
ATOM     37  C   UNL A   1      47.964  29.811  27.244  1.00  0.00     0.031 C 
ATOM     38  C   UNL A   1      42.684  31.705  29.558  1.00  0.00     0.029 A 
ATOM     39  C   UNL A   1      43.666  30.912  28.988  1.00  0.00     0.049 A 
ATOM     40  H   UNL A   1      43.571  28.881  28.418  1.00  0.00     0.167 HD
ATOM     41  C   UNL A   1      45.944  30.436  28.128  1.00  0.00     0.074 A 
ATOM     42  C   UNL A   1      47.292  30.825  27.771  1.00  0.00     0.031 C 
ATOM     43  C   UNL A   1      45.011  31.282  28.628  1.00  0.00     0.037 A 
BRANCH  30  44
ATOM     44  C   UNL A   1      39.483  28.762  29.637  1.00  0.00     0.064 A 
ATOM     45  C   UNL A   1      38.545  29.361  28.780  1.00  0.00     0.173 A 
ATOM     46  C   UNL A   1      39.109  28.541  30.969  1.00  0.00     0.173 A 
ATOM     47  F   UNL A   1      38.858  29.603  27.498  1.00  0.00    -0.203 F 
ATOM     48  C   UNL A   1      37.298  29.763  29.251  1.00  0.00     0.198 A 
ATOM     49  C   UNL A   1      37.851  28.924  31.431  1.00  0.00     0.198 A 
ATOM     50  F   UNL A   1      39.968  27.969  31.826  1.00  0.00    -0.203 F 
ATOM     51  F   UNL A   1      36.441  30.384  28.429  1.00  0.00    -0.200 F 
ATOM     52  C   UNL A   1      36.954  29.549  30.577  1.00  0.00     0.200 A 
ATOM     53  F   UNL A   1      37.514  28.706  32.710  1.00  0.00    -0.200 F 
ATOM     54  F   UNL A   1      35.761  29.952  31.034  1.00  0.00    -0.200 F 
ENDBRANCH  30  44
BRANCH  31  55
ATOM     55  C   UNL A   1      48.783  27.136  26.324  1.00  0.00     0.064 A 
ATOM     56  C   UNL A   1      49.048  27.249  24.948  1.00  0.00     0.173 A 
ATOM     57  C   UNL A   1      49.846  26.779  27.163  1.00  0.00     0.173 A 
ATOM     58  F   UNL A   1      48.066  27.582  24.099  1.00  0.00    -0.203 F 
ATOM     59  C   UNL A   1      50.316  26.990  24.435  1.00  0.00     0.198 A 
ATOM     60  C   UNL A   1      51.123  26.558  26.651  1.00  0.00     0.198 A 
ATOM     61  F   UNL A   1      49.649  26.677  28.486  1.00  0.00    -0.203 F 
ATOM     62  F   UNL A   1      50.527  27.061  23.114  1.00  0.00    -0.200 F 
ATOM     63  C   UNL A   1      51.355  26.655  25.287  1.00  0.00     0.200 A 
ATOM     64  F   UNL A   1      52.132  26.263  27.482  1.00  0.00    -0.200 F 
ATOM     65  F   UNL A   1      52.580  26.429  24.796  1.00  0.00    -0.200 F 
ENDBRANCH  31  55
BRANCH  43  66
ATOM     66  C   UNL A   1      45.409  32.713  28.826  1.00  0.00     0.064 A 
ATOM     67  C   UNL A   1      45.194  33.660  27.812  1.00  0.00     0.173 A 
ATOM     68  C   UNL A   1      46.082  33.129  29.983  1.00  0.00     0.173 A 
ATOM     69  F   UNL A   1      44.560  33.310  26.682  1.00  0.00    -0.203 F 
ATOM     70  C   UNL A   1      45.661  34.964  27.940  1.00  0.00     0.198 A 
ATOM     71  C   UNL A   1      46.521  34.442  30.121  1.00  0.00     0.198 A 
ATOM     72  F   UNL A   1      46.297  32.264  30.986  1.00  0.00    -0.203 F 
ATOM     73  F   UNL A   1      45.485  35.839  26.941  1.00  0.00    -0.200 F 
ATOM     74  C   UNL A   1      46.322  35.354  29.096  1.00  0.00     0.200 A 
ATOM     75  F   UNL A   1      47.136  34.825  31.249  1.00  0.00    -0.200 F 
ATOM     76  F   UNL A   1      46.768  36.613  29.221  1.00  0.00    -0.200 F 
ENDBRANCH  43  66
ENDBRANCH  17  18
ENDBRANCH  10  12
ENDBRANCH   7   8
ENDBRANCH   6   7
ENDBRANCH   5   6
ENDBRANCH   1   5
BRANCH   2  77
ATOM     77  C   UNL A   1      35.407  23.072  25.558  1.00  0.00     0.098 C 
ATOM     78  C   UNL A   1      34.810  22.897  26.962  1.00  0.00     0.017 C 
ATOM     79  C   UNL A   1      34.922  24.382  24.937  1.00  0.00     0.132 C 
ATOM     80  C   UNL A   1      33.294  23.051  26.957  1.00  0.00     0.022 C 
ATOM     81  N   UNL A   1      33.451  24.412  24.899  1.00  0.00    -0.342 N 
ATOM     82  C   UNL A   1      32.815  24.297  26.212  1.00  0.00     0.119 C 
BRANCH  81  83
ATOM     83  C   UNL A   1      32.801  24.509  23.677  1.00  0.00     0.226 C 
ATOM     84  O   UNL A   1      33.117  25.362  22.842  1.00  0.00    -0.275 OA
BRANCH  83  85
ATOM     85  C   UNL A   1      31.663  23.557  23.346  1.00  0.00     0.141 C 
BRANCH  85  86
ATOM     86  C   UNL A   1      32.133  22.164  22.930  1.00  0.00     0.239 C 
BRANCH  86  87
ATOM     87  O   UNL A   1      32.575  21.363  24.028  1.00  0.00    -0.493 OA
BRANCH  87  88
ATOM     88  C   UNL A   1      32.799  20.029  23.824  1.00  0.00     0.119 A 
ATOM     89  C   UNL A   1      32.187  19.234  22.855  1.00  0.00     0.049 A 
ATOM     90  C   UNL A   1      33.790  19.467  24.640  1.00  0.00     0.049 A 
ATOM     91  C   UNL A   1      32.622  17.926  22.643  1.00  0.00     0.043 A 
ATOM     92  C   UNL A   1      34.241  18.164  24.415  1.00  0.00     0.043 A 
ATOM     93  C   UNL A   1      33.668  17.415  23.398  1.00  0.00     0.123 A 
ATOM     94  F   UNL A   1      34.152  16.199  23.111  1.00  0.00    -0.207 F 
ENDBRANCH  87  88
ENDBRANCH  86  87
ENDBRANCH  85  86
ENDBRANCH  83  85
ENDBRANCH  81  83
ENDBRANCH   2  77
TORSDOF 15
ENDMDL
