MODEL 1
REMARK VINA RESULT:      -9.8      0.000      0.000
REMARK SMILES C[C@H](NC(=O)c1ccc(C(C)(C)C)cc1)C(=O)N[C@@H](C(=O)NCCCNC(=O)c1ccc(-c2c3nc(c(-c4c(F)c(F)c(F)c(F)c4F)c4ccc([nH]4)c(-c4c(F)c(F)c(F)c(F)c4F)c4nc(c(-c5c(F)c(F)c(F)c(F)c5F)c5ccc2[nH]5)C=C4)C=C3)cc1)[C@H](C)O
REMARK SMILES IDX 20 1 21 2 22 3 19 5 18 6 16 7 17 8 2 10 1 11 3 12 4 13 5 15
REMARK SMILES IDX 6 16 7 17 15 18 8 19 14 20 9 21 10 22 11 23 12 24 13 25
REMARK SMILES IDX 92 26 93 27 94 28 23 30 24 31 25 32 26 33 27 34 28 36 29 37
REMARK SMILES IDX 30 38 91 39 31 40 90 41 32 42 33 43 34 44 84 45 35 46 89 47
REMARK SMILES IDX 83 48 85 49 36 50 88 51 82 52 81 53 37 55 69 56 49 57 68 58
REMARK SMILES IDX 50 59 53 60 67 61 86 62 51 63 52 64 66 66 87 67 54 68 38 69
REMARK SMILES IDX 39 70 47 71 40 72 41 73 45 74 48 75 42 76 43 77 46 78 44 79
REMARK SMILES IDX 70 80 71 81 79 82 72 83 73 84 77 85 80 86 74 87 75 88 78 89
REMARK SMILES IDX 76 90 55 91 56 92 64 93 57 94 58 95 62 96 65 97 59 98 60 99
REMARK SMILES IDX 63 100 61 101
REMARK H PARENT 22 4 18 9 3 14 94 29 26 35 85 54 53 65
REMARK Flexibility Score: inf
ROOT
ATOM      1  C   UNL A   1      38.315  33.505  32.032  1.00  0.00     0.245 C 
ATOM      2  O   UNL A   1      39.111  34.136  31.331  1.00  0.00    -0.273 OA
ATOM      3  N   UNL A   1      37.042  33.425  31.540  1.00  0.00    -0.354 N 
ATOM      4  H   UNL A   1      36.814  34.088  30.848  1.00  0.00     0.163 HD
ENDROOT
BRANCH   1   5
ATOM      5  C   UNL A   1      38.765  32.675  33.282  1.00  0.00     0.200 C 
BRANCH   5   6
ATOM      6  N   UNL A   1      38.097  31.360  33.370  1.00  0.00    -0.340 N 
ATOM      7  C   UNL A   1      38.508  30.077  33.545  1.00  0.00     0.243 C 
ATOM      8  O   UNL A   1      37.601  29.237  33.626  1.00  0.00    -0.273 OA
ATOM      9  H   UNL A   1      37.119  31.431  33.281  1.00  0.00     0.164 HD
BRANCH   7  10
ATOM     10  C   UNL A   1      39.978  29.590  33.446  1.00  0.00     0.168 C 
ATOM     11  C   UNL A   1      40.156  28.166  32.955  1.00  0.00     0.041 C 
BRANCH  10  12
ATOM     12  N   UNL A   1      40.620  29.914  34.721  1.00  0.00    -0.341 N 
ATOM     13  C   UNL A   1      41.505  29.240  35.516  1.00  0.00     0.251 C 
ATOM     14  H   UNL A   1      40.361  30.794  35.079  1.00  0.00     0.164 HD
ATOM     15  O   UNL A   1      41.782  29.669  36.626  1.00  0.00    -0.269 OA
BRANCH  13  16
ATOM     16  C   UNL A   1      42.103  27.991  35.026  1.00  0.00     0.039 A 
ATOM     17  C   UNL A   1      43.188  28.049  34.156  1.00  0.00     0.014 A 
ATOM     18  C   UNL A   1      41.599  26.766  35.453  1.00  0.00     0.014 A 
ATOM     19  C   UNL A   1      43.838  26.866  33.800  1.00  0.00     0.005 A 
ATOM     20  C   UNL A   1      42.259  25.591  35.101  1.00  0.00     0.005 A 
ATOM     21  C   UNL A   1      43.421  25.617  34.309  1.00  0.00    -0.043 A 
BRANCH  21  22
ATOM     22  C   UNL A   1      44.206  24.336  33.984  1.00  0.00    -0.013 C 
ATOM     23  C   UNL A   1      45.530  24.359  34.768  1.00  0.00     0.016 C 
ATOM     24  C   UNL A   1      43.401  23.074  34.374  1.00  0.00     0.016 C 
ATOM     25  C   UNL A   1      44.532  24.194  32.478  1.00  0.00     0.016 C 
ENDBRANCH  21  22
ENDBRANCH  13  16
ENDBRANCH  10  12
ENDBRANCH   7  10
ENDBRANCH   5   6
BRANCH   5  26
ATOM     26  C   UNL A   1      38.432  33.515  34.553  1.00  0.00     0.143 C 
ATOM     27  C   UNL A   1      37.235  33.006  35.345  1.00  0.00     0.041 C 
BRANCH  26  28
ATOM     28  O   UNL A   1      38.158  34.877  34.184  1.00  0.00    -0.391 OA
ATOM     29  H   UNL A   1      37.224  34.966  33.941  1.00  0.00     0.211 HD
ENDBRANCH  26  28
ENDBRANCH   5  26
ENDBRANCH   1   5
BRANCH   3  30
ATOM     30  C   UNL A   1      35.986  32.507  31.892  1.00  0.00     0.117 C 
BRANCH  30  31
ATOM     31  C   UNL A   1      34.770  32.644  30.983  1.00  0.00     0.042 C 
BRANCH  31  32
ATOM     32  C   UNL A   1      35.124  32.667  29.503  1.00  0.00     0.118 C 
BRANCH  32  33
ATOM     33  N   UNL A   1      34.394  31.661  28.743  1.00  0.00    -0.352 N 
ATOM     34  C   UNL A   1      34.825  30.474  28.204  1.00  0.00     0.251 C 
ATOM     35  H   UNL A   1      33.443  31.866  28.591  1.00  0.00     0.163 HD
ATOM     36  O   UNL A   1      34.072  29.826  27.482  1.00  0.00    -0.269 OA
BRANCH  34  37
ATOM     37  C   UNL A   1      36.195  29.976  28.458  1.00  0.00     0.039 A 
ATOM     38  C   UNL A   1      37.153  30.113  27.447  1.00  0.00     0.014 A 
ATOM     39  C   UNL A   1      36.539  29.356  29.661  1.00  0.00     0.014 A 
ATOM     40  C   UNL A   1      38.464  29.682  27.664  1.00  0.00     0.010 A 
ATOM     41  C   UNL A   1      37.864  28.999  29.906  1.00  0.00     0.010 A 
ATOM     42  C   UNL A   1      38.837  29.152  28.908  1.00  0.00    -0.014 A 
BRANCH  42  43
ATOM     43  C   UNL A   1      40.237  28.742  29.184  1.00  0.00     0.031 A 
ATOM     44  C   UNL A   1      41.166  29.674  29.909  1.00  0.00     0.074 A 
ATOM     45  C   UNL A   1      40.689  27.560  28.723  1.00  0.00     0.049 A 
ATOM     46  N   UNL A   1      42.443  29.540  30.165  1.00  0.00    -0.248 NA
ATOM     47  C   UNL A   1      40.589  30.941  30.387  1.00  0.00     0.031 C 
ATOM     48  C   UNL A   1      39.897  26.586  27.969  1.00  0.00     0.029 A 
ATOM     49  N   UNL A   1      41.932  26.982  28.808  1.00  0.00    -0.354 N 
ATOM     50  C   UNL A   1      42.824  30.709  30.810  1.00  0.00     0.074 A 
ATOM     51  C   UNL A   1      41.656  31.561  30.865  1.00  0.00     0.031 C 
ATOM     52  C   UNL A   1      40.664  25.524  27.682  1.00  0.00     0.029 A 
ATOM     53  C   UNL A   1      42.011  25.756  28.195  1.00  0.00     0.049 A 
ATOM     54  H   UNL A   1      42.692  27.407  29.267  1.00  0.00     0.167 HD
ATOM     55  C   UNL A   1      44.033  31.033  31.328  1.00  0.00     0.037 A 
ATOM     56  C   UNL A   1      43.056  24.919  28.057  1.00  0.00     0.037 A 
ATOM     57  C   UNL A   1      45.183  30.168  31.302  1.00  0.00     0.049 A 
ATOM     58  C   UNL A   1      44.387  25.301  28.644  1.00  0.00     0.074 A 
ATOM     59  C   UNL A   1      46.435  30.379  31.853  1.00  0.00     0.029 A 
ATOM     60  N   UNL A   1      45.219  28.924  30.689  1.00  0.00    -0.354 N 
ATOM     61  N   UNL A   1      44.721  26.384  29.303  1.00  0.00    -0.248 NA
ATOM     62  C   UNL A   1      45.486  24.342  28.471  1.00  0.00     0.031 C 
ATOM     63  C   UNL A   1      47.240  29.277  31.542  1.00  0.00     0.029 A 
ATOM     64  C   UNL A   1      46.477  28.362  30.835  1.00  0.00     0.049 A 
ATOM     65  H   UNL A   1      44.462  28.502  30.221  1.00  0.00     0.167 HD
ATOM     66  C   UNL A   1      46.056  26.225  29.646  1.00  0.00     0.074 A 
ATOM     67  C   UNL A   1      46.469  24.934  29.134  1.00  0.00     0.031 C 
ATOM     68  C   UNL A   1      46.868  27.071  30.327  1.00  0.00     0.037 A 
BRANCH  55  69
ATOM     69  C   UNL A   1      44.171  32.381  31.974  1.00  0.00     0.064 A 
ATOM     70  C   UNL A   1      44.524  33.519  31.232  1.00  0.00     0.173 A 
ATOM     71  C   UNL A   1      43.922  32.543  33.345  1.00  0.00     0.173 A 
ATOM     72  F   UNL A   1      44.784  33.416  29.920  1.00  0.00    -0.203 F 
ATOM     73  C   UNL A   1      44.655  34.762  31.845  1.00  0.00     0.198 A 
ATOM     74  C   UNL A   1      44.023  33.794  33.948  1.00  0.00     0.198 A 
ATOM     75  F   UNL A   1      43.574  31.490  34.098  1.00  0.00    -0.203 F 
ATOM     76  F   UNL A   1      45.044  35.825  31.126  1.00  0.00    -0.200 F 
ATOM     77  C   UNL A   1      44.399  34.900  33.201  1.00  0.00     0.200 A 
ATOM     78  F   UNL A   1      43.765  33.928  35.256  1.00  0.00    -0.200 F 
ATOM     79  F   UNL A   1      44.520  36.099  33.788  1.00  0.00    -0.200 F 
ENDBRANCH  55  69
BRANCH  56  80
ATOM     80  C   UNL A   1      42.877  23.620  27.359  1.00  0.00     0.064 A 
ATOM     81  C   UNL A   1      43.254  23.470  26.018  1.00  0.00     0.173 A 
ATOM     82  C   UNL A   1      42.328  22.507  28.012  1.00  0.00     0.173 A 
ATOM     83  F   UNL A   1      43.764  24.513  25.345  1.00  0.00    -0.203 F 
ATOM     84  C   UNL A   1      43.074  22.261  25.350  1.00  0.00     0.198 A 
ATOM     85  C   UNL A   1      42.171  21.291  27.349  1.00  0.00     0.198 A 
ATOM     86  F   UNL A   1      41.953  22.598  29.296  1.00  0.00    -0.203 F 
ATOM     87  F   UNL A   1      43.404  22.157  24.055  1.00  0.00    -0.200 F 
ATOM     88  C   UNL A   1      42.537  21.171  26.018  1.00  0.00     0.200 A 
ATOM     89  F   UNL A   1      41.663  20.236  28.002  1.00  0.00    -0.200 F 
ATOM     90  F   UNL A   1      42.366  20.007  25.376  1.00  0.00    -0.200 F 
ENDBRANCH  56  80
BRANCH  68  91
ATOM     91  C   UNL A   1      48.272  26.615  30.587  1.00  0.00     0.064 A 
ATOM     92  C   UNL A   1      49.324  26.938  29.717  1.00  0.00     0.173 A 
ATOM     93  C   UNL A   1      48.574  25.875  31.740  1.00  0.00     0.173 A 
ATOM     94  F   UNL A   1      49.081  27.629  28.593  1.00  0.00    -0.203 F 
ATOM     95  C   UNL A   1      50.624  26.520  29.982  1.00  0.00     0.198 A 
ATOM     96  C   UNL A   1      49.881  25.482  32.017  1.00  0.00     0.198 A 
ATOM     97  F   UNL A   1      47.604  25.545  32.606  1.00  0.00    -0.203 F 
ATOM     98  F   UNL A   1      51.607  26.804  29.117  1.00  0.00    -0.200 F 
ATOM     99  C   UNL A   1      50.903  25.799  31.135  1.00  0.00     0.200 A 
ATOM    100  F   UNL A   1      50.151  24.796  33.134  1.00  0.00    -0.200 F 
ATOM    101  F   UNL A   1      52.157  25.402  31.391  1.00  0.00    -0.200 F 
ENDBRANCH  68  91
ENDBRANCH  42  43
ENDBRANCH  34  37
ENDBRANCH  32  33
ENDBRANCH  31  32
ENDBRANCH  30  31
ENDBRANCH   3  30
TORSDOF 17
ENDMDL
MODEL 2
REMARK VINA RESULT:      -9.4      4.588      9.991
REMARK SMILES C[C@H](NC(=O)c1ccc(C(C)(C)C)cc1)C(=O)N[C@@H](C(=O)NCCCNC(=O)c1ccc(-c2c3nc(c(-c4c(F)c(F)c(F)c(F)c4F)c4ccc([nH]4)c(-c4c(F)c(F)c(F)c(F)c4F)c4nc(c(-c5c(F)c(F)c(F)c(F)c5F)c5ccc2[nH]5)C=C4)C=C3)cc1)[C@H](C)O
REMARK SMILES IDX 20 1 21 2 22 3 19 5 18 6 16 7 17 8 2 10 1 11 3 12 4 13 5 15
REMARK SMILES IDX 6 16 7 17 15 18 8 19 14 20 9 21 10 22 11 23 12 24 13 25
REMARK SMILES IDX 92 26 93 27 94 28 23 30 24 31 25 32 26 33 27 34 28 36 29 37
REMARK SMILES IDX 30 38 91 39 31 40 90 41 32 42 33 43 34 44 84 45 35 46 89 47
REMARK SMILES IDX 83 48 85 49 36 50 88 51 82 52 81 53 37 55 69 56 49 57 68 58
REMARK SMILES IDX 50 59 53 60 67 61 86 62 51 63 52 64 66 66 87 67 54 68 38 69
REMARK SMILES IDX 39 70 47 71 40 72 41 73 45 74 48 75 42 76 43 77 46 78 44 79
REMARK SMILES IDX 70 80 71 81 79 82 72 83 73 84 77 85 80 86 74 87 75 88 78 89
REMARK SMILES IDX 76 90 55 91 56 92 64 93 57 94 58 95 62 96 65 97 59 98 60 99
REMARK SMILES IDX 63 100 61 101
REMARK H PARENT 22 4 18 9 3 14 94 29 26 35 85 54 53 65
REMARK Flexibility Score: inf
ROOT
ATOM      1  C   UNL A   1      43.967  23.137  26.894  1.00  0.00     0.245 C 
ATOM      2  O   UNL A   1      43.986  22.806  28.082  1.00  0.00    -0.273 OA
ATOM      3  N   UNL A   1      44.832  24.138  26.553  1.00  0.00    -0.354 N 
ATOM      4  H   UNL A   1      45.172  24.677  27.304  1.00  0.00     0.163 HD
ENDROOT
BRANCH   1   5
ATOM      5  C   UNL A   1      43.171  22.335  25.808  1.00  0.00     0.200 C 
BRANCH   5   6
ATOM      6  N   UNL A   1      41.875  21.825  26.304  1.00  0.00    -0.340 N 
ATOM      7  C   UNL A   1      40.677  22.380  26.623  1.00  0.00     0.243 C 
ATOM      8  O   UNL A   1      39.794  21.577  26.955  1.00  0.00    -0.273 OA
ATOM      9  H   UNL A   1      41.883  20.850  26.435  1.00  0.00     0.164 HD
BRANCH   7  10
ATOM     10  C   UNL A   1      40.414  23.900  26.791  1.00  0.00     0.168 C 
ATOM     11  C   UNL A   1      38.953  24.306  26.806  1.00  0.00     0.041 C 
BRANCH  10  12
ATOM     12  N   UNL A   1      41.261  24.588  25.814  1.00  0.00    -0.341 N 
ATOM     13  C   UNL A   1      41.689  25.881  25.700  1.00  0.00     0.251 C 
ATOM     14  H   UNL A   1      41.586  24.001  25.093  1.00  0.00     0.164 HD
ATOM     15  O   UNL A   1      42.279  26.245  24.694  1.00  0.00    -0.269 OA
BRANCH  13  16
ATOM     16  C   UNL A   1      41.419  26.825  26.792  1.00  0.00     0.039 A 
ATOM     17  C   UNL A   1      40.787  28.033  26.509  1.00  0.00     0.014 A 
ATOM     18  C   UNL A   1      41.772  26.496  28.098  1.00  0.00     0.014 A 
ATOM     19  C   UNL A   1      40.410  28.866  27.564  1.00  0.00     0.005 A 
ATOM     20  C   UNL A   1      41.383  27.329  29.145  1.00  0.00     0.005 A 
ATOM     21  C   UNL A   1      40.651  28.506  28.907  1.00  0.00    -0.043 A 
BRANCH  21  22
ATOM     22  C   UNL A   1      40.144  29.389  30.059  1.00  0.00    -0.013 C 
ATOM     23  C   UNL A   1      40.419  28.665  31.389  1.00  0.00     0.016 C 
ATOM     24  C   UNL A   1      40.858  30.761  30.067  1.00  0.00     0.016 C 
ATOM     25  C   UNL A   1      38.629  29.688  29.969  1.00  0.00     0.016 C 
ENDBRANCH  21  22
ENDBRANCH  13  16
ENDBRANCH  10  12
ENDBRANCH   7  10
ENDBRANCH   5   6
BRANCH   5  26
ATOM     26  C   UNL A   1      44.063  21.139  25.354  1.00  0.00     0.143 C 
ATOM     27  C   UNL A   1      43.400  19.775  25.490  1.00  0.00     0.041 C 
BRANCH  26  28
ATOM     28  O   UNL A   1      45.275  21.110  26.126  1.00  0.00    -0.391 OA
ATOM     29  H   UNL A   1      45.967  21.605  25.661  1.00  0.00     0.211 HD
ENDBRANCH  26  28
ENDBRANCH   5  26
ENDBRANCH   1   5
BRANCH   3  30
ATOM     30  C   UNL A   1      45.318  24.517  25.248  1.00  0.00     0.117 C 
BRANCH  30  31
ATOM     31  C   UNL A   1      46.780  24.135  25.040  1.00  0.00     0.042 C 
BRANCH  31  32
ATOM     32  C   UNL A   1      47.747  25.277  25.320  1.00  0.00     0.118 C 
BRANCH  32  33
ATOM     33  N   UNL A   1      47.721  26.293  24.277  1.00  0.00    -0.352 N 
ATOM     34  C   UNL A   1      47.144  27.540  24.271  1.00  0.00     0.251 C 
ATOM     35  H   UNL A   1      48.187  26.047  23.446  1.00  0.00     0.163 HD
ATOM     36  O   UNL A   1      47.128  28.196  23.233  1.00  0.00    -0.269 OA
BRANCH  34  37
ATOM     37  C   UNL A   1      46.517  28.095  25.492  1.00  0.00     0.039 A 
ATOM     38  C   UNL A   1      47.341  28.693  26.451  1.00  0.00     0.014 A 
ATOM     39  C   UNL A   1      45.141  28.008  25.714  1.00  0.00     0.014 A 
ATOM     40  C   UNL A   1      46.780  29.255  27.600  1.00  0.00     0.010 A 
ATOM     41  C   UNL A   1      44.574  28.636  26.820  1.00  0.00     0.010 A 
ATOM     42  C   UNL A   1      45.388  29.260  27.778  1.00  0.00    -0.014 A 
BRANCH  42  43
ATOM     43  C   UNL A   1      44.763  29.902  28.961  1.00  0.00     0.031 A 
ATOM     44  C   UNL A   1      44.456  31.373  28.945  1.00  0.00     0.074 A 
ATOM     45  C   UNL A   1      44.535  29.175  30.071  1.00  0.00     0.049 A 
ATOM     46  N   UNL A   1      43.997  32.135  29.906  1.00  0.00    -0.248 NA
ATOM     47  C   UNL A   1      44.728  32.090  27.690  1.00  0.00     0.031 C 
ATOM     48  C   UNL A   1      44.828  27.749  30.225  1.00  0.00     0.029 A 
ATOM     49  N   UNL A   1      44.015  29.540  31.289  1.00  0.00    -0.354 N 
ATOM     50  C   UNL A   1      43.947  33.419  29.380  1.00  0.00     0.074 A 
ATOM     51  C   UNL A   1      44.466  33.343  28.031  1.00  0.00     0.031 C 
ATOM     52  C   UNL A   1      44.463  27.356  31.455  1.00  0.00     0.029 A 
ATOM     53  C   UNL A   1      43.948  28.506  32.190  1.00  0.00     0.049 A 
ATOM     54  H   UNL A   1      43.719  30.456  31.495  1.00  0.00     0.167 HD
ATOM     55  C   UNL A   1      43.490  34.553  29.961  1.00  0.00     0.037 A 
ATOM     56  C   UNL A   1      43.525  28.493  33.468  1.00  0.00     0.037 A 
ATOM     57  C   UNL A   1      42.942  34.619  31.291  1.00  0.00     0.049 A 
ATOM     58  C   UNL A   1      43.019  29.766  34.089  1.00  0.00     0.074 A 
ATOM     59  C   UNL A   1      42.397  35.708  31.947  1.00  0.00     0.029 A 
ATOM     60  N   UNL A   1      42.872  33.545  32.166  1.00  0.00    -0.354 N 
ATOM     61  N   UNL A   1      42.922  30.962  33.562  1.00  0.00    -0.248 NA
ATOM     62  C   UNL A   1      42.560  29.686  35.482  1.00  0.00     0.031 C 
ATOM     63  C   UNL A   1      42.029  35.301  33.235  1.00  0.00     0.029 A 
ATOM     64  C   UNL A   1      42.306  33.950  33.365  1.00  0.00     0.049 A 
ATOM     65  H   UNL A   1      43.178  32.631  31.966  1.00  0.00     0.167 HD
ATOM     66  C   UNL A   1      42.368  31.769  34.546  1.00  0.00     0.074 A 
ATOM     67  C   UNL A   1      42.137  30.923  35.699  1.00  0.00     0.031 C 
ATOM     68  C   UNL A   1      42.074  33.092  34.499  1.00  0.00     0.037 A 
BRANCH  55  69
ATOM     69  C   UNL A   1      43.558  35.819  29.157  1.00  0.00     0.064 A 
ATOM     70  C   UNL A   1      44.694  36.644  29.179  1.00  0.00     0.173 A 
ATOM     71  C   UNL A   1      42.487  36.200  28.335  1.00  0.00     0.173 A 
ATOM     72  F   UNL A   1      45.741  36.331  29.957  1.00  0.00    -0.203 F 
ATOM     73  C   UNL A   1      44.742  37.818  28.432  1.00  0.00     0.198 A 
ATOM     74  C   UNL A   1      42.551  37.359  27.566  1.00  0.00     0.198 A 
ATOM     75  F   UNL A   1      41.381  35.445  28.272  1.00  0.00    -0.203 F 
ATOM     76  F   UNL A   1      45.816  38.616  28.509  1.00  0.00    -0.200 F 
ATOM     77  C   UNL A   1      43.673  38.172  27.623  1.00  0.00     0.200 A 
ATOM     78  F   UNL A   1      41.522  37.695  26.775  1.00  0.00    -0.200 F 
ATOM     79  F   UNL A   1      43.722  39.301  26.901  1.00  0.00    -0.200 F 
ENDBRANCH  55  69
BRANCH  56  80
ATOM     80  C   UNL A   1      43.531  27.222  34.237  1.00  0.00     0.064 A 
ATOM     81  C   UNL A   1      42.337  26.533  34.490  1.00  0.00     0.173 A 
ATOM     82  C   UNL A   1      44.721  26.671  34.732  1.00  0.00     0.173 A 
ATOM     83  F   UNL A   1      41.171  27.033  34.054  1.00  0.00    -0.203 F 
ATOM     84  C   UNL A   1      42.330  25.350  35.225  1.00  0.00     0.198 A 
ATOM     85  C   UNL A   1      44.716  25.473  35.446  1.00  0.00     0.198 A 
ATOM     86  F   UNL A   1      45.890  27.290  34.514  1.00  0.00    -0.203 F 
ATOM     87  F   UNL A   1      41.169  24.734  35.489  1.00  0.00    -0.200 F 
ATOM     88  C   UNL A   1      43.520  24.818  35.698  1.00  0.00     0.200 A 
ATOM     89  F   UNL A   1      45.870  24.956  35.891  1.00  0.00    -0.200 F 
ATOM     90  F   UNL A   1      43.514  23.678  36.402  1.00  0.00    -0.200 F 
ENDBRANCH  56  80
BRANCH  68  91
ATOM     91  C   UNL A   1      41.440  33.698  35.714  1.00  0.00     0.064 A 
ATOM     92  C   UNL A   1      42.203  34.348  36.695  1.00  0.00     0.173 A 
ATOM     93  C   UNL A   1      40.047  33.659  35.881  1.00  0.00     0.173 A 
ATOM     94  F   UNL A   1      43.539  34.397  36.589  1.00  0.00    -0.203 F 
ATOM     95  C   UNL A   1      41.596  34.919  37.809  1.00  0.00     0.198 A 
ATOM     96  C   UNL A   1      39.441  34.255  36.983  1.00  0.00     0.198 A 
ATOM     97  F   UNL A   1      39.274  33.053  34.967  1.00  0.00    -0.203 F 
ATOM     98  F   UNL A   1      42.347  35.499  38.756  1.00  0.00    -0.200 F 
ATOM     99  C   UNL A   1      40.216  34.879  37.949  1.00  0.00     0.200 A 
ATOM    100  F   UNL A   1      38.108  34.226  37.111  1.00  0.00    -0.200 F 
ATOM    101  F   UNL A   1      39.633  35.435  39.020  1.00  0.00    -0.200 F 
ENDBRANCH  68  91
ENDBRANCH  42  43
ENDBRANCH  34  37
ENDBRANCH  32  33
ENDBRANCH  31  32
ENDBRANCH  30  31
ENDBRANCH   3  30
TORSDOF 17
ENDMDL
MODEL 3
REMARK VINA RESULT:      -9.2      4.447     10.030
REMARK SMILES C[C@H](NC(=O)c1ccc(C(C)(C)C)cc1)C(=O)N[C@@H](C(=O)NCCCNC(=O)c1ccc(-c2c3nc(c(-c4c(F)c(F)c(F)c(F)c4F)c4ccc([nH]4)c(-c4c(F)c(F)c(F)c(F)c4F)c4nc(c(-c5c(F)c(F)c(F)c(F)c5F)c5ccc2[nH]5)C=C4)C=C3)cc1)[C@H](C)O
REMARK SMILES IDX 20 1 21 2 22 3 19 5 18 6 16 7 17 8 2 10 1 11 3 12 4 13 5 15
REMARK SMILES IDX 6 16 7 17 15 18 8 19 14 20 9 21 10 22 11 23 12 24 13 25
REMARK SMILES IDX 92 26 93 27 94 28 23 30 24 31 25 32 26 33 27 34 28 36 29 37
REMARK SMILES IDX 30 38 91 39 31 40 90 41 32 42 33 43 34 44 84 45 35 46 89 47
REMARK SMILES IDX 83 48 85 49 36 50 88 51 82 52 81 53 37 55 69 56 49 57 68 58
REMARK SMILES IDX 50 59 53 60 67 61 86 62 51 63 52 64 66 66 87 67 54 68 38 69
REMARK SMILES IDX 39 70 47 71 40 72 41 73 45 74 48 75 42 76 43 77 46 78 44 79
REMARK SMILES IDX 70 80 71 81 79 82 72 83 73 84 77 85 80 86 74 87 75 88 78 89
REMARK SMILES IDX 76 90 55 91 56 92 64 93 57 94 58 95 62 96 65 97 59 98 60 99
REMARK SMILES IDX 63 100 61 101
REMARK H PARENT 22 4 18 9 3 14 94 29 26 35 85 54 53 65
REMARK Flexibility Score: inf
ROOT
ATOM      1  C   UNL A   1      43.760  20.460  25.521  1.00  0.00     0.245 C 
ATOM      2  O   UNL A   1      43.776  19.580  24.656  1.00  0.00    -0.273 OA
ATOM      3  N   UNL A   1      44.923  21.166  25.657  1.00  0.00    -0.354 N 
ATOM      4  H   UNL A   1      45.723  20.741  25.270  1.00  0.00     0.163 HD
ENDROOT
BRANCH   1   5
ATOM      5  C   UNL A   1      42.449  20.887  26.266  1.00  0.00     0.200 C 
BRANCH   5   6
ATOM      6  N   UNL A   1      42.704  21.803  27.397  1.00  0.00    -0.340 N 
ATOM      7  C   UNL A   1      42.042  22.846  27.964  1.00  0.00     0.243 C 
ATOM      8  O   UNL A   1      42.579  23.329  28.970  1.00  0.00    -0.273 OA
ATOM      9  H   UNL A   1      43.558  21.613  27.848  1.00  0.00     0.164 HD
BRANCH   7  10
ATOM     10  C   UNL A   1      40.821  23.571  27.340  1.00  0.00     0.168 C 
ATOM     11  C   UNL A   1      39.701  22.662  26.867  1.00  0.00     0.041 C 
BRANCH  10  12
ATOM     12  N   UNL A   1      41.345  24.512  26.349  1.00  0.00    -0.341 N 
ATOM     13  C   UNL A   1      41.327  25.876  26.258  1.00  0.00     0.251 C 
ATOM     14  H   UNL A   1      41.803  24.074  25.595  1.00  0.00     0.164 HD
ATOM     15  O   UNL A   1      41.712  26.428  25.238  1.00  0.00    -0.269 OA
BRANCH  13  16
ATOM     16  C   UNL A   1      40.827  26.664  27.392  1.00  0.00     0.039 A 
ATOM     17  C   UNL A   1      39.630  27.362  27.263  1.00  0.00     0.014 A 
ATOM     18  C   UNL A   1      41.537  26.686  28.589  1.00  0.00     0.014 A 
ATOM     19  C   UNL A   1      39.089  27.998  28.382  1.00  0.00     0.005 A 
ATOM     20  C   UNL A   1      40.985  27.315  29.703  1.00  0.00     0.005 A 
ATOM     21  C   UNL A   1      39.727  27.941  29.639  1.00  0.00    -0.043 A 
BRANCH  21  22
ATOM     22  C   UNL A   1      39.071  28.565  30.881  1.00  0.00    -0.013 C 
ATOM     23  C   UNL A   1      40.119  29.424  31.610  1.00  0.00     0.016 C 
ATOM     24  C   UNL A   1      37.865  29.451  30.491  1.00  0.00     0.016 C 
ATOM     25  C   UNL A   1      38.530  27.507  31.872  1.00  0.00     0.016 C 
ENDBRANCH  21  22
ENDBRANCH  13  16
ENDBRANCH  10  12
ENDBRANCH   7  10
ENDBRANCH   5   6
BRANCH   5  26
ATOM     26  C   UNL A   1      41.760  19.590  26.791  1.00  0.00     0.143 C 
ATOM     27  C   UNL A   1      42.666  18.689  27.618  1.00  0.00     0.041 C 
BRANCH  26  28
ATOM     28  O   UNL A   1      41.268  18.813  25.685  1.00  0.00    -0.391 OA
ATOM     29  H   UNL A   1      41.677  17.934  25.701  1.00  0.00     0.211 HD
ENDBRANCH  26  28
ENDBRANCH   5  26
ENDBRANCH   1   5
BRANCH   3  30
ATOM     30  C   UNL A   1      45.143  22.445  26.286  1.00  0.00     0.117 C 
BRANCH  30  31
ATOM     31  C   UNL A   1      45.515  23.530  25.281  1.00  0.00     0.042 C 
BRANCH  31  32
ATOM     32  C   UNL A   1      46.759  24.316  25.676  1.00  0.00     0.118 C 
BRANCH  32  33
ATOM     33  N   UNL A   1      47.192  25.230  24.628  1.00  0.00    -0.352 N 
ATOM     34  C   UNL A   1      47.036  26.590  24.521  1.00  0.00     0.251 C 
ATOM     35  H   UNL A   1      47.670  24.807  23.879  1.00  0.00     0.163 HD
ATOM     36  O   UNL A   1      47.367  27.160  23.484  1.00  0.00    -0.269 OA
BRANCH  34  37
ATOM     37  C   UNL A   1      46.449  27.379  25.628  1.00  0.00     0.039 A 
ATOM     38  C   UNL A   1      45.055  27.470  25.715  1.00  0.00     0.014 A 
ATOM     39  C   UNL A   1      47.249  28.046  26.558  1.00  0.00     0.014 A 
ATOM     40  C   UNL A   1      44.467  28.180  26.764  1.00  0.00     0.010 A 
ATOM     41  C   UNL A   1      46.662  28.687  27.647  1.00  0.00     0.010 A 
ATOM     42  C   UNL A   1      45.265  28.766  27.757  1.00  0.00    -0.014 A 
BRANCH  42  43
ATOM     43  C   UNL A   1      44.664  29.474  28.914  1.00  0.00     0.031 A 
ATOM     44  C   UNL A   1      44.393  30.950  28.836  1.00  0.00     0.074 A 
ATOM     45  C   UNL A   1      44.425  28.802  30.057  1.00  0.00     0.049 A 
ATOM     46  N   UNL A   1      43.959  31.765  29.765  1.00  0.00    -0.248 NA
ATOM     47  C   UNL A   1      44.675  31.605  27.549  1.00  0.00     0.031 C 
ATOM     48  C   UNL A   1      44.683  27.378  30.271  1.00  0.00     0.029 A 
ATOM     49  N   UNL A   1      43.922  29.233  31.260  1.00  0.00    -0.354 N 
ATOM     50  C   UNL A   1      43.938  33.025  29.184  1.00  0.00     0.074 A 
ATOM     51  C   UNL A   1      44.446  32.878  27.837  1.00  0.00     0.031 C 
ATOM     52  C   UNL A   1      44.317  27.047  31.519  1.00  0.00     0.029 A 
ATOM     53  C   UNL A   1      43.835  28.242  32.206  1.00  0.00     0.049 A 
ATOM     54  H   UNL A   1      43.649  30.164  31.427  1.00  0.00     0.167 HD
ATOM     55  C   UNL A   1      43.513  34.195  29.717  1.00  0.00     0.037 A 
ATOM     56  C   UNL A   1      43.420  28.294  33.486  1.00  0.00     0.037 A 
ATOM     57  C   UNL A   1      42.975  34.332  31.045  1.00  0.00     0.049 A 
ATOM     58  C   UNL A   1      42.950  29.605  34.053  1.00  0.00     0.074 A 
ATOM     59  C   UNL A   1      42.461  35.462  31.656  1.00  0.00     0.029 A 
ATOM     60  N   UNL A   1      42.884  33.300  31.967  1.00  0.00    -0.354 N 
ATOM     61  N   UNL A   1      42.879  30.780  33.474  1.00  0.00    -0.248 NA
ATOM     62  C   UNL A   1      42.498  29.598  35.451  1.00  0.00     0.031 C 
ATOM     63  C   UNL A   1      42.092  35.121  32.963  1.00  0.00     0.029 A 
ATOM     64  C   UNL A   1      42.335  33.771  33.150  1.00  0.00     0.049 A 
ATOM     65  H   UNL A   1      43.166  32.370  31.805  1.00  0.00     0.167 HD
ATOM     66  C   UNL A   1      42.351  31.642  34.425  1.00  0.00     0.074 A 
ATOM     67  C   UNL A   1      42.107  30.853  35.615  1.00  0.00     0.031 C 
ATOM     68  C   UNL A   1      42.090  32.969  34.321  1.00  0.00     0.037 A 
BRANCH  55  69
ATOM     69  C   UNL A   1      43.608  35.422  28.858  1.00  0.00     0.064 A 
ATOM     70  C   UNL A   1      42.490  35.932  28.177  1.00  0.00     0.173 A 
ATOM     71  C   UNL A   1      44.822  36.113  28.732  1.00  0.00     0.173 A 
ATOM     72  F   UNL A   1      41.308  35.303  28.254  1.00  0.00    -0.203 F 
ATOM     73  C   UNL A   1      42.594  37.067  27.379  1.00  0.00     0.198 A 
ATOM     74  C   UNL A   1      44.915  37.266  27.957  1.00  0.00     0.198 A 
ATOM     75  F   UNL A   1      45.919  35.673  29.366  1.00  0.00    -0.203 F 
ATOM     76  F   UNL A   1      41.525  37.505  26.697  1.00  0.00    -0.200 F 
ATOM     77  C   UNL A   1      43.803  37.737  27.274  1.00  0.00     0.200 A 
ATOM     78  F   UNL A   1      46.081  37.919  27.865  1.00  0.00    -0.200 F 
ATOM     79  F   UNL A   1      43.900  38.833  26.508  1.00  0.00    -0.200 F 
ENDBRANCH  55  69
BRANCH  56  80
ATOM     80  C   UNL A   1      43.399  27.058  34.309  1.00  0.00     0.064 A 
ATOM     81  C   UNL A   1      44.577  26.559  34.879  1.00  0.00     0.173 A 
ATOM     82  C   UNL A   1      42.209  26.353  34.542  1.00  0.00     0.173 A 
ATOM     83  F   UNL A   1      45.743  27.187  34.666  1.00  0.00    -0.203 F 
ATOM     84  C   UNL A   1      44.571  25.390  35.638  1.00  0.00     0.198 A 
ATOM     85  C   UNL A   1      42.200  25.198  35.322  1.00  0.00     0.198 A 
ATOM     86  F   UNL A   1      41.055  26.792  34.020  1.00  0.00    -0.203 F 
ATOM     87  F   UNL A   1      45.719  24.911  36.136  1.00  0.00    -0.200 F 
ATOM     88  C   UNL A   1      43.381  24.714  35.863  1.00  0.00     0.200 A 
ATOM     89  F   UNL A   1      41.046  24.554  35.547  1.00  0.00    -0.200 F 
ATOM     90  F   UNL A   1      43.375  23.592  36.595  1.00  0.00    -0.200 F 
ENDBRANCH  56  80
BRANCH  68  91
ATOM     91  C   UNL A   1      41.478  33.643  35.513  1.00  0.00     0.064 A 
ATOM     92  C   UNL A   1      42.259  34.353  36.437  1.00  0.00     0.173 A 
ATOM     93  C   UNL A   1      40.090  33.609  35.711  1.00  0.00     0.173 A 
ATOM     94  F   UNL A   1      43.592  34.400  36.299  1.00  0.00    -0.203 F 
ATOM     95  C   UNL A   1      41.673  34.986  37.529  1.00  0.00     0.198 A 
ATOM     96  C   UNL A   1      39.504  34.267  36.789  1.00  0.00     0.198 A 
ATOM     97  F   UNL A   1      39.300  32.947  34.852  1.00  0.00    -0.203 F 
ATOM     98  F   UNL A   1      42.441  35.623  38.423  1.00  0.00    -0.200 F 
ATOM     99  C   UNL A   1      40.296  34.949  37.700  1.00  0.00     0.200 A 
ATOM    100  F   UNL A   1      38.175  34.240  36.947  1.00  0.00    -0.200 F 
ATOM    101  F   UNL A   1      39.734  35.565  38.749  1.00  0.00    -0.200 F 
ENDBRANCH  68  91
ENDBRANCH  42  43
ENDBRANCH  34  37
ENDBRANCH  32  33
ENDBRANCH  31  32
ENDBRANCH  30  31
ENDBRANCH   3  30
TORSDOF 17
ENDMDL
