MODEL 1
REMARK VINA RESULT:     -11.7      0.000      0.000
REMARK SMILES C[C@H]1[C@@H](C(=O)NCCCNC(=O)c2ccc(-c3c4nc(c(-c5c(F)c(F)c(F)c(F)c5F)c5ccc([nH]5)c(-c5c(F)c(F)c(F)c(F)c5F)c5nc(c(-c6c(F)c(F)c(F)c(F)c6F)c6ccc3[nH]6)C=C5)C=C4)cc2)CCN1C(=O)NC1CCCCC1
REMARK SMILES IDX 8 1 7 2 6 3 4 4 5 5 3 7 1 8 2 9 78 10 76 11 77 12 79 13
REMARK SMILES IDX 80 14 81 15 82 17 83 18 87 19 84 20 86 21 85 22 9 23 10 24
REMARK SMILES IDX 11 25 12 27 13 28 14 29 75 30 15 31 74 32 16 33 17 34 18 35
REMARK SMILES IDX 68 36 19 37 73 38 67 39 69 40 20 41 72 42 66 43 65 44 21 46
REMARK SMILES IDX 53 47 33 48 52 49 34 50 37 51 51 52 70 53 35 54 36 55 50 57
REMARK SMILES IDX 71 58 38 59 22 60 23 61 31 62 24 63 25 64 29 65 32 66 26 67
REMARK SMILES IDX 27 68 30 69 28 70 54 71 55 72 63 73 56 74 57 75 61 76 64 77
REMARK SMILES IDX 58 78 59 79 62 80 60 81 39 82 40 83 48 84 41 85 42 86 46 87
REMARK SMILES IDX 49 88 43 89 44 90 47 91 45 92
REMARK H PARENT 6 6 81 16 10 26 69 45 37 56
REMARK Flexibility Score: inf
ROOT
ATOM      1  C   UNL A   1      35.922  23.829  25.861  1.00  0.00     0.042 C 
ENDROOT
BRANCH   1   2
ATOM      2  C   UNL A   1      34.536  23.288  25.507  1.00  0.00     0.117 C 
BRANCH   2   3
ATOM      3  N   UNL A   1      34.383  23.057  24.079  1.00  0.00    -0.356 N 
ATOM      4  C   UNL A   1      33.913  23.867  23.086  1.00  0.00     0.225 C 
ATOM      5  O   UNL A   1      33.921  23.413  21.941  1.00  0.00    -0.275 OA
ATOM      6  H   UNL A   1      34.666  22.164  23.776  1.00  0.00     0.163 HD
BRANCH   4   7
ATOM      7  C   UNL A   1      33.457  25.281  23.397  1.00  0.00     0.102 C 
ATOM      8  C   UNL A   1      30.954  24.507  23.384  1.00  0.00     0.032 C 
ATOM      9  C   UNL A   1      32.030  25.444  23.940  1.00  0.00     0.096 C 
ATOM     10  N   UNL A   1      31.710  26.815  23.581  1.00  0.00    -0.321 N 
ATOM     11  C   UNL A   1      33.529  26.238  22.187  1.00  0.00     0.037 C 
ATOM     12  C   UNL A   1      32.277  27.094  22.271  1.00  0.00     0.122 C 
BRANCH  10  13
ATOM     13  C   UNL A   1      30.837  27.692  24.113  1.00  0.00     0.317 C 
ATOM     14  O   UNL A   1      29.622  27.589  23.906  1.00  0.00    -0.249 OA
ATOM     15  N   UNL A   1      31.193  28.735  24.868  1.00  0.00    -0.335 N 
ATOM     16  H   UNL A   1      30.386  29.174  25.222  1.00  0.00     0.165 HD
BRANCH  15  17
ATOM     17  C   UNL A   1      32.391  29.447  25.346  1.00  0.00     0.083 C 
ATOM     18  C   UNL A   1      32.102  30.490  26.445  1.00  0.00     0.025 C 
ATOM     19  C   UNL A   1      33.341  28.346  25.884  1.00  0.00     0.025 C 
ATOM     20  C   UNL A   1      33.361  30.970  27.172  1.00  0.00     0.002 C 
ATOM     21  C   UNL A   1      34.556  28.854  26.646  1.00  0.00     0.002 C 
ATOM     22  C   UNL A   1      34.141  29.804  27.756  1.00  0.00     0.000 C 
ENDBRANCH  15  17
ENDBRANCH  10  13
ENDBRANCH   4   7
ENDBRANCH   2   3
ENDBRANCH   1   2
BRANCH   1  23
ATOM     23  C   UNL A   1      36.999  23.496  24.828  1.00  0.00     0.118 C 
BRANCH  23  24
ATOM     24  N   UNL A   1      37.999  22.586  25.361  1.00  0.00    -0.352 N 
ATOM     25  C   UNL A   1      39.121  22.802  26.119  1.00  0.00     0.251 C 
ATOM     26  H   UNL A   1      37.843  21.640  25.137  1.00  0.00     0.163 HD
ATOM     27  O   UNL A   1      39.915  21.864  26.255  1.00  0.00    -0.269 OA
BRANCH  25  28
ATOM     28  C   UNL A   1      39.435  24.102  26.770  1.00  0.00     0.039 A 
ATOM     29  C   UNL A   1      40.132  25.060  26.021  1.00  0.00     0.014 A 
ATOM     30  C   UNL A   1      39.164  24.372  28.113  1.00  0.00     0.014 A 
ATOM     31  C   UNL A   1      40.525  26.274  26.598  1.00  0.00     0.010 A 
ATOM     32  C   UNL A   1      39.480  25.619  28.667  1.00  0.00     0.010 A 
ATOM     33  C   UNL A   1      40.185  26.578  27.925  1.00  0.00    -0.014 A 
BRANCH  33  34
ATOM     34  C   UNL A   1      40.603  27.867  28.549  1.00  0.00     0.031 A 
ATOM     35  C   UNL A   1      42.037  28.091  28.960  1.00  0.00     0.074 A 
ATOM     36  C   UNL A   1      39.693  28.835  28.776  1.00  0.00     0.049 A 
ATOM     37  N   UNL A   1      42.580  29.128  29.550  1.00  0.00    -0.248 NA
ATOM     38  C   UNL A   1      42.980  26.995  28.695  1.00  0.00     0.031 C 
ATOM     39  C   UNL A   1      38.266  28.741  28.474  1.00  0.00     0.029 A 
ATOM     40  N   UNL A   1      39.836  30.089  29.321  1.00  0.00    -0.354 N 
ATOM     41  C   UNL A   1      43.917  28.800  29.744  1.00  0.00     0.074 A 
ATOM     42  C   UNL A   1      44.092  27.450  29.255  1.00  0.00     0.031 C 
ATOM     43  C   UNL A   1      37.668  29.895  28.815  1.00  0.00     0.029 A 
ATOM     44  C   UNL A   1      38.661  30.798  29.387  1.00  0.00     0.049 A 
ATOM     45  H   UNL A   1      40.699  30.445  29.634  1.00  0.00     0.167 HD
ATOM     46  C   UNL A   1      44.914  29.560  30.258  1.00  0.00     0.037 A 
ATOM     47  C   UNL A   1      38.409  32.035  29.857  1.00  0.00     0.037 A 
ATOM     48  C   UNL A   1      44.758  30.917  30.712  1.00  0.00     0.049 A 
ATOM     49  C   UNL A   1      39.538  32.870  30.400  1.00  0.00     0.074 A 
ATOM     50  C   UNL A   1      45.725  31.784  31.195  1.00  0.00     0.029 A 
ATOM     51  N   UNL A   1      43.556  31.608  30.735  1.00  0.00    -0.354 N 
ATOM     52  N   UNL A   1      40.806  32.566  30.523  1.00  0.00    -0.248 NA
ATOM     53  C   UNL A   1      39.200  34.225  30.857  1.00  0.00     0.031 C 
ATOM     54  C   UNL A   1      45.101  32.988  31.542  1.00  0.00     0.029 A 
ATOM     55  C   UNL A   1      43.754  32.885  31.235  1.00  0.00     0.049 A 
ATOM     56  H   UNL A   1      42.690  31.245  30.439  1.00  0.00     0.167 HD
ATOM     57  C   UNL A   1      41.420  33.692  31.053  1.00  0.00     0.074 A 
ATOM     58  C   UNL A   1      40.388  34.697  31.209  1.00  0.00     0.031 C 
ATOM     59  C   UNL A   1      42.721  33.877  31.385  1.00  0.00     0.037 A 
BRANCH  46  60
ATOM     60  C   UNL A   1      46.280  28.939  30.349  1.00  0.00     0.064 A 
ATOM     61  C   UNL A   1      47.197  29.024  29.289  1.00  0.00     0.173 A 
ATOM     62  C   UNL A   1      46.689  28.281  31.518  1.00  0.00     0.173 A 
ATOM     63  F   UNL A   1      46.852  29.634  28.145  1.00  0.00    -0.203 F 
ATOM     64  C   UNL A   1      48.460  28.445  29.385  1.00  0.00     0.198 A 
ATOM     65  C   UNL A   1      47.964  27.728  31.622  1.00  0.00     0.198 A 
ATOM     66  F   UNL A   1      45.855  28.178  32.564  1.00  0.00    -0.203 F 
ATOM     67  F   UNL A   1      49.298  28.495  28.342  1.00  0.00    -0.200 F 
ATOM     68  C   UNL A   1      48.845  27.804  30.553  1.00  0.00     0.200 A 
ATOM     69  F   UNL A   1      48.339  27.120  32.755  1.00  0.00    -0.200 F 
ATOM     70  F   UNL A   1      50.061  27.250  30.645  1.00  0.00    -0.200 F 
ENDBRANCH  46  60
BRANCH  47  71
ATOM     71  C   UNL A   1      37.026  32.574  29.808  1.00  0.00     0.064 A 
ATOM     72  C   UNL A   1      36.559  33.257  28.676  1.00  0.00     0.173 A 
ATOM     73  C   UNL A   1      36.144  32.417  30.886  1.00  0.00     0.173 A 
ATOM     74  F   UNL A   1      37.375  33.452  27.629  1.00  0.00    -0.203 F 
ATOM     75  C   UNL A   1      35.267  33.775  28.630  1.00  0.00     0.198 A 
ATOM     76  C   UNL A   1      34.843  32.913  30.830  1.00  0.00     0.198 A 
ATOM     77  F   UNL A   1      36.543  31.768  31.990  1.00  0.00    -0.203 F 
ATOM     78  F   UNL A   1      34.859  34.458  27.552  1.00  0.00    -0.200 F 
ATOM     79  C   UNL A   1      34.408  33.597  29.705  1.00  0.00     0.200 A 
ATOM     80  F   UNL A   1      34.013  32.728  31.864  1.00  0.00    -0.200 F 
ATOM     81  F   UNL A   1      33.163  34.090  29.657  1.00  0.00    -0.200 F 
ENDBRANCH  47  71
BRANCH  59  82
ATOM     82  C   UNL A   1      43.106  35.222  31.929  1.00  0.00     0.064 A 
ATOM     83  C   UNL A   1      43.634  36.223  31.102  1.00  0.00     0.173 A 
ATOM     84  C   UNL A   1      42.921  35.519  33.287  1.00  0.00     0.173 A 
ATOM     85  F   UNL A   1      43.845  35.982  29.799  1.00  0.00    -0.203 F 
ATOM     86  C   UNL A   1      43.987  37.467  31.621  1.00  0.00     0.198 A 
ATOM     87  C   UNL A   1      43.249  36.772  33.797  1.00  0.00     0.198 A 
ATOM     88  F   UNL A   1      42.414  34.598  34.119  1.00  0.00    -0.203 F 
ATOM     89  F   UNL A   1      44.534  38.393  30.822  1.00  0.00    -0.200 F 
ATOM     90  C   UNL A   1      43.789  37.742  32.966  1.00  0.00     0.200 A 
ATOM     91  F   UNL A   1      43.049  37.041  35.095  1.00  0.00    -0.200 F 
ATOM     92  F   UNL A   1      44.127  38.940  33.462  1.00  0.00    -0.200 F 
ENDBRANCH  59  82
ENDBRANCH  33  34
ENDBRANCH  25  28
ENDBRANCH  23  24
ENDBRANCH   1  23
TORSDOF 12
ENDMDL
MODEL 2
REMARK VINA RESULT:     -11.7      3.769      8.896
REMARK SMILES C[C@H]1[C@@H](C(=O)NCCCNC(=O)c2ccc(-c3c4nc(c(-c5c(F)c(F)c(F)c(F)c5F)c5ccc([nH]5)c(-c5c(F)c(F)c(F)c(F)c5F)c5nc(c(-c6c(F)c(F)c(F)c(F)c6F)c6ccc3[nH]6)C=C5)C=C4)cc2)CCN1C(=O)NC1CCCCC1
REMARK SMILES IDX 8 1 7 2 6 3 4 4 5 5 3 7 1 8 2 9 78 10 76 11 77 12 79 13
REMARK SMILES IDX 80 14 81 15 82 17 83 18 87 19 84 20 86 21 85 22 9 23 10 24
REMARK SMILES IDX 11 25 12 27 13 28 14 29 75 30 15 31 74 32 16 33 17 34 18 35
REMARK SMILES IDX 68 36 19 37 73 38 67 39 69 40 20 41 72 42 66 43 65 44 21 46
REMARK SMILES IDX 53 47 33 48 52 49 34 50 37 51 51 52 70 53 35 54 36 55 50 57
REMARK SMILES IDX 71 58 38 59 22 60 23 61 31 62 24 63 25 64 29 65 32 66 26 67
REMARK SMILES IDX 27 68 30 69 28 70 54 71 55 72 63 73 56 74 57 75 61 76 64 77
REMARK SMILES IDX 58 78 59 79 62 80 60 81 39 82 40 83 48 84 41 85 42 86 46 87
REMARK SMILES IDX 49 88 43 89 44 90 47 91 45 92
REMARK H PARENT 6 6 81 16 10 26 69 45 37 56
REMARK Flexibility Score: inf
ROOT
ATOM      1  C   UNL A   1      32.484  27.890  24.828  1.00  0.00     0.042 C 
ENDROOT
BRANCH   1   2
ATOM      2  C   UNL A   1      33.004  26.524  25.279  1.00  0.00     0.117 C 
BRANCH   2   3
ATOM      3  N   UNL A   1      32.014  25.782  26.044  1.00  0.00    -0.356 N 
ATOM      4  C   UNL A   1      32.064  24.541  26.608  1.00  0.00     0.225 C 
ATOM      5  O   UNL A   1      31.070  24.168  27.234  1.00  0.00    -0.275 OA
ATOM      6  H   UNL A   1      31.161  26.256  26.176  1.00  0.00     0.163 HD
BRANCH   4   7
ATOM      7  C   UNL A   1      33.321  23.697  26.503  1.00  0.00     0.102 C 
ATOM      8  C   UNL A   1      32.178  22.166  24.712  1.00  0.00     0.032 C 
ATOM      9  C   UNL A   1      33.456  22.808  25.259  1.00  0.00     0.096 C 
ATOM     10  N   UNL A   1      34.365  21.768  25.711  1.00  0.00    -0.321 N 
ATOM     11  C   UNL A   1      33.529  22.739  27.696  1.00  0.00     0.037 C 
ATOM     12  C   UNL A   1      34.048  21.445  27.092  1.00  0.00     0.122 C 
BRANCH  10  13
ATOM     13  C   UNL A   1      35.202  20.963  25.029  1.00  0.00     0.317 C 
ATOM     14  O   UNL A   1      34.834  19.850  24.631  1.00  0.00    -0.249 OA
ATOM     15  N   UNL A   1      36.471  21.269  24.749  1.00  0.00    -0.335 N 
ATOM     16  H   UNL A   1      36.854  20.577  24.162  1.00  0.00     0.165 HD
BRANCH  15  17
ATOM     17  C   UNL A   1      37.489  22.298  25.026  1.00  0.00     0.083 C 
ATOM     18  C   UNL A   1      36.977  23.469  25.890  1.00  0.00     0.025 C 
ATOM     19  C   UNL A   1      38.641  21.557  25.750  1.00  0.00     0.025 C 
ATOM     20  C   UNL A   1      38.100  24.341  26.457  1.00  0.00     0.002 C 
ATOM     21  C   UNL A   1      39.715  22.455  26.346  1.00  0.00     0.002 C 
ATOM     22  C   UNL A   1      39.099  23.513  27.246  1.00  0.00     0.000 C 
ENDBRANCH  15  17
ENDBRANCH  10  13
ENDBRANCH   4   7
ENDBRANCH   2   3
ENDBRANCH   1   2
BRANCH   1  23
ATOM     23  C   UNL A   1      33.523  29.008  24.920  1.00  0.00     0.118 C 
BRANCH  23  24
ATOM     24  N   UNL A   1      33.002  30.176  25.612  1.00  0.00    -0.352 N 
ATOM     25  C   UNL A   1      33.398  30.812  26.760  1.00  0.00     0.251 C 
ATOM     26  H   UNL A   1      32.220  30.585  25.176  1.00  0.00     0.163 HD
ATOM     27  O   UNL A   1      32.640  31.663  27.240  1.00  0.00    -0.269 OA
BRANCH  25  28
ATOM     28  C   UNL A   1      34.679  30.522  27.459  1.00  0.00     0.039 A 
ATOM     29  C   UNL A   1      34.831  29.263  28.056  1.00  0.00     0.014 A 
ATOM     30  C   UNL A   1      35.686  31.473  27.639  1.00  0.00     0.014 A 
ATOM     31  C   UNL A   1      35.980  28.954  28.794  1.00  0.00     0.010 A 
ATOM     32  C   UNL A   1      36.873  31.136  28.303  1.00  0.00     0.010 A 
ATOM     33  C   UNL A   1      37.027  29.881  28.910  1.00  0.00    -0.014 A 
BRANCH  33  34
ATOM     34  C   UNL A   1      38.252  29.562  29.697  1.00  0.00     0.031 A 
ATOM     35  C   UNL A   1      38.454  30.145  31.073  1.00  0.00     0.074 A 
ATOM     36  C   UNL A   1      39.207  28.767  29.172  1.00  0.00     0.049 A 
ATOM     37  N   UNL A   1      39.470  30.012  31.892  1.00  0.00    -0.248 NA
ATOM     38  C   UNL A   1      37.383  31.011  31.588  1.00  0.00     0.031 C 
ATOM     39  C   UNL A   1      39.169  28.170  27.838  1.00  0.00     0.029 A 
ATOM     40  N   UNL A   1      40.399  28.330  29.698  1.00  0.00    -0.354 N 
ATOM     41  C   UNL A   1      39.170  30.793  33.002  1.00  0.00     0.074 A 
ATOM     42  C   UNL A   1      37.901  31.434  32.733  1.00  0.00     0.031 C 
ATOM     43  C   UNL A   1      40.273  27.427  27.657  1.00  0.00     0.029 A 
ATOM     44  C   UNL A   1      41.111  27.518  28.849  1.00  0.00     0.049 A 
ATOM     45  H   UNL A   1      40.712  28.576  30.598  1.00  0.00     0.167 HD
ATOM     46  C   UNL A   1      39.870  30.943  34.153  1.00  0.00     0.037 A 
ATOM     47  C   UNL A   1      42.305  26.915  29.009  1.00  0.00     0.037 A 
ATOM     48  C   UNL A   1      41.114  30.280  34.445  1.00  0.00     0.049 A 
ATOM     49  C   UNL A   1      43.053  27.077  30.305  1.00  0.00     0.074 A 
ATOM     50  C   UNL A   1      41.867  30.327  35.607  1.00  0.00     0.029 A 
ATOM     51  N   UNL A   1      41.787  29.442  33.568  1.00  0.00    -0.354 N 
ATOM     52  N   UNL A   1      42.728  27.772  31.367  1.00  0.00    -0.248 NA
ATOM     53  C   UNL A   1      44.330  26.358  30.427  1.00  0.00     0.031 C 
ATOM     54  C   UNL A   1      43.013  29.545  35.421  1.00  0.00     0.029 A 
ATOM     55  C   UNL A   1      42.952  28.978  34.159  1.00  0.00     0.049 A 
ATOM     56  H   UNL A   1      41.482  29.211  32.661  1.00  0.00     0.167 HD
ATOM     57  C   UNL A   1      43.745  27.561  32.288  1.00  0.00     0.074 A 
ATOM     58  C   UNL A   1      44.690  26.656  31.668  1.00  0.00     0.031 C 
ATOM     59  C   UNL A   1      43.885  28.076  33.534  1.00  0.00     0.037 A 
BRANCH  46  60
ATOM     60  C   UNL A   1      39.298  31.861  35.195  1.00  0.00     0.064 A 
ATOM     61  C   UNL A   1      38.489  31.377  36.236  1.00  0.00     0.173 A 
ATOM     62  C   UNL A   1      39.588  33.233  35.176  1.00  0.00     0.173 A 
ATOM     63  F   UNL A   1      38.174  30.074  36.295  1.00  0.00    -0.203 F 
ATOM     64  C   UNL A   1      37.966  32.237  37.197  1.00  0.00     0.198 A 
ATOM     65  C   UNL A   1      39.086  34.087  36.156  1.00  0.00     0.198 A 
ATOM     66  F   UNL A   1      40.363  33.748  34.209  1.00  0.00    -0.203 F 
ATOM     67  F   UNL A   1      37.155  31.759  38.150  1.00  0.00    -0.200 F 
ATOM     68  C   UNL A   1      38.269  33.590  37.161  1.00  0.00     0.200 A 
ATOM     69  F   UNL A   1      39.391  35.392  36.126  1.00  0.00    -0.200 F 
ATOM     70  F   UNL A   1      37.767  34.416  38.088  1.00  0.00    -0.200 F 
ENDBRANCH  46  60
BRANCH  47  71
ATOM     71  C   UNL A   1      42.858  26.075  27.916  1.00  0.00     0.064 A 
ATOM     72  C   UNL A   1      43.634  26.641  26.895  1.00  0.00     0.173 A 
ATOM     73  C   UNL A   1      42.625  24.694  27.870  1.00  0.00     0.173 A 
ATOM     74  F   UNL A   1      43.865  27.962  26.884  1.00  0.00    -0.203 F 
ATOM     75  C   UNL A   1      44.145  25.859  25.861  1.00  0.00     0.198 A 
ATOM     76  C   UNL A   1      43.156  23.907  26.850  1.00  0.00     0.198 A 
ATOM     77  F   UNL A   1      41.890  24.105  28.826  1.00  0.00    -0.203 F 
ATOM     78  F   UNL A   1      44.851  26.431  24.877  1.00  0.00    -0.200 F 
ATOM     79  C   UNL A   1      43.910  24.492  25.843  1.00  0.00     0.200 A 
ATOM     80  F   UNL A   1      42.939  22.586  26.843  1.00  0.00    -0.200 F 
ATOM     81  F   UNL A   1      44.407  23.739  24.852  1.00  0.00    -0.200 F 
ENDBRANCH  47  71
BRANCH  59  82
ATOM     82  C   UNL A   1      45.093  27.655  34.318  1.00  0.00     0.064 A 
ATOM     83  C   UNL A   1      46.284  28.394  34.284  1.00  0.00     0.173 A 
ATOM     84  C   UNL A   1      45.050  26.515  35.134  1.00  0.00     0.173 A 
ATOM     85  F   UNL A   1      46.380  29.484  33.507  1.00  0.00    -0.203 F 
ATOM     86  C   UNL A   1      47.397  27.992  35.018  1.00  0.00     0.198 A 
ATOM     87  C   UNL A   1      46.155  26.130  35.888  1.00  0.00     0.198 A 
ATOM     88  F   UNL A   1      43.932  25.776  35.207  1.00  0.00    -0.203 F 
ATOM     89  F   UNL A   1      48.540  28.686  34.933  1.00  0.00    -0.200 F 
ATOM     90  C   UNL A   1      47.330  26.864  35.823  1.00  0.00     0.200 A 
ATOM     91  F   UNL A   1      46.087  25.047  36.673  1.00  0.00    -0.200 F 
ATOM     92  F   UNL A   1      48.402  26.480  36.530  1.00  0.00    -0.200 F 
ENDBRANCH  59  82
ENDBRANCH  33  34
ENDBRANCH  25  28
ENDBRANCH  23  24
ENDBRANCH   1  23
TORSDOF 12
ENDMDL
MODEL 3
REMARK VINA RESULT:     -11.7      2.925      8.455
REMARK SMILES C[C@H]1[C@@H](C(=O)NCCCNC(=O)c2ccc(-c3c4nc(c(-c5c(F)c(F)c(F)c(F)c5F)c5ccc([nH]5)c(-c5c(F)c(F)c(F)c(F)c5F)c5nc(c(-c6c(F)c(F)c(F)c(F)c6F)c6ccc3[nH]6)C=C5)C=C4)cc2)CCN1C(=O)NC1CCCCC1
REMARK SMILES IDX 8 1 7 2 6 3 4 4 5 5 3 7 1 8 2 9 78 10 76 11 77 12 79 13
REMARK SMILES IDX 80 14 81 15 82 17 83 18 87 19 84 20 86 21 85 22 9 23 10 24
REMARK SMILES IDX 11 25 12 27 13 28 14 29 75 30 15 31 74 32 16 33 17 34 18 35
REMARK SMILES IDX 68 36 19 37 73 38 67 39 69 40 20 41 72 42 66 43 65 44 21 46
REMARK SMILES IDX 53 47 33 48 52 49 34 50 37 51 51 52 70 53 35 54 36 55 50 57
REMARK SMILES IDX 71 58 38 59 22 60 23 61 31 62 24 63 25 64 29 65 32 66 26 67
REMARK SMILES IDX 27 68 30 69 28 70 54 71 55 72 63 73 56 74 57 75 61 76 64 77
REMARK SMILES IDX 58 78 59 79 62 80 60 81 39 82 40 83 48 84 41 85 42 86 46 87
REMARK SMILES IDX 49 88 43 89 44 90 47 91 45 92
REMARK H PARENT 6 6 81 16 10 26 69 45 37 56
REMARK Flexibility Score: inf
ROOT
ATOM      1  C   UNL A   1      37.782  19.423  25.001  1.00  0.00     0.042 C 
ENDROOT
BRANCH   1   2
ATOM      2  C   UNL A   1      36.652  20.383  24.627  1.00  0.00     0.117 C 
BRANCH   2   3
ATOM      3  N   UNL A   1      35.422  20.094  25.348  1.00  0.00    -0.356 N 
ATOM      4  C   UNL A   1      34.180  20.651  25.260  1.00  0.00     0.225 C 
ATOM      5  O   UNL A   1      33.302  20.183  25.987  1.00  0.00    -0.275 OA
ATOM      6  H   UNL A   1      35.499  19.374  26.015  1.00  0.00     0.163 HD
BRANCH   4   7
ATOM      7  C   UNL A   1      33.903  21.761  24.262  1.00  0.00     0.102 C 
ATOM      8  C   UNL A   1      34.378  23.568  26.098  1.00  0.00     0.032 C 
ATOM      9  C   UNL A   1      34.421  23.161  24.623  1.00  0.00     0.096 C 
ATOM     10  N   UNL A   1      33.545  24.029  23.855  1.00  0.00    -0.321 N 
ATOM     11  C   UNL A   1      32.403  21.964  23.958  1.00  0.00     0.037 C 
ATOM     12  C   UNL A   1      32.204  23.468  23.874  1.00  0.00     0.122 C 
BRANCH  10  13
ATOM     13  C   UNL A   1      33.720  25.282  23.393  1.00  0.00     0.317 C 
ATOM     14  O   UNL A   1      34.029  25.491  22.214  1.00  0.00    -0.249 OA
ATOM     15  N   UNL A   1      33.604  26.379  24.147  1.00  0.00    -0.335 N 
ATOM     16  H   UNL A   1      33.678  27.178  23.577  1.00  0.00     0.165 HD
BRANCH  15  17
ATOM     17  C   UNL A   1      33.403  26.790  25.547  1.00  0.00     0.083 C 
ATOM     18  C   UNL A   1      34.026  28.157  25.894  1.00  0.00     0.025 C 
ATOM     19  C   UNL A   1      31.866  26.831  25.751  1.00  0.00     0.025 C 
ATOM     20  C   UNL A   1      33.529  28.731  27.223  1.00  0.00     0.002 C 
ATOM     21  C   UNL A   1      31.403  27.453  27.060  1.00  0.00     0.002 C 
ATOM     22  C   UNL A   1      32.013  28.832  27.250  1.00  0.00     0.000 C 
ENDBRANCH  15  17
ENDBRANCH  10  13
ENDBRANCH   4   7
ENDBRANCH   2   3
ENDBRANCH   1   2
BRANCH   1  23
ATOM     23  C   UNL A   1      38.938  20.090  25.748  1.00  0.00     0.118 C 
BRANCH  23  24
ATOM     24  N   UNL A   1      40.085  19.206  25.872  1.00  0.00    -0.352 N 
ATOM     25  C   UNL A   1      41.423  19.459  26.032  1.00  0.00     0.251 C 
ATOM     26  H   UNL A   1      39.861  18.248  25.831  1.00  0.00     0.163 HD
ATOM     27  O   UNL A   1      42.210  18.516  25.894  1.00  0.00    -0.269 OA
BRANCH  25  28
ATOM     28  C   UNL A   1      41.972  20.805  26.349  1.00  0.00     0.039 A 
ATOM     29  C   UNL A   1      42.110  21.156  27.699  1.00  0.00     0.014 A 
ATOM     30  C   UNL A   1      42.255  21.767  25.376  1.00  0.00     0.014 A 
ATOM     31  C   UNL A   1      42.548  22.434  28.066  1.00  0.00     0.010 A 
ATOM     32  C   UNL A   1      42.775  23.015  25.740  1.00  0.00     0.010 A 
ATOM     33  C   UNL A   1      42.907  23.375  27.089  1.00  0.00    -0.014 A 
BRANCH  33  34
ATOM     34  C   UNL A   1      43.370  24.741  27.470  1.00  0.00     0.031 A 
ATOM     35  C   UNL A   1      42.380  25.799  27.887  1.00  0.00     0.074 A 
ATOM     36  C   UNL A   1      44.682  25.049  27.419  1.00  0.00     0.049 A 
ATOM     37  N   UNL A   1      42.590  27.050  28.216  1.00  0.00    -0.248 NA
ATOM     38  C   UNL A   1      40.964  25.406  27.914  1.00  0.00     0.031 C 
ATOM     39  C   UNL A   1      45.747  24.143  26.991  1.00  0.00     0.029 A 
ATOM     40  N   UNL A   1      45.341  26.216  27.725  1.00  0.00    -0.354 N 
ATOM     41  C   UNL A   1      41.336  27.595  28.467  1.00  0.00     0.074 A 
ATOM     42  C   UNL A   1      40.367  26.553  28.204  1.00  0.00     0.031 C 
ATOM     43  C   UNL A   1      46.927  24.777  27.083  1.00  0.00     0.029 A 
ATOM     44  C   UNL A   1      46.701  26.142  27.547  1.00  0.00     0.049 A 
ATOM     45  H   UNL A   1      44.881  27.026  28.041  1.00  0.00     0.167 HD
ATOM     46  C   UNL A   1      41.019  28.839  28.901  1.00  0.00     0.037 A 
ATOM     47  C   UNL A   1      47.660  27.070  27.733  1.00  0.00     0.037 A 
ATOM     48  C   UNL A   1      41.978  29.870  29.201  1.00  0.00     0.049 A 
ATOM     49  C   UNL A   1      47.286  28.437  28.240  1.00  0.00     0.074 A 
ATOM     50  C   UNL A   1      41.752  31.142  29.701  1.00  0.00     0.029 A 
ATOM     51  N   UNL A   1      43.348  29.745  29.035  1.00  0.00    -0.354 N 
ATOM     52  N   UNL A   1      46.101  28.917  28.527  1.00  0.00    -0.248 NA
ATOM     53  C   UNL A   1      48.387  29.386  28.460  1.00  0.00     0.031 C 
ATOM     54  C   UNL A   1      42.983  31.799  29.805  1.00  0.00     0.029 A 
ATOM     55  C   UNL A   1      43.979  30.921  29.409  1.00  0.00     0.049 A 
ATOM     56  H   UNL A   1      43.806  28.940  28.701  1.00  0.00     0.167 HD
ATOM     57  C   UNL A   1      46.313  30.213  28.977  1.00  0.00     0.074 A 
ATOM     58  C   UNL A   1      47.743  30.439  28.946  1.00  0.00     0.031 C 
ATOM     59  C   UNL A   1      45.403  31.135  29.376  1.00  0.00     0.037 A 
BRANCH  46  60
ATOM     60  C   UNL A   1      39.562  29.155  29.089  1.00  0.00     0.064 A 
ATOM     61  C   UNL A   1      38.746  29.525  28.008  1.00  0.00     0.173 A 
ATOM     62  C   UNL A   1      38.965  29.054  30.354  1.00  0.00     0.173 A 
ATOM     63  F   UNL A   1      39.268  29.645  26.778  1.00  0.00    -0.203 F 
ATOM     64  C   UNL A   1      37.397  29.814  28.194  1.00  0.00     0.198 A 
ATOM     65  C   UNL A   1      37.609  29.316  30.532  1.00  0.00     0.198 A 
ATOM     66  F   UNL A   1      39.697  28.696  31.420  1.00  0.00    -0.203 F 
ATOM     67  F   UNL A   1      36.651  30.216  27.156  1.00  0.00    -0.200 F 
ATOM     68  C   UNL A   1      36.828  29.703  29.453  1.00  0.00     0.200 A 
ATOM     69  F   UNL A   1      37.058  29.196  31.748  1.00  0.00    -0.200 F 
ATOM     70  F   UNL A   1      35.528  29.979  29.630  1.00  0.00    -0.200 F 
ENDBRANCH  46  60
BRANCH  47  71
ATOM     71  C   UNL A   1      49.080  26.726  27.464  1.00  0.00     0.064 A 
ATOM     72  C   UNL A   1      49.953  26.404  28.512  1.00  0.00     0.173 A 
ATOM     73  C   UNL A   1      49.591  26.709  26.159  1.00  0.00     0.173 A 
ATOM     74  F   UNL A   1      49.515  26.429  29.780  1.00  0.00    -0.203 F 
ATOM     75  C   UNL A   1      51.289  26.092  28.267  1.00  0.00     0.198 A 
ATOM     76  C   UNL A   1      50.921  26.373  25.911  1.00  0.00     0.198 A 
ATOM     77  F   UNL A   1      48.794  27.007  25.123  1.00  0.00    -0.203 F 
ATOM     78  F   UNL A   1      52.112  25.826  29.290  1.00  0.00    -0.200 F 
ATOM     79  C   UNL A   1      51.769  26.071  26.966  1.00  0.00     0.200 A 
ATOM     80  F   UNL A   1      51.378  26.341  24.653  1.00  0.00    -0.200 F 
ATOM     81  F   UNL A   1      53.053  25.765  26.729  1.00  0.00    -0.200 F 
ENDBRANCH  47  71
BRANCH  59  82
ATOM     82  C   UNL A   1      45.928  32.465  29.832  1.00  0.00     0.064 A 
ATOM     83  C   UNL A   1      46.083  33.536  28.942  1.00  0.00     0.173 A 
ATOM     84  C   UNL A   1      46.253  32.676  31.180  1.00  0.00     0.173 A 
ATOM     85  F   UNL A   1      45.800  33.379  27.640  1.00  0.00    -0.203 F 
ATOM     86  C   UNL A   1      46.571  34.765  29.380  1.00  0.00     0.198 A 
ATOM     87  C   UNL A   1      46.715  33.913  31.620  1.00  0.00     0.198 A 
ATOM     88  F   UNL A   1      46.117  31.685  32.073  1.00  0.00    -0.203 F 
ATOM     89  F   UNL A   1      46.757  35.762  28.504  1.00  0.00    -0.200 F 
ATOM     90  C   UNL A   1      46.881  34.955  30.719  1.00  0.00     0.200 A 
ATOM     91  F   UNL A   1      47.005  34.099  32.915  1.00  0.00    -0.200 F 
ATOM     92  F   UNL A   1      47.348  36.138  31.139  1.00  0.00    -0.200 F 
ENDBRANCH  59  82
ENDBRANCH  33  34
ENDBRANCH  25  28
ENDBRANCH  23  24
ENDBRANCH   1  23
TORSDOF 12
ENDMDL
