MODEL 1
REMARK VINA RESULT:     -13.0      0.000      0.000
REMARK SMILES O=C(NCCCNC(=O)c1ccc(-c2c3nc(c(-c4c(F)c(F)c(F)c(F)c4F)c4ccc([nH]4)c(-c4c(F)c(F)c(F)c(F)c4F)c4nc(c(-c5c(F)c(F)c(F)c(F)c5F)c5ccc2[nH]5)C=C4)C=C3)cc1)C1=Cc2cc(S(F)(F)(F)(F)F)ccc2O[C@@H]1C(F)(F)F
REMARK SMILES IDX 5 1 4 2 3 3 1 4 2 5 73 7 74 8 88 9 75 10 87 11 76 12 86 13
REMARK SMILES IDX 77 14 85 15 84 16 89 17 90 18 91 19 92 20 78 21 79 22 80 23
REMARK SMILES IDX 81 24 82 25 83 26 6 27 7 28 8 29 9 31 10 32 11 33 72 34
REMARK SMILES IDX 12 35 71 36 13 37 14 38 15 39 65 40 16 41 70 42 64 43 66 44
REMARK SMILES IDX 17 45 69 46 63 47 62 48 18 50 50 51 30 52 49 53 31 54 34 55
REMARK SMILES IDX 48 56 67 57 32 58 33 59 47 61 68 62 35 63 19 64 20 65 28 66
REMARK SMILES IDX 21 67 22 68 26 69 29 70 23 71 24 72 27 73 25 74 51 75 52 76
REMARK SMILES IDX 60 77 53 78 54 79 58 80 61 81 55 82 56 83 59 84 57 85 36 86
REMARK SMILES IDX 37 87 45 88 38 89 39 90 43 91 46 92 40 93 41 94 44 95 42 96
REMARK H PARENT 3 6 7 30 66 49 34 60
REMARK Flexibility Score: inf
ROOT
ATOM      1  C   UNL A   1      33.424  28.315  26.005  1.00  0.00     0.042 C 
ENDROOT
BRANCH   1   2
ATOM      2  C   UNL A   1      33.318  26.805  26.145  1.00  0.00     0.118 C 
BRANCH   2   3
ATOM      3  N   UNL A   1      34.038  26.158  25.039  1.00  0.00    -0.352 N 
ATOM      4  O   UNL A   1      34.192  24.309  23.555  1.00  0.00    -0.270 OA
ATOM      5  C   UNL A   1      33.569  24.869  24.511  1.00  0.00     0.251 C 
ATOM      6  H   UNL A   1      34.834  26.589  24.651  1.00  0.00     0.163 HD
BRANCH   5   7
ATOM      7  C   UNL A   1      32.340  24.205  25.110  1.00  0.00     0.067 C 
ATOM      8  C   UNL A   1      31.102  24.707  24.853  1.00  0.00     0.025 C 
ATOM      9  C   UNL A   1      32.494  22.979  25.995  1.00  0.00     0.314 C 
ATOM     10  C   UNL A   1      30.948  25.933  23.967  1.00  0.00     0.019 A 
ATOM     11  O   UNL A   1      32.604  24.927  22.590  1.00  0.00    -0.475 OA
ATOM     12  C   UNL A   1      30.133  26.994  24.321  1.00  0.00     0.036 A 
ATOM     13  C   UNL A   1      31.658  25.954  22.845  1.00  0.00     0.128 A 
ATOM     14  C   UNL A   1      29.908  27.920  23.274  1.00  0.00     0.107 A 
ATOM     15  C   UNL A   1      31.486  26.963  21.928  1.00  0.00     0.048 A 
ATOM     16  C   UNL A   1      30.650  28.014  22.186  1.00  0.00     0.028 A 
BRANCH   9  17
ATOM     17  C   UNL A   1      31.743  21.810  25.376  1.00  0.00     0.429 C 
ATOM     18  F   UNL A   1      32.314  20.669  25.750  1.00  0.00    -0.167 F 
ATOM     19  F   UNL A   1      30.478  21.828  25.788  1.00  0.00    -0.167 F 
ATOM     20  F   UNL A   1      31.779  21.911  24.051  1.00  0.00    -0.167 F 
ENDBRANCH   9  17
BRANCH  14  21
ATOM     21  S   UNL A   1      28.507  29.054  23.439  1.00  0.00     0.310 S 
ATOM     22  F   UNL A   1      28.501  29.374  21.885  1.00  0.00    -0.094 F 
ATOM     23  F   UNL A   1      29.526  30.243  23.609  1.00  0.00    -0.094 F 
ATOM     24  F   UNL A   1      27.304  30.028  23.580  1.00  0.00    -0.094 F 
ATOM     25  F   UNL A   1      27.505  27.874  23.126  1.00  0.00    -0.094 F 
ATOM     26  F   UNL A   1      29.720  28.073  23.180  1.00  0.00    -0.094 F 
ENDBRANCH  14  21
ENDBRANCH   5   7
ENDBRANCH   2   3
ENDBRANCH   1   2
BRANCH   1  27
ATOM     27  C   UNL A   1      34.467  28.842  26.976  1.00  0.00     0.118 C 
BRANCH  27  28
ATOM     28  N   UNL A   1      33.961  30.062  27.623  1.00  0.00    -0.352 N 
ATOM     29  C   UNL A   1      34.840  30.844  28.507  1.00  0.00     0.251 C 
ATOM     30  H   UNL A   1      33.035  30.356  27.465  1.00  0.00     0.163 HD
ATOM     31  O   UNL A   1      34.403  31.898  29.065  1.00  0.00    -0.269 OA
BRANCH  29  32
ATOM     32  C   UNL A   1      36.270  30.389  28.751  1.00  0.00     0.039 A 
ATOM     33  C   UNL A   1      37.249  30.698  27.822  1.00  0.00     0.014 A 
ATOM     34  C   UNL A   1      36.556  29.703  29.851  1.00  0.00     0.014 A 
ATOM     35  C   UNL A   1      38.456  29.984  28.002  1.00  0.00     0.010 A 
ATOM     36  C   UNL A   1      37.801  29.147  30.025  1.00  0.00     0.010 A 
ATOM     37  C   UNL A   1      38.799  29.361  29.116  1.00  0.00    -0.014 A 
BRANCH  37  38
ATOM     38  C   UNL A   1      40.227  28.909  29.373  1.00  0.00     0.031 A 
ATOM     39  C   UNL A   1      40.622  27.668  28.872  1.00  0.00     0.074 A 
ATOM     40  C   UNL A   1      41.057  29.753  30.092  1.00  0.00     0.049 A 
ATOM     41  N   UNL A   1      41.828  27.103  28.955  1.00  0.00    -0.248 NA
ATOM     42  C   UNL A   1      39.733  26.755  28.138  1.00  0.00     0.031 C 
ATOM     43  C   UNL A   1      40.669  31.011  30.594  1.00  0.00     0.029 A 
ATOM     44  N   UNL A   1      42.372  29.546  30.445  1.00  0.00    -0.354 N 
ATOM     45  C   UNL A   1      41.825  25.919  28.337  1.00  0.00     0.074 A 
ATOM     46  C   UNL A   1      40.477  25.676  27.808  1.00  0.00     0.031 C 
ATOM     47  C   UNL A   1      41.730  31.548  31.251  1.00  0.00     0.029 A 
ATOM     48  C   UNL A   1      42.799  30.637  31.170  1.00  0.00     0.049 A 
ATOM     49  H   UNL A   1      42.912  28.755  30.220  1.00  0.00     0.167 HD
ATOM     50  C   UNL A   1      42.895  25.035  28.193  1.00  0.00     0.037 A 
ATOM     51  C   UNL A   1      44.047  30.842  31.739  1.00  0.00     0.037 A 
ATOM     52  C   UNL A   1      44.156  25.261  28.724  1.00  0.00     0.049 A 
ATOM     53  C   UNL A   1      45.101  29.930  31.644  1.00  0.00     0.074 A 
ATOM     54  C   UNL A   1      45.247  24.384  28.581  1.00  0.00     0.029 A 
ATOM     55  N   UNL A   1      44.576  26.339  29.470  1.00  0.00    -0.354 N 
ATOM     56  N   UNL A   1      45.110  28.766  30.994  1.00  0.00    -0.248 NA
ATOM     57  C   UNL A   1      46.416  30.122  32.269  1.00  0.00     0.031 C 
ATOM     58  C   UNL A   1      46.309  24.921  29.239  1.00  0.00     0.029 A 
ATOM     59  C   UNL A   1      45.897  26.143  29.805  1.00  0.00     0.049 A 
ATOM     60  H   UNL A   1      44.027  27.118  29.721  1.00  0.00     0.167 HD
ATOM     61  C   UNL A   1      46.304  28.182  31.113  1.00  0.00     0.074 A 
ATOM     62  C   UNL A   1      47.159  29.042  31.942  1.00  0.00     0.031 C 
ATOM     63  C   UNL A   1      46.716  26.967  30.561  1.00  0.00     0.037 A 
BRANCH  50  64
ATOM     64  C   UNL A   1      42.666  23.753  27.409  1.00  0.00     0.064 A 
ATOM     65  C   UNL A   1      42.190  22.639  28.079  1.00  0.00     0.173 A 
ATOM     66  C   UNL A   1      42.918  23.719  26.105  1.00  0.00     0.173 A 
ATOM     67  F   UNL A   1      41.689  22.691  29.310  1.00  0.00    -0.203 F 
ATOM     68  C   UNL A   1      42.287  21.439  27.336  1.00  0.00     0.198 A 
ATOM     69  C   UNL A   1      42.861  22.532  25.414  1.00  0.00     0.198 A 
ATOM     70  F   UNL A   1      43.229  24.841  25.463  1.00  0.00    -0.203 F 
ATOM     71  F   UNL A   1      42.201  20.290  28.001  1.00  0.00    -0.200 F 
ATOM     72  C   UNL A   1      42.456  21.379  26.028  1.00  0.00     0.200 A 
ATOM     73  F   UNL A   1      43.205  22.506  24.129  1.00  0.00    -0.200 F 
ATOM     74  F   UNL A   1      42.244  20.259  25.343  1.00  0.00    -0.200 F 
ENDBRANCH  50  64
BRANCH  51  75
ATOM     75  C   UNL A   1      44.281  32.131  32.508  1.00  0.00     0.064 A 
ATOM     76  C   UNL A   1      44.762  33.237  31.827  1.00  0.00     0.173 A 
ATOM     77  C   UNL A   1      44.030  32.180  33.811  1.00  0.00     0.173 A 
ATOM     78  F   UNL A   1      44.788  33.317  30.499  1.00  0.00    -0.203 F 
ATOM     79  C   UNL A   1      45.225  34.274  32.671  1.00  0.00     0.198 A 
ATOM     80  C   UNL A   1      44.386  33.283  34.551  1.00  0.00     0.198 A 
ATOM     81  F   UNL A   1      43.429  31.154  34.406  1.00  0.00    -0.203 F 
ATOM     82  F   UNL A   1      46.020  35.197  32.138  1.00  0.00    -0.200 F 
ATOM     83  C   UNL A   1      44.923  34.388  33.951  1.00  0.00     0.200 A 
ATOM     84  F   UNL A   1      44.208  33.273  35.869  1.00  0.00    -0.200 F 
ATOM     85  F   UNL A   1      45.129  35.518  34.622  1.00  0.00    -0.200 F 
ENDBRANCH  51  75
BRANCH  63  86
ATOM     86  C   UNL A   1      48.149  26.522  30.805  1.00  0.00     0.064 A 
ATOM     87  C   UNL A   1      49.145  26.935  29.936  1.00  0.00     0.173 A 
ATOM     88  C   UNL A   1      48.421  25.746  31.847  1.00  0.00     0.173 A 
ATOM     89  F   UNL A   1      48.971  27.902  29.040  1.00  0.00    -0.203 F 
ATOM     90  C   UNL A   1      50.365  26.234  30.088  1.00  0.00     0.198 A 
ATOM     91  C   UNL A   1      49.673  25.203  32.006  1.00  0.00     0.198 A 
ATOM     92  F   UNL A   1      47.474  25.491  32.745  1.00  0.00    -0.203 F 
ATOM     93  F   UNL A   1      51.243  26.297  29.091  1.00  0.00    -0.200 F 
ATOM     94  C   UNL A   1      50.692  25.521  31.150  1.00  0.00     0.200 A 
ATOM     95  F   UNL A   1      49.899  24.358  33.008  1.00  0.00    -0.200 F 
ATOM     96  F   UNL A   1      51.944  25.133  31.376  1.00  0.00    -0.200 F 
ENDBRANCH  63  86
ENDBRANCH  37  38
ENDBRANCH  29  32
ENDBRANCH  27  28
ENDBRANCH   1  27
TORSDOF 12
ENDMDL
MODEL 2
REMARK VINA RESULT:     -12.9      3.467      8.537
REMARK SMILES O=C(NCCCNC(=O)c1ccc(-c2c3nc(c(-c4c(F)c(F)c(F)c(F)c4F)c4ccc([nH]4)c(-c4c(F)c(F)c(F)c(F)c4F)c4nc(c(-c5c(F)c(F)c(F)c(F)c5F)c5ccc2[nH]5)C=C4)C=C3)cc1)C1=Cc2cc(S(F)(F)(F)(F)F)ccc2O[C@@H]1C(F)(F)F
REMARK SMILES IDX 5 1 4 2 3 3 1 4 2 5 73 7 74 8 88 9 75 10 87 11 76 12 86 13
REMARK SMILES IDX 77 14 85 15 84 16 89 17 90 18 91 19 92 20 78 21 79 22 80 23
REMARK SMILES IDX 81 24 82 25 83 26 6 27 7 28 8 29 9 31 10 32 11 33 72 34
REMARK SMILES IDX 12 35 71 36 13 37 14 38 15 39 65 40 16 41 70 42 64 43 66 44
REMARK SMILES IDX 17 45 69 46 63 47 62 48 18 50 50 51 30 52 49 53 31 54 34 55
REMARK SMILES IDX 48 56 67 57 32 58 33 59 47 61 68 62 35 63 19 64 20 65 28 66
REMARK SMILES IDX 21 67 22 68 26 69 29 70 23 71 24 72 27 73 25 74 51 75 52 76
REMARK SMILES IDX 60 77 53 78 54 79 58 80 61 81 55 82 56 83 59 84 57 85 36 86
REMARK SMILES IDX 37 87 45 88 38 89 39 90 43 91 46 92 40 93 41 94 44 95 42 96
REMARK H PARENT 3 6 7 30 66 49 34 60
REMARK Flexibility Score: inf
ROOT
ATOM      1  C   UNL A   1      32.978  27.800  24.360  1.00  0.00     0.042 C 
ENDROOT
BRANCH   1   2
ATOM      2  C   UNL A   1      33.432  26.470  24.939  1.00  0.00     0.118 C 
BRANCH   2   3
ATOM      3  N   UNL A   1      33.850  25.577  23.849  1.00  0.00    -0.352 N 
ATOM      4  O   UNL A   1      33.435  23.593  22.610  1.00  0.00    -0.270 OA
ATOM      5  C   UNL A   1      33.073  24.365  23.552  1.00  0.00     0.251 C 
ATOM      6  H   UNL A   1      34.650  25.792  23.317  1.00  0.00     0.163 HD
BRANCH   5   7
ATOM      7  C   UNL A   1      31.838  24.035  24.373  1.00  0.00     0.067 C 
ATOM      8  C   UNL A   1      31.712  22.808  24.950  1.00  0.00     0.025 C 
ATOM      9  C   UNL A   1      30.743  25.074  24.550  1.00  0.00     0.314 C 
ATOM     10  C   UNL A   1      32.807  21.769  24.773  1.00  0.00     0.019 A 
ATOM     11  O   UNL A   1      34.323  23.569  25.111  1.00  0.00    -0.475 OA
ATOM     12  C   UNL A   1      32.524  20.457  24.439  1.00  0.00     0.036 A 
ATOM     13  C   UNL A   1      34.059  22.186  24.927  1.00  0.00     0.128 A 
ATOM     14  C   UNL A   1      33.627  19.580  24.570  1.00  0.00     0.107 A 
ATOM     15  C   UNL A   1      35.101  21.292  24.909  1.00  0.00     0.048 A 
ATOM     16  C   UNL A   1      34.886  19.967  24.642  1.00  0.00     0.028 A 
BRANCH   9  17
ATOM     17  C   UNL A   1      30.569  25.379  26.030  1.00  0.00     0.429 C 
ATOM     18  F   UNL A   1      30.364  26.683  26.192  1.00  0.00    -0.167 F 
ATOM     19  F   UNL A   1      29.524  24.704  26.501  1.00  0.00    -0.167 F 
ATOM     20  F   UNL A   1      31.664  25.017  26.690  1.00  0.00    -0.167 F 
ENDBRANCH   9  17
BRANCH  14  21
ATOM     21  S   UNL A   1      33.286  17.803  24.643  1.00  0.00     0.310 S 
ATOM     22  F   UNL A   1      31.782  18.009  24.182  1.00  0.00    -0.094 F 
ATOM     23  F   UNL A   1      32.784  17.990  26.125  1.00  0.00    -0.094 F 
ATOM     24  F   UNL A   1      32.993  16.278  24.706  1.00  0.00    -0.094 F 
ATOM     25  F   UNL A   1      33.659  17.661  23.115  1.00  0.00    -0.094 F 
ATOM     26  F   UNL A   1      33.480  19.368  24.529  1.00  0.00    -0.094 F 
ENDBRANCH  14  21
ENDBRANCH   5   7
ENDBRANCH   2   3
ENDBRANCH   1   2
BRANCH   1  27
ATOM     27  C   UNL A   1      33.751  28.930  25.018  1.00  0.00     0.118 C 
BRANCH  27  28
ATOM     28  N   UNL A   1      32.820  29.995  25.415  1.00  0.00    -0.352 N 
ATOM     29  C   UNL A   1      33.096  30.805  26.612  1.00  0.00     0.251 C 
ATOM     30  H   UNL A   1      32.011  30.166  24.881  1.00  0.00     0.163 HD
ATOM     31  O   UNL A   1      32.290  31.726  26.954  1.00  0.00    -0.269 OA
BRANCH  29  32
ATOM     32  C   UNL A   1      34.344  30.540  27.437  1.00  0.00     0.039 A 
ATOM     33  C   UNL A   1      35.262  31.560  27.627  1.00  0.00     0.014 A 
ATOM     34  C   UNL A   1      34.535  29.335  27.959  1.00  0.00     0.014 A 
ATOM     35  C   UNL A   1      36.503  31.125  28.149  1.00  0.00     0.010 A 
ATOM     36  C   UNL A   1      35.722  29.020  28.577  1.00  0.00     0.010 A 
ATOM     37  C   UNL A   1      36.698  29.963  28.747  1.00  0.00    -0.014 A 
BRANCH  37  38
ATOM     38  C   UNL A   1      37.939  29.690  29.580  1.00  0.00     0.031 A 
ATOM     39  C   UNL A   1      38.043  30.311  30.825  1.00  0.00     0.074 A 
ATOM     40  C   UNL A   1      38.899  28.839  29.057  1.00  0.00     0.049 A 
ATOM     41  N   UNL A   1      39.023  30.182  31.721  1.00  0.00    -0.248 NA
ATOM     42  C   UNL A   1      37.042  31.242  31.368  1.00  0.00     0.031 C 
ATOM     43  C   UNL A   1      38.798  28.201  27.805  1.00  0.00     0.029 A 
ATOM     44  N   UNL A   1      40.093  28.459  29.628  1.00  0.00    -0.354 N 
ATOM     45  C   UNL A   1      38.760  30.919  32.802  1.00  0.00     0.074 A 
ATOM     46  C   UNL A   1      37.485  31.616  32.588  1.00  0.00     0.031 C 
ATOM     47  C   UNL A   1      39.920  27.458  27.619  1.00  0.00     0.029 A 
ATOM     48  C   UNL A   1      40.741  27.617  28.752  1.00  0.00     0.049 A 
ATOM     49  H   UNL A   1      40.426  28.742  30.511  1.00  0.00     0.167 HD
ATOM     50  C   UNL A   1      39.533  31.035  33.958  1.00  0.00     0.037 A 
ATOM     51  C   UNL A   1      41.979  27.015  28.911  1.00  0.00     0.037 A 
ATOM     52  C   UNL A   1      40.751  30.397  34.136  1.00  0.00     0.049 A 
ATOM     53  C   UNL A   1      42.779  27.178  30.044  1.00  0.00     0.074 A 
ATOM     54  C   UNL A   1      41.539  30.498  35.298  1.00  0.00     0.029 A 
ATOM     55  N   UNL A   1      41.410  29.576  33.249  1.00  0.00    -0.354 N 
ATOM     56  N   UNL A   1      42.499  27.884  31.140  1.00  0.00    -0.248 NA
ATOM     57  C   UNL A   1      44.107  26.572  30.211  1.00  0.00     0.031 C 
ATOM     58  C   UNL A   1      42.662  29.755  35.112  1.00  0.00     0.029 A 
ATOM     59  C   UNL A   1      42.594  29.178  33.829  1.00  0.00     0.049 A 
ATOM     60  H   UNL A   1      41.091  29.316  32.354  1.00  0.00     0.167 HD
ATOM     61  C   UNL A   1      43.499  27.787  32.018  1.00  0.00     0.074 A 
ATOM     62  C   UNL A   1      44.551  26.947  31.430  1.00  0.00     0.031 C 
ATOM     63  C   UNL A   1      43.576  28.362  33.289  1.00  0.00     0.037 A 
BRANCH  50  64
ATOM     64  C   UNL A   1      39.009  31.910  35.086  1.00  0.00     0.064 A 
ATOM     65  C   UNL A   1      39.243  33.273  35.034  1.00  0.00     0.173 A 
ATOM     66  C   UNL A   1      38.338  31.362  36.093  1.00  0.00     0.173 A 
ATOM     67  F   UNL A   1      39.680  33.895  33.943  1.00  0.00    -0.203 F 
ATOM     68  C   UNL A   1      38.978  33.946  36.251  1.00  0.00     0.198 A 
ATOM     69  C   UNL A   1      37.991  32.113  37.190  1.00  0.00     0.198 A 
ATOM     70  F   UNL A   1      38.000  30.078  36.039  1.00  0.00    -0.203 F 
ATOM     71  F   UNL A   1      39.501  35.158  36.414  1.00  0.00    -0.200 F 
ATOM     72  C   UNL A   1      38.245  33.456  37.234  1.00  0.00     0.200 A 
ATOM     73  F   UNL A   1      37.399  31.524  38.226  1.00  0.00    -0.200 F 
ATOM     74  F   UNL A   1      37.779  34.226  38.213  1.00  0.00    -0.200 F 
ENDBRANCH  50  64
BRANCH  51  75
ATOM     75  C   UNL A   1      42.494  26.128  27.791  1.00  0.00     0.064 A 
ATOM     76  C   UNL A   1      42.169  24.782  27.802  1.00  0.00     0.173 A 
ATOM     77  C   UNL A   1      43.248  26.646  26.828  1.00  0.00     0.173 A 
ATOM     78  F   UNL A   1      41.225  24.270  28.587  1.00  0.00    -0.203 F 
ATOM     79  C   UNL A   1      42.932  23.999  26.904  1.00  0.00     0.198 A 
ATOM     80  C   UNL A   1      43.854  25.833  25.899  1.00  0.00     0.198 A 
ATOM     81  F   UNL A   1      43.417  27.963  26.761  1.00  0.00    -0.203 F 
ATOM     82  F   UNL A   1      42.954  22.683  27.094  1.00  0.00    -0.200 F 
ATOM     83  C   UNL A   1      43.624  24.485  25.889  1.00  0.00     0.200 A 
ATOM     84  F   UNL A   1      44.676  26.365  25.000  1.00  0.00    -0.200 F 
ATOM     85  F   UNL A   1      44.074  23.705  24.910  1.00  0.00    -0.200 F 
ENDBRANCH  51  75
BRANCH  63  86
ATOM     86  C   UNL A   1      44.809  28.075  34.129  1.00  0.00     0.064 A 
ATOM     87  C   UNL A   1      44.832  26.954  34.941  1.00  0.00     0.173 A 
ATOM     88  C   UNL A   1      45.845  28.904  34.069  1.00  0.00     0.173 A 
ATOM     89  F   UNL A   1      43.940  25.972  34.848  1.00  0.00    -0.203 F 
ATOM     90  C   UNL A   1      45.891  26.948  35.880  1.00  0.00     0.198 A 
ATOM     91  C   UNL A   1      46.908  28.758  34.927  1.00  0.00     0.198 A 
ATOM     92  F   UNL A   1      45.854  29.884  33.170  1.00  0.00    -0.203 F 
ATOM     93  F   UNL A   1      45.793  26.123  36.919  1.00  0.00    -0.200 F 
ATOM     94  C   UNL A   1      46.969  27.706  35.798  1.00  0.00     0.200 A 
ATOM     95  F   UNL A   1      47.893  29.652  34.909  1.00  0.00    -0.200 F 
ATOM     96  F   UNL A   1      48.056  27.459  36.524  1.00  0.00    -0.200 F 
ENDBRANCH  63  86
ENDBRANCH  37  38
ENDBRANCH  29  32
ENDBRANCH  27  28
ENDBRANCH   1  27
TORSDOF 12
ENDMDL
MODEL 3
REMARK VINA RESULT:     -12.9      3.074      8.530
REMARK SMILES O=C(NCCCNC(=O)c1ccc(-c2c3nc(c(-c4c(F)c(F)c(F)c(F)c4F)c4ccc([nH]4)c(-c4c(F)c(F)c(F)c(F)c4F)c4nc(c(-c5c(F)c(F)c(F)c(F)c5F)c5ccc2[nH]5)C=C4)C=C3)cc1)C1=Cc2cc(S(F)(F)(F)(F)F)ccc2O[C@@H]1C(F)(F)F
REMARK SMILES IDX 5 1 4 2 3 3 1 4 2 5 73 7 74 8 88 9 75 10 87 11 76 12 86 13
REMARK SMILES IDX 77 14 85 15 84 16 89 17 90 18 91 19 92 20 78 21 79 22 80 23
REMARK SMILES IDX 81 24 82 25 83 26 6 27 7 28 8 29 9 31 10 32 11 33 72 34
REMARK SMILES IDX 12 35 71 36 13 37 14 38 15 39 65 40 16 41 70 42 64 43 66 44
REMARK SMILES IDX 17 45 69 46 63 47 62 48 18 50 50 51 30 52 49 53 31 54 34 55
REMARK SMILES IDX 48 56 67 57 32 58 33 59 47 61 68 62 35 63 19 64 20 65 28 66
REMARK SMILES IDX 21 67 22 68 26 69 29 70 23 71 24 72 27 73 25 74 51 75 52 76
REMARK SMILES IDX 60 77 53 78 54 79 58 80 61 81 55 82 56 83 59 84 57 85 36 86
REMARK SMILES IDX 37 87 45 88 38 89 39 90 43 91 46 92 40 93 41 94 44 95 42 96
REMARK H PARENT 3 6 7 30 66 49 34 60
REMARK Flexibility Score: inf
ROOT
ATOM      1  C   UNL A   1      31.885  29.950  27.251  1.00  0.00     0.042 C 
ENDROOT
BRANCH   1   2
ATOM      2  C   UNL A   1      32.546  28.582  27.258  1.00  0.00     0.118 C 
BRANCH   2   3
ATOM      3  N   UNL A   1      31.526  27.546  27.482  1.00  0.00    -0.352 N 
ATOM      4  O   UNL A   1      30.053  25.943  26.532  1.00  0.00    -0.270 OA
ATOM      5  C   UNL A   1      30.935  26.838  26.338  1.00  0.00     0.251 C 
ATOM      6  H   UNL A   1      31.240  27.328  28.398  1.00  0.00     0.163 HD
BRANCH   5   7
ATOM      7  C   UNL A   1      31.377  27.175  24.924  1.00  0.00     0.067 C 
ATOM      8  C   UNL A   1      32.425  26.513  24.362  1.00  0.00     0.025 C 
ATOM      9  C   UNL A   1      30.649  28.252  24.137  1.00  0.00     0.314 C 
ATOM     10  C   UNL A   1      33.153  25.436  25.150  1.00  0.00     0.019 A 
ATOM     11  O   UNL A   1      30.993  24.742  25.857  1.00  0.00    -0.475 OA
ATOM     12  C   UNL A   1      34.535  25.380  25.208  1.00  0.00     0.036 A 
ATOM     13  C   UNL A   1      32.400  24.561  25.807  1.00  0.00     0.128 A 
ATOM     14  C   UNL A   1      35.038  24.178  25.761  1.00  0.00     0.107 A 
ATOM     15  C   UNL A   1      32.970  23.484  26.440  1.00  0.00     0.048 A 
ATOM     16  C   UNL A   1      34.329  23.334  26.488  1.00  0.00     0.028 A 
BRANCH   9  17
ATOM     17  C   UNL A   1      30.065  27.646  22.870  1.00  0.00     0.429 C 
ATOM     18  F   UNL A   1      31.031  27.486  21.969  1.00  0.00    -0.167 F 
ATOM     19  F   UNL A   1      29.524  26.464  23.152  1.00  0.00    -0.167 F 
ATOM     20  F   UNL A   1      29.131  28.456  22.380  1.00  0.00    -0.167 F 
ENDBRANCH   9  17
BRANCH  14  21
ATOM     21  S   UNL A   1      36.775  23.770  25.452  1.00  0.00     0.310 S 
ATOM     22  F   UNL A   1      36.623  22.339  26.119  1.00  0.00    -0.094 F 
ATOM     23  F   UNL A   1      37.129  24.324  26.884  1.00  0.00    -0.094 F 
ATOM     24  F   UNL A   1      38.266  23.421  25.187  1.00  0.00    -0.094 F 
ATOM     25  F   UNL A   1      36.380  23.093  24.081  1.00  0.00    -0.094 F 
ATOM     26  F   UNL A   1      35.242  24.016  25.755  1.00  0.00    -0.094 F 
ENDBRANCH  14  21
ENDBRANCH   5   7
ENDBRANCH   2   3
ENDBRANCH   1   2
BRANCH   1  27
ATOM     27  C   UNL A   1      32.842  30.971  26.658  1.00  0.00     0.118 C 
BRANCH  27  28
ATOM     28  N   UNL A   1      32.340  32.327  26.927  1.00  0.00    -0.352 N 
ATOM     29  C   UNL A   1      33.104  33.235  27.797  1.00  0.00     0.251 C 
ATOM     30  H   UNL A   1      31.493  32.627  26.526  1.00  0.00     0.163 HD
ATOM     31  O   UNL A   1      32.670  34.406  28.029  1.00  0.00    -0.269 OA
BRANCH  29  32
ATOM     32  C   UNL A   1      34.411  32.770  28.418  1.00  0.00     0.039 A 
ATOM     33  C   UNL A   1      35.611  33.208  27.883  1.00  0.00     0.014 A 
ATOM     34  C   UNL A   1      34.381  31.951  29.462  1.00  0.00     0.014 A 
ATOM     35  C   UNL A   1      36.741  32.492  28.342  1.00  0.00     0.010 A 
ATOM     36  C   UNL A   1      35.540  31.393  29.946  1.00  0.00     0.010 A 
ATOM     37  C   UNL A   1      36.757  31.735  29.425  1.00  0.00    -0.014 A 
BRANCH  37  38
ATOM     38  C   UNL A   1      38.058  31.271  30.058  1.00  0.00     0.031 A 
ATOM     39  C   UNL A   1      38.565  32.007  31.130  1.00  0.00     0.074 A 
ATOM     40  C   UNL A   1      38.669  30.143  29.536  1.00  0.00     0.049 A 
ATOM     41  N   UNL A   1      39.664  31.755  31.843  1.00  0.00    -0.248 NA
ATOM     42  C   UNL A   1      37.937  33.225  31.664  1.00  0.00     0.031 C 
ATOM     43  C   UNL A   1      38.161  29.389  28.460  1.00  0.00     0.029 A 
ATOM     44  N   UNL A   1      39.846  29.554  29.943  1.00  0.00    -0.354 N 
ATOM     45  C   UNL A   1      39.812  32.673  32.801  1.00  0.00     0.074 A 
ATOM     46  C   UNL A   1      38.707  33.635  32.696  1.00  0.00     0.031 C 
ATOM     47  C   UNL A   1      39.023  28.369  28.215  1.00  0.00     0.029 A 
ATOM     48  C   UNL A   1      40.085  28.466  29.134  1.00  0.00     0.049 A 
ATOM     49  H   UNL A   1      40.417  29.859  30.685  1.00  0.00     0.167 HD
ATOM     50  C   UNL A   1      40.824  32.744  33.759  1.00  0.00     0.037 A 
ATOM     51  C   UNL A   1      41.165  27.597  29.176  1.00  0.00     0.037 A 
ATOM     52  C   UNL A   1      41.880  31.849  33.830  1.00  0.00     0.049 A 
ATOM     53  C   UNL A   1      42.208  27.703  30.098  1.00  0.00     0.074 A 
ATOM     54  C   UNL A   1      42.905  31.902  34.793  1.00  0.00     0.029 A 
ATOM     55  N   UNL A   1      42.133  30.776  33.004  1.00  0.00    -0.354 N 
ATOM     56  N   UNL A   1      42.335  28.597  31.079  1.00  0.00    -0.248 NA
ATOM     57  C   UNL A   1      43.373  26.808  30.132  1.00  0.00     0.031 C 
ATOM     58  C   UNL A   1      43.768  30.881  34.548  1.00  0.00     0.029 A 
ATOM     59  C   UNL A   1      43.298  30.174  33.425  1.00  0.00     0.049 A 
ATOM     60  H   UNL A   1      41.577  30.488  32.244  1.00  0.00     0.167 HD
ATOM     61  C   UNL A   1      43.457  28.369  31.767  1.00  0.00     0.074 A 
ATOM     62  C   UNL A   1      44.144  27.219  31.162  1.00  0.00     0.031 C 
ATOM     63  C   UNL A   1      43.933  29.071  32.876  1.00  0.00     0.037 A 
BRANCH  50  64
ATOM     64  C   UNL A   1      40.765  33.866  34.784  1.00  0.00     0.064 A 
ATOM     65  C   UNL A   1      40.093  33.645  35.974  1.00  0.00     0.173 A 
ATOM     66  C   UNL A   1      41.355  35.028  34.529  1.00  0.00     0.173 A 
ATOM     67  F   UNL A   1      39.710  32.438  36.379  1.00  0.00    -0.203 F 
ATOM     68  C   UNL A   1      39.848  34.823  36.720  1.00  0.00     0.198 A 
ATOM     69  C   UNL A   1      41.183  36.098  35.375  1.00  0.00     0.198 A 
ATOM     70  F   UNL A   1      42.117  35.159  33.448  1.00  0.00    -0.203 F 
ATOM     71  F   UNL A   1      38.918  34.771  37.670  1.00  0.00    -0.200 F 
ATOM     72  C   UNL A   1      40.479  35.968  36.540  1.00  0.00     0.200 A 
ATOM     73  F   UNL A   1      41.708  37.278  35.054  1.00  0.00    -0.200 F 
ATOM     74  F   UNL A   1      40.434  36.943  37.444  1.00  0.00    -0.200 F 
ENDBRANCH  50  64
BRANCH  51  75
ATOM     75  C   UNL A   1      41.215  26.466  28.163  1.00  0.00     0.064 A 
ATOM     76  C   UNL A   1      40.388  25.370  28.344  1.00  0.00     0.173 A 
ATOM     77  C   UNL A   1      42.046  26.538  27.130  1.00  0.00     0.173 A 
ATOM     78  F   UNL A   1      39.373  25.361  29.203  1.00  0.00    -0.203 F 
ATOM     79  C   UNL A   1      40.722  24.259  27.533  1.00  0.00     0.198 A 
ATOM     80  C   UNL A   1      42.222  25.459  26.296  1.00  0.00     0.198 A 
ATOM     81  F   UNL A   1      42.715  27.664  26.899  1.00  0.00    -0.203 F 
ATOM     82  F   UNL A   1      40.237  23.071  27.882  1.00  0.00    -0.200 F 
ATOM     83  C   UNL A   1      41.481  24.321  26.454  1.00  0.00     0.200 A 
ATOM     84  F   UNL A   1      43.126  25.523  25.323  1.00  0.00    -0.200 F 
ATOM     85  F   UNL A   1      41.522  23.329  25.569  1.00  0.00    -0.200 F 
ENDBRANCH  51  75
BRANCH  63  86
ATOM     86  C   UNL A   1      45.226  28.597  33.519  1.00  0.00     0.064 A 
ATOM     87  C   UNL A   1      46.432  29.126  33.092  1.00  0.00     0.173 A 
ATOM     88  C   UNL A   1      45.176  27.682  34.481  1.00  0.00     0.173 A 
ATOM     89  F   UNL A   1      46.517  30.209  32.325  1.00  0.00    -0.203 F 
ATOM     90  C   UNL A   1      47.565  28.410  33.546  1.00  0.00     0.198 A 
ATOM     91  C   UNL A   1      46.330  27.122  34.974  1.00  0.00     0.198 A 
ATOM     92  F   UNL A   1      43.999  27.305  34.973  1.00  0.00    -0.203 F 
ATOM     93  F   UNL A   1      48.718  28.611  32.914  1.00  0.00    -0.200 F 
ATOM     94  C   UNL A   1      47.557  27.556  34.553  1.00  0.00     0.200 A 
ATOM     95  F   UNL A   1      46.253  26.145  35.873  1.00  0.00    -0.200 F 
ATOM     96  F   UNL A   1      48.682  27.140  35.128  1.00  0.00    -0.200 F 
ENDBRANCH  63  86
ENDBRANCH  37  38
ENDBRANCH  29  32
ENDBRANCH  27  28
ENDBRANCH   1  27
TORSDOF 12
ENDMDL
