MODEL 1
REMARK VINA RESULT:     -12.1      0.000      0.000
REMARK SMILES CCCC[C@H](NS(=O)(=O)c1ccc(Br)c(C)c1)C(=O)NCCCNC(=O)c1ccc(-c2c3nc(c(-c4c(F)c(F)c(F)c(F)c4F)c4ccc([nH]4)c(-c4c(F)c(F)c(F)c(F)c4F)c4nc(c(-c5c(F)c(F)c(F)c(F)c5F)c5ccc2[nH]5)C=C4)C=C3)cc1
REMARK SMILES IDX 21 1 20 2 18 3 19 4 5 6 4 7 3 8 2 9 1 10 6 11 7 13 8 14 9 15
REMARK SMILES IDX 10 16 11 17 17 18 12 19 15 20 13 21 16 22 14 23 22 24 23 25
REMARK SMILES IDX 24 26 25 27 26 29 27 30 28 31 89 32 29 33 88 34 30 35 31 36
REMARK SMILES IDX 32 37 82 38 33 39 87 40 81 41 83 42 34 43 86 44 80 45 79 46
REMARK SMILES IDX 35 48 67 49 47 50 66 51 48 52 51 53 65 54 84 55 49 56 50 57
REMARK SMILES IDX 64 59 85 60 52 61 36 62 37 63 45 64 38 65 39 66 43 67 46 68
REMARK SMILES IDX 40 69 41 70 44 71 42 72 68 73 69 74 77 75 70 76 71 77 75 78
REMARK SMILES IDX 78 79 72 80 73 81 76 82 74 83 53 84 54 85 62 86 55 87 56 88
REMARK SMILES IDX 60 89 63 90 57 91 58 92 61 93 59 94
REMARK H PARENT 20 5 6 12 24 28 83 47 51 58
REMARK Flexibility Score: inf
ROOT
ATOM      1  C   UNL A   1      31.825  30.742  26.252  1.00  0.00     0.117 C 
ENDROOT
BRANCH   1   2
ATOM      2  N   UNL A   1      31.142  30.485  24.991  1.00  0.00    -0.355 N 
ATOM      3  C   UNL A   1      30.979  29.342  24.272  1.00  0.00     0.238 C 
ATOM      4  O   UNL A   1      30.104  29.360  23.400  1.00  0.00    -0.273 OA
ATOM      5  H   UNL A   1      30.724  31.281  24.589  1.00  0.00     0.163 HD
BRANCH   3   6
ATOM      6  C   UNL A   1      31.832  28.095  24.484  1.00  0.00     0.159 C 
BRANCH   6   7
ATOM      7  C   UNL A   1      32.996  27.933  23.493  1.00  0.00     0.030 C 
BRANCH   7   8
ATOM      8  C   UNL A   1      32.846  26.968  22.312  1.00  0.00     0.002 C 
BRANCH   8   9
ATOM      9  C   UNL A   1      33.576  25.627  22.455  1.00  0.00    -0.003 C 
ATOM     10  C   UNL A   1      32.720  24.396  22.218  1.00  0.00     0.004 C 
ENDBRANCH   8   9
ENDBRANCH   7   8
ENDBRANCH   6   7
BRANCH   6  11
ATOM     11  N   UNL A   1      31.001  26.889  24.680  1.00  0.00    -0.199 NA
ATOM     12  H   UNL A   1      31.279  26.230  23.954  1.00  0.00     0.142 HD
BRANCH  11  13
ATOM     13  S   UNL A   1      31.008  26.028  26.124  1.00  0.00     0.241 S 
ATOM     14  O   UNL A   1      31.631  26.917  27.084  1.00  0.00    -0.207 OA
ATOM     15  O   UNL A   1      29.693  25.477  26.346  1.00  0.00    -0.207 OA
BRANCH  13  16
ATOM     16  C   UNL A   1      32.128  24.665  25.855  1.00  0.00     0.082 A 
ATOM     17  C   UNL A   1      31.617  23.371  25.740  1.00  0.00     0.023 A 
ATOM     18  C   UNL A   1      33.513  24.873  25.864  1.00  0.00     0.026 A 
ATOM     19  C   UNL A   1      32.482  22.300  25.521  1.00  0.00     0.017 A 
ATOM     20  C   UNL A   1      34.399  23.789  25.713  1.00  0.00    -0.036 A 
ATOM     21  C   UNL A   1      33.865  22.507  25.502  1.00  0.00     0.020 A 
ATOM     22  C   UNL A   1      35.881  24.024  25.813  1.00  0.00     0.045 C 
ATOM     23  Br  UNL A   1      34.969  20.988  25.209  1.00  0.00    -0.051 Br
ENDBRANCH  13  16
ENDBRANCH  11  13
ENDBRANCH   6  11
ENDBRANCH   3   6
ENDBRANCH   1   2
BRANCH   1  24
ATOM     24  C   UNL A   1      31.462  32.093  26.838  1.00  0.00     0.042 C 
BRANCH  24  25
ATOM     25  C   UNL A   1      32.655  32.860  27.397  1.00  0.00     0.118 C 
BRANCH  25  26
ATOM     26  N   UNL A   1      32.372  34.257  27.721  1.00  0.00    -0.352 N 
ATOM     27  C   UNL A   1      32.957  35.092  28.647  1.00  0.00     0.251 C 
ATOM     28  H   UNL A   1      31.647  34.666  27.195  1.00  0.00     0.163 HD
ATOM     29  O   UNL A   1      32.500  36.212  28.853  1.00  0.00    -0.269 OA
BRANCH  27  30
ATOM     30  C   UNL A   1      34.114  34.610  29.426  1.00  0.00     0.039 A 
ATOM     31  C   UNL A   1      33.908  34.048  30.687  1.00  0.00     0.014 A 
ATOM     32  C   UNL A   1      35.391  34.641  28.869  1.00  0.00     0.014 A 
ATOM     33  C   UNL A   1      34.965  33.398  31.329  1.00  0.00     0.010 A 
ATOM     34  C   UNL A   1      36.400  33.880  29.441  1.00  0.00     0.010 A 
ATOM     35  C   UNL A   1      36.201  33.247  30.678  1.00  0.00    -0.014 A 
BRANCH  35  36
ATOM     36  C   UNL A   1      37.310  32.446  31.256  1.00  0.00     0.031 A 
ATOM     37  C   UNL A   1      37.838  32.792  32.623  1.00  0.00     0.074 A 
ATOM     38  C   UNL A   1      37.907  31.485  30.521  1.00  0.00     0.049 A 
ATOM     39  N   UNL A   1      38.901  32.343  33.242  1.00  0.00    -0.248 NA
ATOM     40  C   UNL A   1      37.099  33.820  33.377  1.00  0.00     0.031 C 
ATOM     41  C   UNL A   1      37.528  31.092  29.162  1.00  0.00     0.029 A 
ATOM     42  N   UNL A   1      38.974  30.670  30.812  1.00  0.00    -0.354 N 
ATOM     43  C   UNL A   1      38.965  33.051  34.436  1.00  0.00     0.074 A 
ATOM     44  C   UNL A   1      37.886  34.011  34.422  1.00  0.00     0.031 C 
ATOM     45  C   UNL A   1      38.324  30.091  28.753  1.00  0.00     0.029 A 
ATOM     46  C   UNL A   1      39.302  29.803  29.796  1.00  0.00     0.049 A 
ATOM     47  H   UNL A   1      39.459  30.704  31.667  1.00  0.00     0.167 HD
ATOM     48  C   UNL A   1      39.821  32.886  35.471  1.00  0.00     0.037 A 
ATOM     49  C   UNL A   1      40.286  28.888  29.717  1.00  0.00     0.037 A 
ATOM     50  C   UNL A   1      40.861  31.894  35.503  1.00  0.00     0.049 A 
ATOM     51  C   UNL A   1      41.224  28.726  30.885  1.00  0.00     0.074 A 
ATOM     52  C   UNL A   1      41.758  31.615  36.518  1.00  0.00     0.029 A 
ATOM     53  N   UNL A   1      41.131  31.006  34.473  1.00  0.00    -0.354 N 
ATOM     54  N   UNL A   1      41.244  29.367  32.028  1.00  0.00    -0.248 NA
ATOM     55  C   UNL A   1      42.277  27.709  30.752  1.00  0.00     0.031 C 
ATOM     56  C   UNL A   1      42.590  30.577  36.092  1.00  0.00     0.029 A 
ATOM     57  C   UNL A   1      42.183  30.179  34.828  1.00  0.00     0.049 A 
ATOM     58  H   UNL A   1      40.647  30.969  33.616  1.00  0.00     0.167 HD
ATOM     59  C   UNL A   1      42.278  28.804  32.764  1.00  0.00     0.074 A 
ATOM     60  C   UNL A   1      42.855  27.761  31.943  1.00  0.00     0.031 C 
ATOM     61  C   UNL A   1      42.715  29.124  34.007  1.00  0.00     0.037 A 
BRANCH  48  62
ATOM     62  C   UNL A   1      39.642  33.773  36.668  1.00  0.00     0.064 A 
ATOM     63  C   UNL A   1      40.232  35.046  36.728  1.00  0.00     0.173 A 
ATOM     64  C   UNL A   1      38.844  33.369  37.748  1.00  0.00     0.173 A 
ATOM     65  F   UNL A   1      41.017  35.474  35.727  1.00  0.00    -0.203 F 
ATOM     66  C   UNL A   1      40.055  35.868  37.837  1.00  0.00     0.198 A 
ATOM     67  C   UNL A   1      38.643  34.208  38.843  1.00  0.00     0.198 A 
ATOM     68  F   UNL A   1      38.254  32.164  37.741  1.00  0.00    -0.203 F 
ATOM     69  F   UNL A   1      40.672  37.056  37.893  1.00  0.00    -0.200 F 
ATOM     70  C   UNL A   1      39.253  35.452  38.889  1.00  0.00     0.200 A 
ATOM     71  F   UNL A   1      37.857  33.811  39.853  1.00  0.00    -0.200 F 
ATOM     72  F   UNL A   1      39.075  36.249  39.951  1.00  0.00    -0.200 F 
ENDBRANCH  48  62
BRANCH  49  73
ATOM     73  C   UNL A   1      40.431  28.030  28.510  1.00  0.00     0.064 A 
ATOM     74  C   UNL A   1      39.834  26.761  28.458  1.00  0.00     0.173 A 
ATOM     75  C   UNL A   1      41.199  28.431  27.407  1.00  0.00     0.173 A 
ATOM     76  F   UNL A   1      39.105  26.322  29.496  1.00  0.00    -0.203 F 
ATOM     77  C   UNL A   1      40.031  25.914  27.370  1.00  0.00     0.198 A 
ATOM     78  C   UNL A   1      41.369  27.595  26.305  1.00  0.00     0.198 A 
ATOM     79  F   UNL A   1      41.787  29.636  27.400  1.00  0.00    -0.203 F 
ATOM     80  F   UNL A   1      39.502  24.682  27.379  1.00  0.00    -0.200 F 
ATOM     81  C   UNL A   1      40.795  26.331  26.293  1.00  0.00     0.200 A 
ATOM     82  F   UNL A   1      42.098  28.008  25.260  1.00  0.00    -0.200 F 
ATOM     83  F   UNL A   1      40.992  25.513  25.250  1.00  0.00    -0.200 F 
ENDBRANCH  49  73
BRANCH  61  84
ATOM     84  C   UNL A   1      43.827  28.296  34.580  1.00  0.00     0.064 A 
ATOM     85  C   UNL A   1      45.171  28.675  34.450  1.00  0.00     0.173 A 
ATOM     86  C   UNL A   1      43.536  27.134  35.311  1.00  0.00     0.173 A 
ATOM     87  F   UNL A   1      45.499  29.769  33.748  1.00  0.00    -0.203 F 
ATOM     88  C   UNL A   1      46.186  27.906  35.012  1.00  0.00     0.198 A 
ATOM     89  C   UNL A   1      44.551  26.386  35.898  1.00  0.00     0.198 A 
ATOM     90  F   UNL A   1      42.265  26.735  35.470  1.00  0.00    -0.203 F 
ATOM     91  F   UNL A   1      47.466  28.260  34.837  1.00  0.00    -0.200 F 
ATOM     92  C   UNL A   1      45.875  26.768  35.742  1.00  0.00     0.200 A 
ATOM     93  F   UNL A   1      44.248  25.295  36.616  1.00  0.00    -0.200 F 
ATOM     94  F   UNL A   1      46.853  26.036  36.292  1.00  0.00    -0.200 F 
ENDBRANCH  61  84
ENDBRANCH  35  36
ENDBRANCH  27  30
ENDBRANCH  25  26
ENDBRANCH  24  25
ENDBRANCH   1  24
TORSDOF 16
ENDMDL
MODEL 2
REMARK VINA RESULT:     -12.1      2.015      7.779
REMARK SMILES CCCC[C@H](NS(=O)(=O)c1ccc(Br)c(C)c1)C(=O)NCCCNC(=O)c1ccc(-c2c3nc(c(-c4c(F)c(F)c(F)c(F)c4F)c4ccc([nH]4)c(-c4c(F)c(F)c(F)c(F)c4F)c4nc(c(-c5c(F)c(F)c(F)c(F)c5F)c5ccc2[nH]5)C=C4)C=C3)cc1
REMARK SMILES IDX 21 1 20 2 18 3 19 4 5 6 4 7 3 8 2 9 1 10 6 11 7 13 8 14 9 15
REMARK SMILES IDX 10 16 11 17 17 18 12 19 15 20 13 21 16 22 14 23 22 24 23 25
REMARK SMILES IDX 24 26 25 27 26 29 27 30 28 31 89 32 29 33 88 34 30 35 31 36
REMARK SMILES IDX 32 37 82 38 33 39 87 40 81 41 83 42 34 43 86 44 80 45 79 46
REMARK SMILES IDX 35 48 67 49 47 50 66 51 48 52 51 53 65 54 84 55 49 56 50 57
REMARK SMILES IDX 64 59 85 60 52 61 36 62 37 63 45 64 38 65 39 66 43 67 46 68
REMARK SMILES IDX 40 69 41 70 44 71 42 72 68 73 69 74 77 75 70 76 71 77 75 78
REMARK SMILES IDX 78 79 72 80 73 81 76 82 74 83 53 84 54 85 62 86 55 87 56 88
REMARK SMILES IDX 60 89 63 90 57 91 58 92 61 93 59 94
REMARK H PARENT 20 5 6 12 24 28 83 47 51 58
REMARK Flexibility Score: inf
ROOT
ATOM      1  C   UNL A   1      31.825  27.292  25.878  1.00  0.00     0.117 C 
ENDROOT
BRANCH   1   2
ATOM      2  N   UNL A   1      30.590  26.929  25.196  1.00  0.00    -0.355 N 
ATOM      3  C   UNL A   1      30.263  26.907  23.876  1.00  0.00     0.238 C 
ATOM      4  O   UNL A   1      29.247  26.273  23.570  1.00  0.00    -0.273 OA
ATOM      5  H   UNL A   1      29.863  26.650  25.798  1.00  0.00     0.163 HD
BRANCH   3   6
ATOM      6  C   UNL A   1      31.068  27.638  22.806  1.00  0.00     0.159 C 
BRANCH   6   7
ATOM      7  C   UNL A   1      30.516  29.018  22.413  1.00  0.00     0.030 C 
BRANCH   7   8
ATOM      8  C   UNL A   1      29.665  29.799  23.420  1.00  0.00     0.002 C 
BRANCH   8   9
ATOM      9  C   UNL A   1      28.206  30.038  23.009  1.00  0.00    -0.003 C 
ATOM     10  C   UNL A   1      27.599  31.338  23.505  1.00  0.00     0.004 C 
ENDBRANCH   8   9
ENDBRANCH   7   8
ENDBRANCH   6   7
BRANCH   6  11
ATOM     11  N   UNL A   1      31.406  26.752  21.673  1.00  0.00    -0.199 NA
ATOM     12  H   UNL A   1      31.164  27.266  20.826  1.00  0.00     0.142 HD
BRANCH  11  13
ATOM     13  S   UNL A   1      32.964  26.164  21.437  1.00  0.00     0.241 S 
ATOM     14  O   UNL A   1      32.899  25.435  20.187  1.00  0.00    -0.207 OA
ATOM     15  O   UNL A   1      33.905  27.240  21.638  1.00  0.00    -0.207 OA
BRANCH  13  16
ATOM     16  C   UNL A   1      33.220  24.970  22.738  1.00  0.00     0.082 A 
ATOM     17  C   UNL A   1      34.006  25.315  23.840  1.00  0.00     0.023 A 
ATOM     18  C   UNL A   1      32.728  23.665  22.608  1.00  0.00     0.026 A 
ATOM     19  C   UNL A   1      34.205  24.392  24.866  1.00  0.00     0.017 A 
ATOM     20  C   UNL A   1      32.982  22.704  23.607  1.00  0.00    -0.036 A 
ATOM     21  C   UNL A   1      33.693  23.096  24.753  1.00  0.00     0.020 A 
ATOM     22  C   UNL A   1      32.519  21.287  23.406  1.00  0.00     0.045 C 
ATOM     23  Br  UNL A   1      34.023  21.902  26.195  1.00  0.00    -0.051 Br
ENDBRANCH  13  16
ENDBRANCH  11  13
ENDBRANCH   6  11
ENDBRANCH   3   6
ENDBRANCH   1   2
BRANCH   1  24
ATOM     24  C   UNL A   1      31.728  28.641  26.564  1.00  0.00     0.042 C 
BRANCH  24  25
ATOM     25  C   UNL A   1      32.812  29.625  26.140  1.00  0.00     0.118 C 
BRANCH  25  26
ATOM     26  N   UNL A   1      32.565  31.005  26.553  1.00  0.00    -0.352 N 
ATOM     27  C   UNL A   1      33.329  31.854  27.322  1.00  0.00     0.251 C 
ATOM     28  H   UNL A   1      31.717  31.388  26.231  1.00  0.00     0.163 HD
ATOM     29  O   UNL A   1      32.895  32.952  27.658  1.00  0.00    -0.269 OA
BRANCH  27  30
ATOM     30  C   UNL A   1      34.661  31.414  27.780  1.00  0.00     0.039 A 
ATOM     31  C   UNL A   1      35.710  32.334  27.832  1.00  0.00     0.014 A 
ATOM     32  C   UNL A   1      34.845  30.110  28.236  1.00  0.00     0.014 A 
ATOM     33  C   UNL A   1      36.903  31.978  28.465  1.00  0.00     0.010 A 
ATOM     34  C   UNL A   1      35.973  29.805  28.983  1.00  0.00     0.010 A 
ATOM     35  C   UNL A   1      37.017  30.735  29.109  1.00  0.00    -0.014 A 
BRANCH  35  36
ATOM     36  C   UNL A   1      38.209  30.364  29.914  1.00  0.00     0.031 A 
ATOM     37  C   UNL A   1      39.212  29.394  29.347  1.00  0.00     0.074 A 
ATOM     38  C   UNL A   1      38.338  30.810  31.181  1.00  0.00     0.049 A 
ATOM     39  N   UNL A   1      40.223  28.805  29.934  1.00  0.00    -0.248 NA
ATOM     40  C   UNL A   1      39.024  28.995  27.941  1.00  0.00     0.031 C 
ATOM     41  C   UNL A   1      37.405  31.707  31.868  1.00  0.00     0.029 A 
ATOM     42  N   UNL A   1      39.303  30.556  32.125  1.00  0.00    -0.354 N 
ATOM     43  C   UNL A   1      40.766  27.954  28.980  1.00  0.00     0.074 A 
ATOM     44  C   UNL A   1      39.931  28.042  27.804  1.00  0.00     0.031 C 
ATOM     45  C   UNL A   1      37.862  31.956  33.106  1.00  0.00     0.029 A 
ATOM     46  C   UNL A   1      39.090  31.199  33.322  1.00  0.00     0.049 A 
ATOM     47  H   UNL A   1      40.074  29.968  31.960  1.00  0.00     0.167 HD
ATOM     48  C   UNL A   1      41.886  27.199  29.060  1.00  0.00     0.037 A 
ATOM     49  C   UNL A   1      39.803  31.170  34.463  1.00  0.00     0.037 A 
ATOM     50  C   UNL A   1      42.743  27.154  30.213  1.00  0.00     0.049 A 
ATOM     51  C   UNL A   1      41.045  30.321  34.524  1.00  0.00     0.074 A 
ATOM     52  C   UNL A   1      43.923  26.453  30.386  1.00  0.00     0.029 A 
ATOM     53  N   UNL A   1      42.516  27.854  31.388  1.00  0.00    -0.354 N 
ATOM     54  N   UNL A   1      41.576  29.559  33.598  1.00  0.00    -0.248 NA
ATOM     55  C   UNL A   1      41.792  30.330  35.790  1.00  0.00     0.031 C 
ATOM     56  C   UNL A   1      44.397  26.707  31.676  1.00  0.00     0.029 A 
ATOM     57  C   UNL A   1      43.535  27.601  32.291  1.00  0.00     0.049 A 
ATOM     58  H   UNL A   1      41.745  28.444  31.556  1.00  0.00     0.167 HD
ATOM     59  C   UNL A   1      42.735  29.035  34.152  1.00  0.00     0.074 A 
ATOM     60  C   UNL A   1      42.838  29.573  35.492  1.00  0.00     0.031 C 
ATOM     61  C   UNL A   1      43.633  28.179  33.605  1.00  0.00     0.037 A 
BRANCH  48  62
ATOM     62  C   UNL A   1      42.266  26.391  27.854  1.00  0.00     0.064 A 
ATOM     63  C   UNL A   1      43.212  26.862  26.929  1.00  0.00     0.173 A 
ATOM     64  C   UNL A   1      41.712  25.121  27.637  1.00  0.00     0.173 A 
ATOM     65  F   UNL A   1      43.759  28.077  27.082  1.00  0.00    -0.203 F 
ATOM     66  C   UNL A   1      43.566  26.104  25.817  1.00  0.00     0.198 A 
ATOM     67  C   UNL A   1      42.094  24.351  26.540  1.00  0.00     0.198 A 
ATOM     68  F   UNL A   1      40.807  24.622  28.492  1.00  0.00    -0.203 F 
ATOM     69  F   UNL A   1      44.431  26.598  24.920  1.00  0.00    -0.200 F 
ATOM     70  C   UNL A   1      43.014  24.846  25.628  1.00  0.00     0.200 A 
ATOM     71  F   UNL A   1      41.570  23.130  26.366  1.00  0.00    -0.200 F 
ATOM     72  F   UNL A   1      43.365  24.113  24.562  1.00  0.00    -0.200 F 
ENDBRANCH  48  62
BRANCH  49  73
ATOM     73  C   UNL A   1      39.389  31.984  35.638  1.00  0.00     0.064 A 
ATOM     74  C   UNL A   1      38.498  31.464  36.591  1.00  0.00     0.173 A 
ATOM     75  C   UNL A   1      39.829  33.304  35.815  1.00  0.00     0.173 A 
ATOM     76  F   UNL A   1      38.031  30.214  36.456  1.00  0.00    -0.203 F 
ATOM     77  C   UNL A   1      38.036  32.244  37.649  1.00  0.00     0.198 A 
ATOM     78  C   UNL A   1      39.391  34.072  36.892  1.00  0.00     0.198 A 
ATOM     79  F   UNL A   1      40.686  33.849  34.939  1.00  0.00    -0.203 F 
ATOM     80  F   UNL A   1      37.134  31.741  38.504  1.00  0.00    -0.200 F 
ATOM     81  C   UNL A   1      38.484  33.546  37.801  1.00  0.00     0.200 A 
ATOM     82  F   UNL A   1      39.838  35.326  37.043  1.00  0.00    -0.200 F 
ATOM     83  F   UNL A   1      38.033  34.298  38.813  1.00  0.00    -0.200 F 
ENDBRANCH  49  73
BRANCH  61  84
ATOM     84  C   UNL A   1      44.837  27.826  34.428  1.00  0.00     0.064 A 
ATOM     85  C   UNL A   1      46.007  28.597  34.389  1.00  0.00     0.173 A 
ATOM     86  C   UNL A   1      44.797  26.729  35.301  1.00  0.00     0.173 A 
ATOM     87  F   UNL A   1      46.098  29.646  33.559  1.00  0.00    -0.203 F 
ATOM     88  C   UNL A   1      47.104  28.267  35.181  1.00  0.00     0.198 A 
ATOM     89  C   UNL A   1      45.884  26.422  36.114  1.00  0.00     0.198 A 
ATOM     90  F   UNL A   1      43.696  25.966  35.380  1.00  0.00    -0.203 F 
ATOM     91  F   UNL A   1      48.230  28.989  35.095  1.00  0.00    -0.200 F 
ATOM     92  C   UNL A   1      47.039  27.186  36.048  1.00  0.00     0.200 A 
ATOM     93  F   UNL A   1      45.813  25.386  36.962  1.00  0.00    -0.200 F 
ATOM     94  F   UNL A   1      48.092  26.878  36.816  1.00  0.00    -0.200 F 
ENDBRANCH  61  84
ENDBRANCH  35  36
ENDBRANCH  27  30
ENDBRANCH  25  26
ENDBRANCH  24  25
ENDBRANCH   1  24
TORSDOF 16
ENDMDL
MODEL 3
REMARK VINA RESULT:     -12.0      5.716     11.038
REMARK SMILES CCCC[C@H](NS(=O)(=O)c1ccc(Br)c(C)c1)C(=O)NCCCNC(=O)c1ccc(-c2c3nc(c(-c4c(F)c(F)c(F)c(F)c4F)c4ccc([nH]4)c(-c4c(F)c(F)c(F)c(F)c4F)c4nc(c(-c5c(F)c(F)c(F)c(F)c5F)c5ccc2[nH]5)C=C4)C=C3)cc1
REMARK SMILES IDX 21 1 20 2 18 3 19 4 5 6 4 7 3 8 2 9 1 10 6 11 7 13 8 14 9 15
REMARK SMILES IDX 10 16 11 17 17 18 12 19 15 20 13 21 16 22 14 23 22 24 23 25
REMARK SMILES IDX 24 26 25 27 26 29 27 30 28 31 89 32 29 33 88 34 30 35 31 36
REMARK SMILES IDX 32 37 82 38 33 39 87 40 81 41 83 42 34 43 86 44 80 45 79 46
REMARK SMILES IDX 35 48 67 49 47 50 66 51 48 52 51 53 65 54 84 55 49 56 50 57
REMARK SMILES IDX 64 59 85 60 52 61 36 62 37 63 45 64 38 65 39 66 43 67 46 68
REMARK SMILES IDX 40 69 41 70 44 71 42 72 68 73 69 74 77 75 70 76 71 77 75 78
REMARK SMILES IDX 78 79 72 80 73 81 76 82 74 83 53 84 54 85 62 86 55 87 56 88
REMARK SMILES IDX 60 89 63 90 57 91 58 92 61 93 59 94
REMARK H PARENT 20 5 6 12 24 28 83 47 51 58
REMARK Flexibility Score: inf
ROOT
ATOM      1  C   UNL A   1      36.780  20.715  25.217  1.00  0.00     0.117 C 
ENDROOT
BRANCH   1   2
ATOM      2  N   UNL A   1      35.655  19.811  25.019  1.00  0.00    -0.355 N 
ATOM      3  C   UNL A   1      34.356  20.048  24.690  1.00  0.00     0.238 C 
ATOM      4  O   UNL A   1      33.701  19.077  24.297  1.00  0.00    -0.273 OA
ATOM      5  H   UNL A   1      35.873  18.859  25.146  1.00  0.00     0.163 HD
BRANCH   3   6
ATOM      6  C   UNL A   1      33.703  21.421  24.814  1.00  0.00     0.159 C 
BRANCH   6   7
ATOM      7  C   UNL A   1      32.669  21.545  25.945  1.00  0.00     0.030 C 
BRANCH   7   8
ATOM      8  C   UNL A   1      32.873  22.603  27.034  1.00  0.00     0.002 C 
BRANCH   8   9
ATOM      9  C   UNL A   1      31.751  23.640  27.168  1.00  0.00    -0.003 C 
ATOM     10  C   UNL A   1      30.421  23.238  26.557  1.00  0.00     0.004 C 
ENDBRANCH   8   9
ENDBRANCH   7   8
ENDBRANCH   6   7
BRANCH   6  11
ATOM     11  N   UNL A   1      33.263  21.939  23.502  1.00  0.00    -0.199 NA
ATOM     12  H   UNL A   1      32.267  22.137  23.593  1.00  0.00     0.142 HD
BRANCH  11  13
ATOM     13  S   UNL A   1      33.953  23.307  22.809  1.00  0.00     0.241 S 
ATOM     14  O   UNL A   1      35.379  23.143  23.003  1.00  0.00    -0.207 OA
ATOM     15  O   UNL A   1      33.385  23.502  21.496  1.00  0.00    -0.207 OA
BRANCH  13  16
ATOM     16  C   UNL A   1      33.428  24.671  23.834  1.00  0.00     0.082 A 
ATOM     17  C   UNL A   1      34.299  25.177  24.800  1.00  0.00     0.023 A 
ATOM     18  C   UNL A   1      32.117  25.160  23.745  1.00  0.00     0.026 A 
ATOM     19  C   UNL A   1      33.902  26.248  25.599  1.00  0.00     0.017 A 
ATOM     20  C   UNL A   1      31.683  26.195  24.596  1.00  0.00    -0.036 A 
ATOM     21  C   UNL A   1      32.604  26.758  25.496  1.00  0.00     0.020 A 
ATOM     22  C   UNL A   1      30.249  26.645  24.543  1.00  0.00     0.045 C 
ATOM     23  Br  UNL A   1      32.146  28.209  26.634  1.00  0.00    -0.051 Br
ENDBRANCH  13  16
ENDBRANCH  11  13
ENDBRANCH   6  11
ENDBRANCH   3   6
ENDBRANCH   1   2
BRANCH   1  24
ATOM     24  C   UNL A   1      38.102  20.081  24.826  1.00  0.00     0.042 C 
BRANCH  24  25
ATOM     25  C   UNL A   1      39.209  20.286  25.854  1.00  0.00     0.118 C 
BRANCH  25  26
ATOM     26  N   UNL A   1      40.184  19.200  25.911  1.00  0.00    -0.352 N 
ATOM     27  C   UNL A   1      41.548  19.237  26.097  1.00  0.00     0.251 C 
ATOM     28  H   UNL A   1      39.806  18.297  25.798  1.00  0.00     0.163 HD
ATOM     29  O   UNL A   1      42.219  18.214  25.999  1.00  0.00    -0.269 OA
BRANCH  27  30
ATOM     30  C   UNL A   1      42.206  20.530  26.368  1.00  0.00     0.039 A 
ATOM     31  C   UNL A   1      42.645  21.315  25.301  1.00  0.00     0.014 A 
ATOM     32  C   UNL A   1      42.310  20.998  27.676  1.00  0.00     0.014 A 
ATOM     33  C   UNL A   1      43.067  22.625  25.542  1.00  0.00     0.010 A 
ATOM     34  C   UNL A   1      42.596  22.337  27.897  1.00  0.00     0.010 A 
ATOM     35  C   UNL A   1      42.978  23.169  26.833  1.00  0.00    -0.014 A 
BRANCH  35  36
ATOM     36  C   UNL A   1      43.279  24.596  27.117  1.00  0.00     0.031 A 
ATOM     37  C   UNL A   1      44.675  25.115  26.894  1.00  0.00     0.074 A 
ATOM     38  C   UNL A   1      42.339  25.392  27.667  1.00  0.00     0.049 A 
ATOM     39  N   UNL A   1      45.198  26.266  27.233  1.00  0.00    -0.248 NA
ATOM     40  C   UNL A   1      45.627  24.195  26.245  1.00  0.00     0.031 C 
ATOM     41  C   UNL A   1      40.966  24.994  27.986  1.00  0.00     0.029 A 
ATOM     42  N   UNL A   1      42.402  26.704  28.069  1.00  0.00    -0.354 N 
ATOM     43  C   UNL A   1      46.535  26.193  26.863  1.00  0.00     0.074 A 
ATOM     44  C   UNL A   1      46.764  24.863  26.348  1.00  0.00     0.031 C 
ATOM     45  C   UNL A   1      40.308  26.047  28.499  1.00  0.00     0.029 A 
ATOM     46  C   UNL A   1      41.223  27.179  28.594  1.00  0.00     0.049 A 
ATOM     47  H   UNL A   1      43.215  27.252  27.989  1.00  0.00     0.167 HD
ATOM     48  C   UNL A   1      47.479  27.162  26.908  1.00  0.00     0.037 A 
ATOM     49  C   UNL A   1      40.922  28.390  29.101  1.00  0.00     0.037 A 
ATOM     50  C   UNL A   1      47.235  28.500  27.373  1.00  0.00     0.049 A 
ATOM     51  C   UNL A   1      41.993  29.449  29.138  1.00  0.00     0.074 A 
ATOM     52  C   UNL A   1      48.109  29.570  27.424  1.00  0.00     0.029 A 
ATOM     53  N   UNL A   1      46.016  28.954  27.854  1.00  0.00    -0.354 N 
ATOM     54  N   UNL A   1      43.240  29.383  28.740  1.00  0.00    -0.248 NA
ATOM     55  C   UNL A   1      41.612  30.755  29.694  1.00  0.00     0.031 C 
ATOM     56  C   UNL A   1      47.428  30.665  27.962  1.00  0.00     0.029 A 
ATOM     57  C   UNL A   1      46.116  30.289  28.206  1.00  0.00     0.049 A 
ATOM     58  H   UNL A   1      45.200  28.407  27.934  1.00  0.00     0.167 HD
ATOM     59  C   UNL A   1      43.778  30.645  28.956  1.00  0.00     0.074 A 
ATOM     60  C   UNL A   1      42.718  31.460  29.511  1.00  0.00     0.031 C 
ATOM     61  C   UNL A   1      45.037  31.088  28.722  1.00  0.00     0.037 A 
BRANCH  48  62
ATOM     62  C   UNL A   1      48.851  26.818  26.406  1.00  0.00     0.064 A 
ATOM     63  C   UNL A   1      49.207  27.015  25.062  1.00  0.00     0.173 A 
ATOM     64  C   UNL A   1      49.831  26.324  27.279  1.00  0.00     0.173 A 
ATOM     65  F   UNL A   1      48.301  27.470  24.183  1.00  0.00    -0.203 F 
ATOM     66  C   UNL A   1      50.484  26.702  24.605  1.00  0.00     0.198 A 
ATOM     67  C   UNL A   1      51.118  26.043  26.824  1.00  0.00     0.198 A 
ATOM     68  F   UNL A   1      49.545  26.121  28.573  1.00  0.00    -0.203 F 
ATOM     69  F   UNL A   1      50.783  26.849  23.307  1.00  0.00    -0.200 F 
ATOM     70  C   UNL A   1      51.441  26.225  25.488  1.00  0.00     0.200 A 
ATOM     71  F   UNL A   1      52.046  25.595  27.681  1.00  0.00    -0.200 F 
ATOM     72  F   UNL A   1      52.672  25.935  25.048  1.00  0.00    -0.200 F 
ENDBRANCH  48  62
BRANCH  49  73
ATOM     73  C   UNL A   1      39.549  28.688  29.591  1.00  0.00     0.064 A 
ATOM     74  C   UNL A   1      38.595  29.267  28.740  1.00  0.00     0.173 A 
ATOM     75  C   UNL A   1      39.172  28.449  30.920  1.00  0.00     0.173 A 
ATOM     76  F   UNL A   1      38.913  29.535  27.464  1.00  0.00    -0.203 F 
ATOM     77  C   UNL A   1      37.334  29.629  29.208  1.00  0.00     0.198 A 
ATOM     78  C   UNL A   1      37.898  28.782  31.379  1.00  0.00     0.198 A 
ATOM     79  F   UNL A   1      40.041  27.892  31.776  1.00  0.00    -0.203 F 
ATOM     80  F   UNL A   1      36.468  30.241  28.388  1.00  0.00    -0.200 F 
ATOM     81  C   UNL A   1      36.985  29.384  30.526  1.00  0.00     0.200 A 
ATOM     82  F   UNL A   1      37.561  28.531  32.651  1.00  0.00    -0.200 F 
ATOM     83  F   UNL A   1      35.775  29.740  30.979  1.00  0.00    -0.200 F 
ENDBRANCH  49  73
BRANCH  61  84
ATOM     84  C   UNL A   1      45.320  32.535  29.001  1.00  0.00     0.064 A 
ATOM     85  C   UNL A   1      45.838  32.960  30.232  1.00  0.00     0.173 A 
ATOM     86  C   UNL A   1      45.115  33.498  28.002  1.00  0.00     0.173 A 
ATOM     87  F   UNL A   1      46.037  32.078  31.223  1.00  0.00    -0.203 F 
ATOM     88  C   UNL A   1      46.119  34.304  30.461  1.00  0.00     0.198 A 
ATOM     89  C   UNL A   1      45.427  34.836  28.225  1.00  0.00     0.198 A 
ATOM     90  F   UNL A   1      44.629  33.140  26.805  1.00  0.00    -0.203 F 
ATOM     91  F   UNL A   1      46.570  34.696  31.661  1.00  0.00    -0.200 F 
ATOM     92  C   UNL A   1      45.922  35.239  29.456  1.00  0.00     0.200 A 
ATOM     93  F   UNL A   1      45.250  35.736  27.247  1.00  0.00    -0.200 F 
ATOM     94  F   UNL A   1      46.203  36.530  29.675  1.00  0.00    -0.200 F 
ENDBRANCH  61  84
ENDBRANCH  35  36
ENDBRANCH  27  30
ENDBRANCH  25  26
ENDBRANCH  24  25
ENDBRANCH   1  24
TORSDOF 16
ENDMDL
