MODEL 1
REMARK VINA RESULT:     -12.5      0.000      0.000
REMARK SMILES C[C@@H]1OCC[C@@H]1C(=O)Nc1ccc(C(=O)NCCCNC(=O)c2ccc(-c3c4nc(c(-c5c(F)c(F)c(F)c(F)c5F)c5ccc([nH]5)c(-c5c(F)c(F)c(F)c(F)c5F)c5nc(c(-c6c(F)c(F)c(F)c(F)c6F)c6ccc3[nH]6)C=C5)C=C4)cc2)cc1F
REMARK SMILES IDX 18 1 17 2 16 3 14 4 15 5 13 7 10 8 11 9 87 10 12 11 86 12
REMARK SMILES IDX 88 13 9 14 7 15 8 16 6 18 1 19 2 20 3 21 4 22 5 23 19 24
REMARK SMILES IDX 20 25 21 26 22 28 23 29 24 30 85 31 25 32 84 33 26 34 27 35
REMARK SMILES IDX 28 36 78 37 29 38 83 39 77 40 79 41 30 42 82 43 76 44 75 45
REMARK SMILES IDX 31 47 63 48 43 49 62 50 44 51 47 52 61 53 80 54 45 55 46 56
REMARK SMILES IDX 60 58 81 59 48 60 32 61 33 62 41 63 34 64 35 65 39 66 42 67
REMARK SMILES IDX 36 68 37 69 40 70 38 71 64 72 65 73 73 74 66 75 67 76 71 77
REMARK SMILES IDX 74 78 68 79 69 80 72 81 70 82 49 83 50 84 58 85 51 86 52 87
REMARK SMILES IDX 56 88 59 89 53 90 54 91 57 92 55 93
REMARK H PARENT 16 6 9 17 20 27 79 46 47 57
REMARK Flexibility Score: inf
ROOT
ATOM      1  C   UNL A   1      31.401  32.184  26.725  1.00  0.00     0.042 C 
ENDROOT
BRANCH   1   2
ATOM      2  C   UNL A   1      31.625  30.771  26.163  1.00  0.00     0.118 C 
BRANCH   2   3
ATOM      3  N   UNL A   1      31.561  29.751  27.210  1.00  0.00    -0.352 N 
ATOM      4  C   UNL A   1      31.769  28.385  27.224  1.00  0.00     0.251 C 
ATOM      5  O   UNL A   1      31.697  27.798  28.302  1.00  0.00    -0.269 OA
ATOM      6  H   UNL A   1      31.317  30.115  28.091  1.00  0.00     0.163 HD
BRANCH   4   7
ATOM      7  C   UNL A   1      32.133  27.607  26.009  1.00  0.00     0.042 A 
ATOM      8  C   UNL A   1      32.811  25.821  23.892  1.00  0.00     0.077 A 
ATOM      9  C   UNL A   1      31.527  26.381  23.980  1.00  0.00     0.030 A 
ATOM     10  C   UNL A   1      33.681  26.162  24.912  1.00  0.00     0.147 A 
ATOM     11  C   UNL A   1      31.174  27.223  25.063  1.00  0.00     0.016 A 
ATOM     12  C   UNL A   1      33.415  27.163  25.816  1.00  0.00     0.055 A 
ATOM     13  F   UNL A   1      34.781  25.482  25.218  1.00  0.00    -0.205 F 
BRANCH   8  14
ATOM     14  N   UNL A   1      33.126  25.024  22.767  1.00  0.00    -0.323 N 
ATOM     15  C   UNL A   1      33.232  23.671  22.547  1.00  0.00     0.230 C 
ATOM     16  O   UNL A   1      33.653  23.315  21.443  1.00  0.00    -0.274 OA
ATOM     17  H   UNL A   1      33.309  25.556  21.960  1.00  0.00     0.170 HD
BRANCH  15  18
ATOM     18  C   UNL A   1      32.815  22.643  23.577  1.00  0.00     0.110 C 
ATOM     19  C   UNL A   1      35.287  22.227  24.251  1.00  0.00     0.039 C 
ATOM     20  C   UNL A   1      33.830  22.301  24.681  1.00  0.00     0.127 C 
ATOM     21  O   UNL A   1      33.448  21.001  25.190  1.00  0.00    -0.378 OA
ATOM     22  C   UNL A   1      32.354  20.525  24.395  1.00  0.00     0.161 C 
ATOM     23  C   UNL A   1      32.475  21.253  23.070  1.00  0.00     0.044 C 
ENDBRANCH  15  18
ENDBRANCH   8  14
ENDBRANCH   4   7
ENDBRANCH   2   3
ENDBRANCH   1   2
BRANCH   1  24
ATOM     24  C   UNL A   1      32.701  32.949  26.933  1.00  0.00     0.118 C 
BRANCH  24  25
ATOM     25  N   UNL A   1      32.470  34.205  27.627  1.00  0.00    -0.352 N 
ATOM     26  C   UNL A   1      33.062  34.726  28.746  1.00  0.00     0.251 C 
ATOM     27  H   UNL A   1      31.774  34.774  27.227  1.00  0.00     0.163 HD
ATOM     28  O   UNL A   1      32.571  35.723  29.266  1.00  0.00    -0.269 OA
BRANCH  26  29
ATOM     29  C   UNL A   1      34.265  34.106  29.344  1.00  0.00     0.039 A 
ATOM     30  C   UNL A   1      34.077  33.139  30.336  1.00  0.00     0.014 A 
ATOM     31  C   UNL A   1      35.561  34.499  28.997  1.00  0.00     0.014 A 
ATOM     32  C   UNL A   1      35.179  32.548  30.954  1.00  0.00     0.010 A 
ATOM     33  C   UNL A   1      36.663  33.857  29.563  1.00  0.00     0.010 A 
ATOM     34  C   UNL A   1      36.483  32.883  30.554  1.00  0.00    -0.014 A 
BRANCH  34  35
ATOM     35  C   UNL A   1      37.652  32.198  31.158  1.00  0.00     0.031 A 
ATOM     36  C   UNL A   1      38.128  32.558  32.538  1.00  0.00     0.074 A 
ATOM     37  C   UNL A   1      38.301  31.259  30.443  1.00  0.00     0.049 A 
ATOM     38  N   UNL A   1      39.125  32.056  33.223  1.00  0.00    -0.248 NA
ATOM     39  C   UNL A   1      37.407  33.635  33.233  1.00  0.00     0.031 C 
ATOM     40  C   UNL A   1      37.963  30.862  29.075  1.00  0.00     0.029 A 
ATOM     41  N   UNL A   1      39.374  30.465  30.763  1.00  0.00    -0.354 N 
ATOM     42  C   UNL A   1      39.152  32.756  34.421  1.00  0.00     0.074 A 
ATOM     43  C   UNL A   1      38.106  33.754  34.352  1.00  0.00     0.031 C 
ATOM     44  C   UNL A   1      38.785  29.876  28.687  1.00  0.00     0.029 A 
ATOM     45  C   UNL A   1      39.733  29.596  29.762  1.00  0.00     0.049 A 
ATOM     46  H   UNL A   1      39.842  30.514  31.628  1.00  0.00     0.167 HD
ATOM     47  C   UNL A   1      39.963  32.566  35.489  1.00  0.00     0.037 A 
ATOM     48  C   UNL A   1      40.713  28.675  29.715  1.00  0.00     0.037 A 
ATOM     49  C   UNL A   1      40.983  31.552  35.560  1.00  0.00     0.049 A 
ATOM     50  C   UNL A   1      41.594  28.479  30.917  1.00  0.00     0.074 A 
ATOM     51  C   UNL A   1      41.808  31.236  36.626  1.00  0.00     0.029 A 
ATOM     52  N   UNL A   1      41.320  30.693  34.525  1.00  0.00    -0.354 N 
ATOM     53  N   UNL A   1      41.564  29.101  32.071  1.00  0.00    -0.248 NA
ATOM     54  C   UNL A   1      42.640  27.453  30.814  1.00  0.00     0.031 C 
ATOM     55  C   UNL A   1      42.680  30.223  36.218  1.00  0.00     0.029 A 
ATOM     56  C   UNL A   1      42.361  29.866  34.918  1.00  0.00     0.049 A 
ATOM     57  H   UNL A   1      40.885  30.672  33.642  1.00  0.00     0.167 HD
ATOM     58  C   UNL A   1      42.574  28.535  32.836  1.00  0.00     0.074 A 
ATOM     59  C   UNL A   1      43.183  27.501  32.023  1.00  0.00     0.031 C 
ATOM     60  C   UNL A   1      42.964  28.848  34.095  1.00  0.00     0.037 A 
BRANCH  47  61
ATOM     61  C   UNL A   1      39.781  33.458  36.683  1.00  0.00     0.064 A 
ATOM     62  C   UNL A   1      38.873  33.115  37.697  1.00  0.00     0.173 A 
ATOM     63  C   UNL A   1      40.434  34.696  36.779  1.00  0.00     0.173 A 
ATOM     64  F   UNL A   1      38.218  31.945  37.650  1.00  0.00    -0.203 F 
ATOM     65  C   UNL A   1      38.614  33.985  38.753  1.00  0.00     0.198 A 
ATOM     66  C   UNL A   1      40.193  35.552  37.851  1.00  0.00     0.198 A 
ATOM     67  F   UNL A   1      41.318  35.069  35.842  1.00  0.00    -0.203 F 
ATOM     68  F   UNL A   1      37.715  33.652  39.689  1.00  0.00    -0.200 F 
ATOM     69  C   UNL A   1      39.275  35.201  38.830  1.00  0.00     0.200 A 
ATOM     70  F   UNL A   1      40.850  36.717  37.937  1.00  0.00    -0.200 F 
ATOM     71  F   UNL A   1      39.028  36.036  39.848  1.00  0.00    -0.200 F 
ENDBRANCH  47  61
BRANCH  48  72
ATOM     72  C   UNL A   1      40.881  27.849  28.492  1.00  0.00     0.064 A 
ATOM     73  C   UNL A   1      41.696  28.273  27.431  1.00  0.00     0.173 A 
ATOM     74  C   UNL A   1      40.197  26.635  28.341  1.00  0.00     0.173 A 
ATOM     75  F   UNL A   1      42.367  29.431  27.523  1.00  0.00    -0.203 F 
ATOM     76  C   UNL A   1      41.803  27.526  26.261  1.00  0.00     0.198 A 
ATOM     77  C   UNL A   1      40.327  25.873  27.181  1.00  0.00     0.198 A 
ATOM     78  F   UNL A   1      39.420  26.177  29.334  1.00  0.00    -0.203 F 
ATOM     79  F   UNL A   1      42.559  27.974  25.248  1.00  0.00    -0.200 F 
ATOM     80  C   UNL A   1      41.122  26.323  26.139  1.00  0.00     0.200 A 
ATOM     81  F   UNL A   1      39.687  24.701  27.077  1.00  0.00    -0.200 F 
ATOM     82  F   UNL A   1      41.233  25.600  25.017  1.00  0.00    -0.200 F 
ENDBRANCH  48  72
BRANCH  60  83
ATOM     83  C   UNL A   1      44.104  28.066  34.681  1.00  0.00     0.064 A 
ATOM     84  C   UNL A   1      43.868  26.861  35.361  1.00  0.00     0.173 A 
ATOM     85  C   UNL A   1      45.422  28.542  34.628  1.00  0.00     0.173 A 
ATOM     86  F   UNL A   1      42.624  26.366  35.449  1.00  0.00    -0.203 F 
ATOM     87  C   UNL A   1      44.907  26.169  35.976  1.00  0.00     0.198 A 
ATOM     88  C   UNL A   1      46.464  27.832  35.218  1.00  0.00     0.198 A 
ATOM     89  F   UNL A   1      45.701  29.683  33.979  1.00  0.00    -0.203 F 
ATOM     90  F   UNL A   1      44.652  25.039  36.649  1.00  0.00    -0.200 F 
ATOM     91  C   UNL A   1      46.205  26.653  35.899  1.00  0.00     0.200 A 
ATOM     92  F   UNL A   1      47.721  28.286  35.119  1.00  0.00    -0.200 F 
ATOM     93  F   UNL A   1      47.208  25.979  36.479  1.00  0.00    -0.200 F 
ENDBRANCH  60  83
ENDBRANCH  34  35
ENDBRANCH  26  29
ENDBRANCH  24  25
ENDBRANCH   1  24
TORSDOF 12
ENDMDL
MODEL 2
REMARK VINA RESULT:     -12.4      0.902      1.516
REMARK SMILES C[C@@H]1OCC[C@@H]1C(=O)Nc1ccc(C(=O)NCCCNC(=O)c2ccc(-c3c4nc(c(-c5c(F)c(F)c(F)c(F)c5F)c5ccc([nH]5)c(-c5c(F)c(F)c(F)c(F)c5F)c5nc(c(-c6c(F)c(F)c(F)c(F)c6F)c6ccc3[nH]6)C=C5)C=C4)cc2)cc1F
REMARK SMILES IDX 18 1 17 2 16 3 14 4 15 5 13 7 10 8 11 9 87 10 12 11 86 12
REMARK SMILES IDX 88 13 9 14 7 15 8 16 6 18 1 19 2 20 3 21 4 22 5 23 19 24
REMARK SMILES IDX 20 25 21 26 22 28 23 29 24 30 85 31 25 32 84 33 26 34 27 35
REMARK SMILES IDX 28 36 78 37 29 38 83 39 77 40 79 41 30 42 82 43 76 44 75 45
REMARK SMILES IDX 31 47 63 48 43 49 62 50 44 51 47 52 61 53 80 54 45 55 46 56
REMARK SMILES IDX 60 58 81 59 48 60 32 61 33 62 41 63 34 64 35 65 39 66 42 67
REMARK SMILES IDX 36 68 37 69 40 70 38 71 64 72 65 73 73 74 66 75 67 76 71 77
REMARK SMILES IDX 74 78 68 79 69 80 72 81 70 82 49 83 50 84 58 85 51 86 52 87
REMARK SMILES IDX 56 88 59 89 53 90 54 91 57 92 55 93
REMARK H PARENT 16 6 9 17 20 27 79 46 47 57
REMARK Flexibility Score: inf
ROOT
ATOM      1  C   UNL A   1      31.452  32.052  26.867  1.00  0.00     0.042 C 
ENDROOT
BRANCH   1   2
ATOM      2  C   UNL A   1      31.733  30.541  26.843  1.00  0.00     0.118 C 
BRANCH   2   3
ATOM      3  N   UNL A   1      33.085  30.231  27.307  1.00  0.00    -0.352 N 
ATOM      4  C   UNL A   1      34.020  29.278  26.951  1.00  0.00     0.251 C 
ATOM      5  O   UNL A   1      35.120  29.310  27.499  1.00  0.00    -0.269 OA
ATOM      6  H   UNL A   1      33.394  30.827  28.028  1.00  0.00     0.163 HD
BRANCH   4   7
ATOM      7  C   UNL A   1      33.776  28.255  25.897  1.00  0.00     0.042 A 
ATOM      8  C   UNL A   1      33.667  26.300  23.825  1.00  0.00     0.077 A 
ATOM      9  C   UNL A   1      33.531  25.931  25.173  1.00  0.00     0.030 A 
ATOM     10  C   UNL A   1      33.896  27.644  23.595  1.00  0.00     0.147 A 
ATOM     11  C   UNL A   1      33.643  26.894  26.205  1.00  0.00     0.016 A 
ATOM     12  C   UNL A   1      33.757  28.602  24.572  1.00  0.00     0.055 A 
ATOM     13  F   UNL A   1      34.402  28.138  22.471  1.00  0.00    -0.205 F 
BRANCH   8  14
ATOM     14  N   UNL A   1      33.503  25.306  22.832  1.00  0.00    -0.323 N 
ATOM     15  C   UNL A   1      33.735  23.952  22.781  1.00  0.00     0.230 C 
ATOM     16  O   UNL A   1      33.587  23.400  21.686  1.00  0.00    -0.274 OA
ATOM     17  H   UNL A   1      33.140  25.663  21.990  1.00  0.00     0.170 HD
BRANCH  15  18
ATOM     18  C   UNL A   1      34.112  23.142  24.003  1.00  0.00     0.110 C 
ATOM     19  C   UNL A   1      36.559  22.910  23.168  1.00  0.00     0.039 C 
ATOM     20  C   UNL A   1      35.608  23.043  24.348  1.00  0.00     0.127 C 
ATOM     21  O   UNL A   1      35.753  21.864  25.174  1.00  0.00    -0.378 OA
ATOM     22  C   UNL A   1      34.473  21.222  25.247  1.00  0.00     0.161 C 
ATOM     23  C   UNL A   1      33.727  21.674  24.007  1.00  0.00     0.044 C 
ENDBRANCH  15  18
ENDBRANCH   8  14
ENDBRANCH   4   7
ENDBRANCH   2   3
ENDBRANCH   1   2
BRANCH   1  24
ATOM     24  C   UNL A   1      32.723  32.889  26.898  1.00  0.00     0.118 C 
BRANCH  24  25
ATOM     25  N   UNL A   1      32.507  34.155  27.579  1.00  0.00    -0.352 N 
ATOM     26  C   UNL A   1      33.116  34.687  28.683  1.00  0.00     0.251 C 
ATOM     27  H   UNL A   1      31.808  34.722  27.181  1.00  0.00     0.163 HD
ATOM     28  O   UNL A   1      32.636  35.694  29.196  1.00  0.00    -0.269 OA
BRANCH  26  29
ATOM     29  C   UNL A   1      34.325  34.070  29.273  1.00  0.00     0.039 A 
ATOM     30  C   UNL A   1      34.145  33.091  30.255  1.00  0.00     0.014 A 
ATOM     31  C   UNL A   1      35.617  34.476  28.928  1.00  0.00     0.014 A 
ATOM     32  C   UNL A   1      35.252  32.502  30.865  1.00  0.00     0.010 A 
ATOM     33  C   UNL A   1      36.724  33.837  29.486  1.00  0.00     0.010 A 
ATOM     34  C   UNL A   1      36.553  32.850  30.466  1.00  0.00    -0.014 A 
BRANCH  34  35
ATOM     35  C   UNL A   1      37.728  32.168  31.062  1.00  0.00     0.031 A 
ATOM     36  C   UNL A   1      38.208  32.523  32.442  1.00  0.00     0.074 A 
ATOM     37  C   UNL A   1      38.378  31.236  30.339  1.00  0.00     0.049 A 
ATOM     38  N   UNL A   1      39.210  32.022  33.120  1.00  0.00    -0.248 NA
ATOM     39  C   UNL A   1      37.485  33.593  33.146  1.00  0.00     0.031 C 
ATOM     40  C   UNL A   1      38.036  30.845  28.971  1.00  0.00     0.029 A 
ATOM     41  N   UNL A   1      39.456  30.445  30.651  1.00  0.00    -0.354 N 
ATOM     42  C   UNL A   1      39.240  32.717  34.321  1.00  0.00     0.074 A 
ATOM     43  C   UNL A   1      38.189  33.710  34.262  1.00  0.00     0.031 C 
ATOM     44  C   UNL A   1      38.861  29.865  28.574  1.00  0.00     0.029 A 
ATOM     45  C   UNL A   1      39.814  29.583  29.643  1.00  0.00     0.049 A 
ATOM     46  H   UNL A   1      39.927  30.492  31.513  1.00  0.00     0.167 HD
ATOM     47  C   UNL A   1      40.057  32.524  35.384  1.00  0.00     0.037 A 
ATOM     48  C   UNL A   1      40.799  28.667  29.587  1.00  0.00     0.037 A 
ATOM     49  C   UNL A   1      41.082  31.515  35.446  1.00  0.00     0.049 A 
ATOM     50  C   UNL A   1      41.686  28.469  30.784  1.00  0.00     0.074 A 
ATOM     51  C   UNL A   1      41.913  31.197  36.506  1.00  0.00     0.029 A 
ATOM     52  N   UNL A   1      41.418  30.663  34.405  1.00  0.00    -0.354 N 
ATOM     53  N   UNL A   1      41.658  29.085  31.941  1.00  0.00    -0.248 NA
ATOM     54  C   UNL A   1      42.736  27.448  30.671  1.00  0.00     0.031 C 
ATOM     55  C   UNL A   1      42.788  30.190  36.089  1.00  0.00     0.029 A 
ATOM     56  C   UNL A   1      42.465  29.839  34.788  1.00  0.00     0.049 A 
ATOM     57  H   UNL A   1      40.979  30.645  33.524  1.00  0.00     0.167 HD
ATOM     58  C   UNL A   1      42.675  28.519  32.698  1.00  0.00     0.074 A 
ATOM     59  C   UNL A   1      43.284  27.493  31.878  1.00  0.00     0.031 C 
ATOM     60  C   UNL A   1      43.069  28.828  33.958  1.00  0.00     0.037 A 
BRANCH  47  61
ATOM     61  C   UNL A   1      39.876  33.410  36.584  1.00  0.00     0.064 A 
ATOM     62  C   UNL A   1      38.957  33.069  37.588  1.00  0.00     0.173 A 
ATOM     63  C   UNL A   1      40.542  34.639  36.694  1.00  0.00     0.173 A 
ATOM     64  F   UNL A   1      38.289  31.907  37.527  1.00  0.00    -0.203 F 
ATOM     65  C   UNL A   1      38.700  33.934  38.649  1.00  0.00     0.198 A 
ATOM     66  C   UNL A   1      40.303  35.489  37.771  1.00  0.00     0.198 A 
ATOM     67  F   UNL A   1      41.437  35.009  35.766  1.00  0.00    -0.203 F 
ATOM     68  F   UNL A   1      37.790  33.604  39.576  1.00  0.00    -0.200 F 
ATOM     69  C   UNL A   1      39.374  35.142  38.741  1.00  0.00     0.200 A 
ATOM     70  F   UNL A   1      40.972  36.647  37.870  1.00  0.00    -0.200 F 
ATOM     71  F   UNL A   1      39.129  35.972  39.763  1.00  0.00    -0.200 F 
ENDBRANCH  47  61
BRANCH  48  72
ATOM     72  C   UNL A   1      40.965  27.848  28.358  1.00  0.00     0.064 A 
ATOM     73  C   UNL A   1      40.361  26.587  28.235  1.00  0.00     0.173 A 
ATOM     74  C   UNL A   1      41.765  28.293  27.298  1.00  0.00     0.173 A 
ATOM     75  F   UNL A   1      39.590  26.113  29.226  1.00  0.00    -0.203 F 
ATOM     76  C   UNL A   1      40.570  25.796  27.109  1.00  0.00     0.198 A 
ATOM     77  C   UNL A   1      41.951  27.512  26.158  1.00  0.00     0.198 A 
ATOM     78  F   UNL A   1      42.350  29.499  27.360  1.00  0.00    -0.203 F 
ATOM     79  F   UNL A   1      40.011  24.579  27.034  1.00  0.00    -0.200 F 
ATOM     80  C   UNL A   1      41.360  26.261  26.068  1.00  0.00     0.200 A 
ATOM     81  F   UNL A   1      42.695  27.976  25.145  1.00  0.00    -0.200 F 
ATOM     82  F   UNL A   1      41.552  25.504  24.980  1.00  0.00    -0.200 F 
ENDBRANCH  48  72
BRANCH  60  83
ATOM     83  C   UNL A   1      44.215  28.048  34.535  1.00  0.00     0.064 A 
ATOM     84  C   UNL A   1      43.984  26.857  35.239  1.00  0.00     0.173 A 
ATOM     85  C   UNL A   1      45.534  28.514  34.447  1.00  0.00     0.173 A 
ATOM     86  F   UNL A   1      42.739  26.372  35.361  1.00  0.00    -0.203 F 
ATOM     87  C   UNL A   1      45.031  26.169  35.846  1.00  0.00     0.198 A 
ATOM     88  C   UNL A   1      46.583  27.807  35.028  1.00  0.00     0.198 A 
ATOM     89  F   UNL A   1      45.808  29.642  33.773  1.00  0.00    -0.203 F 
ATOM     90  F   UNL A   1      44.782  25.052  36.544  1.00  0.00    -0.200 F 
ATOM     91  C   UNL A   1      46.330  26.642  35.735  1.00  0.00     0.200 A 
ATOM     92  F   UNL A   1      47.841  28.250  34.897  1.00  0.00    -0.200 F 
ATOM     93  F   UNL A   1      47.340  25.971  36.307  1.00  0.00    -0.200 F 
ENDBRANCH  60  83
ENDBRANCH  34  35
ENDBRANCH  26  29
ENDBRANCH  24  25
ENDBRANCH   1  24
TORSDOF 12
ENDMDL
MODEL 3
REMARK VINA RESULT:     -12.4      0.428      7.533
REMARK SMILES C[C@@H]1OCC[C@@H]1C(=O)Nc1ccc(C(=O)NCCCNC(=O)c2ccc(-c3c4nc(c(-c5c(F)c(F)c(F)c(F)c5F)c5ccc([nH]5)c(-c5c(F)c(F)c(F)c(F)c5F)c5nc(c(-c6c(F)c(F)c(F)c(F)c6F)c6ccc3[nH]6)C=C5)C=C4)cc2)cc1F
REMARK SMILES IDX 18 1 17 2 16 3 14 4 15 5 13 7 10 8 11 9 87 10 12 11 86 12
REMARK SMILES IDX 88 13 9 14 7 15 8 16 6 18 1 19 2 20 3 21 4 22 5 23 19 24
REMARK SMILES IDX 20 25 21 26 22 28 23 29 24 30 85 31 25 32 84 33 26 34 27 35
REMARK SMILES IDX 28 36 78 37 29 38 83 39 77 40 79 41 30 42 82 43 76 44 75 45
REMARK SMILES IDX 31 47 63 48 43 49 62 50 44 51 47 52 61 53 80 54 45 55 46 56
REMARK SMILES IDX 60 58 81 59 48 60 32 61 33 62 41 63 34 64 35 65 39 66 42 67
REMARK SMILES IDX 36 68 37 69 40 70 38 71 64 72 65 73 73 74 66 75 67 76 71 77
REMARK SMILES IDX 74 78 68 79 69 80 72 81 70 82 49 83 50 84 58 85 51 86 52 87
REMARK SMILES IDX 56 88 59 89 53 90 54 91 57 92 55 93
REMARK H PARENT 16 6 9 17 20 27 79 46 47 57
REMARK Flexibility Score: inf
ROOT
ATOM      1  C   UNL A   1      31.399  32.219  26.685  1.00  0.00     0.042 C 
ENDROOT
BRANCH   1   2
ATOM      2  C   UNL A   1      31.584  30.800  26.124  1.00  0.00     0.118 C 
BRANCH   2   3
ATOM      3  N   UNL A   1      31.530  29.786  27.177  1.00  0.00    -0.352 N 
ATOM      4  C   UNL A   1      31.743  28.421  27.198  1.00  0.00     0.251 C 
ATOM      5  O   UNL A   1      31.678  27.840  28.280  1.00  0.00    -0.269 OA
ATOM      6  H   UNL A   1      31.288  30.154  28.058  1.00  0.00     0.163 HD
BRANCH   4   7
ATOM      7  C   UNL A   1      32.105  27.637  25.986  1.00  0.00     0.042 A 
ATOM      8  C   UNL A   1      32.786  25.842  23.878  1.00  0.00     0.077 A 
ATOM      9  C   UNL A   1      31.493  26.381  23.977  1.00  0.00     0.030 A 
ATOM     10  C   UNL A   1      33.663  26.209  24.882  1.00  0.00     0.147 A 
ATOM     11  C   UNL A   1      31.139  27.227  25.057  1.00  0.00     0.016 A 
ATOM     12  C   UNL A   1      33.392  27.214  25.780  1.00  0.00     0.055 A 
ATOM     13  F   UNL A   1      34.779  25.552  25.180  1.00  0.00    -0.205 F 
BRANCH   8  14
ATOM     14  N   UNL A   1      33.099  25.040  22.756  1.00  0.00    -0.323 N 
ATOM     15  C   UNL A   1      33.225  23.686  22.548  1.00  0.00     0.230 C 
ATOM     16  O   UNL A   1      33.638  23.327  21.441  1.00  0.00    -0.274 OA
ATOM     17  H   UNL A   1      33.263  25.567  21.942  1.00  0.00     0.170 HD
BRANCH  15  18
ATOM     18  C   UNL A   1      32.839  22.662  23.593  1.00  0.00     0.110 C 
ATOM     19  C   UNL A   1      35.327  22.289  24.233  1.00  0.00     0.039 C 
ATOM     20  C   UNL A   1      33.876  22.345  24.685  1.00  0.00     0.127 C 
ATOM     21  O   UNL A   1      33.521  21.044  25.210  1.00  0.00    -0.378 OA
ATOM     22  C   UNL A   1      32.422  20.545  24.436  1.00  0.00     0.161 C 
ATOM     23  C   UNL A   1      32.513  21.262  23.104  1.00  0.00     0.044 C 
ENDBRANCH  15  18
ENDBRANCH   8  14
ENDBRANCH   4   7
ENDBRANCH   2   3
ENDBRANCH   1   2
BRANCH   1  24
ATOM     24  C   UNL A   1      32.720  32.902  27.011  1.00  0.00     0.118 C 
BRANCH  24  25
ATOM     25  N   UNL A   1      32.506  34.200  27.629  1.00  0.00    -0.352 N 
ATOM     26  C   UNL A   1      33.083  34.766  28.733  1.00  0.00     0.251 C 
ATOM     27  H   UNL A   1      31.836  34.764  27.179  1.00  0.00     0.163 HD
ATOM     28  O   UNL A   1      32.606  35.803  29.185  1.00  0.00    -0.269 OA
BRANCH  26  29
ATOM     29  C   UNL A   1      34.253  34.149  29.397  1.00  0.00     0.039 A 
ATOM     30  C   UNL A   1      34.013  33.240  30.432  1.00  0.00     0.014 A 
ATOM     31  C   UNL A   1      35.567  34.492  29.068  1.00  0.00     0.014 A 
ATOM     32  C   UNL A   1      35.081  32.655  31.110  1.00  0.00     0.010 A 
ATOM     33  C   UNL A   1      36.636  33.854  29.697  1.00  0.00     0.010 A 
ATOM     34  C   UNL A   1      36.404  32.937  30.731  1.00  0.00    -0.014 A 
BRANCH  34  35
ATOM     35  C   UNL A   1      37.538  32.256  31.404  1.00  0.00     0.031 A 
ATOM     36  C   UNL A   1      38.289  31.149  30.719  1.00  0.00     0.074 A 
ATOM     37  C   UNL A   1      37.876  32.631  32.653  1.00  0.00     0.049 A 
ATOM     38  N   UNL A   1      39.309  30.453  31.154  1.00  0.00    -0.248 NA
ATOM     39  C   UNL A   1      37.824  30.755  29.380  1.00  0.00     0.031 C 
ATOM     40  C   UNL A   1      37.188  33.657  33.438  1.00  0.00     0.029 A 
ATOM     41  N   UNL A   1      38.881  32.198  33.482  1.00  0.00    -0.354 N 
ATOM     42  C   UNL A   1      39.601  29.540  30.150  1.00  0.00     0.074 A 
ATOM     43  C   UNL A   1      38.621  29.734  29.103  1.00  0.00     0.031 C 
ATOM     44  C   UNL A   1      37.812  33.801  34.616  1.00  0.00     0.029 A 
ATOM     45  C   UNL A   1      38.920  32.853  34.688  1.00  0.00     0.049 A 
ATOM     46  H   UNL A   1      39.514  31.485  33.235  1.00  0.00     0.167 HD
ATOM     47  C   UNL A   1      40.612  28.640  30.099  1.00  0.00     0.037 A 
ATOM     48  C   UNL A   1      39.754  32.709  35.734  1.00  0.00     0.037 A 
ATOM     49  C   UNL A   1      41.600  28.473  31.133  1.00  0.00     0.049 A 
ATOM     50  C   UNL A   1      40.871  31.707  35.648  1.00  0.00     0.074 A 
ATOM     51  C   UNL A   1      42.703  27.635  31.142  1.00  0.00     0.029 A 
ATOM     52  N   UNL A   1      41.605  29.152  32.343  1.00  0.00    -0.354 N 
ATOM     53  N   UNL A   1      41.180  30.899  34.663  1.00  0.00    -0.248 NA
ATOM     54  C   UNL A   1      41.759  31.600  36.813  1.00  0.00     0.031 C 
ATOM     55  C   UNL A   1      43.343  27.768  32.376  1.00  0.00     0.029 A 
ATOM     56  C   UNL A   1      42.674  28.731  33.116  1.00  0.00     0.049 A 
ATOM     57  H   UNL A   1      40.946  29.833  32.611  1.00  0.00     0.167 HD
ATOM     58  C   UNL A   1      42.302  30.197  35.082  1.00  0.00     0.074 A 
ATOM     59  C   UNL A   1      42.636  30.694  36.401  1.00  0.00     0.031 C 
ATOM     60  C   UNL A   1      42.989  29.226  34.432  1.00  0.00     0.037 A 
BRANCH  47  61
ATOM     61  C   UNL A   1      40.720  27.767  28.882  1.00  0.00     0.064 A 
ATOM     62  C   UNL A   1      41.525  28.152  27.799  1.00  0.00     0.173 A 
ATOM     63  C   UNL A   1      39.957  26.598  28.748  1.00  0.00     0.173 A 
ATOM     64  F   UNL A   1      42.270  29.265  27.873  1.00  0.00    -0.203 F 
ATOM     65  C   UNL A   1      41.548  27.408  26.622  1.00  0.00     0.198 A 
ATOM     66  C   UNL A   1      40.004  25.841  27.580  1.00  0.00     0.198 A 
ATOM     67  F   UNL A   1      39.178  26.180  29.757  1.00  0.00    -0.203 F 
ATOM     68  F   UNL A   1      42.295  27.817  25.587  1.00  0.00    -0.200 F 
ATOM     69  C   UNL A   1      40.790  26.252  26.514  1.00  0.00     0.200 A 
ATOM     70  F   UNL A   1      39.288  24.712  27.486  1.00  0.00    -0.200 F 
ATOM     71  F   UNL A   1      40.815  25.535  25.383  1.00  0.00    -0.200 F 
ENDBRANCH  47  61
BRANCH  48  72
ATOM     72  C   UNL A   1      39.576  33.566  36.935  1.00  0.00     0.064 A 
ATOM     73  C   UNL A   1      38.764  33.161  38.005  1.00  0.00     0.173 A 
ATOM     74  C   UNL A   1      40.184  34.825  37.018  1.00  0.00     0.173 A 
ATOM     75  F   UNL A   1      38.154  31.967  37.970  1.00  0.00    -0.203 F 
ATOM     76  C   UNL A   1      38.549  33.993  39.101  1.00  0.00     0.198 A 
ATOM     77  C   UNL A   1      39.992  35.646  38.129  1.00  0.00     0.198 A 
ATOM     78  F   UNL A   1      40.984  35.250  36.029  1.00  0.00    -0.203 F 
ATOM     79  F   UNL A   1      37.738  33.597  40.092  1.00  0.00    -0.200 F 
ATOM     80  C   UNL A   1      39.168  35.233  39.165  1.00  0.00     0.200 A 
ATOM     81  F   UNL A   1      40.611  36.832  38.197  1.00  0.00    -0.200 F 
ATOM     82  F   UNL A   1      38.970  36.029  40.224  1.00  0.00    -0.200 F 
ENDBRANCH  48  72
BRANCH  60  83
ATOM     83  C   UNL A   1      44.175  28.630  35.134  1.00  0.00     0.064 A 
ATOM     84  C   UNL A   1      45.458  29.171  34.952  1.00  0.00     0.173 A 
ATOM     85  C   UNL A   1      44.052  27.486  35.934  1.00  0.00     0.173 A 
ATOM     86  F   UNL A   1      45.631  30.261  34.189  1.00  0.00    -0.203 F 
ATOM     87  C   UNL A   1      46.574  28.578  35.534  1.00  0.00     0.198 A 
ATOM     88  C   UNL A   1      45.167  26.913  36.540  1.00  0.00     0.198 A 
ATOM     89  F   UNL A   1      42.846  26.938  36.149  1.00  0.00    -0.203 F 
ATOM     90  F   UNL A   1      47.794  29.091  35.318  1.00  0.00    -0.200 F 
ATOM     91  C   UNL A   1      46.427  27.453  36.333  1.00  0.00     0.200 A 
ATOM     92  F   UNL A   1      45.021  25.843  37.333  1.00  0.00    -0.200 F 
ATOM     93  F   UNL A   1      47.501  26.892  36.905  1.00  0.00    -0.200 F 
ENDBRANCH  60  83
ENDBRANCH  34  35
ENDBRANCH  26  29
ENDBRANCH  24  25
ENDBRANCH   1  24
TORSDOF 12
ENDMDL
