MODEL 1
REMARK VINA RESULT:     -13.9      0.000      0.000
REMARK SMILES O=C(NCCCNC(=O)c1cccc(NC(=O)c2ccc(N3C(=O)CCC3=O)cc2)c1)c1ccc(-c2c3nc(c(-c4c(F)c(F)c(F)c(F)c4F)c4ccc([nH]4)c(-c4c(F)c(F)c(F)c(F)c4F)c4nc(c(-c5c(F)c(F)c(F)c(F)c5F)c5ccc2[nH]5)C=C4)C=C3)cc1
REMARK SMILES IDX 5 1 4 2 3 3 1 4 2 5 32 7 33 8 94 9 34 10 93 11 35 12 36 13
REMARK SMILES IDX 37 14 87 15 38 16 92 17 86 18 88 19 39 20 91 21 85 22 84 23
REMARK SMILES IDX 40 25 72 26 52 27 71 28 53 29 56 30 70 31 89 32 54 33 55 34
REMARK SMILES IDX 69 36 90 37 57 38 41 39 42 40 50 41 43 42 44 43 48 44 51 45
REMARK SMILES IDX 45 46 46 47 49 48 47 49 73 50 74 51 82 52 75 53 76 54 80 55
REMARK SMILES IDX 83 56 77 57 78 58 81 59 79 60 58 61 59 62 67 63 60 64 61 65
REMARK SMILES IDX 65 66 68 67 62 68 63 69 66 70 64 71 6 72 7 73 8 74 9 76
REMARK SMILES IDX 10 77 11 78 31 79 12 80 14 81 13 82 15 83 16 84 17 86 18 87
REMARK SMILES IDX 19 88 30 89 20 90 29 91 21 92 22 93 23 94 27 95 24 96 25 97
REMARK SMILES IDX 26 98 28 99
REMARK H PARENT 3 6 88 24 56 35 7 75 15 85
REMARK Flexibility Score: inf
ROOT
ATOM      1  C   UNL A   1      31.028  32.006  26.446  1.00  0.00     0.042 C 
ENDROOT
BRANCH   1   2
ATOM      2  C   UNL A   1      32.366  32.538  26.929  1.00  0.00     0.118 C 
BRANCH   2   3
ATOM      3  N   UNL A   1      32.292  33.911  27.414  1.00  0.00    -0.352 N 
ATOM      4  O   UNL A   1      32.706  35.664  28.770  1.00  0.00    -0.269 OA
ATOM      5  C   UNL A   1      33.033  34.548  28.379  1.00  0.00     0.251 C 
ATOM      6  H   UNL A   1      31.603  34.467  26.983  1.00  0.00     0.163 HD
BRANCH   5   7
ATOM      7  C   UNL A   1      34.212  33.877  28.965  1.00  0.00     0.039 A 
ATOM      8  C   UNL A   1      34.057  32.742  29.761  1.00  0.00     0.014 A 
ATOM      9  C   UNL A   1      35.488  34.388  28.715  1.00  0.00     0.014 A 
ATOM     10  C   UNL A   1      35.145  32.231  30.453  1.00  0.00     0.010 A 
ATOM     11  C   UNL A   1      36.601  33.796  29.317  1.00  0.00     0.010 A 
ATOM     12  C   UNL A   1      36.435  32.734  30.220  1.00  0.00    -0.014 A 
BRANCH  12  13
ATOM     13  C   UNL A   1      37.594  32.078  30.876  1.00  0.00     0.031 A 
ATOM     14  C   UNL A   1      38.031  32.467  32.259  1.00  0.00     0.074 A 
ATOM     15  C   UNL A   1      38.238  31.101  30.208  1.00  0.00     0.049 A 
ATOM     16  N   UNL A   1      39.024  31.995  32.972  1.00  0.00    -0.248 NA
ATOM     17  C   UNL A   1      37.264  33.526  32.930  1.00  0.00     0.031 C 
ATOM     18  C   UNL A   1      37.905  30.646  28.857  1.00  0.00     0.029 A 
ATOM     19  N   UNL A   1      39.293  30.307  30.574  1.00  0.00    -0.354 N 
ATOM     20  C   UNL A   1      39.012  32.708  34.163  1.00  0.00     0.074 A 
ATOM     21  C   UNL A   1      37.933  33.668  34.067  1.00  0.00     0.031 C 
ATOM     22  C   UNL A   1      38.704  29.624  28.525  1.00  0.00     0.029 A 
ATOM     23  C   UNL A   1      39.658  29.405  29.604  1.00  0.00     0.049 A 
ATOM     24  H   UNL A   1      39.744  30.375  31.445  1.00  0.00     0.167 HD
ATOM     25  C   UNL A   1      39.826  32.567  35.238  1.00  0.00     0.037 A 
ATOM     26  C   UNL A   1      40.669  28.517  29.573  1.00  0.00     0.037 A 
ATOM     27  C   UNL A   1      40.894  31.603  35.323  1.00  0.00     0.049 A 
ATOM     28  C   UNL A   1      41.581  28.418  30.759  1.00  0.00     0.074 A 
ATOM     29  C   UNL A   1      41.753  31.358  36.380  1.00  0.00     0.029 A 
ATOM     30  N   UNL A   1      41.258  30.730  34.307  1.00  0.00    -0.354 N 
ATOM     31  N   UNL A   1      41.538  29.071  31.895  1.00  0.00    -0.248 NA
ATOM     32  C   UNL A   1      42.686  27.457  30.661  1.00  0.00     0.031 C 
ATOM     33  C   UNL A   1      42.675  30.383  35.982  1.00  0.00     0.029 A 
ATOM     34  C   UNL A   1      42.348  29.968  34.701  1.00  0.00     0.049 A 
ATOM     35  H   UNL A   1      40.808  30.662  33.433  1.00  0.00     0.167 HD
ATOM     36  C   UNL A   1      42.592  28.587  32.654  1.00  0.00     0.074 A 
ATOM     37  C   UNL A   1      43.244  27.567  31.858  1.00  0.00     0.031 C 
ATOM     38  C   UNL A   1      42.985  28.954  33.899  1.00  0.00     0.037 A 
BRANCH  25  39
ATOM     39  C   UNL A   1      39.612  33.492  36.404  1.00  0.00     0.064 A 
ATOM     40  C   UNL A   1      40.170  34.778  36.443  1.00  0.00     0.173 A 
ATOM     41  C   UNL A   1      38.795  33.102  37.478  1.00  0.00     0.173 A 
ATOM     42  F   UNL A   1      40.966  35.201  35.449  1.00  0.00    -0.203 F 
ATOM     43  C   UNL A   1      39.943  35.628  37.524  1.00  0.00     0.198 A 
ATOM     44  C   UNL A   1      38.543  33.965  38.541  1.00  0.00     0.198 A 
ATOM     45  F   UNL A   1      38.228  31.886  37.490  1.00  0.00    -0.203 F 
ATOM     46  F   UNL A   1      40.527  36.833  37.562  1.00  0.00    -0.200 F 
ATOM     47  C   UNL A   1      39.124  35.224  38.568  1.00  0.00     0.200 A 
ATOM     48  F   UNL A   1      37.737  33.579  39.541  1.00  0.00    -0.200 F 
ATOM     49  F   UNL A   1      38.898  36.046  39.603  1.00  0.00    -0.200 F 
ENDBRANCH  25  39
BRANCH  26  50
ATOM     50  C   UNL A   1      40.871  27.672  28.368  1.00  0.00     0.064 A 
ATOM     51  C   UNL A   1      41.683  28.103  27.311  1.00  0.00     0.173 A 
ATOM     52  C   UNL A   1      40.264  26.412  28.252  1.00  0.00     0.173 A 
ATOM     53  F   UNL A   1      42.273  29.306  27.366  1.00  0.00    -0.203 F 
ATOM     54  C   UNL A   1      41.862  27.316  26.175  1.00  0.00     0.198 A 
ATOM     55  C   UNL A   1      40.472  25.611  27.133  1.00  0.00     0.198 A 
ATOM     56  F   UNL A   1      39.484  25.948  29.241  1.00  0.00    -0.203 F 
ATOM     57  F   UNL A   1      42.604  27.773  25.157  1.00  0.00    -0.200 F 
ATOM     58  C   UNL A   1      41.262  26.068  26.090  1.00  0.00     0.200 A 
ATOM     59  F   UNL A   1      39.909  24.398  27.066  1.00  0.00    -0.200 F 
ATOM     60  F   UNL A   1      41.442  25.309  25.001  1.00  0.00    -0.200 F 
ENDBRANCH  26  50
BRANCH  38  61
ATOM     61  C   UNL A   1      44.153  28.218  34.492  1.00  0.00     0.064 A 
ATOM     62  C   UNL A   1      43.989  27.018  35.201  1.00  0.00     0.173 A 
ATOM     63  C   UNL A   1      45.457  28.709  34.324  1.00  0.00     0.173 A 
ATOM     64  F   UNL A   1      42.762  26.516  35.405  1.00  0.00    -0.203 F 
ATOM     65  C   UNL A   1      45.085  26.356  35.747  1.00  0.00     0.198 A 
ATOM     66  C   UNL A   1      46.553  28.023  34.840  1.00  0.00     0.198 A 
ATOM     67  F   UNL A   1      45.670  29.848  33.649  1.00  0.00    -0.203 F 
ATOM     68  F   UNL A   1      44.898  25.243  36.472  1.00  0.00    -0.200 F 
ATOM     69  C   UNL A   1      46.366  26.854  35.559  1.00  0.00     0.200 A 
ATOM     70  F   UNL A   1      47.791  28.498  34.644  1.00  0.00    -0.200 F 
ATOM     71  F   UNL A   1      47.419  26.210  36.079  1.00  0.00    -0.200 F 
ENDBRANCH  38  61
ENDBRANCH  12  13
ENDBRANCH   5   7
ENDBRANCH   2   3
ENDBRANCH   1   2
BRANCH   1  72
ATOM     72  C   UNL A   1      31.142  30.840  25.478  1.00  0.00     0.118 C 
BRANCH  72  73
ATOM     73  N   UNL A   1      32.321  30.030  25.740  1.00  0.00    -0.352 N 
ATOM     74  C   UNL A   1      32.471  28.673  25.830  1.00  0.00     0.251 C 
ATOM     75  H   UNL A   1      33.150  30.545  25.878  1.00  0.00     0.163 HD
ATOM     76  O   UNL A   1      33.490  28.218  26.343  1.00  0.00    -0.269 OA
BRANCH  74  77
ATOM     77  C   UNL A   1      31.441  27.751  25.308  1.00  0.00     0.041 A 
ATOM     78  C   UNL A   1      31.042  27.894  23.978  1.00  0.00     0.014 A 
ATOM     79  C   UNL A   1      30.806  26.816  26.135  1.00  0.00     0.040 A 
ATOM     80  C   UNL A   1      30.004  27.111  23.490  1.00  0.00     0.003 A 
ATOM     81  C   UNL A   1      29.833  25.952  25.625  1.00  0.00     0.042 A 
ATOM     82  C   UNL A   1      29.395  26.162  24.317  1.00  0.00     0.026 A 
BRANCH  81  83
ATOM     83  N   UNL A   1      29.388  24.934  26.495  1.00  0.00    -0.322 N 
ATOM     84  C   UNL A   1      29.909  23.718  26.872  1.00  0.00     0.255 C 
ATOM     85  H   UNL A   1      28.522  25.136  26.919  1.00  0.00     0.170 HD
ATOM     86  O   UNL A   1      29.280  22.981  27.627  1.00  0.00    -0.269 OA
BRANCH  84  87
ATOM     87  C   UNL A   1      31.218  23.268  26.387  1.00  0.00     0.040 A 
ATOM     88  C   UNL A   1      31.261  22.578  25.179  1.00  0.00     0.016 A 
ATOM     89  C   UNL A   1      32.395  23.602  27.061  1.00  0.00     0.016 A 
ATOM     90  C   UNL A   1      32.496  22.333  24.578  1.00  0.00     0.027 A 
ATOM     91  C   UNL A   1      33.629  23.337  26.457  1.00  0.00     0.027 A 
ATOM     92  C   UNL A   1      33.697  22.746  25.183  1.00  0.00     0.052 A 
BRANCH  92  93
ATOM     93  N   UNL A   1      34.934  22.602  24.493  1.00  0.00    -0.251 N 
ATOM     94  C   UNL A   1      35.972  21.801  24.903  1.00  0.00     0.234 C 
ATOM     95  C   UNL A   1      35.260  23.316  23.360  1.00  0.00     0.234 C 
ATOM     96  O   UNL A   1      36.042  21.076  25.889  1.00  0.00    -0.274 OA
ATOM     97  C   UNL A   1      37.072  21.867  23.887  1.00  0.00     0.111 C 
ATOM     98  C   UNL A   1      36.648  22.952  22.931  1.00  0.00     0.111 C 
ATOM     99  O   UNL A   1      34.616  24.185  22.789  1.00  0.00    -0.274 OA
ENDBRANCH  92  93
ENDBRANCH  84  87
ENDBRANCH  81  83
ENDBRANCH  74  77
ENDBRANCH  72  73
ENDBRANCH   1  72
TORSDOF 13
ENDMDL
MODEL 2
REMARK VINA RESULT:     -13.9      0.156      1.742
REMARK SMILES O=C(NCCCNC(=O)c1cccc(NC(=O)c2ccc(N3C(=O)CCC3=O)cc2)c1)c1ccc(-c2c3nc(c(-c4c(F)c(F)c(F)c(F)c4F)c4ccc([nH]4)c(-c4c(F)c(F)c(F)c(F)c4F)c4nc(c(-c5c(F)c(F)c(F)c(F)c5F)c5ccc2[nH]5)C=C4)C=C3)cc1
REMARK SMILES IDX 5 1 4 2 3 3 1 4 2 5 32 7 33 8 94 9 34 10 93 11 35 12 36 13
REMARK SMILES IDX 37 14 87 15 38 16 92 17 86 18 88 19 39 20 91 21 85 22 84 23
REMARK SMILES IDX 40 25 72 26 52 27 71 28 53 29 56 30 70 31 89 32 54 33 55 34
REMARK SMILES IDX 69 36 90 37 57 38 41 39 42 40 50 41 43 42 44 43 48 44 51 45
REMARK SMILES IDX 45 46 46 47 49 48 47 49 73 50 74 51 82 52 75 53 76 54 80 55
REMARK SMILES IDX 83 56 77 57 78 58 81 59 79 60 58 61 59 62 67 63 60 64 61 65
REMARK SMILES IDX 65 66 68 67 62 68 63 69 66 70 64 71 6 72 7 73 8 74 9 76
REMARK SMILES IDX 10 77 11 78 31 79 12 80 14 81 13 82 15 83 16 84 17 86 18 87
REMARK SMILES IDX 19 88 30 89 20 90 29 91 21 92 22 93 23 94 27 95 24 96 25 97
REMARK SMILES IDX 26 98 28 99
REMARK H PARENT 3 6 88 24 56 35 7 75 15 85
REMARK Flexibility Score: inf
ROOT
ATOM      1  C   UNL A   1      31.050  31.963  26.487  1.00  0.00     0.042 C 
ENDROOT
BRANCH   1   2
ATOM      2  C   UNL A   1      32.387  32.457  27.012  1.00  0.00     0.118 C 
BRANCH   2   3
ATOM      3  N   UNL A   1      32.349  33.848  27.446  1.00  0.00    -0.352 N 
ATOM      4  O   UNL A   1      32.827  35.642  28.727  1.00  0.00    -0.269 OA
ATOM      5  C   UNL A   1      33.124  34.506  28.371  1.00  0.00     0.251 C 
ATOM      6  H   UNL A   1      31.662  34.402  27.009  1.00  0.00     0.163 HD
BRANCH   5   7
ATOM      7  C   UNL A   1      34.301  33.834  28.958  1.00  0.00     0.039 A 
ATOM      8  C   UNL A   1      34.143  32.727  29.792  1.00  0.00     0.014 A 
ATOM      9  C   UNL A   1      35.581  34.314  28.667  1.00  0.00     0.014 A 
ATOM     10  C   UNL A   1      35.235  32.220  30.481  1.00  0.00     0.010 A 
ATOM     11  C   UNL A   1      36.695  33.722  29.268  1.00  0.00     0.010 A 
ATOM     12  C   UNL A   1      36.528  32.693  30.207  1.00  0.00    -0.014 A 
BRANCH  12  13
ATOM     13  C   UNL A   1      37.688  32.039  30.863  1.00  0.00     0.031 A 
ATOM     14  C   UNL A   1      38.103  32.401  32.261  1.00  0.00     0.074 A 
ATOM     15  C   UNL A   1      38.355  31.086  30.182  1.00  0.00     0.049 A 
ATOM     16  N   UNL A   1      39.093  31.926  32.975  1.00  0.00    -0.248 NA
ATOM     17  C   UNL A   1      37.312  33.434  32.945  1.00  0.00     0.031 C 
ATOM     18  C   UNL A   1      38.044  30.657  28.816  1.00  0.00     0.029 A 
ATOM     19  N   UNL A   1      39.416  30.298  30.542  1.00  0.00    -0.354 N 
ATOM     20  C   UNL A   1      39.056  32.612  34.181  1.00  0.00     0.074 A 
ATOM     21  C   UNL A   1      37.964  33.559  34.094  1.00  0.00     0.031 C 
ATOM     22  C   UNL A   1      38.862  29.654  28.472  1.00  0.00     0.029 A 
ATOM     23  C   UNL A   1      39.806  29.424  29.557  1.00  0.00     0.049 A 
ATOM     24  H   UNL A   1      39.855  30.352  31.421  1.00  0.00     0.167 HD
ATOM     25  C   UNL A   1      39.858  32.457  35.264  1.00  0.00     0.037 A 
ATOM     26  C   UNL A   1      40.829  28.552  29.519  1.00  0.00     0.037 A 
ATOM     27  C   UNL A   1      40.939  31.507  35.341  1.00  0.00     0.049 A 
ATOM     28  C   UNL A   1      41.728  28.437  30.714  1.00  0.00     0.074 A 
ATOM     29  C   UNL A   1      41.788  31.249  36.403  1.00  0.00     0.029 A 
ATOM     30  N   UNL A   1      41.327  30.662  34.309  1.00  0.00    -0.354 N 
ATOM     31  N   UNL A   1      41.662  29.064  31.863  1.00  0.00    -0.248 NA
ATOM     32  C   UNL A   1      42.848  27.494  30.608  1.00  0.00     0.031 C 
ATOM     33  C   UNL A   1      42.728  30.297  35.994  1.00  0.00     0.029 A 
ATOM     34  C   UNL A   1      42.424  29.907  34.700  1.00  0.00     0.049 A 
ATOM     35  H   UNL A   1      40.890  30.608  33.429  1.00  0.00     0.167 HD
ATOM     36  C   UNL A   1      42.712  28.576  32.625  1.00  0.00     0.074 A 
ATOM     37  C   UNL A   1      43.389  27.585  31.815  1.00  0.00     0.031 C 
ATOM     38  C   UNL A   1      43.085  28.921  33.883  1.00  0.00     0.037 A 
BRANCH  25  39
ATOM     39  C   UNL A   1      39.617  33.352  36.448  1.00  0.00     0.064 A 
ATOM     40  C   UNL A   1      40.251  34.597  36.579  1.00  0.00     0.173 A 
ATOM     41  C   UNL A   1      38.698  32.979  37.443  1.00  0.00     0.173 A 
ATOM     42  F   UNL A   1      41.143  35.001  35.663  1.00  0.00    -0.203 F 
ATOM     43  C   UNL A   1      39.997  35.420  37.675  1.00  0.00     0.198 A 
ATOM     44  C   UNL A   1      38.423  33.818  38.519  1.00  0.00     0.198 A 
ATOM     45  F   UNL A   1      38.057  31.804  37.365  1.00  0.00    -0.203 F 
ATOM     46  F   UNL A   1      40.652  36.582  37.803  1.00  0.00    -0.200 F 
ATOM     47  C   UNL A   1      39.078  35.034  38.639  1.00  0.00     0.200 A 
ATOM     48  F   UNL A   1      37.522  33.451  39.441  1.00  0.00    -0.200 F 
ATOM     49  F   UNL A   1      38.828  35.832  39.687  1.00  0.00    -0.200 F 
ENDBRANCH  25  39
BRANCH  26  50
ATOM     50  C   UNL A   1      41.059  27.737  28.298  1.00  0.00     0.064 A 
ATOM     51  C   UNL A   1      40.485  26.466  28.159  1.00  0.00     0.173 A 
ATOM     52  C   UNL A   1      41.847  28.215  27.241  1.00  0.00     0.173 A 
ATOM     53  F   UNL A   1      39.736  25.957  29.148  1.00  0.00    -0.203 F 
ATOM     54  C   UNL A   1      40.711  25.696  27.019  1.00  0.00     0.198 A 
ATOM     55  C   UNL A   1      42.043  27.461  26.087  1.00  0.00     0.198 A 
ATOM     56  F   UNL A   1      42.411  29.430  27.319  1.00  0.00    -0.203 F 
ATOM     57  F   UNL A   1      40.192  24.464  26.934  1.00  0.00    -0.200 F 
ATOM     58  C   UNL A   1      41.484  26.197  25.982  1.00  0.00     0.200 A 
ATOM     59  F   UNL A   1      42.772  27.958  25.079  1.00  0.00    -0.200 F 
ATOM     60  F   UNL A   1      41.693  25.459  24.883  1.00  0.00    -0.200 F 
ENDBRANCH  26  50
BRANCH  38  61
ATOM     61  C   UNL A   1      44.255  28.187  34.474  1.00  0.00     0.064 A 
ATOM     62  C   UNL A   1      45.564  28.685  34.382  1.00  0.00     0.173 A 
ATOM     63  C   UNL A   1      44.058  26.982  35.165  1.00  0.00     0.173 A 
ATOM     64  F   UNL A   1      45.808  29.824  33.717  1.00  0.00    -0.203 F 
ATOM     65  C   UNL A   1      46.635  27.986  34.932  1.00  0.00     0.198 A 
ATOM     66  C   UNL A   1      45.127  26.305  35.745  1.00  0.00     0.198 A 
ATOM     67  F   UNL A   1      42.827  26.465  35.287  1.00  0.00    -0.203 F 
ATOM     68  F   UNL A   1      47.883  28.450  34.780  1.00  0.00    -0.200 F 
ATOM     69  C   UNL A   1      46.415  26.801  35.619  1.00  0.00     0.200 A 
ATOM     70  F   UNL A   1      44.910  25.169  36.423  1.00  0.00    -0.200 F 
ATOM     71  F   UNL A   1      47.446  26.135  36.155  1.00  0.00    -0.200 F 
ENDBRANCH  38  61
ENDBRANCH  12  13
ENDBRANCH   5   7
ENDBRANCH   2   3
ENDBRANCH   1   2
BRANCH   1  72
ATOM     72  C   UNL A   1      31.162  30.814  25.499  1.00  0.00     0.118 C 
BRANCH  72  73
ATOM     73  N   UNL A   1      32.343  30.001  25.745  1.00  0.00    -0.352 N 
ATOM     74  C   UNL A   1      32.491  28.644  25.828  1.00  0.00     0.251 C 
ATOM     75  H   UNL A   1      33.174  30.514  25.875  1.00  0.00     0.163 HD
ATOM     76  O   UNL A   1      33.515  28.185  26.328  1.00  0.00    -0.269 OA
BRANCH  74  77
ATOM     77  C   UNL A   1      31.453  27.726  25.316  1.00  0.00     0.041 A 
ATOM     78  C   UNL A   1      31.040  27.872  23.990  1.00  0.00     0.014 A 
ATOM     79  C   UNL A   1      30.824  26.790  26.147  1.00  0.00     0.040 A 
ATOM     80  C   UNL A   1      29.994  27.093  23.512  1.00  0.00     0.003 A 
ATOM     81  C   UNL A   1      29.843  25.930  25.646  1.00  0.00     0.042 A 
ATOM     82  C   UNL A   1      29.392  26.144  24.343  1.00  0.00     0.026 A 
BRANCH  81  83
ATOM     83  N   UNL A   1      29.405  24.911  26.518  1.00  0.00    -0.322 N 
ATOM     84  C   UNL A   1      29.941  23.706  26.909  1.00  0.00     0.255 C 
ATOM     85  H   UNL A   1      28.532  25.103  26.933  1.00  0.00     0.170 HD
ATOM     86  O   UNL A   1      29.315  22.965  27.663  1.00  0.00    -0.269 OA
BRANCH  84  87
ATOM     87  C   UNL A   1      31.261  23.272  26.440  1.00  0.00     0.040 A 
ATOM     88  C   UNL A   1      31.322  22.540  25.257  1.00  0.00     0.016 A 
ATOM     89  C   UNL A   1      32.429  23.660  27.100  1.00  0.00     0.016 A 
ATOM     90  C   UNL A   1      32.563  22.306  24.665  1.00  0.00     0.027 A 
ATOM     91  C   UNL A   1      33.669  23.405  26.505  1.00  0.00     0.027 A 
ATOM     92  C   UNL A   1      33.752  22.770  25.253  1.00  0.00     0.052 A 
BRANCH  92  93
ATOM     93  N   UNL A   1      34.993  22.633  24.568  1.00  0.00    -0.251 N 
ATOM     94  C   UNL A   1      35.338  23.316  23.427  1.00  0.00     0.234 C 
ATOM     95  C   UNL A   1      35.970  21.735  24.938  1.00  0.00     0.234 C 
ATOM     96  O   UNL A   1      34.690  24.146  22.800  1.00  0.00    -0.274 OA
ATOM     97  C   UNL A   1      36.740  22.950  23.044  1.00  0.00     0.111 C 
ATOM     98  C   UNL A   1      37.112  21.824  23.974  1.00  0.00     0.111 C 
ATOM     99  O   UNL A   1      35.948  20.904  25.836  1.00  0.00    -0.274 OA
ENDBRANCH  92  93
ENDBRANCH  84  87
ENDBRANCH  81  83
ENDBRANCH  74  77
ENDBRANCH  72  73
ENDBRANCH   1  72
TORSDOF 13
ENDMDL
MODEL 3
REMARK VINA RESULT:     -13.6      0.870      7.273
REMARK SMILES O=C(NCCCNC(=O)c1cccc(NC(=O)c2ccc(N3C(=O)CCC3=O)cc2)c1)c1ccc(-c2c3nc(c(-c4c(F)c(F)c(F)c(F)c4F)c4ccc([nH]4)c(-c4c(F)c(F)c(F)c(F)c4F)c4nc(c(-c5c(F)c(F)c(F)c(F)c5F)c5ccc2[nH]5)C=C4)C=C3)cc1
REMARK SMILES IDX 5 1 4 2 3 3 1 4 2 5 32 7 33 8 94 9 34 10 93 11 35 12 36 13
REMARK SMILES IDX 37 14 87 15 38 16 92 17 86 18 88 19 39 20 91 21 85 22 84 23
REMARK SMILES IDX 40 25 72 26 52 27 71 28 53 29 56 30 70 31 89 32 54 33 55 34
REMARK SMILES IDX 69 36 90 37 57 38 41 39 42 40 50 41 43 42 44 43 48 44 51 45
REMARK SMILES IDX 45 46 46 47 49 48 47 49 73 50 74 51 82 52 75 53 76 54 80 55
REMARK SMILES IDX 83 56 77 57 78 58 81 59 79 60 58 61 59 62 67 63 60 64 61 65
REMARK SMILES IDX 65 66 68 67 62 68 63 69 66 70 64 71 6 72 7 73 8 74 9 76
REMARK SMILES IDX 10 77 11 78 31 79 12 80 14 81 13 82 15 83 16 84 17 86 18 87
REMARK SMILES IDX 19 88 30 89 20 90 29 91 21 92 22 93 23 94 27 95 24 96 25 97
REMARK SMILES IDX 26 98 28 99
REMARK H PARENT 3 6 88 24 56 35 7 75 15 85
REMARK Flexibility Score: inf
ROOT
ATOM      1  C   UNL A   1      31.280  32.267  26.524  1.00  0.00     0.042 C 
ENDROOT
BRANCH   1   2
ATOM      2  C   UNL A   1      32.534  32.828  27.171  1.00  0.00     0.118 C 
BRANCH   2   3
ATOM      3  N   UNL A   1      32.382  34.212  27.603  1.00  0.00    -0.352 N 
ATOM      4  O   UNL A   1      32.635  36.017  28.930  1.00  0.00    -0.269 OA
ATOM      5  C   UNL A   1      33.025  34.901  28.603  1.00  0.00     0.251 C 
ATOM      6  H   UNL A   1      31.715  34.734  27.100  1.00  0.00     0.163 HD
BRANCH   5   7
ATOM      7  C   UNL A   1      34.170  34.285  29.303  1.00  0.00     0.039 A 
ATOM      8  C   UNL A   1      35.478  34.559  28.900  1.00  0.00     0.014 A 
ATOM      9  C   UNL A   1      33.935  33.423  30.378  1.00  0.00     0.014 A 
ATOM     10  C   UNL A   1      36.532  33.838  29.441  1.00  0.00     0.010 A 
ATOM     11  C   UNL A   1      35.011  32.788  31.004  1.00  0.00     0.010 A 
ATOM     12  C   UNL A   1      36.315  32.963  30.517  1.00  0.00    -0.014 A 
BRANCH  12  13
ATOM     13  C   UNL A   1      37.483  32.308  31.159  1.00  0.00     0.031 A 
ATOM     14  C   UNL A   1      38.241  31.211  30.468  1.00  0.00     0.074 A 
ATOM     15  C   UNL A   1      37.867  32.737  32.377  1.00  0.00     0.049 A 
ATOM     16  N   UNL A   1      39.279  30.534  30.891  1.00  0.00    -0.248 NA
ATOM     17  C   UNL A   1      37.772  30.814  29.132  1.00  0.00     0.031 C 
ATOM     18  C   UNL A   1      37.202  33.792  33.146  1.00  0.00     0.029 A 
ATOM     19  N   UNL A   1      38.913  32.355  33.176  1.00  0.00    -0.354 N 
ATOM     20  C   UNL A   1      39.576  29.622  29.887  1.00  0.00     0.074 A 
ATOM     21  C   UNL A   1      38.590  29.810  28.844  1.00  0.00     0.031 C 
ATOM     22  C   UNL A   1      37.880  34.005  34.280  1.00  0.00     0.029 A 
ATOM     23  C   UNL A   1      38.978  33.051  34.359  1.00  0.00     0.049 A 
ATOM     24  H   UNL A   1      39.555  31.653  32.928  1.00  0.00     0.167 HD
ATOM     25  C   UNL A   1      40.585  28.717  29.842  1.00  0.00     0.037 A 
ATOM     26  C   UNL A   1      39.812  32.918  35.406  1.00  0.00     0.037 A 
ATOM     27  C   UNL A   1      41.564  28.544  30.886  1.00  0.00     0.049 A 
ATOM     28  C   UNL A   1      40.889  31.875  35.346  1.00  0.00     0.074 A 
ATOM     29  C   UNL A   1      42.644  27.679  30.921  1.00  0.00     0.029 A 
ATOM     30  N   UNL A   1      41.577  29.242  32.085  1.00  0.00    -0.354 N 
ATOM     31  N   UNL A   1      41.183  31.044  34.376  1.00  0.00    -0.248 NA
ATOM     32  C   UNL A   1      41.750  31.750  36.527  1.00  0.00     0.031 C 
ATOM     33  C   UNL A   1      43.272  27.809  32.164  1.00  0.00     0.029 A 
ATOM     34  C   UNL A   1      42.626  28.805  32.879  1.00  0.00     0.049 A 
ATOM     35  H   UNL A   1      40.934  29.945  32.336  1.00  0.00     0.167 HD
ATOM     36  C   UNL A   1      42.276  30.314  34.818  1.00  0.00     0.074 A 
ATOM     37  C   UNL A   1      42.606  30.816  36.136  1.00  0.00     0.031 C 
ATOM     38  C   UNL A   1      42.945  29.316  34.189  1.00  0.00     0.037 A 
BRANCH  25  39
ATOM     39  C   UNL A   1      40.671  27.824  28.635  1.00  0.00     0.064 A 
ATOM     40  C   UNL A   1      39.956  26.620  28.551  1.00  0.00     0.173 A 
ATOM     41  C   UNL A   1      41.442  28.205  27.525  1.00  0.00     0.173 A 
ATOM     42  F   UNL A   1      39.209  26.203  29.584  1.00  0.00    -0.203 F 
ATOM     43  C   UNL A   1      40.033  25.817  27.414  1.00  0.00     0.198 A 
ATOM     44  C   UNL A   1      41.492  27.416  26.378  1.00  0.00     0.198 A 
ATOM     45  F   UNL A   1      42.140  29.350  27.546  1.00  0.00    -0.203 F 
ATOM     46  F   UNL A   1      39.380  24.648  27.377  1.00  0.00    -0.200 F 
ATOM     47  C   UNL A   1      40.794  26.219  26.327  1.00  0.00     0.200 A 
ATOM     48  F   UNL A   1      42.214  27.815  25.322  1.00  0.00    -0.200 F 
ATOM     49  F   UNL A   1      40.860  25.450  25.230  1.00  0.00    -0.200 F 
ENDBRANCH  25  39
BRANCH  26  50
ATOM     50  C   UNL A   1      39.642  33.786  36.600  1.00  0.00     0.064 A 
ATOM     51  C   UNL A   1      38.847  33.381  37.680  1.00  0.00     0.173 A 
ATOM     52  C   UNL A   1      40.277  35.034  36.689  1.00  0.00     0.173 A 
ATOM     53  F   UNL A   1      38.205  32.204  37.637  1.00  0.00    -0.203 F 
ATOM     54  C   UNL A   1      38.676  34.201  38.794  1.00  0.00     0.198 A 
ATOM     55  C   UNL A   1      40.135  35.837  37.818  1.00  0.00     0.198 A 
ATOM     56  F   UNL A   1      41.057  35.464  35.686  1.00  0.00    -0.203 F 
ATOM     57  F   UNL A   1      37.870  33.812  39.791  1.00  0.00    -0.200 F 
ATOM     58  C   UNL A   1      39.326  35.425  38.865  1.00  0.00     0.200 A 
ATOM     59  F   UNL A   1      40.783  37.007  37.890  1.00  0.00    -0.200 F 
ATOM     60  F   UNL A   1      39.167  36.208  39.940  1.00  0.00    -0.200 F 
ENDBRANCH  26  50
BRANCH  38  61
ATOM     61  C   UNL A   1      44.128  28.730  34.905  1.00  0.00     0.064 A 
ATOM     62  C   UNL A   1      44.008  27.608  35.739  1.00  0.00     0.173 A 
ATOM     63  C   UNL A   1      45.406  29.285  34.731  1.00  0.00     0.173 A 
ATOM     64  F   UNL A   1      42.806  27.051  35.953  1.00  0.00    -0.203 F 
ATOM     65  C   UNL A   1      45.117  27.085  36.398  1.00  0.00     0.198 A 
ATOM     66  C   UNL A   1      46.518  28.735  35.363  1.00  0.00     0.198 A 
ATOM     67  F   UNL A   1      45.578  30.354  33.940  1.00  0.00    -0.203 F 
ATOM     68  F   UNL A   1      44.968  26.050  37.237  1.00  0.00    -0.200 F 
ATOM     69  C   UNL A   1      46.371  27.643  36.203  1.00  0.00     0.200 A 
ATOM     70  F   UNL A   1      47.731  29.266  35.160  1.00  0.00    -0.200 F 
ATOM     71  F   UNL A   1      47.439  27.132  36.831  1.00  0.00    -0.200 F 
ENDBRANCH  38  61
ENDBRANCH  12  13
ENDBRANCH   5   7
ENDBRANCH   2   3
ENDBRANCH   1   2
BRANCH   1  72
ATOM     72  C   UNL A   1      31.413  30.822  26.072  1.00  0.00     0.118 C 
BRANCH  72  73
ATOM     73  N   UNL A   1      32.621  30.200  26.592  1.00  0.00    -0.352 N 
ATOM     74  C   UNL A   1      32.983  28.883  26.676  1.00  0.00     0.251 C 
ATOM     75  H   UNL A   1      33.290  30.833  26.943  1.00  0.00     0.163 HD
ATOM     76  O   UNL A   1      33.915  28.567  27.409  1.00  0.00    -0.269 OA
BRANCH  74  77
ATOM     77  C   UNL A   1      32.284  27.844  25.892  1.00  0.00     0.041 A 
ATOM     78  C   UNL A   1      32.465  27.830  24.507  1.00  0.00     0.014 A 
ATOM     79  C   UNL A   1      31.390  26.948  26.491  1.00  0.00     0.040 A 
ATOM     80  C   UNL A   1      31.742  26.931  23.735  1.00  0.00     0.003 A 
ATOM     81  C   UNL A   1      30.736  25.972  25.735  1.00  0.00     0.042 A 
ATOM     82  C   UNL A   1      30.871  26.025  24.347  1.00  0.00     0.026 A 
BRANCH  81  83
ATOM     83  N   UNL A   1      29.999  25.012  26.460  1.00  0.00    -0.322 N 
ATOM     84  C   UNL A   1      30.259  23.719  26.851  1.00  0.00     0.255 C 
ATOM     85  H   UNL A   1      29.114  25.336  26.746  1.00  0.00     0.170 HD
ATOM     86  O   UNL A   1      29.404  23.069  27.449  1.00  0.00    -0.269 OA
BRANCH  84  87
ATOM     87  C   UNL A   1      31.549  23.083  26.566  1.00  0.00     0.040 A 
ATOM     88  C   UNL A   1      31.842  22.774  25.240  1.00  0.00     0.016 A 
ATOM     89  C   UNL A   1      32.495  22.878  27.573  1.00  0.00     0.016 A 
ATOM     90  C   UNL A   1      33.137  22.379  24.904  1.00  0.00     0.027 A 
ATOM     91  C   UNL A   1      33.786  22.465  27.226  1.00  0.00     0.027 A 
ATOM     92  C   UNL A   1      34.141  22.260  25.881  1.00  0.00     0.052 A 
BRANCH  92  93
ATOM     93  N   UNL A   1      35.484  21.982  25.499  1.00  0.00    -0.251 N 
ATOM     94  C   UNL A   1      35.937  20.762  25.057  1.00  0.00     0.234 C 
ATOM     95  C   UNL A   1      36.509  22.898  25.601  1.00  0.00     0.234 C 
ATOM     96  O   UNL A   1      35.313  19.720  24.900  1.00  0.00    -0.274 OA
ATOM     97  C   UNL A   1      37.387  20.882  24.695  1.00  0.00     0.111 C 
ATOM     98  C   UNL A   1      37.789  22.257  25.162  1.00  0.00     0.111 C 
ATOM     99  O   UNL A   1      36.479  24.036  26.050  1.00  0.00    -0.274 OA
ENDBRANCH  92  93
ENDBRANCH  84  87
ENDBRANCH  81  83
ENDBRANCH  74  77
ENDBRANCH  72  73
ENDBRANCH   1  72
TORSDOF 13
ENDMDL
