MODEL 1
REMARK VINA RESULT:     -11.5      0.000      0.000
REMARK SMILES CCN1CC(=O)N(C[C@@H]([NH3+])C(=O)NCCCNC(=O)c2ccc(-c3c4nc(c(-c5c(F)c(F)c(F)c(F)c5F)c5ccc([nH]5)c(-c5c(F)c(F)c(F)c(F)c5F)c5nc(c(-c6c(F)c(F)c(F)c(F)c6F)c6ccc3[nH]6)C=C5)C=C4)cc2)CC1=O
REMARK SMILES IDX 14 1 13 2 11 3 12 4 9 6 8 7 7 8 3 9 4 10 84 11 5 12 83 13
REMARK SMILES IDX 85 14 6 15 2 16 1 17 10 18 15 22 16 23 17 24 18 25 19 27
REMARK SMILES IDX 20 28 21 29 82 30 22 31 81 32 23 33 24 34 25 35 75 36 26 37
REMARK SMILES IDX 80 38 74 39 76 40 27 41 79 42 73 43 72 44 28 46 60 47 40 48
REMARK SMILES IDX 59 49 41 50 44 51 58 52 77 53 42 54 43 55 57 57 78 58 45 59
REMARK SMILES IDX 29 60 30 61 38 62 31 63 32 64 36 65 39 66 33 67 34 68 37 69
REMARK SMILES IDX 35 70 61 71 62 72 70 73 63 74 64 75 68 76 71 77 65 78 66 79
REMARK SMILES IDX 69 80 67 81 46 82 47 83 55 84 48 85 49 86 53 87 56 88 50 89
REMARK SMILES IDX 51 90 54 91 52 92
REMARK H PARENT 13 5 10 19 10 20 10 21 17 26 76 45 44 56
REMARK Flexibility Score: inf
ROOT
ATOM      1  C   UNL A   1      36.525  20.574  25.192  1.00  0.00     0.118 C 
ENDROOT
BRANCH   1   2
ATOM      2  N   UNL A   1      35.340  19.760  24.971  1.00  0.00    -0.351 N 
ATOM      3  C   UNL A   1      34.038  19.981  25.315  1.00  0.00     0.280 C 
ATOM      4  O   UNL A   1      33.212  19.121  24.998  1.00  0.00    -0.268 OA
ATOM      5  H   UNL A   1      35.504  18.914  24.496  1.00  0.00     0.163 HD
BRANCH   3   6
ATOM      6  C   UNL A   1      33.597  21.275  26.028  1.00  0.00     0.290 C 
BRANCH   6   7
ATOM      7  C   UNL A   1      32.204  21.714  25.523  1.00  0.00     0.195 C 
BRANCH   7   8
ATOM      8  N   UNL A   1      32.054  23.127  25.170  1.00  0.00    -0.325 N 
ATOM      9  N   UNL A   1      32.914  25.712  24.688  1.00  0.00    -0.332 N 
ATOM     10  C   UNL A   1      31.795  25.528  25.622  1.00  0.00     0.219 C 
ATOM     11  C   UNL A   1      33.130  24.773  23.683  1.00  0.00     0.242 C 
ATOM     12  C   UNL A   1      31.725  24.078  26.128  1.00  0.00     0.242 C 
ATOM     13  C   UNL A   1      32.233  23.543  23.781  1.00  0.00     0.220 C 
ATOM     14  O   UNL A   1      33.876  24.956  22.725  1.00  0.00    -0.273 OA
ATOM     15  O   UNL A   1      31.313  23.792  27.249  1.00  0.00    -0.273 OA
BRANCH   9  16
ATOM     16  C   UNL A   1      33.654  26.967  24.684  1.00  0.00     0.116 C 
ATOM     17  C   UNL A   1      33.652  27.675  26.031  1.00  0.00     0.027 C 
ENDBRANCH   9  16
ENDBRANCH   7   8
ENDBRANCH   6   7
BRANCH   6  18
ATOM     18  N   UNL A   1      33.738  21.091  27.497  1.00  0.00    -0.346 N 
ATOM     19  H   UNL A   1      34.594  21.544  27.816  1.00  0.00     0.345 HD
ATOM     20  H   UNL A   1      33.779  20.095  27.712  1.00  0.00     0.345 HD
ATOM     21  H   UNL A   1      32.935  21.509  27.970  1.00  0.00     0.345 HD
ENDBRANCH   6  18
ENDBRANCH   3   6
ENDBRANCH   1   2
BRANCH   1  22
ATOM     22  C   UNL A   1      37.806  19.774  24.966  1.00  0.00     0.042 C 
BRANCH  22  23
ATOM     23  C   UNL A   1      38.983  20.243  25.810  1.00  0.00     0.118 C 
BRANCH  23  24
ATOM     24  N   UNL A   1      40.020  19.228  25.937  1.00  0.00    -0.352 N 
ATOM     25  C   UNL A   1      41.370  19.372  26.125  1.00  0.00     0.251 C 
ATOM     26  H   UNL A   1      39.703  18.298  25.880  1.00  0.00     0.163 HD
ATOM     27  O   UNL A   1      42.110  18.395  26.024  1.00  0.00    -0.269 OA
BRANCH  25  28
ATOM     28  C   UNL A   1      41.946  20.698  26.430  1.00  0.00     0.039 A 
ATOM     29  C   UNL A   1      42.224  21.574  25.377  1.00  0.00     0.014 A 
ATOM     30  C   UNL A   1      42.228  21.073  27.745  1.00  0.00     0.014 A 
ATOM     31  C   UNL A   1      42.728  22.848  25.647  1.00  0.00     0.010 A 
ATOM     32  C   UNL A   1      42.649  22.371  28.020  1.00  0.00     0.010 A 
ATOM     33  C   UNL A   1      42.912  23.269  26.974  1.00  0.00    -0.014 A 
BRANCH  33  34
ATOM     34  C   UNL A   1      43.384  24.639  27.295  1.00  0.00     0.031 A 
ATOM     35  C   UNL A   1      42.423  25.660  27.833  1.00  0.00     0.074 A 
ATOM     36  C   UNL A   1      44.656  24.988  27.020  1.00  0.00     0.049 A 
ATOM     37  N   UNL A   1      42.614  26.933  28.075  1.00  0.00    -0.248 NA
ATOM     38  C   UNL A   1      41.054  25.195  28.100  1.00  0.00     0.031 C 
ATOM     39  C   UNL A   1      45.669  24.101  26.449  1.00  0.00     0.029 A 
ATOM     40  N   UNL A   1      45.304  26.188  27.162  1.00  0.00    -0.354 N 
ATOM     41  C   UNL A   1      41.385  27.421  28.500  1.00  0.00     0.074 A 
ATOM     42  C   UNL A   1      40.446  26.324  28.428  1.00  0.00     0.031 C 
ATOM     43  C   UNL A   1      46.815  24.784  26.299  1.00  0.00     0.029 A 
ATOM     44  C   UNL A   1      46.604  26.166  26.721  1.00  0.00     0.049 A 
ATOM     45  H   UNL A   1      44.878  26.990  27.544  1.00  0.00     0.167 HD
ATOM     46  C   UNL A   1      41.075  28.668  28.931  1.00  0.00     0.037 A 
ATOM     47  C   UNL A   1      47.519  27.151  26.648  1.00  0.00     0.037 A 
ATOM     48  C   UNL A   1      42.021  29.750  29.018  1.00  0.00     0.049 A 
ATOM     49  C   UNL A   1      47.156  28.529  27.130  1.00  0.00     0.074 A 
ATOM     50  C   UNL A   1      41.829  31.028  29.508  1.00  0.00     0.029 A 
ATOM     51  N   UNL A   1      43.341  29.681  28.589  1.00  0.00    -0.354 N 
ATOM     52  N   UNL A   1      46.014  28.964  27.603  1.00  0.00    -0.248 NA
ATOM     53  C   UNL A   1      48.211  29.550  27.075  1.00  0.00     0.031 C 
ATOM     54  C   UNL A   1      43.012  31.752  29.323  1.00  0.00     0.029 A 
ATOM     55  C   UNL A   1      43.964  30.905  28.776  1.00  0.00     0.049 A 
ATOM     56  H   UNL A   1      43.769  28.881  28.209  1.00  0.00     0.167 HD
ATOM     57  C   UNL A   1      46.217  30.299  27.927  1.00  0.00     0.074 A 
ATOM     58  C   UNL A   1      47.597  30.600  27.603  1.00  0.00     0.031 C 
ATOM     59  C   UNL A   1      45.339  31.191  28.449  1.00  0.00     0.037 A 
BRANCH  46  60
ATOM     60  C   UNL A   1      39.647  28.925  29.325  1.00  0.00     0.064 A 
ATOM     61  C   UNL A   1      38.702  29.415  28.409  1.00  0.00     0.173 A 
ATOM     62  C   UNL A   1      39.217  28.683  30.638  1.00  0.00     0.173 A 
ATOM     63  F   UNL A   1      39.059  29.672  27.142  1.00  0.00    -0.203 F 
ATOM     64  C   UNL A   1      37.398  29.701  28.807  1.00  0.00     0.198 A 
ATOM     65  C   UNL A   1      37.903  28.934  31.023  1.00  0.00     0.198 A 
ATOM     66  F   UNL A   1      40.074  28.205  31.554  1.00  0.00    -0.203 F 
ATOM     67  F   UNL A   1      36.536  30.239  27.933  1.00  0.00    -0.200 F 
ATOM     68  C   UNL A   1      36.999  29.457  30.111  1.00  0.00     0.200 A 
ATOM     69  F   UNL A   1      37.514  28.682  32.281  1.00  0.00    -0.200 F 
ATOM     70  F   UNL A   1      35.745  29.736  30.494  1.00  0.00    -0.200 F 
ENDBRANCH  46  60
BRANCH  47  71
ATOM     71  C   UNL A   1      48.871  26.850  26.112  1.00  0.00     0.064 A 
ATOM     72  C   UNL A   1      49.869  26.311  26.936  1.00  0.00     0.173 A 
ATOM     73  C   UNL A   1      49.178  27.050  24.758  1.00  0.00     0.173 A 
ATOM     74  F   UNL A   1      49.628  26.119  28.241  1.00  0.00    -0.203 F 
ATOM     75  C   UNL A   1      51.126  25.990  26.426  1.00  0.00     0.198 A 
ATOM     76  C   UNL A   1      50.426  26.704  24.244  1.00  0.00     0.198 A 
ATOM     77  F   UNL A   1      48.254  27.556  23.928  1.00  0.00    -0.203 F 
ATOM     78  F   UNL A   1      52.072  25.503  27.240  1.00  0.00    -0.200 F 
ATOM     79  C   UNL A   1      51.400  26.177  25.079  1.00  0.00     0.200 A 
ATOM     80  F   UNL A   1      50.680  26.870  22.939  1.00  0.00    -0.200 F 
ATOM     81  F   UNL A   1      52.602  25.852  24.586  1.00  0.00    -0.200 F 
ENDBRANCH  47  71
BRANCH  59  82
ATOM     82  C   UNL A   1      45.848  32.575  28.737  1.00  0.00     0.064 A 
ATOM     83  C   UNL A   1      46.471  32.895  29.953  1.00  0.00     0.173 A 
ATOM     84  C   UNL A   1      45.762  33.579  27.759  1.00  0.00     0.173 A 
ATOM     85  F   UNL A   1      46.565  31.977  30.926  1.00  0.00    -0.203 F 
ATOM     86  C   UNL A   1      46.972  34.174  30.184  1.00  0.00     0.198 A 
ATOM     87  C   UNL A   1      46.292  34.846  27.983  1.00  0.00     0.198 A 
ATOM     88  F   UNL A   1      45.180  33.323  26.578  1.00  0.00    -0.203 F 
ATOM     89  F   UNL A   1      47.525  34.469  31.369  1.00  0.00    -0.200 F 
ATOM     90  C   UNL A   1      46.891  35.145  29.197  1.00  0.00     0.200 A 
ATOM     91  F   UNL A   1      46.226  35.777  27.021  1.00  0.00    -0.200 F 
ATOM     92  F   UNL A   1      47.386  36.370  29.417  1.00  0.00    -0.200 F 
ENDBRANCH  59  82
ENDBRANCH  33  34
ENDBRANCH  25  28
ENDBRANCH  23  24
ENDBRANCH  22  23
ENDBRANCH   1  22
TORSDOF 14
ENDMDL
MODEL 2
REMARK VINA RESULT:     -11.5      5.615     11.189
REMARK SMILES CCN1CC(=O)N(C[C@@H]([NH3+])C(=O)NCCCNC(=O)c2ccc(-c3c4nc(c(-c5c(F)c(F)c(F)c(F)c5F)c5ccc([nH]5)c(-c5c(F)c(F)c(F)c(F)c5F)c5nc(c(-c6c(F)c(F)c(F)c(F)c6F)c6ccc3[nH]6)C=C5)C=C4)cc2)CC1=O
REMARK SMILES IDX 14 1 13 2 11 3 12 4 9 6 8 7 7 8 3 9 4 10 84 11 5 12 83 13
REMARK SMILES IDX 85 14 6 15 2 16 1 17 10 18 15 22 16 23 17 24 18 25 19 27
REMARK SMILES IDX 20 28 21 29 82 30 22 31 81 32 23 33 24 34 25 35 75 36 26 37
REMARK SMILES IDX 80 38 74 39 76 40 27 41 79 42 73 43 72 44 28 46 60 47 40 48
REMARK SMILES IDX 59 49 41 50 44 51 58 52 77 53 42 54 43 55 57 57 78 58 45 59
REMARK SMILES IDX 29 60 30 61 38 62 31 63 32 64 36 65 39 66 33 67 34 68 37 69
REMARK SMILES IDX 35 70 61 71 62 72 70 73 63 74 64 75 68 76 71 77 65 78 66 79
REMARK SMILES IDX 69 80 67 81 46 82 47 83 55 84 48 85 49 86 53 87 56 88 50 89
REMARK SMILES IDX 51 90 54 91 52 92
REMARK H PARENT 13 5 10 19 10 20 10 21 17 26 76 45 44 56
REMARK Flexibility Score: inf
ROOT
ATOM      1  C   UNL A   1      31.648  30.581  25.972  1.00  0.00     0.118 C 
ENDROOT
BRANCH   1   2
ATOM      2  N   UNL A   1      30.853  30.351  24.776  1.00  0.00    -0.351 N 
ATOM      3  C   UNL A   1      31.057  29.501  23.728  1.00  0.00     0.280 C 
ATOM      4  O   UNL A   1      30.213  29.494  22.827  1.00  0.00    -0.268 OA
ATOM      5  H   UNL A   1      30.036  30.896  24.712  1.00  0.00     0.163 HD
BRANCH   3   6
ATOM      6  C   UNL A   1      32.266  28.545  23.683  1.00  0.00     0.290 C 
BRANCH   6   7
ATOM      7  C   UNL A   1      32.017  27.416  22.658  1.00  0.00     0.195 C 
BRANCH   7   8
ATOM      8  N   UNL A   1      32.333  26.056  23.095  1.00  0.00    -0.325 N 
ATOM      9  N   UNL A   1      33.665  24.122  24.558  1.00  0.00    -0.332 N 
ATOM     10  C   UNL A   1      33.590  23.946  23.102  1.00  0.00     0.219 C 
ATOM     11  C   UNL A   1      32.669  24.840  25.213  1.00  0.00     0.242 C 
ATOM     12  C   UNL A   1      33.239  25.266  22.398  1.00  0.00     0.242 C 
ATOM     13  C   UNL A   1      31.668  25.509  24.277  1.00  0.00     0.220 C 
ATOM     14  O   UNL A   1      32.515  24.840  26.432  1.00  0.00    -0.273 OA
ATOM     15  O   UNL A   1      33.646  25.541  21.273  1.00  0.00    -0.273 OA
BRANCH   9  16
ATOM     16  C   UNL A   1      34.653  23.377  25.328  1.00  0.00     0.116 C 
ATOM     17  C   UNL A   1      36.001  24.077  25.424  1.00  0.00     0.027 C 
ENDBRANCH   9  16
ENDBRANCH   7   8
ENDBRANCH   6   7
BRANCH   6  18
ATOM     18  N   UNL A   1      33.508  29.342  23.497  1.00  0.00    -0.346 N 
ATOM     19  H   UNL A   1      34.248  28.740  23.136  1.00  0.00     0.345 HD
ATOM     20  H   UNL A   1      33.795  29.736  24.392  1.00  0.00     0.345 HD
ATOM     21  H   UNL A   1      33.330  30.097  22.834  1.00  0.00     0.345 HD
ENDBRANCH   6  18
ENDBRANCH   3   6
ENDBRANCH   1   2
BRANCH   1  22
ATOM     22  C   UNL A   1      31.405  31.973  26.549  1.00  0.00     0.042 C 
BRANCH  22  23
ATOM     23  C   UNL A   1      32.623  32.579  27.232  1.00  0.00     0.118 C 
BRANCH  23  24
ATOM     24  N   UNL A   1      32.429  33.979  27.583  1.00  0.00    -0.352 N 
ATOM     25  C   UNL A   1      33.051  34.738  28.541  1.00  0.00     0.251 C 
ATOM     26  H   UNL A   1      31.748  34.453  27.052  1.00  0.00     0.163 HD
ATOM     27  O   UNL A   1      32.619  35.858  28.810  1.00  0.00    -0.269 OA
BRANCH  25  28
ATOM     28  C   UNL A   1      34.226  34.213  29.265  1.00  0.00     0.039 A 
ATOM     29  C   UNL A   1      34.027  33.493  30.446  1.00  0.00     0.014 A 
ATOM     30  C   UNL A   1      35.521  34.442  28.795  1.00  0.00     0.014 A 
ATOM     31  C   UNL A   1      35.122  32.950  31.122  1.00  0.00     0.010 A 
ATOM     32  C   UNL A   1      36.603  33.830  29.420  1.00  0.00     0.010 A 
ATOM     33  C   UNL A   1      36.417  33.085  30.595  1.00  0.00    -0.014 A 
BRANCH  33  34
ATOM     34  C   UNL A   1      37.592  32.466  31.256  1.00  0.00     0.031 A 
ATOM     35  C   UNL A   1      38.297  31.309  30.609  1.00  0.00     0.074 A 
ATOM     36  C   UNL A   1      37.969  32.887  32.479  1.00  0.00     0.049 A 
ATOM     37  N   UNL A   1      39.271  30.566  31.070  1.00  0.00    -0.248 NA
ATOM     38  C   UNL A   1      37.817  30.912  29.276  1.00  0.00     0.031 C 
ATOM     39  C   UNL A   1      37.332  33.967  33.233  1.00  0.00     0.029 A 
ATOM     40  N   UNL A   1      38.965  32.440  33.311  1.00  0.00    -0.354 N 
ATOM     41  C   UNL A   1      39.503  29.603  30.097  1.00  0.00     0.074 A 
ATOM     42  C   UNL A   1      38.532  29.821  29.047  1.00  0.00     0.031 C 
ATOM     43  C   UNL A   1      37.958  34.106  34.412  1.00  0.00     0.029 A 
ATOM     44  C   UNL A   1      39.011  33.099  34.514  1.00  0.00     0.049 A 
ATOM     45  H   UNL A   1      39.588  31.717  33.068  1.00  0.00     0.167 HD
ATOM     46  C   UNL A   1      40.454  28.638  30.072  1.00  0.00     0.037 A 
ATOM     47  C   UNL A   1      39.800  32.902  35.588  1.00  0.00     0.037 A 
ATOM     48  C   UNL A   1      41.429  28.440  31.113  1.00  0.00     0.049 A 
ATOM     49  C   UNL A   1      40.849  31.825  35.543  1.00  0.00     0.074 A 
ATOM     50  C   UNL A   1      42.479  27.542  31.153  1.00  0.00     0.029 A 
ATOM     51  N   UNL A   1      41.464  29.149  32.307  1.00  0.00    -0.354 N 
ATOM     52  N   UNL A   1      41.112  30.970  34.586  1.00  0.00    -0.248 NA
ATOM     53  C   UNL A   1      41.714  31.693  36.723  1.00  0.00     0.031 C 
ATOM     54  C   UNL A   1      43.113  27.663  32.394  1.00  0.00     0.029 A 
ATOM     55  C   UNL A   1      42.499  28.684  33.103  1.00  0.00     0.049 A 
ATOM     56  H   UNL A   1      40.845  29.873  32.552  1.00  0.00     0.167 HD
ATOM     57  C   UNL A   1      42.188  30.214  35.034  1.00  0.00     0.074 A 
ATOM     58  C   UNL A   1      42.534  30.720  36.346  1.00  0.00     0.031 C 
ATOM     59  C   UNL A   1      42.832  29.197  34.410  1.00  0.00     0.037 A 
BRANCH  46  60
ATOM     60  C   UNL A   1      40.469  27.716  28.885  1.00  0.00     0.064 A 
ATOM     61  C   UNL A   1      41.263  27.973  27.755  1.00  0.00     0.173 A 
ATOM     62  C   UNL A   1      39.675  26.559  28.874  1.00  0.00     0.173 A 
ATOM     63  F   UNL A   1      42.036  29.068  27.709  1.00  0.00    -0.203 F 
ATOM     64  C   UNL A   1      41.220  27.137  26.642  1.00  0.00     0.198 A 
ATOM     65  C   UNL A   1      39.664  25.705  27.774  1.00  0.00     0.198 A 
ATOM     66  F   UNL A   1      38.903  26.257  29.929  1.00  0.00    -0.203 F 
ATOM     67  F   UNL A   1      41.930  27.445  25.548  1.00  0.00    -0.200 F 
ATOM     68  C   UNL A   1      40.424  26.003  26.654  1.00  0.00     0.200 A 
ATOM     69  F   UNL A   1      38.905  24.600  27.793  1.00  0.00    -0.200 F 
ATOM     70  F   UNL A   1      40.381  25.201  25.581  1.00  0.00    -0.200 F 
ENDBRANCH  46  60
BRANCH  47  71
ATOM     71  C   UNL A   1      39.629  33.767  36.784  1.00  0.00     0.064 A 
ATOM     72  C   UNL A   1      40.250  35.021  36.861  1.00  0.00     0.173 A 
ATOM     73  C   UNL A   1      38.806  33.378  37.851  1.00  0.00     0.173 A 
ATOM     74  F   UNL A   1      41.061  35.428  35.874  1.00  0.00    -0.203 F 
ATOM     75  C   UNL A   1      40.059  35.850  37.965  1.00  0.00     0.198 A 
ATOM     76  C   UNL A   1      38.594  34.220  38.941  1.00  0.00     0.198 A 
ATOM     77  F   UNL A   1      38.182  32.190  37.820  1.00  0.00    -0.203 F 
ATOM     78  F   UNL A   1      40.687  37.032  38.027  1.00  0.00    -0.200 F 
ATOM     79  C   UNL A   1      39.224  35.454  38.998  1.00  0.00     0.200 A 
ATOM     80  F   UNL A   1      37.772  33.840  39.928  1.00  0.00    -0.200 F 
ATOM     81  F   UNL A   1      39.026  36.259  40.050  1.00  0.00    -0.200 F 
ENDBRANCH  47  71
BRANCH  59  82
ATOM     82  C   UNL A   1      44.002  28.578  35.121  1.00  0.00     0.064 A 
ATOM     83  C   UNL A   1      43.848  27.479  35.979  1.00  0.00     0.173 A 
ATOM     84  C   UNL A   1      45.302  29.056  34.893  1.00  0.00     0.173 A 
ATOM     85  F   UNL A   1      42.627  26.992  36.242  1.00  0.00    -0.203 F 
ATOM     86  C   UNL A   1      44.952  26.895  36.596  1.00  0.00     0.198 A 
ATOM     87  C   UNL A   1      46.405  28.450  35.488  1.00  0.00     0.198 A 
ATOM     88  F   UNL A   1      45.504  30.102  34.077  1.00  0.00    -0.203 F 
ATOM     89  F   UNL A   1      44.778  25.872  37.445  1.00  0.00    -0.200 F 
ATOM     90  C   UNL A   1      46.228  27.374  36.343  1.00  0.00     0.200 A 
ATOM     91  F   UNL A   1      47.638  28.906  35.228  1.00  0.00    -0.200 F 
ATOM     92  F   UNL A   1      47.290  26.801  36.928  1.00  0.00    -0.200 F 
ENDBRANCH  59  82
ENDBRANCH  33  34
ENDBRANCH  25  28
ENDBRANCH  23  24
ENDBRANCH  22  23
ENDBRANCH   1  22
TORSDOF 14
ENDMDL
MODEL 3
REMARK VINA RESULT:     -11.4      4.229     10.146
REMARK SMILES CCN1CC(=O)N(C[C@@H]([NH3+])C(=O)NCCCNC(=O)c2ccc(-c3c4nc(c(-c5c(F)c(F)c(F)c(F)c5F)c5ccc([nH]5)c(-c5c(F)c(F)c(F)c(F)c5F)c5nc(c(-c6c(F)c(F)c(F)c(F)c6F)c6ccc3[nH]6)C=C5)C=C4)cc2)CC1=O
REMARK SMILES IDX 14 1 13 2 11 3 12 4 9 6 8 7 7 8 3 9 4 10 84 11 5 12 83 13
REMARK SMILES IDX 85 14 6 15 2 16 1 17 10 18 15 22 16 23 17 24 18 25 19 27
REMARK SMILES IDX 20 28 21 29 82 30 22 31 81 32 23 33 24 34 25 35 75 36 26 37
REMARK SMILES IDX 80 38 74 39 76 40 27 41 79 42 73 43 72 44 28 46 60 47 40 48
REMARK SMILES IDX 59 49 41 50 44 51 58 52 77 53 42 54 43 55 57 57 78 58 45 59
REMARK SMILES IDX 29 60 30 61 38 62 31 63 32 64 36 65 39 66 33 67 34 68 37 69
REMARK SMILES IDX 35 70 61 71 62 72 70 73 63 74 64 75 68 76 71 77 65 78 66 79
REMARK SMILES IDX 69 80 67 81 46 82 47 83 55 84 48 85 49 86 53 87 56 88 50 89
REMARK SMILES IDX 51 90 54 91 52 92
REMARK H PARENT 13 5 10 19 10 20 10 21 17 26 76 45 44 56
REMARK Flexibility Score: inf
ROOT
ATOM      1  C   UNL A   1      42.468  20.295  27.057  1.00  0.00     0.118 C 
ENDROOT
BRANCH   1   2
ATOM      2  N   UNL A   1      43.117  19.184  26.377  1.00  0.00    -0.351 N 
ATOM      3  C   UNL A   1      43.967  19.176  25.310  1.00  0.00     0.280 C 
ATOM      4  O   UNL A   1      44.389  18.081  24.927  1.00  0.00    -0.268 OA
ATOM      5  H   UNL A   1      42.909  18.296  26.747  1.00  0.00     0.163 HD
BRANCH   3   6
ATOM      6  C   UNL A   1      44.431  20.481  24.633  1.00  0.00     0.290 C 
BRANCH   6   7
ATOM      7  C   UNL A   1      45.646  21.070  25.384  1.00  0.00     0.195 C 
BRANCH   7   8
ATOM      8  N   UNL A   1      45.583  22.495  25.711  1.00  0.00    -0.325 N 
ATOM      9  N   UNL A   1      44.419  25.001  25.854  1.00  0.00    -0.332 N 
ATOM     10  C   UNL A   1      45.756  24.903  25.254  1.00  0.00     0.219 C 
ATOM     11  C   UNL A   1      44.022  24.061  26.801  1.00  0.00     0.242 C 
ATOM     12  C   UNL A   1      46.075  23.458  24.838  1.00  0.00     0.242 C 
ATOM     13  C   UNL A   1      45.009  22.914  26.988  1.00  0.00     0.220 C 
ATOM     14  O   UNL A   1      43.036  24.191  27.523  1.00  0.00    -0.273 OA
ATOM     15  O   UNL A   1      46.790  23.193  23.876  1.00  0.00    -0.273 OA
BRANCH   9  16
ATOM     16  C   UNL A   1      43.604  26.186  25.617  1.00  0.00     0.116 C 
ATOM     17  C   UNL A   1      44.424  27.447  25.385  1.00  0.00     0.027 C 
ENDBRANCH   9  16
ENDBRANCH   7   8
ENDBRANCH   6   7
BRANCH   6  18
ATOM     18  N   UNL A   1      44.611  20.234  23.178  1.00  0.00    -0.346 N 
ATOM     19  H   UNL A   1      45.426  20.748  22.844  1.00  0.00     0.345 HD
ATOM     20  H   UNL A   1      43.781  20.546  22.674  1.00  0.00     0.345 HD
ATOM     21  H   UNL A   1      44.751  19.235  23.018  1.00  0.00     0.345 HD
ENDBRANCH   6  18
ENDBRANCH   3   6
ENDBRANCH   1   2
BRANCH   1  22
ATOM     22  C   UNL A   1      41.082  20.573  26.480  1.00  0.00     0.042 C 
BRANCH  22  23
ATOM     23  C   UNL A   1      40.460  21.873  26.972  1.00  0.00     0.118 C 
BRANCH  23  24
ATOM     24  N   UNL A   1      39.338  22.303  26.149  1.00  0.00    -0.352 N 
ATOM     25  C   UNL A   1      38.669  23.499  26.132  1.00  0.00     0.251 C 
ATOM     26  H   UNL A   1      39.011  21.633  25.506  1.00  0.00     0.163 HD
ATOM     27  O   UNL A   1      37.625  23.609  25.490  1.00  0.00    -0.269 OA
BRANCH  25  28
ATOM     28  C   UNL A   1      39.184  24.655  26.895  1.00  0.00     0.039 A 
ATOM     29  C   UNL A   1      39.963  25.609  26.235  1.00  0.00     0.014 A 
ATOM     30  C   UNL A   1      38.916  24.793  28.259  1.00  0.00     0.014 A 
ATOM     31  C   UNL A   1      40.422  26.732  26.928  1.00  0.00     0.010 A 
ATOM     32  C   UNL A   1      39.300  25.951  28.927  1.00  0.00     0.010 A 
ATOM     33  C   UNL A   1      40.065  26.929  28.271  1.00  0.00    -0.014 A 
BRANCH  33  34
ATOM     34  C   UNL A   1      40.483  28.143  29.015  1.00  0.00     0.031 A 
ATOM     35  C   UNL A   1      41.858  28.222  29.614  1.00  0.00     0.074 A 
ATOM     36  C   UNL A   1      39.596  29.134  29.228  1.00  0.00     0.049 A 
ATOM     37  N   UNL A   1      42.376  29.145  30.385  1.00  0.00    -0.248 NA
ATOM     38  C   UNL A   1      42.760  27.094  29.336  1.00  0.00     0.031 C 
ATOM     39  C   UNL A   1      38.217  29.151  28.742  1.00  0.00     0.029 A 
ATOM     40  N   UNL A   1      39.719  30.308  29.927  1.00  0.00    -0.354 N 
ATOM     41  C   UNL A   1      43.652  28.697  30.701  1.00  0.00     0.074 A 
ATOM     42  C   UNL A   1      43.808  27.397  30.087  1.00  0.00     0.031 C 
ATOM     43  C   UNL A   1      37.622  30.283  29.150  1.00  0.00     0.029 A 
ATOM     44  C   UNL A   1      38.565  31.050  29.960  1.00  0.00     0.049 A 
ATOM     45  H   UNL A   1      40.555  30.592  30.364  1.00  0.00     0.167 HD
ATOM     46  C   UNL A   1      44.613  29.324  31.421  1.00  0.00     0.037 A 
ATOM     47  C   UNL A   1      38.289  32.210  30.586  1.00  0.00     0.037 A 
ATOM     48  C   UNL A   1      44.457  30.626  32.014  1.00  0.00     0.049 A 
ATOM     49  C   UNL A   1      39.368  32.891  31.383  1.00  0.00     0.074 A 
ATOM     50  C   UNL A   1      45.390  31.381  32.700  1.00  0.00     0.029 A 
ATOM     51  N   UNL A   1      43.279  31.363  32.000  1.00  0.00    -0.354 N 
ATOM     52  N   UNL A   1      40.597  32.497  31.612  1.00  0.00    -0.248 NA
ATOM     53  C   UNL A   1      39.024  34.179  32.000  1.00  0.00     0.031 C 
ATOM     54  C   UNL A   1      44.764  32.547  33.153  1.00  0.00     0.029 A 
ATOM     55  C   UNL A   1      43.456  32.550  32.693  1.00  0.00     0.049 A 
ATOM     56  H   UNL A   1      42.444  31.083  31.563  1.00  0.00     0.167 HD
ATOM     57  C   UNL A   1      41.182  33.498  32.377  1.00  0.00     0.074 A 
ATOM     58  C   UNL A   1      40.174  34.521  32.564  1.00  0.00     0.031 C 
ATOM     59  C   UNL A   1      42.443  33.561  32.873  1.00  0.00     0.037 A 
BRANCH  46  60
ATOM     60  C   UNL A   1      45.913  28.593  31.618  1.00  0.00     0.064 A 
ATOM     61  C   UNL A   1      47.001  28.767  30.746  1.00  0.00     0.173 A 
ATOM     62  C   UNL A   1      46.074  27.705  32.691  1.00  0.00     0.173 A 
ATOM     63  F   UNL A   1      46.900  29.599  29.698  1.00  0.00    -0.203 F 
ATOM     64  C   UNL A   1      48.177  28.039  30.911  1.00  0.00     0.198 A 
ATOM     65  C   UNL A   1      47.265  27.007  32.876  1.00  0.00     0.198 A 
ATOM     66  F   UNL A   1      45.072  27.507  33.562  1.00  0.00    -0.203 F 
ATOM     67  F   UNL A   1      49.171  28.166  30.022  1.00  0.00    -0.200 F 
ATOM     68  C   UNL A   1      48.309  27.163  31.978  1.00  0.00     0.200 A 
ATOM     69  F   UNL A   1      47.397  26.173  33.917  1.00  0.00    -0.200 F 
ATOM     70  F   UNL A   1      49.439  26.461  32.133  1.00  0.00    -0.200 F 
ENDBRANCH  46  60
BRANCH  47  71
ATOM     71  C   UNL A   1      36.931  32.800  30.460  1.00  0.00     0.064 A 
ATOM     72  C   UNL A   1      35.969  32.616  31.462  1.00  0.00     0.173 A 
ATOM     73  C   UNL A   1      36.584  33.597  29.359  1.00  0.00     0.173 A 
ATOM     74  F   UNL A   1      36.249  31.847  32.525  1.00  0.00    -0.203 F 
ATOM     75  C   UNL A   1      34.709  33.202  31.365  1.00  0.00     0.198 A 
ATOM     76  C   UNL A   1      35.333  34.205  29.277  1.00  0.00     0.198 A 
ATOM     77  F   UNL A   1      37.473  33.810  28.377  1.00  0.00    -0.203 F 
ATOM     78  F   UNL A   1      33.797  32.987  32.324  1.00  0.00    -0.200 F 
ATOM     79  C   UNL A   1      34.395  34.004  30.278  1.00  0.00     0.200 A 
ATOM     80  F   UNL A   1      35.040  34.993  28.233  1.00  0.00    -0.200 F 
ATOM     81  F   UNL A   1      33.189  34.581  30.194  1.00  0.00    -0.200 F 
ENDBRANCH  47  71
BRANCH  59  82
ATOM     82  C   UNL A   1      42.822  34.795  33.643  1.00  0.00     0.064 A 
ATOM     83  C   UNL A   1      42.764  34.839  35.043  1.00  0.00     0.173 A 
ATOM     84  C   UNL A   1      43.306  35.928  32.969  1.00  0.00     0.173 A 
ATOM     85  F   UNL A   1      42.295  33.790  35.734  1.00  0.00    -0.203 F 
ATOM     86  C   UNL A   1      43.159  35.979  35.739  1.00  0.00     0.198 A 
ATOM     87  C   UNL A   1      43.729  37.053  33.670  1.00  0.00     0.198 A 
ATOM     88  F   UNL A   1      43.386  35.935  31.630  1.00  0.00    -0.203 F 
ATOM     89  F   UNL A   1      43.056  36.015  37.075  1.00  0.00    -0.200 F 
ATOM     90  C   UNL A   1      43.650  37.081  35.054  1.00  0.00     0.200 A 
ATOM     91  F   UNL A   1      44.218  38.109  33.006  1.00  0.00    -0.200 F 
ATOM     92  F   UNL A   1      44.043  38.171  35.727  1.00  0.00    -0.200 F 
ENDBRANCH  59  82
ENDBRANCH  33  34
ENDBRANCH  25  28
ENDBRANCH  23  24
ENDBRANCH  22  23
ENDBRANCH   1  22
TORSDOF 14
ENDMDL
