MODEL 1
REMARK VINA RESULT:     -10.4      0.000      0.000
REMARK SMILES CC(C)(CC(=O)NCCCNC(=O)c1ccc(-c2c3nc(c(-c4c(F)c(F)c(F)c(F)c4F)c4ccc([nH]4)c(-c4c(F)c(F)c(F)c(F)c4F)c4nc(c(-c5c(F)c(F)c(F)c(F)c5F)c5ccc2[nH]5)C=C4)C=C3)cc1)c1c(F)cc(F)cc1F
REMARK SMILES IDX 9 1 8 2 7 3 5 4 6 5 4 7 2 8 1 9 3 10 77 11 78 12 84 13 79 14
REMARK SMILES IDX 80 15 83 16 85 17 81 18 82 19 10 20 11 21 12 22 13 24 14 25
REMARK SMILES IDX 15 26 76 27 16 28 75 29 17 30 18 31 19 32 69 33 20 34 74 35
REMARK SMILES IDX 68 36 70 37 21 38 73 39 67 40 66 41 22 43 54 44 34 45 53 46
REMARK SMILES IDX 35 47 38 48 52 49 71 50 36 51 37 52 51 54 72 55 39 56 23 57
REMARK SMILES IDX 24 58 32 59 25 60 26 61 30 62 33 63 27 64 28 65 31 66 29 67
REMARK SMILES IDX 55 68 56 69 64 70 57 71 58 72 62 73 65 74 59 75 60 76 63 77
REMARK SMILES IDX 61 78 40 79 41 80 49 81 42 82 43 83 47 84 50 85 44 86 45 87
REMARK SMILES IDX 48 88 46 89
REMARK H PARENT 7 6 11 23 70 42 38 53
REMARK Flexibility Score: inf
ROOT
ATOM      1  C   UNL A   1      41.171  20.078  26.888  1.00  0.00     0.042 C 
ENDROOT
BRANCH   1   2
ATOM      2  C   UNL A   1      42.656  20.189  26.548  1.00  0.00     0.117 C 
BRANCH   2   3
ATOM      3  N   UNL A   1      42.880  21.017  25.376  1.00  0.00    -0.356 N 
ATOM      4  C   UNL A   1      43.768  22.016  25.138  1.00  0.00     0.220 C 
ATOM      5  O   UNL A   1      43.709  22.575  24.040  1.00  0.00    -0.275 OA
ATOM      6  H   UNL A   1      42.284  20.818  24.619  1.00  0.00     0.163 HD
BRANCH   4   7
ATOM      7  C   UNL A   1      44.818  22.417  26.159  1.00  0.00     0.111 C 
BRANCH   7   8
ATOM      8  C   UNL A   1      44.510  23.669  27.030  1.00  0.00     0.004 C 
ATOM      9  C   UNL A   1      42.983  23.874  27.167  1.00  0.00     0.017 C 
ATOM     10  C   UNL A   1      44.943  23.329  28.487  1.00  0.00     0.017 C 
BRANCH   8  11
ATOM     11  C   UNL A   1      45.238  24.915  26.486  1.00  0.00     0.030 A 
ATOM     12  C   UNL A   1      44.649  25.778  25.538  1.00  0.00     0.132 A 
ATOM     13  C   UNL A   1      46.569  25.214  26.829  1.00  0.00     0.132 A 
ATOM     14  F   UNL A   1      43.412  25.554  25.075  1.00  0.00    -0.206 F 
ATOM     15  C   UNL A   1      45.318  26.877  25.001  1.00  0.00     0.079 A 
ATOM     16  C   UNL A   1      47.251  26.313  26.306  1.00  0.00     0.079 A 
ATOM     17  F   UNL A   1      47.255  24.431  27.670  1.00  0.00    -0.206 F 
ATOM     18  C   UNL A   1      46.617  27.137  25.395  1.00  0.00     0.129 A 
ATOM     19  F   UNL A   1      47.269  28.186  24.880  1.00  0.00    -0.207 F 
ENDBRANCH   8  11
ENDBRANCH   7   8
ENDBRANCH   4   7
ENDBRANCH   2   3
ENDBRANCH   1   2
BRANCH   1  20
ATOM     20  C   UNL A   1      40.500  21.403  27.223  1.00  0.00     0.118 C 
BRANCH  20  21
ATOM     21  N   UNL A   1      39.403  21.713  26.323  1.00  0.00    -0.352 N 
ATOM     22  C   UNL A   1      38.725  22.891  26.126  1.00  0.00     0.251 C 
ATOM     23  H   UNL A   1      39.098  20.960  25.766  1.00  0.00     0.163 HD
ATOM     24  O   UNL A   1      37.684  22.880  25.468  1.00  0.00    -0.269 OA
BRANCH  22  25
ATOM     25  C   UNL A   1      39.205  24.170  26.702  1.00  0.00     0.039 A 
ATOM     26  C   UNL A   1      38.892  24.464  28.033  1.00  0.00     0.014 A 
ATOM     27  C   UNL A   1      39.894  25.114  25.935  1.00  0.00     0.014 A 
ATOM     28  C   UNL A   1      39.305  25.674  28.604  1.00  0.00     0.010 A 
ATOM     29  C   UNL A   1      40.378  26.282  26.526  1.00  0.00     0.010 A 
ATOM     30  C   UNL A   1      40.072  26.585  27.861  1.00  0.00    -0.014 A 
BRANCH  30  31
ATOM     31  C   UNL A   1      40.518  27.877  28.449  1.00  0.00     0.031 A 
ATOM     32  C   UNL A   1      41.965  28.084  28.806  1.00  0.00     0.074 A 
ATOM     33  C   UNL A   1      39.620  28.847  28.709  1.00  0.00     0.049 A 
ATOM     34  N   UNL A   1      42.539  29.108  29.389  1.00  0.00    -0.248 NA
ATOM     35  C   UNL A   1      42.889  26.984  28.488  1.00  0.00     0.031 C 
ATOM     36  C   UNL A   1      38.182  28.759  28.452  1.00  0.00     0.029 A 
ATOM     37  N   UNL A   1      39.784  30.095  29.257  1.00  0.00    -0.354 N 
ATOM     38  C   UNL A   1      43.876  28.763  29.531  1.00  0.00     0.074 A 
ATOM     39  C   UNL A   1      44.024  27.420  29.014  1.00  0.00     0.031 C 
ATOM     40  C   UNL A   1      37.599  29.912  28.821  1.00  0.00     0.029 A 
ATOM     41  C   UNL A   1      38.615  30.806  29.371  1.00  0.00     0.049 A 
ATOM     42  H   UNL A   1      40.658  30.446  29.542  1.00  0.00     0.167 HD
ATOM     43  C   UNL A   1      44.896  29.505  30.025  1.00  0.00     0.037 A 
ATOM     44  C   UNL A   1      38.387  32.038  29.865  1.00  0.00     0.037 A 
ATOM     45  C   UNL A   1      44.762  30.858  30.498  1.00  0.00     0.049 A 
ATOM     46  C   UNL A   1      39.539  32.851  30.390  1.00  0.00     0.074 A 
ATOM     47  C   UNL A   1      45.749  31.716  30.952  1.00  0.00     0.029 A 
ATOM     48  N   UNL A   1      43.564  31.553  30.571  1.00  0.00    -0.354 N 
ATOM     49  N   UNL A   1      40.808  32.534  30.465  1.00  0.00    -0.248 NA
ATOM     50  C   UNL A   1      39.225  34.195  30.894  1.00  0.00     0.031 C 
ATOM     51  C   UNL A   1      45.143  32.918  31.332  1.00  0.00     0.029 A 
ATOM     52  C   UNL A   1      43.785  32.823  31.078  1.00  0.00     0.049 A 
ATOM     53  H   UNL A   1      42.687  31.196  30.302  1.00  0.00     0.167 HD
ATOM     54  C   UNL A   1      41.447  33.644  30.998  1.00  0.00     0.074 A 
ATOM     55  C   UNL A   1      40.428  34.649  31.218  1.00  0.00     0.031 C 
ATOM     56  C   UNL A   1      42.761  33.815  31.281  1.00  0.00     0.037 A 
BRANCH  43  57
ATOM     57  C   UNL A   1      46.256  28.872  30.072  1.00  0.00     0.064 A 
ATOM     58  C   UNL A   1      47.141  28.952  28.987  1.00  0.00     0.173 A 
ATOM     59  C   UNL A   1      46.691  28.204  31.227  1.00  0.00     0.173 A 
ATOM     60  F   UNL A   1      46.768  29.569  27.855  1.00  0.00    -0.203 F 
ATOM     61  C   UNL A   1      48.401  28.361  29.045  1.00  0.00     0.198 A 
ATOM     62  C   UNL A   1      47.961  27.640  31.292  1.00  0.00     0.198 A 
ATOM     63  F   UNL A   1      45.884  28.105  32.295  1.00  0.00    -0.203 F 
ATOM     64  F   UNL A   1      49.212  28.410  27.980  1.00  0.00    -0.200 F 
ATOM     65  C   UNL A   1      48.812  27.712  30.200  1.00  0.00     0.200 A 
ATOM     66  F   UNL A   1      48.363  27.022  32.412  1.00  0.00    -0.200 F 
ATOM     67  F   UNL A   1      50.028  27.149  30.257  1.00  0.00    -0.200 F 
ENDBRANCH  43  57
BRANCH  44  68
ATOM     68  C   UNL A   1      37.009  32.592  29.860  1.00  0.00     0.064 A 
ATOM     69  C   UNL A   1      36.523  33.294  28.748  1.00  0.00     0.173 A 
ATOM     70  C   UNL A   1      36.151  32.432  30.957  1.00  0.00     0.173 A 
ATOM     71  F   UNL A   1      37.315  33.491  27.683  1.00  0.00    -0.203 F 
ATOM     72  C   UNL A   1      35.237  33.829  28.740  1.00  0.00     0.198 A 
ATOM     73  C   UNL A   1      34.857  32.946  30.939  1.00  0.00     0.198 A 
ATOM     74  F   UNL A   1      36.569  31.766  32.044  1.00  0.00    -0.203 F 
ATOM     75  F   UNL A   1      34.812  34.529  27.680  1.00  0.00    -0.200 F 
ATOM     76  C   UNL A   1      34.403  33.649  29.833  1.00  0.00     0.200 A 
ATOM     77  F   UNL A   1      34.049  32.761  31.992  1.00  0.00    -0.200 F 
ATOM     78  F   UNL A   1      33.164  34.159  29.824  1.00  0.00    -0.200 F 
ENDBRANCH  44  68
BRANCH  56  79
ATOM     79  C   UNL A   1      43.180  35.146  31.831  1.00  0.00     0.064 A 
ATOM     80  C   UNL A   1      43.658  36.168  30.996  1.00  0.00     0.173 A 
ATOM     81  C   UNL A   1      43.062  35.416  33.202  1.00  0.00     0.173 A 
ATOM     82  F   UNL A   1      43.802  35.951  29.680  1.00  0.00    -0.203 F 
ATOM     83  C   UNL A   1      44.022  37.405  31.519  1.00  0.00     0.198 A 
ATOM     84  C   UNL A   1      43.404  36.663  33.718  1.00  0.00     0.198 A 
ATOM     85  F   UNL A   1      42.606  34.475  34.041  1.00  0.00    -0.203 F 
ATOM     86  F   UNL A   1      44.513  38.353  30.710  1.00  0.00    -0.200 F 
ATOM     87  C   UNL A   1      43.889  37.654  32.878  1.00  0.00     0.200 A 
ATOM     88  F   UNL A   1      43.266  36.907  35.028  1.00  0.00    -0.200 F 
ATOM     89  F   UNL A   1      44.235  38.849  33.377  1.00  0.00    -0.200 F 
ENDBRANCH  56  79
ENDBRANCH  30  31
ENDBRANCH  22  25
ENDBRANCH  20  21
ENDBRANCH   1  20
TORSDOF 12
ENDMDL
MODEL 2
REMARK VINA RESULT:     -10.4      3.143     10.726
REMARK SMILES CC(C)(CC(=O)NCCCNC(=O)c1ccc(-c2c3nc(c(-c4c(F)c(F)c(F)c(F)c4F)c4ccc([nH]4)c(-c4c(F)c(F)c(F)c(F)c4F)c4nc(c(-c5c(F)c(F)c(F)c(F)c5F)c5ccc2[nH]5)C=C4)C=C3)cc1)c1c(F)cc(F)cc1F
REMARK SMILES IDX 9 1 8 2 7 3 5 4 6 5 4 7 2 8 1 9 3 10 77 11 78 12 84 13 79 14
REMARK SMILES IDX 80 15 83 16 85 17 81 18 82 19 10 20 11 21 12 22 13 24 14 25
REMARK SMILES IDX 15 26 76 27 16 28 75 29 17 30 18 31 19 32 69 33 20 34 74 35
REMARK SMILES IDX 68 36 70 37 21 38 73 39 67 40 66 41 22 43 54 44 34 45 53 46
REMARK SMILES IDX 35 47 38 48 52 49 71 50 36 51 37 52 51 54 72 55 39 56 23 57
REMARK SMILES IDX 24 58 32 59 25 60 26 61 30 62 33 63 27 64 28 65 31 66 29 67
REMARK SMILES IDX 55 68 56 69 64 70 57 71 58 72 62 73 65 74 59 75 60 76 63 77
REMARK SMILES IDX 61 78 40 79 41 80 49 81 42 82 43 83 47 84 50 85 44 86 45 87
REMARK SMILES IDX 48 88 46 89
REMARK H PARENT 7 6 11 23 70 42 38 53
REMARK Flexibility Score: inf
ROOT
ATOM      1  C   UNL A   1      33.571  33.975  28.303  1.00  0.00     0.042 C 
ENDROOT
BRANCH   1   2
ATOM      2  C   UNL A   1      34.013  34.985  29.361  1.00  0.00     0.117 C 
BRANCH   2   3
ATOM      3  N   UNL A   1      33.442  34.688  30.663  1.00  0.00    -0.356 N 
ATOM      4  C   UNL A   1      34.023  34.420  31.860  1.00  0.00     0.220 C 
ATOM      5  O   UNL A   1      33.275  34.170  32.808  1.00  0.00    -0.275 OA
ATOM      6  H   UNL A   1      32.458  34.682  30.681  1.00  0.00     0.163 HD
BRANCH   4   7
ATOM      7  C   UNL A   1      35.529  34.456  32.046  1.00  0.00     0.111 C 
BRANCH   7   8
ATOM      8  C   UNL A   1      36.301  33.127  31.802  1.00  0.00     0.004 C 
ATOM      9  C   UNL A   1      35.321  31.991  31.425  1.00  0.00     0.017 C 
ATOM     10  C   UNL A   1      37.130  33.313  30.497  1.00  0.00     0.017 C 
BRANCH   8  11
ATOM     11  C   UNL A   1      37.193  32.774  33.010  1.00  0.00     0.030 A 
ATOM     12  C   UNL A   1      37.997  33.734  33.659  1.00  0.00     0.132 A 
ATOM     13  C   UNL A   1      37.332  31.455  33.479  1.00  0.00     0.132 A 
ATOM     14  F   UNL A   1      38.010  35.011  33.254  1.00  0.00    -0.206 F 
ATOM     15  C   UNL A   1      38.846  33.415  34.717  1.00  0.00     0.079 A 
ATOM     16  C   UNL A   1      38.172  31.119  34.540  1.00  0.00     0.079 A 
ATOM     17  F   UNL A   1      36.668  30.447  32.900  1.00  0.00    -0.206 F 
ATOM     18  C   UNL A   1      38.922  32.106  35.152  1.00  0.00     0.129 A 
ATOM     19  F   UNL A   1      39.739  31.789  36.163  1.00  0.00    -0.207 F 
ENDBRANCH   8  11
ENDBRANCH   7   8
ENDBRANCH   4   7
ENDBRANCH   2   3
ENDBRANCH   1   2
BRANCH   1  20
ATOM     20  C   UNL A   1      34.537  32.817  28.095  1.00  0.00     0.118 C 
BRANCH  20  21
ATOM     21  N   UNL A   1      33.855  31.579  27.761  1.00  0.00    -0.352 N 
ATOM     22  C   UNL A   1      34.342  30.299  27.659  1.00  0.00     0.251 C 
ATOM     23  H   UNL A   1      32.892  31.672  27.579  1.00  0.00     0.163 HD
ATOM     24  O   UNL A   1      33.636  29.427  27.153  1.00  0.00    -0.269 OA
BRANCH  22  25
ATOM     25  C   UNL A   1      35.705  29.946  28.128  1.00  0.00     0.039 A 
ATOM     26  C   UNL A   1      36.780  30.121  27.250  1.00  0.00     0.014 A 
ATOM     27  C   UNL A   1      35.932  29.381  29.386  1.00  0.00     0.014 A 
ATOM     28  C   UNL A   1      38.077  29.774  27.646  1.00  0.00     0.010 A 
ATOM     29  C   UNL A   1      37.233  29.114  29.812  1.00  0.00     0.010 A 
ATOM     30  C   UNL A   1      38.319  29.288  28.941  1.00  0.00    -0.014 A 
BRANCH  30  31
ATOM     31  C   UNL A   1      39.689  28.911  29.380  1.00  0.00     0.031 A 
ATOM     32  C   UNL A   1      40.454  29.808  30.317  1.00  0.00     0.074 A 
ATOM     33  C   UNL A   1      40.269  27.793  28.902  1.00  0.00     0.049 A 
ATOM     34  N   UNL A   1      41.682  29.692  30.759  1.00  0.00    -0.248 NA
ATOM     35  C   UNL A   1      39.756  31.009  30.801  1.00  0.00     0.031 C 
ATOM     36  C   UNL A   1      39.655  26.861  27.957  1.00  0.00     0.029 A 
ATOM     37  N   UNL A   1      41.510  27.257  29.141  1.00  0.00    -0.354 N 
ATOM     38  C   UNL A   1      41.908  30.812  31.547  1.00  0.00     0.074 A 
ATOM     39  C   UNL A   1      40.710  31.619  31.489  1.00  0.00     0.031 C 
ATOM     40  C   UNL A   1      40.512  25.856  27.713  1.00  0.00     0.029 A 
ATOM     41  C   UNL A   1      41.747  26.089  28.457  1.00  0.00     0.049 A 
ATOM     42  H   UNL A   1      42.167  27.670  29.745  1.00  0.00     0.167 HD
ATOM     43  C   UNL A   1      43.006  31.130  32.274  1.00  0.00     0.037 A 
ATOM     44  C   UNL A   1      42.837  25.299  28.430  1.00  0.00     0.037 A 
ATOM     45  C   UNL A   1      44.183  30.308  32.372  1.00  0.00     0.049 A 
ATOM     46  C   UNL A   1      44.037  25.664  29.262  1.00  0.00     0.074 A 
ATOM     47  C   UNL A   1      45.319  30.512  33.138  1.00  0.00     0.029 A 
ATOM     48  N   UNL A   1      44.373  29.118  31.685  1.00  0.00    -0.354 N 
ATOM     49  N   UNL A   1      44.215  26.697  30.048  1.00  0.00    -0.248 NA
ATOM     50  C   UNL A   1      45.185  24.747  29.206  1.00  0.00     0.031 C 
ATOM     51  C   UNL A   1      46.210  29.463  32.888  1.00  0.00     0.029 A 
ATOM     52  C   UNL A   1      45.614  28.586  31.997  1.00  0.00     0.049 A 
ATOM     53  H   UNL A   1      43.722  28.713  31.067  1.00  0.00     0.167 HD
ATOM     54  C   UNL A   1      45.479  26.543  30.598  1.00  0.00     0.074 A 
ATOM     55  C   UNL A   1      46.021  25.310  30.066  1.00  0.00     0.031 C 
ATOM     56  C   UNL A   1      46.134  27.352  31.466  1.00  0.00     0.037 A 
BRANCH  43  57
ATOM     57  C   UNL A   1      42.984  32.425  33.033  1.00  0.00     0.064 A 
ATOM     58  C   UNL A   1      43.298  33.644  32.414  1.00  0.00     0.173 A 
ATOM     59  C   UNL A   1      42.615  32.451  34.387  1.00  0.00     0.173 A 
ATOM     60  F   UNL A   1      43.669  33.671  31.125  1.00  0.00    -0.203 F 
ATOM     61  C   UNL A   1      43.270  34.839  33.130  1.00  0.00     0.198 A 
ATOM     62  C   UNL A   1      42.561  33.650  35.092  1.00  0.00     0.198 A 
ATOM     63  F   UNL A   1      42.300  31.313  35.024  1.00  0.00    -0.203 F 
ATOM     64  F   UNL A   1      43.619  35.985  32.531  1.00  0.00    -0.200 F 
ATOM     65  C   UNL A   1      42.896  34.841  34.466  1.00  0.00     0.200 A 
ATOM     66  F   UNL A   1      42.189  33.654  36.379  1.00  0.00    -0.200 F 
ATOM     67  F   UNL A   1      42.865  35.992  35.152  1.00  0.00    -0.200 F 
ENDBRANCH  43  57
BRANCH  44  68
ATOM     68  C   UNL A   1      42.833  24.063  27.607  1.00  0.00     0.064 A 
ATOM     69  C   UNL A   1      42.450  22.834  28.161  1.00  0.00     0.173 A 
ATOM     70  C   UNL A   1      43.207  24.083  26.256  1.00  0.00     0.173 A 
ATOM     71  F   UNL A   1      42.105  22.762  29.456  1.00  0.00    -0.203 F 
ATOM     72  C   UNL A   1      42.457  21.668  27.399  1.00  0.00     0.198 A 
ATOM     73  C   UNL A   1      43.191  22.921  25.488  1.00  0.00     0.198 A 
ATOM     74  F   UNL A   1      43.580  25.236  25.679  1.00  0.00    -0.203 F 
ATOM     75  F   UNL A   1      42.125  20.499  27.963  1.00  0.00    -0.200 F 
ATOM     76  C   UNL A   1      42.822  21.714  26.062  1.00  0.00     0.200 A 
ATOM     77  F   UNL A   1      43.533  22.970  24.193  1.00  0.00    -0.200 F 
ATOM     78  F   UNL A   1      42.824  20.593  25.327  1.00  0.00    -0.200 F 
ENDBRANCH  44  68
BRANCH  56  79
ATOM     79  C   UNL A   1      47.495  26.917  31.921  1.00  0.00     0.064 A 
ATOM     80  C   UNL A   1      47.662  26.037  33.000  1.00  0.00     0.173 A 
ATOM     81  C   UNL A   1      48.643  27.354  31.243  1.00  0.00     0.173 A 
ATOM     82  F   UNL A   1      46.595  25.604  33.689  1.00  0.00    -0.203 F 
ATOM     83  C   UNL A   1      48.932  25.626  33.397  1.00  0.00     0.198 A 
ATOM     84  C   UNL A   1      49.909  26.921  31.626  1.00  0.00     0.198 A 
ATOM     85  F   UNL A   1      48.536  28.192  30.201  1.00  0.00    -0.203 F 
ATOM     86  F   UNL A   1      49.071  24.816  34.455  1.00  0.00    -0.200 F 
ATOM     87  C   UNL A   1      50.053  26.062  32.705  1.00  0.00     0.200 A 
ATOM     88  F   UNL A   1      50.991  27.335  30.953  1.00  0.00    -0.200 F 
ATOM     89  F   UNL A   1      51.273  25.660  33.086  1.00  0.00    -0.200 F 
ENDBRANCH  56  79
ENDBRANCH  30  31
ENDBRANCH  22  25
ENDBRANCH  20  21
ENDBRANCH   1  20
TORSDOF 12
ENDMDL
MODEL 3
REMARK VINA RESULT:     -10.3      3.608     11.036
REMARK SMILES CC(C)(CC(=O)NCCCNC(=O)c1ccc(-c2c3nc(c(-c4c(F)c(F)c(F)c(F)c4F)c4ccc([nH]4)c(-c4c(F)c(F)c(F)c(F)c4F)c4nc(c(-c5c(F)c(F)c(F)c(F)c5F)c5ccc2[nH]5)C=C4)C=C3)cc1)c1c(F)cc(F)cc1F
REMARK SMILES IDX 9 1 8 2 7 3 5 4 6 5 4 7 2 8 1 9 3 10 77 11 78 12 84 13 79 14
REMARK SMILES IDX 80 15 83 16 85 17 81 18 82 19 10 20 11 21 12 22 13 24 14 25
REMARK SMILES IDX 15 26 76 27 16 28 75 29 17 30 18 31 19 32 69 33 20 34 74 35
REMARK SMILES IDX 68 36 70 37 21 38 73 39 67 40 66 41 22 43 54 44 34 45 53 46
REMARK SMILES IDX 35 47 38 48 52 49 71 50 36 51 37 52 51 54 72 55 39 56 23 57
REMARK SMILES IDX 24 58 32 59 25 60 26 61 30 62 33 63 27 64 28 65 31 66 29 67
REMARK SMILES IDX 55 68 56 69 64 70 57 71 58 72 62 73 65 74 59 75 60 76 63 77
REMARK SMILES IDX 61 78 40 79 41 80 49 81 42 82 43 83 47 84 50 85 44 86 45 87
REMARK SMILES IDX 48 88 46 89
REMARK H PARENT 7 6 11 23 70 42 38 53
REMARK Flexibility Score: inf
ROOT
ATOM      1  C   UNL A   1      33.481  34.196  28.297  1.00  0.00     0.042 C 
ENDROOT
BRANCH   1   2
ATOM      2  C   UNL A   1      33.793  35.282  29.326  1.00  0.00     0.117 C 
BRANCH   2   3
ATOM      3  N   UNL A   1      32.963  35.157  30.511  1.00  0.00    -0.356 N 
ATOM      4  C   UNL A   1      33.277  35.144  31.831  1.00  0.00     0.220 C 
ATOM      5  O   UNL A   1      32.350  34.991  32.631  1.00  0.00    -0.275 OA
ATOM      6  H   UNL A   1      32.001  35.066  30.324  1.00  0.00     0.163 HD
BRANCH   4   7
ATOM      7  C   UNL A   1      34.700  35.345  32.319  1.00  0.00     0.111 C 
BRANCH   7   8
ATOM      8  C   UNL A   1      35.447  34.085  32.845  1.00  0.00     0.004 C 
ATOM      9  C   UNL A   1      35.073  33.808  34.320  1.00  0.00     0.017 C 
ATOM     10  C   UNL A   1      34.848  32.855  32.101  1.00  0.00     0.017 C 
BRANCH   8  11
ATOM     11  C   UNL A   1      36.969  34.210  32.624  1.00  0.00     0.030 A 
ATOM     12  C   UNL A   1      37.870  34.420  33.689  1.00  0.00     0.132 A 
ATOM     13  C   UNL A   1      37.541  34.219  31.339  1.00  0.00     0.132 A 
ATOM     14  F   UNL A   1      37.437  34.508  34.953  1.00  0.00    -0.206 F 
ATOM     15  C   UNL A   1      39.241  34.587  33.494  1.00  0.00     0.079 A 
ATOM     16  C   UNL A   1      38.910  34.379  31.126  1.00  0.00     0.079 A 
ATOM     17  F   UNL A   1      36.777  34.094  30.247  1.00  0.00    -0.206 F 
ATOM     18  C   UNL A   1      39.749  34.561  32.210  1.00  0.00     0.129 A 
ATOM     19  F   UNL A   1      41.063  34.726  32.013  1.00  0.00    -0.207 F 
ENDBRANCH   8  11
ENDBRANCH   7   8
ENDBRANCH   4   7
ENDBRANCH   2   3
ENDBRANCH   1   2
BRANCH   1  20
ATOM     20  C   UNL A   1      34.327  32.937  28.434  1.00  0.00     0.118 C 
BRANCH  20  21
ATOM     21  N   UNL A   1      33.757  31.806  27.723  1.00  0.00    -0.352 N 
ATOM     22  C   UNL A   1      34.306  30.585  27.418  1.00  0.00     0.251 C 
ATOM     23  H   UNL A   1      32.833  31.936  27.411  1.00  0.00     0.163 HD
ATOM     24  O   UNL A   1      33.726  29.850  26.619  1.00  0.00    -0.269 OA
BRANCH  22  25
ATOM     25  C   UNL A   1      35.590  30.138  28.012  1.00  0.00     0.039 A 
ATOM     26  C   UNL A   1      35.589  29.668  29.329  1.00  0.00     0.014 A 
ATOM     27  C   UNL A   1      36.801  30.242  27.321  1.00  0.00     0.014 A 
ATOM     28  C   UNL A   1      36.785  29.263  29.933  1.00  0.00     0.010 A 
ATOM     29  C   UNL A   1      37.979  29.760  27.892  1.00  0.00     0.010 A 
ATOM     30  C   UNL A   1      37.989  29.284  29.212  1.00  0.00    -0.014 A 
BRANCH  30  31
ATOM     31  C   UNL A   1      39.271  28.860  29.837  1.00  0.00     0.031 A 
ATOM     32  C   UNL A   1      39.782  29.567  31.064  1.00  0.00     0.074 A 
ATOM     33  C   UNL A   1      40.002  27.877  29.278  1.00  0.00     0.049 A 
ATOM     34  N   UNL A   1      40.907  29.394  31.714  1.00  0.00    -0.248 NA
ATOM     35  C   UNL A   1      38.929  30.628  31.621  1.00  0.00     0.031 C 
ATOM     36  C   UNL A   1      39.643  27.140  28.067  1.00  0.00     0.029 A 
ATOM     37  N   UNL A   1      41.206  27.333  29.654  1.00  0.00    -0.354 N 
ATOM     38  C   UNL A   1      40.905  30.337  32.733  1.00  0.00     0.074 A 
ATOM     39  C   UNL A   1      39.691  31.110  32.591  1.00  0.00     0.031 C 
ATOM     40  C   UNL A   1      40.593  26.226  27.811  1.00  0.00     0.029 A 
ATOM     41  C   UNL A   1      41.644  26.334  28.819  1.00  0.00     0.049 A 
ATOM     42  H   UNL A   1      41.707  27.632  30.446  1.00  0.00     0.167 HD
ATOM     43  C   UNL A   1      41.819  30.528  33.714  1.00  0.00     0.037 A 
ATOM     44  C   UNL A   1      42.768  25.592  28.861  1.00  0.00     0.037 A 
ATOM     45  C   UNL A   1      43.006  29.732  33.885  1.00  0.00     0.049 A 
ATOM     46  C   UNL A   1      43.759  25.811  29.971  1.00  0.00     0.074 A 
ATOM     47  C   UNL A   1      43.957  29.804  34.889  1.00  0.00     0.029 A 
ATOM     48  N   UNL A   1      43.400  28.711  33.034  1.00  0.00    -0.354 N 
ATOM     49  N   UNL A   1      43.716  26.668  30.962  1.00  0.00    -0.248 NA
ATOM     50  C   UNL A   1      44.953  24.953  29.971  1.00  0.00     0.031 C 
ATOM     51  C   UNL A   1      44.945  28.850  34.626  1.00  0.00     0.029 A 
ATOM     52  C   UNL A   1      44.589  28.157  33.480  1.00  0.00     0.049 A 
ATOM     53  H   UNL A   1      42.908  28.423  32.231  1.00  0.00     0.167 HD
ATOM     54  C   UNL A   1      44.858  26.436  31.715  1.00  0.00     0.074 A 
ATOM     55  C   UNL A   1      45.570  25.350  31.075  1.00  0.00     0.031 C 
ATOM     56  C   UNL A   1      45.280  27.069  32.837  1.00  0.00     0.037 A 
BRANCH  43  57
ATOM     57  C   UNL A   1      41.569  31.642  34.688  1.00  0.00     0.064 A 
ATOM     58  C   UNL A   1      40.701  31.481  35.779  1.00  0.00     0.173 A 
ATOM     59  C   UNL A   1      42.227  32.873  34.548  1.00  0.00     0.173 A 
ATOM     60  F   UNL A   1      40.038  30.328  35.950  1.00  0.00    -0.203 F 
ATOM     61  C   UNL A   1      40.480  32.523  36.677  1.00  0.00     0.198 A 
ATOM     62  C   UNL A   1      42.026  33.901  35.464  1.00  0.00     0.198 A 
ATOM     63  F   UNL A   1      43.072  33.075  33.525  1.00  0.00    -0.203 F 
ATOM     64  F   UNL A   1      39.611  32.362  37.684  1.00  0.00    -0.200 F 
ATOM     65  C   UNL A   1      41.147  33.728  36.522  1.00  0.00     0.200 A 
ATOM     66  F   UNL A   1      42.679  35.063  35.320  1.00  0.00    -0.200 F 
ATOM     67  F   UNL A   1      40.937  34.728  37.391  1.00  0.00    -0.200 F 
ENDBRANCH  43  57
BRANCH  44  68
ATOM     68  C   UNL A   1      43.002  24.549  27.830  1.00  0.00     0.064 A 
ATOM     69  C   UNL A   1      43.599  24.875  26.604  1.00  0.00     0.173 A 
ATOM     70  C   UNL A   1      42.638  23.213  28.046  1.00  0.00     0.173 A 
ATOM     71  F   UNL A   1      43.943  26.145  26.344  1.00  0.00    -0.203 F 
ATOM     72  C   UNL A   1      43.809  23.905  25.627  1.00  0.00     0.198 A 
ATOM     73  C   UNL A   1      42.871  22.239  27.077  1.00  0.00     0.198 A 
ATOM     74  F   UNL A   1      42.065  22.851  29.203  1.00  0.00    -0.203 F 
ATOM     75  F   UNL A   1      44.346  24.250  24.448  1.00  0.00    -0.200 F 
ATOM     76  C   UNL A   1      43.450  22.587  25.866  1.00  0.00     0.200 A 
ATOM     77  F   UNL A   1      42.534  20.964  27.316  1.00  0.00    -0.200 F 
ATOM     78  F   UNL A   1      43.658  21.653  24.928  1.00  0.00    -0.200 F 
ENDBRANCH  44  68
BRANCH  56  79
ATOM     79  C   UNL A   1      46.553  26.584  33.463  1.00  0.00     0.064 A 
ATOM     80  C   UNL A   1      46.559  25.541  34.402  1.00  0.00     0.173 A 
ATOM     81  C   UNL A   1      47.785  27.141  33.090  1.00  0.00     0.173 A 
ATOM     82  F   UNL A   1      45.404  24.987  34.802  1.00  0.00    -0.203 F 
ATOM     83  C   UNL A   1      47.752  25.088  34.959  1.00  0.00     0.198 A 
ATOM     84  C   UNL A   1      48.978  26.669  33.630  1.00  0.00     0.198 A 
ATOM     85  F   UNL A   1      47.833  28.137  32.193  1.00  0.00    -0.203 F 
ATOM     86  F   UNL A   1      47.731  24.118  35.883  1.00  0.00    -0.200 F 
ATOM     87  C   UNL A   1      48.960  25.647  34.567  1.00  0.00     0.200 A 
ATOM     88  F   UNL A   1      50.145  27.203  33.245  1.00  0.00    -0.200 F 
ATOM     89  F   UNL A   1      50.107  25.205  35.101  1.00  0.00    -0.200 F 
ENDBRANCH  56  79
ENDBRANCH  30  31
ENDBRANCH  22  25
ENDBRANCH  20  21
ENDBRANCH   1  20
TORSDOF 12
ENDMDL
