MODEL 1
REMARK VINA RESULT:     -13.5      0.000      0.000
REMARK SMILES Cc1c(CC(=O)N[C@H](CO)C(=O)NCCCNC(=O)c2ccc(-c3c4nc(c(-c5c(F)c(F)c(F)c(F)c5F)c5ccc([nH]5)c(-c5c(F)c(F)c(F)c(F)c5F)c5nc(c(-c6c(F)c(F)c(F)c(F)c6F)c6ccc3[nH]6)C=C5)C=C4)cc2)cc(-c2ccc(S(C)(=O)=O)cc2)n1-c1cccc(F)c1
REMARK SMILES IDX 11 1 12 2 13 3 8 5 7 6 5 7 6 8 4 10 3 11 1 12 2 13 95 14
REMARK SMILES IDX 83 15 84 16 96 17 97 18 102 19 98 20 100 21 99 22 101 23
REMARK SMILES IDX 85 24 86 25 94 26 87 27 93 28 88 29 89 30 90 31 91 32 92 33
REMARK SMILES IDX 9 34 10 35 14 37 15 38 16 39 17 40 18 41 19 43 20 44 21 45
REMARK SMILES IDX 82 46 22 47 81 48 23 49 24 50 25 51 75 52 26 53 80 54 74 55
REMARK SMILES IDX 76 56 27 57 79 58 73 59 72 60 28 62 60 63 40 64 59 65 41 66
REMARK SMILES IDX 44 67 58 68 77 69 42 70 43 71 57 73 78 74 45 75 29 76 30 77
REMARK SMILES IDX 38 78 31 79 32 80 36 81 39 82 33 83 34 84 37 85 35 86 61 87
REMARK SMILES IDX 62 88 70 89 63 90 64 91 68 92 71 93 65 94 66 95 69 96 67 97
REMARK SMILES IDX 46 98 47 99 55 100 48 101 49 102 53 103 56 104 50 105 51 106
REMARK SMILES IDX 54 107 52 108
REMARK H PARENT 13 4 7 9 10 36 17 42 76 61 44 72
REMARK Flexibility Score: inf
ROOT
ATOM      1  C   UNL A   1      34.115  20.654  25.720  1.00  0.00     0.244 C 
ATOM      2  O   UNL A   1      33.438  20.773  26.746  1.00  0.00    -0.273 OA
ATOM      3  N   UNL A   1      35.376  21.169  25.766  1.00  0.00    -0.354 N 
ATOM      4  H   UNL A   1      35.669  21.394  26.679  1.00  0.00     0.163 HD
ENDROOT
BRANCH   1   5
ATOM      5  C   UNL A   1      33.488  20.050  24.448  1.00  0.00     0.197 C 
BRANCH   5   6
ATOM      6  N   UNL A   1      33.422  21.034  23.366  1.00  0.00    -0.342 N 
ATOM      7  C   UNL A   1      32.520  22.040  23.164  1.00  0.00     0.225 C 
ATOM      8  O   UNL A   1      32.611  22.667  22.105  1.00  0.00    -0.275 OA
ATOM      9  H   UNL A   1      34.128  20.960  22.685  1.00  0.00     0.164 HD
BRANCH   7  10
ATOM     10  C   UNL A   1      31.485  22.410  24.215  1.00  0.00     0.137 C 
BRANCH  10  11
ATOM     11  C   UNL A   1      31.384  23.884  24.483  1.00  0.00    -0.017 A 
ATOM     12  C   UNL A   1      32.950  24.119  26.532  1.00  0.00     0.065 C 
ATOM     13  C   UNL A   1      32.052  24.629  25.448  1.00  0.00     0.024 A 
ATOM     14  N   UNL A   1      31.661  25.960  25.325  1.00  0.00    -0.313 N 
ATOM     15  C   UNL A   1      30.494  24.776  23.829  1.00  0.00     0.033 A 
ATOM     16  C   UNL A   1      30.673  26.047  24.343  1.00  0.00     0.053 A 
BRANCH  14  17
ATOM     17  C   UNL A   1      32.182  27.057  26.063  1.00  0.00     0.049 A 
ATOM     18  C   UNL A   1      31.375  27.723  26.995  1.00  0.00     0.027 A 
ATOM     19  C   UNL A   1      33.479  27.507  25.796  1.00  0.00     0.065 A 
ATOM     20  C   UNL A   1      31.868  28.845  27.663  1.00  0.00     0.005 A 
ATOM     21  C   UNL A   1      33.944  28.636  26.457  1.00  0.00     0.125 A 
ATOM     22  C   UNL A   1      33.154  29.307  27.387  1.00  0.00     0.039 A 
ATOM     23  F   UNL A   1      35.170  29.100  26.182  1.00  0.00    -0.207 F 
ENDBRANCH  14  17
BRANCH  16  24
ATOM     24  C   UNL A   1      30.033  27.288  23.892  1.00  0.00    -0.001 A 
ATOM     25  C   UNL A   1      30.756  28.489  23.831  1.00  0.00     0.011 A 
ATOM     26  C   UNL A   1      28.685  27.283  23.509  1.00  0.00     0.011 A 
ATOM     27  C   UNL A   1      30.135  29.677  23.436  1.00  0.00     0.021 A 
ATOM     28  C   UNL A   1      28.056  28.466  23.111  1.00  0.00     0.021 A 
ATOM     29  C   UNL A   1      28.781  29.659  23.092  1.00  0.00     0.067 A 
BRANCH  29  30
ATOM     30  S   UNL A   1      28.009  31.173  22.576  1.00  0.00     0.175 S 
ATOM     31  C   UNL A   1      29.273  32.401  22.786  1.00  0.00     0.163 C 
ATOM     32  O   UNL A   1      27.714  31.049  21.176  1.00  0.00    -0.224 OA
ATOM     33  O   UNL A   1      26.953  31.476  23.545  1.00  0.00    -0.224 OA
ENDBRANCH  29  30
ENDBRANCH  16  24
ENDBRANCH  10  11
ENDBRANCH   7  10
ENDBRANCH   5   6
BRANCH   5  34
ATOM     34  C   UNL A   1      32.152  19.369  24.792  1.00  0.00     0.191 C 
BRANCH  34  35
ATOM     35  O   UNL A   1      32.000  18.068  24.223  1.00  0.00    -0.394 OA
ATOM     36  H   UNL A   1      32.425  17.412  24.798  1.00  0.00     0.210 HD
ENDBRANCH  34  35
ENDBRANCH   5  34
ENDBRANCH   1   5
BRANCH   3  37
ATOM     37  C   UNL A   1      36.382  21.458  24.755  1.00  0.00     0.117 C 
BRANCH  37  38
ATOM     38  C   UNL A   1      36.643  22.961  24.560  1.00  0.00     0.042 C 
BRANCH  38  39
ATOM     39  C   UNL A   1      37.768  23.592  25.412  1.00  0.00     0.118 C 
BRANCH  39  40
ATOM     40  N   UNL A   1      38.798  22.667  25.846  1.00  0.00    -0.352 N 
ATOM     41  C   UNL A   1      39.861  22.896  26.705  1.00  0.00     0.251 C 
ATOM     42  H   UNL A   1      38.731  21.754  25.484  1.00  0.00     0.163 HD
ATOM     43  O   UNL A   1      40.603  21.953  26.978  1.00  0.00    -0.269 OA
BRANCH  41  44
ATOM     44  C   UNL A   1      40.207  24.269  27.225  1.00  0.00     0.039 A 
ATOM     45  C   UNL A   1      39.612  24.674  28.406  1.00  0.00     0.014 A 
ATOM     46  C   UNL A   1      40.883  25.267  26.495  1.00  0.00     0.014 A 
ATOM     47  C   UNL A   1      39.747  26.015  28.863  1.00  0.00     0.010 A 
ATOM     48  C   UNL A   1      40.939  26.664  26.929  1.00  0.00     0.010 A 
ATOM     49  C   UNL A   1      40.354  27.103  28.132  1.00  0.00    -0.014 A 
BRANCH  49  50
ATOM     50  C   UNL A   1      39.843  28.593  28.527  1.00  0.00     0.031 A 
ATOM     51  C   UNL A   1      41.132  29.317  28.730  1.00  0.00     0.074 A 
ATOM     52  C   UNL A   1      38.723  29.368  28.848  1.00  0.00     0.049 A 
ATOM     53  N   UNL A   1      41.995  28.860  29.600  1.00  0.00    -0.248 NA
ATOM     54  C   UNL A   1      41.688  30.247  27.745  1.00  0.00     0.031 C 
ATOM     55  C   UNL A   1      37.325  28.931  29.006  1.00  0.00     0.029 A 
ATOM     56  N   UNL A   1      38.558  30.773  29.113  1.00  0.00    -0.354 N 
ATOM     57  C   UNL A   1      43.111  29.645  29.472  1.00  0.00     0.074 A 
ATOM     58  C   UNL A   1      42.955  30.291  28.177  1.00  0.00     0.031 C 
ATOM     59  C   UNL A   1      36.475  29.988  29.181  1.00  0.00     0.029 A 
ATOM     60  C   UNL A   1      37.199  31.259  29.221  1.00  0.00     0.049 A 
ATOM     61  H   UNL A   1      39.331  31.373  29.216  1.00  0.00     0.167 HD
ATOM     62  C   UNL A   1      43.573  30.181  30.638  1.00  0.00     0.037 A 
ATOM     63  C   UNL A   1      36.685  32.547  29.399  1.00  0.00     0.037 A 
ATOM     64  C   UNL A   1      43.189  31.558  30.775  1.00  0.00     0.049 A 
ATOM     65  C   UNL A   1      37.747  33.341  30.023  1.00  0.00     0.074 A 
ATOM     66  C   UNL A   1      43.176  32.620  29.891  1.00  0.00     0.029 A 
ATOM     67  N   UNL A   1      42.288  31.864  31.769  1.00  0.00    -0.354 N 
ATOM     68  N   UNL A   1      37.979  33.264  31.296  1.00  0.00    -0.248 NA
ATOM     69  C   UNL A   1      38.510  34.354  29.304  1.00  0.00     0.031 C 
ATOM     70  C   UNL A   1      41.906  33.211  30.077  1.00  0.00     0.029 A 
ATOM     71  C   UNL A   1      41.386  32.789  31.293  1.00  0.00     0.049 A 
ATOM     72  H   UNL A   1      42.288  31.483  32.676  1.00  0.00     0.167 HD
ATOM     73  C   UNL A   1      39.226  33.778  31.405  1.00  0.00     0.074 A 
ATOM     74  C   UNL A   1      39.372  34.673  30.273  1.00  0.00     0.031 C 
ATOM     75  C   UNL A   1      40.134  32.958  31.985  1.00  0.00     0.037 A 
BRANCH  62  76
ATOM     76  C   UNL A   1      43.611  29.181  31.762  1.00  0.00     0.064 A 
ATOM     77  C   UNL A   1      44.790  28.468  31.994  1.00  0.00     0.173 A 
ATOM     78  C   UNL A   1      42.460  28.781  32.475  1.00  0.00     0.173 A 
ATOM     79  F   UNL A   1      45.931  28.842  31.395  1.00  0.00    -0.203 F 
ATOM     80  C   UNL A   1      44.800  27.357  32.838  1.00  0.00     0.198 A 
ATOM     81  C   UNL A   1      42.455  27.631  33.256  1.00  0.00     0.198 A 
ATOM     82  F   UNL A   1      41.327  29.501  32.404  1.00  0.00    -0.203 F 
ATOM     83  F   UNL A   1      45.947  26.703  33.067  1.00  0.00    -0.200 F 
ATOM     84  C   UNL A   1      43.625  26.916  33.432  1.00  0.00     0.200 A 
ATOM     85  F   UNL A   1      41.316  27.219  33.831  1.00  0.00    -0.200 F 
ATOM     86  F   UNL A   1      43.626  25.812  34.194  1.00  0.00    -0.200 F 
ENDBRANCH  62  76
BRANCH  63  87
ATOM     87  C   UNL A   1      35.392  33.421  29.370  1.00  0.00     0.064 A 
ATOM     88  C   UNL A   1      34.626  33.665  30.568  1.00  0.00     0.173 A 
ATOM     89  C   UNL A   1      35.135  34.350  28.353  1.00  0.00     0.173 A 
ATOM     90  F   UNL A   1      34.697  32.849  31.627  1.00  0.00    -0.203 F 
ATOM     91  C   UNL A   1      33.810  34.791  30.769  1.00  0.00     0.198 A 
ATOM     92  C   UNL A   1      34.273  35.465  28.545  1.00  0.00     0.198 A 
ATOM     93  F   UNL A   1      35.781  34.255  27.185  1.00  0.00    -0.203 F 
ATOM     94  F   UNL A   1      33.248  35.014  31.970  1.00  0.00    -0.200 F 
ATOM     95  C   UNL A   1      33.648  35.706  29.760  1.00  0.00     0.200 A 
ATOM     96  F   UNL A   1      34.107  36.357  27.557  1.00  0.00    -0.200 F 
ATOM     97  F   UNL A   1      32.925  36.819  29.964  1.00  0.00    -0.200 F 
ENDBRANCH  63  87
BRANCH  75  98
ATOM     98  C   UNL A   1      39.673  32.180  33.211  1.00  0.00     0.064 A 
ATOM     99  C   UNL A   1      38.882  31.003  33.241  1.00  0.00     0.173 A 
ATOM    100  C   UNL A   1      39.988  32.731  34.462  1.00  0.00     0.173 A 
ATOM    101  F   UNL A   1      38.617  30.287  32.139  1.00  0.00    -0.203 F 
ATOM    102  C   UNL A   1      38.358  30.495  34.433  1.00  0.00     0.198 A 
ATOM    103  C   UNL A   1      39.520  32.181  35.655  1.00  0.00     0.198 A 
ATOM    104  F   UNL A   1      40.779  33.812  34.537  1.00  0.00    -0.203 F 
ATOM    105  F   UNL A   1      37.545  29.428  34.411  1.00  0.00    -0.200 F 
ATOM    106  C   UNL A   1      38.679  31.084  35.640  1.00  0.00     0.200 A 
ATOM    107  F   UNL A   1      39.890  32.725  36.822  1.00  0.00    -0.200 F 
ATOM    108  F   UNL A   1      38.196  30.587  36.787  1.00  0.00    -0.200 F 
ENDBRANCH  75  98
ENDBRANCH  49  50
ENDBRANCH  41  44
ENDBRANCH  39  40
ENDBRANCH  38  39
ENDBRANCH  37  38
ENDBRANCH   3  37
TORSDOF 18
ENDMDL
MODEL 2
REMARK VINA RESULT:     -13.3      3.711      9.424
REMARK SMILES Cc1c(CC(=O)N[C@H](CO)C(=O)NCCCNC(=O)c2ccc(-c3c4nc(c(-c5c(F)c(F)c(F)c(F)c5F)c5ccc([nH]5)c(-c5c(F)c(F)c(F)c(F)c5F)c5nc(c(-c6c(F)c(F)c(F)c(F)c6F)c6ccc3[nH]6)C=C5)C=C4)cc2)cc(-c2ccc(S(C)(=O)=O)cc2)n1-c1cccc(F)c1
REMARK SMILES IDX 11 1 12 2 13 3 8 5 7 6 5 7 6 8 4 10 3 11 1 12 2 13 95 14
REMARK SMILES IDX 83 15 84 16 96 17 97 18 102 19 98 20 100 21 99 22 101 23
REMARK SMILES IDX 85 24 86 25 94 26 87 27 93 28 88 29 89 30 90 31 91 32 92 33
REMARK SMILES IDX 9 34 10 35 14 37 15 38 16 39 17 40 18 41 19 43 20 44 21 45
REMARK SMILES IDX 82 46 22 47 81 48 23 49 24 50 25 51 75 52 26 53 80 54 74 55
REMARK SMILES IDX 76 56 27 57 79 58 73 59 72 60 28 62 60 63 40 64 59 65 41 66
REMARK SMILES IDX 44 67 58 68 77 69 42 70 43 71 57 73 78 74 45 75 29 76 30 77
REMARK SMILES IDX 38 78 31 79 32 80 36 81 39 82 33 83 34 84 37 85 35 86 61 87
REMARK SMILES IDX 62 88 70 89 63 90 64 91 68 92 71 93 65 94 66 95 69 96 67 97
REMARK SMILES IDX 46 98 47 99 55 100 48 101 49 102 53 103 56 104 50 105 51 106
REMARK SMILES IDX 54 107 52 108
REMARK H PARENT 13 4 7 9 10 36 17 42 76 61 44 72
REMARK Flexibility Score: inf
ROOT
ATOM      1  C   UNL A   1      30.090  30.044  23.888  1.00  0.00     0.244 C 
ATOM      2  O   UNL A   1      29.397  30.905  23.337  1.00  0.00    -0.273 OA
ATOM      3  N   UNL A   1      31.041  30.497  24.752  1.00  0.00    -0.354 N 
ATOM      4  H   UNL A   1      30.928  31.446  24.990  1.00  0.00     0.163 HD
ENDROOT
BRANCH   1   5
ATOM      5  C   UNL A   1      29.925  28.560  23.504  1.00  0.00     0.197 C 
BRANCH   5   6
ATOM      6  N   UNL A   1      29.946  27.697  24.688  1.00  0.00    -0.342 N 
ATOM      7  C   UNL A   1      29.970  26.334  24.765  1.00  0.00     0.225 C 
ATOM      8  O   UNL A   1      29.864  25.836  25.889  1.00  0.00    -0.275 OA
ATOM      9  H   UNL A   1      29.941  28.167  25.552  1.00  0.00     0.164 HD
BRANCH   7  10
ATOM     10  C   UNL A   1      30.172  25.466  23.532  1.00  0.00     0.137 C 
BRANCH  10  11
ATOM     11  C   UNL A   1      31.295  24.477  23.657  1.00  0.00    -0.017 A 
ATOM     12  C   UNL A   1      33.344  26.061  23.655  1.00  0.00     0.065 C 
ATOM     13  C   UNL A   1      32.658  24.735  23.760  1.00  0.00     0.024 A 
ATOM     14  N   UNL A   1      33.328  23.519  23.867  1.00  0.00    -0.313 N 
ATOM     15  C   UNL A   1      31.154  23.066  23.600  1.00  0.00     0.033 A 
ATOM     16  C   UNL A   1      32.401  22.484  23.737  1.00  0.00     0.053 A 
BRANCH  14  17
ATOM     17  C   UNL A   1      34.722  23.348  24.083  1.00  0.00     0.049 A 
ATOM     18  C   UNL A   1      35.531  22.820  23.068  1.00  0.00     0.027 A 
ATOM     19  C   UNL A   1      35.261  23.643  25.340  1.00  0.00     0.065 A 
ATOM     20  C   UNL A   1      36.886  22.586  23.312  1.00  0.00     0.005 A 
ATOM     21  C   UNL A   1      36.606  23.386  25.568  1.00  0.00     0.125 A 
ATOM     22  C   UNL A   1      37.422  22.863  24.568  1.00  0.00     0.039 A 
ATOM     23  F   UNL A   1      37.126  23.628  26.779  1.00  0.00    -0.207 F 
ENDBRANCH  14  17
BRANCH  16  24
ATOM     24  C   UNL A   1      32.709  21.052  23.833  1.00  0.00    -0.001 A 
ATOM     25  C   UNL A   1      33.539  20.562  24.853  1.00  0.00     0.011 A 
ATOM     26  C   UNL A   1      32.168  20.154  22.904  1.00  0.00     0.011 A 
ATOM     27  C   UNL A   1      33.860  19.205  24.922  1.00  0.00     0.021 A 
ATOM     28  C   UNL A   1      32.484  18.794  22.964  1.00  0.00     0.021 A 
ATOM     29  C   UNL A   1      33.340  18.330  23.964  1.00  0.00     0.067 A 
BRANCH  29  30
ATOM     30  S   UNL A   1      33.744  16.603  24.073  1.00  0.00     0.175 S 
ATOM     31  C   UNL A   1      35.153  16.552  25.151  1.00  0.00     0.163 C 
ATOM     32  O   UNL A   1      32.644  15.945  24.719  1.00  0.00    -0.224 OA
ATOM     33  O   UNL A   1      34.204  16.180  22.748  1.00  0.00    -0.224 OA
ENDBRANCH  29  30
ENDBRANCH  16  24
ENDBRANCH  10  11
ENDBRANCH   7  10
ENDBRANCH   5   6
BRANCH   5  34
ATOM     34  C   UNL A   1      30.934  28.185  22.406  1.00  0.00     0.191 C 
BRANCH  34  35
ATOM     35  O   UNL A   1      31.782  29.261  22.003  1.00  0.00    -0.394 OA
ATOM     36  H   UNL A   1      32.709  28.985  22.073  1.00  0.00     0.210 HD
ENDBRANCH  34  35
ENDBRANCH   5  34
ENDBRANCH   1   5
BRANCH   3  37
ATOM     37  C   UNL A   1      32.189  29.879  25.400  1.00  0.00     0.117 C 
BRANCH  37  38
ATOM     38  C   UNL A   1      32.326  30.246  26.887  1.00  0.00     0.042 C 
BRANCH  38  39
ATOM     39  C   UNL A   1      33.680  30.841  27.339  1.00  0.00     0.118 C 
BRANCH  39  40
ATOM     40  N   UNL A   1      33.592  32.135  27.991  1.00  0.00    -0.352 N 
ATOM     41  C   UNL A   1      34.508  32.742  28.835  1.00  0.00     0.251 C 
ATOM     42  H   UNL A   1      32.773  32.649  27.808  1.00  0.00     0.163 HD
ATOM     43  O   UNL A   1      34.255  33.872  29.251  1.00  0.00    -0.269 OA
BRANCH  41  44
ATOM     44  C   UNL A   1      35.737  32.035  29.348  1.00  0.00     0.039 A 
ATOM     45  C   UNL A   1      36.917  32.217  28.649  1.00  0.00     0.014 A 
ATOM     46  C   UNL A   1      35.741  31.015  30.321  1.00  0.00     0.014 A 
ATOM     47  C   UNL A   1      38.071  31.445  28.963  1.00  0.00     0.010 A 
ATOM     48  C   UNL A   1      36.907  30.166  30.573  1.00  0.00     0.010 A 
ATOM     49  C   UNL A   1      38.124  30.336  29.888  1.00  0.00    -0.014 A 
BRANCH  49  50
ATOM     50  C   UNL A   1      39.297  29.246  29.617  1.00  0.00     0.031 A 
ATOM     51  C   UNL A   1      39.955  29.163  30.954  1.00  0.00     0.074 A 
ATOM     52  C   UNL A   1      39.955  28.497  28.635  1.00  0.00     0.049 A 
ATOM     53  N   UNL A   1      40.429  30.250  31.504  1.00  0.00    -0.248 NA
ATOM     54  C   UNL A   1      39.741  28.050  31.881  1.00  0.00     0.031 C 
ATOM     55  C   UNL A   1      39.752  28.524  27.177  1.00  0.00     0.029 A 
ATOM     56  N   UNL A   1      40.991  27.500  28.707  1.00  0.00    -0.354 N 
ATOM     57  C   UNL A   1      40.848  29.887  32.758  1.00  0.00     0.074 A 
ATOM     58  C   UNL A   1      40.180  28.619  33.011  1.00  0.00     0.031 C 
ATOM     59  C   UNL A   1      40.474  27.552  26.541  1.00  0.00     0.029 A 
ATOM     60  C   UNL A   1      41.295  26.790  27.482  1.00  0.00     0.049 A 
ATOM     61  H   UNL A   1      41.469  27.310  29.546  1.00  0.00     0.167 HD
ATOM     62  C   UNL A   1      42.128  30.248  33.063  1.00  0.00     0.037 A 
ATOM     63  C   UNL A   1      42.173  25.735  27.214  1.00  0.00     0.037 A 
ATOM     64  C   UNL A   1      43.032  29.139  32.945  1.00  0.00     0.049 A 
ATOM     65  C   UNL A   1      43.199  25.767  28.258  1.00  0.00     0.074 A 
ATOM     66  C   UNL A   1      42.948  27.816  33.333  1.00  0.00     0.029 A 
ATOM     67  N   UNL A   1      43.967  29.193  31.937  1.00  0.00    -0.354 N 
ATOM     68  N   UNL A   1      44.190  26.600  28.198  1.00  0.00    -0.248 NA
ATOM     69  C   UNL A   1      43.259  24.796  29.345  1.00  0.00     0.031 C 
ATOM     70  C   UNL A   1      43.381  27.093  32.199  1.00  0.00     0.029 A 
ATOM     71  C   UNL A   1      44.084  27.948  31.361  1.00  0.00     0.049 A 
ATOM     72  H   UNL A   1      44.471  29.994  31.669  1.00  0.00     0.167 HD
ATOM     73  C   UNL A   1      44.647  26.618  29.472  1.00  0.00     0.074 A 
ATOM     74  C   UNL A   1      44.272  25.333  30.030  1.00  0.00     0.031 C 
ATOM     75  C   UNL A   1      44.676  27.840  30.053  1.00  0.00     0.037 A 
BRANCH  62  76
ATOM     76  C   UNL A   1      42.443  31.664  32.661  1.00  0.00     0.064 A 
ATOM     77  C   UNL A   1      42.435  32.663  33.637  1.00  0.00     0.173 A 
ATOM     78  C   UNL A   1      42.558  32.073  31.314  1.00  0.00     0.173 A 
ATOM     79  F   UNL A   1      42.394  32.332  34.937  1.00  0.00    -0.203 F 
ATOM     80  C   UNL A   1      42.459  34.012  33.281  1.00  0.00     0.198 A 
ATOM     81  C   UNL A   1      42.506  33.416  30.959  1.00  0.00     0.198 A 
ATOM     82  F   UNL A   1      42.706  31.167  30.333  1.00  0.00    -0.203 F 
ATOM     83  F   UNL A   1      42.477  34.953  34.234  1.00  0.00    -0.200 F 
ATOM     84  C   UNL A   1      42.451  34.385  31.944  1.00  0.00     0.200 A 
ATOM     85  F   UNL A   1      42.506  33.766  29.665  1.00  0.00    -0.200 F 
ATOM     86  F   UNL A   1      42.412  35.682  31.605  1.00  0.00    -0.200 F 
ENDBRANCH  62  76
BRANCH  63  87
ATOM     87  C   UNL A   1      42.599  24.666  26.160  1.00  0.00     0.064 A 
ATOM     88  C   UNL A   1      43.770  24.850  25.338  1.00  0.00     0.173 A 
ATOM     89  C   UNL A   1      42.182  23.330  26.232  1.00  0.00     0.173 A 
ATOM     90  F   UNL A   1      44.283  26.065  25.106  1.00  0.00    -0.203 F 
ATOM     91  C   UNL A   1      44.516  23.799  24.776  1.00  0.00     0.198 A 
ATOM     92  C   UNL A   1      42.914  22.274  25.625  1.00  0.00     0.198 A 
ATOM     93  F   UNL A   1      41.112  23.006  26.968  1.00  0.00    -0.203 F 
ATOM     94  F   UNL A   1      45.676  24.053  24.146  1.00  0.00    -0.200 F 
ATOM     95  C   UNL A   1      44.096  22.503  24.937  1.00  0.00     0.200 A 
ATOM     96  F   UNL A   1      42.502  21.006  25.774  1.00  0.00    -0.200 F 
ATOM     97  F   UNL A   1      44.836  21.488  24.462  1.00  0.00    -0.200 F 
ENDBRANCH  63  87
BRANCH  75  98
ATOM     98  C   UNL A   1      45.179  28.996  29.196  1.00  0.00     0.064 A 
ATOM     99  C   UNL A   1      44.446  29.748  28.243  1.00  0.00     0.173 A 
ATOM    100  C   UNL A   1      46.544  29.302  29.290  1.00  0.00     0.173 A 
ATOM    101  F   UNL A   1      43.112  29.667  28.134  1.00  0.00    -0.203 F 
ATOM    102  C   UNL A   1      45.070  30.652  27.378  1.00  0.00     0.198 A 
ATOM    103  C   UNL A   1      47.150  30.255  28.472  1.00  0.00     0.198 A 
ATOM    104  F   UNL A   1      47.307  28.682  30.203  1.00  0.00    -0.203 F 
ATOM    105  F   UNL A   1      44.355  31.282  26.433  1.00  0.00    -0.200 F 
ATOM    106  C   UNL A   1      46.422  30.906  27.494  1.00  0.00     0.200 A 
ATOM    107  F   UNL A   1      48.450  30.536  28.638  1.00  0.00    -0.200 F 
ATOM    108  F   UNL A   1      47.019  31.788  26.681  1.00  0.00    -0.200 F 
ENDBRANCH  75  98
ENDBRANCH  49  50
ENDBRANCH  41  44
ENDBRANCH  39  40
ENDBRANCH  38  39
ENDBRANCH  37  38
ENDBRANCH   3  37
TORSDOF 18
ENDMDL
MODEL 3
REMARK VINA RESULT:     -13.2      1.502      2.151
REMARK SMILES Cc1c(CC(=O)N[C@H](CO)C(=O)NCCCNC(=O)c2ccc(-c3c4nc(c(-c5c(F)c(F)c(F)c(F)c5F)c5ccc([nH]5)c(-c5c(F)c(F)c(F)c(F)c5F)c5nc(c(-c6c(F)c(F)c(F)c(F)c6F)c6ccc3[nH]6)C=C5)C=C4)cc2)cc(-c2ccc(S(C)(=O)=O)cc2)n1-c1cccc(F)c1
REMARK SMILES IDX 11 1 12 2 13 3 8 5 7 6 5 7 6 8 4 10 3 11 1 12 2 13 95 14
REMARK SMILES IDX 83 15 84 16 96 17 97 18 102 19 98 20 100 21 99 22 101 23
REMARK SMILES IDX 85 24 86 25 94 26 87 27 93 28 88 29 89 30 90 31 91 32 92 33
REMARK SMILES IDX 9 34 10 35 14 37 15 38 16 39 17 40 18 41 19 43 20 44 21 45
REMARK SMILES IDX 82 46 22 47 81 48 23 49 24 50 25 51 75 52 26 53 80 54 74 55
REMARK SMILES IDX 76 56 27 57 79 58 73 59 72 60 28 62 60 63 40 64 59 65 41 66
REMARK SMILES IDX 44 67 58 68 77 69 42 70 43 71 57 73 78 74 45 75 29 76 30 77
REMARK SMILES IDX 38 78 31 79 32 80 36 81 39 82 33 83 34 84 37 85 35 86 61 87
REMARK SMILES IDX 62 88 70 89 63 90 64 91 68 92 71 93 65 94 66 95 69 96 67 97
REMARK SMILES IDX 46 98 47 99 55 100 48 101 49 102 53 103 56 104 50 105 51 106
REMARK SMILES IDX 54 107 52 108
REMARK H PARENT 13 4 7 9 10 36 17 42 76 61 44 72
REMARK Flexibility Score: inf
ROOT
ATOM      1  C   UNL A   1      35.021  21.394  26.166  1.00  0.00     0.244 C 
ATOM      2  O   UNL A   1      34.313  21.428  27.179  1.00  0.00    -0.273 OA
ATOM      3  N   UNL A   1      36.237  22.001  26.259  1.00  0.00    -0.354 N 
ATOM      4  H   UNL A   1      36.492  22.218  27.185  1.00  0.00     0.163 HD
ENDROOT
BRANCH   1   5
ATOM      5  C   UNL A   1      34.470  20.784  24.862  1.00  0.00     0.197 C 
BRANCH   5   6
ATOM      6  N   UNL A   1      34.624  21.708  23.735  1.00  0.00    -0.342 N 
ATOM      7  C   UNL A   1      33.708  22.550  23.174  1.00  0.00     0.225 C 
ATOM      8  O   UNL A   1      34.050  23.146  22.149  1.00  0.00    -0.275 OA
ATOM      9  H   UNL A   1      35.517  21.722  23.321  1.00  0.00     0.164 HD
BRANCH   7  10
ATOM     10  C   UNL A   1      32.346  22.789  23.809  1.00  0.00     0.137 C 
BRANCH  10  11
ATOM     11  C   UNL A   1      32.061  24.230  24.122  1.00  0.00    -0.017 A 
ATOM     12  C   UNL A   1      33.437  24.542  26.293  1.00  0.00     0.065 C 
ATOM     13  C   UNL A   1      32.569  24.999  25.163  1.00  0.00     0.024 A 
ATOM     14  N   UNL A   1      32.040  26.283  25.059  1.00  0.00    -0.313 N 
ATOM     15  C   UNL A   1      31.126  25.047  23.435  1.00  0.00     0.033 A 
ATOM     16  C   UNL A   1      31.122  26.306  24.008  1.00  0.00     0.053 A 
BRANCH  14  17
ATOM     17  C   UNL A   1      32.379  27.396  25.874  1.00  0.00     0.049 A 
ATOM     18  C   UNL A   1      31.386  28.055  26.613  1.00  0.00     0.027 A 
ATOM     19  C   UNL A   1      33.695  27.870  25.874  1.00  0.00     0.065 A 
ATOM     20  C   UNL A   1      31.713  29.192  27.354  1.00  0.00     0.005 A 
ATOM     21  C   UNL A   1      33.995  29.013  26.603  1.00  0.00     0.125 A 
ATOM     22  C   UNL A   1      33.020  29.676  27.342  1.00  0.00     0.039 A 
ATOM     23  F   UNL A   1      35.244  29.498  26.580  1.00  0.00    -0.207 F 
ENDBRANCH  14  17
BRANCH  16  24
ATOM     24  C   UNL A   1      30.381  27.488  23.554  1.00  0.00    -0.001 A 
ATOM     25  C   UNL A   1      31.057  28.618  23.068  1.00  0.00     0.011 A 
ATOM     26  C   UNL A   1      28.981  27.497  23.596  1.00  0.00     0.011 A 
ATOM     27  C   UNL A   1      30.351  29.756  22.671  1.00  0.00     0.021 A 
ATOM     28  C   UNL A   1      28.266  28.631  23.201  1.00  0.00     0.021 A 
ATOM     29  C   UNL A   1      28.957  29.759  22.755  1.00  0.00     0.067 A 
BRANCH  29  30
ATOM     30  S   UNL A   1      28.071  31.208  22.231  1.00  0.00     0.175 S 
ATOM     31  C   UNL A   1      29.217  32.538  22.493  1.00  0.00     0.163 C 
ATOM     32  O   UNL A   1      27.830  31.077  20.821  1.00  0.00    -0.224 OA
ATOM     33  O   UNL A   1      26.965  31.405  23.170  1.00  0.00    -0.224 OA
ENDBRANCH  29  30
ENDBRANCH  16  24
ENDBRANCH  10  11
ENDBRANCH   7  10
ENDBRANCH   5   6
BRANCH   5  34
ATOM     34  C   UNL A   1      33.041  20.263  25.085  1.00  0.00     0.191 C 
BRANCH  34  35
ATOM     35  O   UNL A   1      32.944  19.240  26.077  1.00  0.00    -0.394 OA
ATOM     36  H   UNL A   1      33.668  19.340  26.715  1.00  0.00     0.210 HD
ENDBRANCH  34  35
ENDBRANCH   5  34
ENDBRANCH   1   5
BRANCH   3  37
ATOM     37  C   UNL A   1      37.240  22.398  25.282  1.00  0.00     0.117 C 
BRANCH  37  38
ATOM     38  C   UNL A   1      38.455  23.108  25.904  1.00  0.00     0.042 C 
BRANCH  38  39
ATOM     39  C   UNL A   1      39.437  22.233  26.716  1.00  0.00     0.118 C 
BRANCH  39  40
ATOM     40  N   UNL A   1      40.633  21.830  26.000  1.00  0.00    -0.352 N 
ATOM     41  C   UNL A   1      41.846  22.494  25.900  1.00  0.00     0.251 C 
ATOM     42  H   UNL A   1      40.575  20.972  25.522  1.00  0.00     0.163 HD
ATOM     43  O   UNL A   1      42.755  21.953  25.270  1.00  0.00    -0.269 OA
BRANCH  41  44
ATOM     44  C   UNL A   1      42.058  23.889  26.433  1.00  0.00     0.039 A 
ATOM     45  C   UNL A   1      41.742  24.120  27.760  1.00  0.00     0.014 A 
ATOM     46  C   UNL A   1      42.312  25.029  25.646  1.00  0.00     0.014 A 
ATOM     47  C   UNL A   1      41.744  25.444  28.284  1.00  0.00     0.010 A 
ATOM     48  C   UNL A   1      42.222  26.391  26.173  1.00  0.00     0.010 A 
ATOM     49  C   UNL A   1      41.915  26.659  27.521  1.00  0.00    -0.014 A 
BRANCH  49  50
ATOM     50  C   UNL A   1      41.263  27.997  28.167  1.00  0.00     0.031 A 
ATOM     51  C   UNL A   1      42.445  28.904  28.257  1.00  0.00     0.074 A 
ATOM     52  C   UNL A   1      40.111  28.541  28.746  1.00  0.00     0.049 A 
ATOM     53  N   UNL A   1      43.501  28.517  28.923  1.00  0.00    -0.248 NA
ATOM     54  C   UNL A   1      42.681  30.003  27.318  1.00  0.00     0.031 C 
ATOM     55  C   UNL A   1      38.841  27.865  29.062  1.00  0.00     0.029 A 
ATOM     56  N   UNL A   1      39.786  29.868  29.201  1.00  0.00    -0.354 N 
ATOM     57  C   UNL A   1      44.450  29.485  28.721  1.00  0.00     0.074 A 
ATOM     58  C   UNL A   1      43.981  30.216  27.553  1.00  0.00     0.031 C 
ATOM     59  C   UNL A   1      37.886  28.744  29.492  1.00  0.00     0.029 A 
ATOM     60  C   UNL A   1      38.408  30.108  29.573  1.00  0.00     0.049 A 
ATOM     61  H   UNL A   1      40.467  30.576  29.257  1.00  0.00     0.167 HD
ATOM     62  C   UNL A   1      45.019  29.977  29.859  1.00  0.00     0.037 A 
ATOM     63  C   UNL A   1      37.746  31.269  29.982  1.00  0.00     0.037 A 
ATOM     64  C   UNL A   1      44.463  31.252  30.219  1.00  0.00     0.049 A 
ATOM     65  C   UNL A   1      38.768  32.166  30.528  1.00  0.00     0.074 A 
ATOM     66  C   UNL A   1      44.141  32.376  29.483  1.00  0.00     0.029 A 
ATOM     67  N   UNL A   1      43.708  31.308  31.369  1.00  0.00    -0.354 N 
ATOM     68  N   UNL A   1      39.223  32.008  31.732  1.00  0.00    -0.248 NA
ATOM     69  C   UNL A   1      39.238  33.356  29.829  1.00  0.00     0.031 C 
ATOM     70  C   UNL A   1      42.848  32.727  29.930  1.00  0.00     0.029 A 
ATOM     71  C   UNL A   1      42.611  32.111  31.152  1.00  0.00     0.049 A 
ATOM     72  H   UNL A   1      43.919  30.848  32.212  1.00  0.00     0.167 HD
ATOM     73  C   UNL A   1      40.379  32.710  31.711  1.00  0.00     0.074 A 
ATOM     74  C   UNL A   1      40.195  33.720  30.687  1.00  0.00     0.031 C 
ATOM     75  C   UNL A   1      41.484  32.002  32.042  1.00  0.00     0.037 A 
BRANCH  62  76
ATOM     76  C   UNL A   1      45.396  28.895  30.835  1.00  0.00     0.064 A 
ATOM     77  C   UNL A   1      46.746  28.581  31.009  1.00  0.00     0.173 A 
ATOM     78  C   UNL A   1      44.448  28.045  31.444  1.00  0.00     0.173 A 
ATOM     79  F   UNL A   1      47.694  29.388  30.509  1.00  0.00    -0.203 F 
ATOM     80  C   UNL A   1      47.130  27.426  31.691  1.00  0.00     0.198 A 
ATOM     81  C   UNL A   1      44.830  26.858  32.059  1.00  0.00     0.198 A 
ATOM     82  F   UNL A   1      43.141  28.357  31.433  1.00  0.00    -0.203 F 
ATOM     83  F   UNL A   1      48.430  27.157  31.869  1.00  0.00    -0.200 F 
ATOM     84  C   UNL A   1      46.172  26.546  32.176  1.00  0.00     0.200 A 
ATOM     85  F   UNL A   1      43.896  26.019  32.530  1.00  0.00    -0.200 F 
ATOM     86  F   UNL A   1      46.544  25.406  32.777  1.00  0.00    -0.200 F 
ENDBRANCH  62  76
BRANCH  63  87
ATOM     87  C   UNL A   1      36.351  31.914  30.257  1.00  0.00     0.064 A 
ATOM     88  C   UNL A   1      35.792  31.951  31.586  1.00  0.00     0.173 A 
ATOM     89  C   UNL A   1      35.770  32.849  29.389  1.00  0.00     0.173 A 
ATOM     90  F   UNL A   1      36.182  31.093  32.538  1.00  0.00    -0.203 F 
ATOM     91  C   UNL A   1      34.864  32.910  32.028  1.00  0.00     0.198 A 
ATOM     92  C   UNL A   1      34.799  33.789  29.829  1.00  0.00     0.198 A 
ATOM     93  F   UNL A   1      36.196  32.937  28.124  1.00  0.00    -0.203 F 
ATOM     94  F   UNL A   1      34.506  32.959  33.323  1.00  0.00    -0.200 F 
ATOM     95  C   UNL A   1      34.379  33.845  31.150  1.00  0.00     0.200 A 
ATOM     96  F   UNL A   1      34.317  34.701  28.971  1.00  0.00    -0.200 F 
ATOM     97  F   UNL A   1      33.545  34.807  31.577  1.00  0.00    -0.200 F 
ENDBRANCH  63  87
BRANCH  75  98
ATOM     98  C   UNL A   1      41.359  31.045  33.221  1.00  0.00     0.064 A 
ATOM     99  C   UNL A   1      41.597  31.324  34.591  1.00  0.00     0.173 A 
ATOM    100  C   UNL A   1      41.060  29.708  32.918  1.00  0.00     0.173 A 
ATOM    101  F   UNL A   1      41.759  32.572  35.053  1.00  0.00    -0.203 F 
ATOM    102  C   UNL A   1      41.642  30.312  35.554  1.00  0.00     0.198 A 
ATOM    103  C   UNL A   1      41.038  28.712  33.893  1.00  0.00     0.198 A 
ATOM    104  F   UNL A   1      40.764  29.359  31.656  1.00  0.00    -0.203 F 
ATOM    105  F   UNL A   1      41.953  30.606  36.826  1.00  0.00    -0.200 F 
ATOM    106  C   UNL A   1      41.360  29.006  35.204  1.00  0.00     0.200 A 
ATOM    107  F   UNL A   1      40.702  27.461  33.550  1.00  0.00    -0.200 F 
ATOM    108  F   UNL A   1      41.381  28.037  36.129  1.00  0.00    -0.200 F 
ENDBRANCH  75  98
ENDBRANCH  49  50
ENDBRANCH  41  44
ENDBRANCH  39  40
ENDBRANCH  38  39
ENDBRANCH  37  38
ENDBRANCH   3  37
TORSDOF 18
ENDMDL
