MODEL 1
REMARK VINA RESULT:     -13.9      0.000      0.000
REMARK SMILES Cc1ccc([C@@H](CC(=O)NCCCNC(=O)c2ccc(-c3c4nc(c(-c5c(F)c(F)c(F)c(F)c5F)c5ccc([nH]5)c(-c5c(F)c(F)c(F)c(F)c5F)c5nc(c(-c6c(F)c(F)c(F)c(F)c6F)c6ccc3[nH]6)C=C5)C=C4)cc2)NC(=O)c2ccc(OC(F)F)cc2)cc1
REMARK SMILES IDX 8 1 9 2 10 3 7 5 6 6 5 7 1 8 2 9 3 10 94 11 4 12 93 13 80 14
REMARK SMILES IDX 81 15 82 17 83 18 84 19 92 20 85 21 91 22 86 23 87 24 88 25
REMARK SMILES IDX 89 26 90 27 11 28 12 29 13 30 14 31 15 32 16 34 17 35 18 36
REMARK SMILES IDX 79 37 19 38 78 39 20 40 21 41 22 42 72 43 23 44 77 45 71 46
REMARK SMILES IDX 73 47 24 48 76 49 70 50 69 51 25 53 57 54 37 55 56 56 38 57
REMARK SMILES IDX 41 58 55 59 74 60 39 61 40 62 54 64 75 65 42 66 26 67 27 68
REMARK SMILES IDX 35 69 28 70 29 71 33 72 36 73 30 74 31 75 34 76 32 77 58 78
REMARK SMILES IDX 59 79 67 80 60 81 61 82 65 83 68 84 62 85 63 86 66 87 64 88
REMARK SMILES IDX 43 89 44 90 52 91 45 92 46 93 50 94 53 95 47 96 48 97 51 98
REMARK SMILES IDX 49 99
REMARK H PARENT 10 4 80 16 14 33 73 52 41 63
REMARK Flexibility Score: inf
ROOT
ATOM      1  C   UNL A   1      32.078  27.908  27.342  1.00  0.00     0.222 C 
ATOM      2  O   UNL A   1      31.022  27.654  27.924  1.00  0.00    -0.275 OA
ATOM      3  N   UNL A   1      32.777  28.994  27.760  1.00  0.00    -0.356 N 
ATOM      4  H   UNL A   1      32.484  29.357  28.627  1.00  0.00     0.163 HD
ENDROOT
BRANCH   1   5
ATOM      5  C   UNL A   1      32.632  26.985  26.285  1.00  0.00     0.129 C 
BRANCH   5   6
ATOM      6  C   UNL A   1      31.647  25.997  25.624  1.00  0.00     0.122 C 
BRANCH   6   7
ATOM      7  C   UNL A   1      30.782  26.753  24.614  1.00  0.00    -0.025 A 
ATOM      8  C   UNL A   1      28.239  29.422  22.354  1.00  0.00     0.044 C 
ATOM      9  C   UNL A   1      29.146  28.450  23.051  1.00  0.00    -0.051 A 
ATOM     10  C   UNL A   1      28.660  27.228  23.521  1.00  0.00     0.004 A 
ATOM     11  C   UNL A   1      30.475  28.793  23.307  1.00  0.00     0.004 A 
ATOM     12  C   UNL A   1      29.474  26.382  24.283  1.00  0.00     0.006 A 
ATOM     13  C   UNL A   1      31.283  27.952  24.073  1.00  0.00     0.006 A 
ENDBRANCH   6   7
BRANCH   6  14
ATOM     14  N   UNL A   1      30.864  25.163  26.532  1.00  0.00    -0.345 N 
ATOM     15  C   UNL A   1      30.980  23.826  26.821  1.00  0.00     0.251 C 
ATOM     16  H   UNL A   1      30.144  25.632  27.010  1.00  0.00     0.164 HD
ATOM     17  O   UNL A   1      30.041  23.236  27.351  1.00  0.00    -0.269 OA
BRANCH  15  18
ATOM     18  C   UNL A   1      32.216  23.081  26.504  1.00  0.00     0.040 A 
ATOM     19  C   UNL A   1      33.220  22.968  27.468  1.00  0.00     0.017 A 
ATOM     20  C   UNL A   1      32.442  22.597  25.216  1.00  0.00     0.017 A 
ATOM     21  C   UNL A   1      34.416  22.314  27.151  1.00  0.00     0.047 A 
ATOM     22  C   UNL A   1      33.628  21.925  24.908  1.00  0.00     0.047 A 
ATOM     23  C   UNL A   1      34.620  21.773  25.876  1.00  0.00     0.126 A 
BRANCH  23  24
ATOM     24  O   UNL A   1      35.825  21.156  25.699  1.00  0.00    -0.435 OA
BRANCH  24  25
ATOM     25  C   UNL A   1      36.913  21.938  25.218  1.00  0.00     0.542 C 
ATOM     26  F   UNL A   1      38.003  21.746  26.001  1.00  0.00    -0.167 F 
ATOM     27  F   UNL A   1      37.229  21.571  23.953  1.00  0.00    -0.167 F 
ENDBRANCH  24  25
ENDBRANCH  23  24
ENDBRANCH  15  18
ENDBRANCH   6  14
ENDBRANCH   5   6
ENDBRANCH   1   5
BRANCH   3  28
ATOM     28  C   UNL A   1      33.881  29.714  27.150  1.00  0.00     0.117 C 
BRANCH  28  29
ATOM     29  C   UNL A   1      33.775  31.179  27.540  1.00  0.00     0.042 C 
BRANCH  29  30
ATOM     30  C   UNL A   1      35.112  31.876  27.722  1.00  0.00     0.118 C 
BRANCH  30  31
ATOM     31  N   UNL A   1      35.459  32.252  29.091  1.00  0.00    -0.352 N 
ATOM     32  C   UNL A   1      36.385  31.627  29.918  1.00  0.00     0.251 C 
ATOM     33  H   UNL A   1      34.988  33.030  29.468  1.00  0.00     0.163 HD
ATOM     34  O   UNL A   1      36.829  32.153  30.928  1.00  0.00    -0.269 OA
BRANCH  32  35
ATOM     35  C   UNL A   1      36.843  30.288  29.505  1.00  0.00     0.039 A 
ATOM     36  C   UNL A   1      36.971  29.309  30.496  1.00  0.00     0.014 A 
ATOM     37  C   UNL A   1      37.546  30.218  28.304  1.00  0.00     0.014 A 
ATOM     38  C   UNL A   1      38.025  28.407  30.402  1.00  0.00     0.010 A 
ATOM     39  C   UNL A   1      38.629  29.361  28.250  1.00  0.00     0.010 A 
ATOM     40  C   UNL A   1      38.936  28.541  29.353  1.00  0.00    -0.014 A 
BRANCH  40  41
ATOM     41  C   UNL A   1      40.333  28.098  29.445  1.00  0.00     0.031 A 
ATOM     42  C   UNL A   1      40.741  26.770  28.928  1.00  0.00     0.074 A 
ATOM     43  C   UNL A   1      41.295  28.975  29.829  1.00  0.00     0.049 A 
ATOM     44  N   UNL A   1      41.929  26.279  29.053  1.00  0.00    -0.248 NA
ATOM     45  C   UNL A   1      39.810  25.841  28.297  1.00  0.00     0.031 C 
ATOM     46  C   UNL A   1      42.727  28.888  29.544  1.00  0.00     0.029 A 
ATOM     47  N   UNL A   1      41.197  30.050  30.735  1.00  0.00    -0.354 N 
ATOM     48  C   UNL A   1      41.999  25.123  28.315  1.00  0.00     0.074 A 
ATOM     49  C   UNL A   1      40.631  24.840  27.962  1.00  0.00     0.031 C 
ATOM     50  C   UNL A   1      43.401  29.618  30.442  1.00  0.00     0.029 A 
ATOM     51  C   UNL A   1      42.442  30.082  31.422  1.00  0.00     0.049 A 
ATOM     52  H   UNL A   1      40.428  30.652  30.865  1.00  0.00     0.167 HD
ATOM     53  C   UNL A   1      43.230  24.609  28.026  1.00  0.00     0.037 A 
ATOM     54  C   UNL A   1      42.534  29.879  32.769  1.00  0.00     0.037 A 
ATOM     55  C   UNL A   1      44.259  25.208  28.881  1.00  0.00     0.049 A 
ATOM     56  C   UNL A   1      43.386  28.697  33.185  1.00  0.00     0.074 A 
ATOM     57  C   UNL A   1      45.280  26.128  28.720  1.00  0.00     0.029 A 
ATOM     58  N   UNL A   1      44.158  24.991  30.244  1.00  0.00    -0.354 N 
ATOM     59  N   UNL A   1      43.982  27.895  32.350  1.00  0.00    -0.248 NA
ATOM     60  C   UNL A   1      43.530  28.259  34.576  1.00  0.00     0.031 C 
ATOM     61  C   UNL A   1      45.766  26.481  30.017  1.00  0.00     0.029 A 
ATOM     62  C   UNL A   1      45.047  25.765  30.958  1.00  0.00     0.049 A 
ATOM     63  H   UNL A   1      43.525  24.358  30.655  1.00  0.00     0.167 HD
ATOM     64  C   UNL A   1      44.467  26.815  33.035  1.00  0.00     0.074 A 
ATOM     65  C   UNL A   1      44.191  27.099  34.430  1.00  0.00     0.031 C 
ATOM     66  C   UNL A   1      44.995  25.727  32.409  1.00  0.00     0.037 A 
BRANCH  53  67
ATOM     67  C   UNL A   1      43.564  23.626  26.916  1.00  0.00     0.064 A 
ATOM     68  C   UNL A   1      43.122  22.285  27.003  1.00  0.00     0.173 A 
ATOM     69  C   UNL A   1      44.389  23.887  25.802  1.00  0.00     0.173 A 
ATOM     70  F   UNL A   1      42.324  21.873  27.999  1.00  0.00    -0.203 F 
ATOM     71  C   UNL A   1      43.497  21.300  26.081  1.00  0.00     0.198 A 
ATOM     72  C   UNL A   1      44.734  22.911  24.862  1.00  0.00     0.198 A 
ATOM     73  F   UNL A   1      44.935  25.082  25.573  1.00  0.00    -0.203 F 
ATOM     74  F   UNL A   1      43.081  20.037  26.251  1.00  0.00    -0.200 F 
ATOM     75  C   UNL A   1      44.302  21.613  25.008  1.00  0.00     0.200 A 
ATOM     76  F   UNL A   1      45.514  23.244  23.822  1.00  0.00    -0.200 F 
ATOM     77  F   UNL A   1      44.667  20.674  24.127  1.00  0.00    -0.200 F 
ENDBRANCH  53  67
BRANCH  54  78
ATOM     78  C   UNL A   1      41.337  30.364  33.496  1.00  0.00     0.064 A 
ATOM     79  C   UNL A   1      41.240  31.742  33.761  1.00  0.00     0.173 A 
ATOM     80  C   UNL A   1      40.164  29.603  33.535  1.00  0.00     0.173 A 
ATOM     81  F   UNL A   1      42.339  32.511  33.730  1.00  0.00    -0.203 F 
ATOM     82  C   UNL A   1      40.001  32.357  33.916  1.00  0.00     0.198 A 
ATOM     83  C   UNL A   1      38.926  30.221  33.707  1.00  0.00     0.198 A 
ATOM     84  F   UNL A   1      40.198  28.288  33.271  1.00  0.00    -0.203 F 
ATOM     85  F   UNL A   1      39.926  33.690  34.029  1.00  0.00    -0.200 F 
ATOM     86  C   UNL A   1      38.843  31.599  33.855  1.00  0.00     0.200 A 
ATOM     87  F   UNL A   1      37.803  29.495  33.611  1.00  0.00    -0.200 F 
ATOM     88  F   UNL A   1      37.646  32.200  33.879  1.00  0.00    -0.200 F 
ENDBRANCH  54  78
BRANCH  66  89
ATOM     89  C   UNL A   1      45.471  24.515  33.145  1.00  0.00     0.064 A 
ATOM     90  C   UNL A   1      44.614  23.448  33.447  1.00  0.00     0.173 A 
ATOM     91  C   UNL A   1      46.774  24.448  33.675  1.00  0.00     0.173 A 
ATOM     92  F   UNL A   1      43.354  23.435  32.986  1.00  0.00    -0.203 F 
ATOM     93  C   UNL A   1      45.036  22.378  34.239  1.00  0.00     0.198 A 
ATOM     94  C   UNL A   1      47.179  23.404  34.503  1.00  0.00     0.198 A 
ATOM     95  F   UNL A   1      47.690  25.385  33.383  1.00  0.00    -0.203 F 
ATOM     96  F   UNL A   1      44.200  21.359  34.482  1.00  0.00    -0.200 F 
ATOM     97  C   UNL A   1      46.310  22.367  34.783  1.00  0.00     0.200 A 
ATOM     98  F   UNL A   1      48.414  23.409  35.025  1.00  0.00    -0.200 F 
ATOM     99  F   UNL A   1      46.703  21.354  35.567  1.00  0.00    -0.200 F 
ENDBRANCH  66  89
ENDBRANCH  40  41
ENDBRANCH  32  35
ENDBRANCH  30  31
ENDBRANCH  29  30
ENDBRANCH  28  29
ENDBRANCH   3  28
TORSDOF 16
ENDMDL
MODEL 2
REMARK VINA RESULT:     -13.6      3.973     10.076
REMARK SMILES Cc1ccc([C@@H](CC(=O)NCCCNC(=O)c2ccc(-c3c4nc(c(-c5c(F)c(F)c(F)c(F)c5F)c5ccc([nH]5)c(-c5c(F)c(F)c(F)c(F)c5F)c5nc(c(-c6c(F)c(F)c(F)c(F)c6F)c6ccc3[nH]6)C=C5)C=C4)cc2)NC(=O)c2ccc(OC(F)F)cc2)cc1
REMARK SMILES IDX 8 1 9 2 10 3 7 5 6 6 5 7 1 8 2 9 3 10 94 11 4 12 93 13 80 14
REMARK SMILES IDX 81 15 82 17 83 18 84 19 92 20 85 21 91 22 86 23 87 24 88 25
REMARK SMILES IDX 89 26 90 27 11 28 12 29 13 30 14 31 15 32 16 34 17 35 18 36
REMARK SMILES IDX 79 37 19 38 78 39 20 40 21 41 22 42 72 43 23 44 77 45 71 46
REMARK SMILES IDX 73 47 24 48 76 49 70 50 69 51 25 53 57 54 37 55 56 56 38 57
REMARK SMILES IDX 41 58 55 59 74 60 39 61 40 62 54 64 75 65 42 66 26 67 27 68
REMARK SMILES IDX 35 69 28 70 29 71 33 72 36 73 30 74 31 75 34 76 32 77 58 78
REMARK SMILES IDX 59 79 67 80 60 81 61 82 65 83 68 84 62 85 63 86 66 87 64 88
REMARK SMILES IDX 43 89 44 90 52 91 45 92 46 93 50 94 53 95 47 96 48 97 51 98
REMARK SMILES IDX 49 99
REMARK H PARENT 10 4 80 16 14 33 73 52 41 63
REMARK Flexibility Score: inf
ROOT
ATOM      1  C   UNL A   1      35.661  23.359  24.712  1.00  0.00     0.222 C 
ATOM      2  O   UNL A   1      35.444  24.431  25.279  1.00  0.00    -0.275 OA
ATOM      3  N   UNL A   1      36.715  22.623  25.148  1.00  0.00    -0.356 N 
ATOM      4  H   UNL A   1      37.082  22.911  26.015  1.00  0.00     0.163 HD
ENDROOT
BRANCH   1   5
ATOM      5  C   UNL A   1      34.725  22.830  23.653  1.00  0.00     0.129 C 
BRANCH   5   6
ATOM      6  C   UNL A   1      33.324  22.375  24.112  1.00  0.00     0.122 C 
BRANCH   6   7
ATOM      7  C   UNL A   1      33.269  20.846  24.111  1.00  0.00    -0.025 A 
ATOM      8  C   UNL A   1      33.756  16.577  23.627  1.00  0.00     0.044 C 
ATOM      9  C   UNL A   1      33.524  18.039  23.872  1.00  0.00    -0.051 A 
ATOM     10  C   UNL A   1      32.484  18.717  23.232  1.00  0.00     0.004 A 
ATOM     11  C   UNL A   1      34.398  18.760  24.688  1.00  0.00     0.004 A 
ATOM     12  C   UNL A   1      32.350  20.104  23.361  1.00  0.00     0.006 A 
ATOM     13  C   UNL A   1      34.268  20.143  24.810  1.00  0.00     0.006 A 
ENDBRANCH   6   7
BRANCH   6  14
ATOM     14  N   UNL A   1      32.190  22.985  23.424  1.00  0.00    -0.345 N 
ATOM     15  C   UNL A   1      31.624  24.226  23.586  1.00  0.00     0.251 C 
ATOM     16  H   UNL A   1      31.767  22.421  22.738  1.00  0.00     0.164 HD
ATOM     17  O   UNL A   1      30.492  24.438  23.158  1.00  0.00    -0.269 OA
BRANCH  15  18
ATOM     18  C   UNL A   1      32.354  25.313  24.269  1.00  0.00     0.040 A 
ATOM     19  C   UNL A   1      32.183  25.503  25.642  1.00  0.00     0.017 A 
ATOM     20  C   UNL A   1      33.115  26.226  23.539  1.00  0.00     0.017 A 
ATOM     21  C   UNL A   1      32.827  26.569  26.281  1.00  0.00     0.047 A 
ATOM     22  C   UNL A   1      33.775  27.277  24.182  1.00  0.00     0.047 A 
ATOM     23  C   UNL A   1      33.641  27.451  25.559  1.00  0.00     0.126 A 
BRANCH  23  24
ATOM     24  O   UNL A   1      34.216  28.442  26.301  1.00  0.00    -0.435 OA
BRANCH  24  25
ATOM     25  C   UNL A   1      33.496  29.658  26.465  1.00  0.00     0.542 C 
ATOM     26  F   UNL A   1      34.301  30.603  27.011  1.00  0.00    -0.167 F 
ATOM     27  F   UNL A   1      33.064  30.112  25.264  1.00  0.00    -0.167 F 
ENDBRANCH  24  25
ENDBRANCH  23  24
ENDBRANCH  15  18
ENDBRANCH   6  14
ENDBRANCH   5   6
ENDBRANCH   1   5
BRANCH   3  28
ATOM     28  C   UNL A   1      37.395  21.484  24.556  1.00  0.00     0.117 C 
BRANCH  28  29
ATOM     29  C   UNL A   1      38.655  21.205  25.360  1.00  0.00     0.042 C 
BRANCH  29  30
ATOM     30  C   UNL A   1      39.104  22.358  26.240  1.00  0.00     0.118 C 
BRANCH  30  31
ATOM     31  N   UNL A   1      40.545  22.584  26.317  1.00  0.00    -0.352 N 
ATOM     32  C   UNL A   1      41.186  23.764  26.674  1.00  0.00     0.251 C 
ATOM     33  H   UNL A   1      41.124  21.820  26.092  1.00  0.00     0.163 HD
ATOM     34  O   UNL A   1      42.367  23.804  26.991  1.00  0.00    -0.269 OA
BRANCH  32  35
ATOM     35  C   UNL A   1      40.364  24.987  26.685  1.00  0.00     0.039 A 
ATOM     36  C   UNL A   1      40.832  26.093  25.969  1.00  0.00     0.014 A 
ATOM     37  C   UNL A   1      39.467  25.119  27.744  1.00  0.00     0.014 A 
ATOM     38  C   UNL A   1      40.622  27.362  26.499  1.00  0.00     0.010 A 
ATOM     39  C   UNL A   1      39.318  26.376  28.298  1.00  0.00     0.010 A 
ATOM     40  C   UNL A   1      39.996  27.477  27.741  1.00  0.00    -0.014 A 
BRANCH  40  41
ATOM     41  C   UNL A   1      40.231  28.605  28.653  1.00  0.00     0.031 A 
ATOM     42  C   UNL A   1      39.216  29.673  28.813  1.00  0.00     0.074 A 
ATOM     43  C   UNL A   1      41.293  28.578  29.498  1.00  0.00     0.049 A 
ATOM     44  N   UNL A   1      39.390  30.735  29.526  1.00  0.00    -0.248 NA
ATOM     45  C   UNL A   1      37.941  29.672  28.105  1.00  0.00     0.031 C 
ATOM     46  C   UNL A   1      41.438  29.323  30.750  1.00  0.00     0.029 A 
ATOM     47  N   UNL A   1      42.564  28.005  29.298  1.00  0.00    -0.354 N 
ATOM     48  C   UNL A   1      38.198  31.413  29.591  1.00  0.00     0.074 A 
ATOM     49  C   UNL A   1      37.367  30.773  28.602  1.00  0.00     0.031 C 
ATOM     50  C   UNL A   1      42.739  29.429  31.052  1.00  0.00     0.029 A 
ATOM     51  C   UNL A   1      43.482  28.885  29.936  1.00  0.00     0.049 A 
ATOM     52  H   UNL A   1      42.774  27.170  28.820  1.00  0.00     0.167 HD
ATOM     53  C   UNL A   1      38.046  32.376  30.546  1.00  0.00     0.037 A 
ATOM     54  C   UNL A   1      44.454  29.548  29.242  1.00  0.00     0.037 A 
ATOM     55  C   UNL A   1      39.345  32.760  31.109  1.00  0.00     0.049 A 
ATOM     56  C   UNL A   1      44.379  31.059  29.314  1.00  0.00     0.074 A 
ATOM     57  C   UNL A   1      40.020  32.548  32.298  1.00  0.00     0.029 A 
ATOM     58  N   UNL A   1      40.265  33.335  30.249  1.00  0.00    -0.354 N 
ATOM     59  N   UNL A   1      43.458  31.717  29.959  1.00  0.00    -0.248 NA
ATOM     60  C   UNL A   1      45.271  31.946  28.562  1.00  0.00     0.031 C 
ATOM     61  C   UNL A   1      41.371  32.979  32.122  1.00  0.00     0.029 A 
ATOM     62  C   UNL A   1      41.507  33.461  30.832  1.00  0.00     0.049 A 
ATOM     63  H   UNL A   1      40.056  33.620  29.330  1.00  0.00     0.167 HD
ATOM     64  C   UNL A   1      43.543  33.043  29.634  1.00  0.00     0.074 A 
ATOM     65  C   UNL A   1      44.712  33.148  28.783  1.00  0.00     0.031 C 
ATOM     66  C   UNL A   1      42.609  33.953  30.024  1.00  0.00     0.037 A 
BRANCH  53  67
ATOM     67  C   UNL A   1      36.735  32.938  31.068  1.00  0.00     0.064 A 
ATOM     68  C   UNL A   1      35.954  33.787  30.249  1.00  0.00     0.173 A 
ATOM     69  C   UNL A   1      36.230  32.779  32.376  1.00  0.00     0.173 A 
ATOM     70  F   UNL A   1      36.291  34.037  28.976  1.00  0.00    -0.203 F 
ATOM     71  C   UNL A   1      34.801  34.436  30.708  1.00  0.00     0.198 A 
ATOM     72  C   UNL A   1      35.059  33.400  32.823  1.00  0.00     0.198 A 
ATOM     73  F   UNL A   1      36.849  32.050  33.304  1.00  0.00    -0.203 F 
ATOM     74  F   UNL A   1      34.136  35.266  29.893  1.00  0.00    -0.200 F 
ATOM     75  C   UNL A   1      34.352  34.241  31.995  1.00  0.00     0.200 A 
ATOM     76  F   UNL A   1      34.640  33.187  34.080  1.00  0.00    -0.200 F 
ATOM     77  F   UNL A   1      33.253  34.863  32.441  1.00  0.00    -0.200 F 
ENDBRANCH  53  67
BRANCH  54  78
ATOM     78  C   UNL A   1      44.942  28.774  28.075  1.00  0.00     0.064 A 
ATOM     79  C   UNL A   1      45.852  27.728  28.312  1.00  0.00     0.173 A 
ATOM     80  C   UNL A   1      44.231  28.767  26.870  1.00  0.00     0.173 A 
ATOM     81  F   UNL A   1      46.551  27.693  29.457  1.00  0.00    -0.203 F 
ATOM     82  C   UNL A   1      45.939  26.643  27.444  1.00  0.00     0.198 A 
ATOM     83  C   UNL A   1      44.334  27.686  25.996  1.00  0.00     0.198 A 
ATOM     84  F   UNL A   1      43.337  29.731  26.603  1.00  0.00    -0.203 F 
ATOM     85  F   UNL A   1      46.710  25.594  27.761  1.00  0.00    -0.200 F 
ATOM     86  C   UNL A   1      45.154  26.609  26.303  1.00  0.00     0.200 A 
ATOM     87  F   UNL A   1      43.548  27.633  24.910  1.00  0.00    -0.200 F 
ATOM     88  F   UNL A   1      45.142  25.514  25.531  1.00  0.00    -0.200 F 
ENDBRANCH  54  78
BRANCH  66  89
ATOM     89  C   UNL A   1      42.659  35.393  29.623  1.00  0.00     0.064 A 
ATOM     90  C   UNL A   1      42.038  35.860  28.456  1.00  0.00     0.173 A 
ATOM     91  C   UNL A   1      43.439  36.323  30.338  1.00  0.00     0.173 A 
ATOM     92  F   UNL A   1      41.281  35.038  27.712  1.00  0.00    -0.203 F 
ATOM     93  C   UNL A   1      42.193  37.180  28.027  1.00  0.00     0.198 A 
ATOM     94  C   UNL A   1      43.631  37.626  29.885  1.00  0.00     0.198 A 
ATOM     95  F   UNL A   1      44.014  35.993  31.505  1.00  0.00    -0.203 F 
ATOM     96  F   UNL A   1      41.560  37.600  26.924  1.00  0.00    -0.200 F 
ATOM     97  C   UNL A   1      43.006  38.055  28.730  1.00  0.00     0.200 A 
ATOM     98  F   UNL A   1      44.422  38.460  30.573  1.00  0.00    -0.200 F 
ATOM     99  F   UNL A   1      43.178  39.313  28.301  1.00  0.00    -0.200 F 
ENDBRANCH  66  89
ENDBRANCH  40  41
ENDBRANCH  32  35
ENDBRANCH  30  31
ENDBRANCH  29  30
ENDBRANCH  28  29
ENDBRANCH   3  28
TORSDOF 16
ENDMDL
MODEL 3
REMARK VINA RESULT:     -13.2      3.802      9.485
REMARK SMILES Cc1ccc([C@@H](CC(=O)NCCCNC(=O)c2ccc(-c3c4nc(c(-c5c(F)c(F)c(F)c(F)c5F)c5ccc([nH]5)c(-c5c(F)c(F)c(F)c(F)c5F)c5nc(c(-c6c(F)c(F)c(F)c(F)c6F)c6ccc3[nH]6)C=C5)C=C4)cc2)NC(=O)c2ccc(OC(F)F)cc2)cc1
REMARK SMILES IDX 8 1 9 2 10 3 7 5 6 6 5 7 1 8 2 9 3 10 94 11 4 12 93 13 80 14
REMARK SMILES IDX 81 15 82 17 83 18 84 19 92 20 85 21 91 22 86 23 87 24 88 25
REMARK SMILES IDX 89 26 90 27 11 28 12 29 13 30 14 31 15 32 16 34 17 35 18 36
REMARK SMILES IDX 79 37 19 38 78 39 20 40 21 41 22 42 72 43 23 44 77 45 71 46
REMARK SMILES IDX 73 47 24 48 76 49 70 50 69 51 25 53 57 54 37 55 56 56 38 57
REMARK SMILES IDX 41 58 55 59 74 60 39 61 40 62 54 64 75 65 42 66 26 67 27 68
REMARK SMILES IDX 35 69 28 70 29 71 33 72 36 73 30 74 31 75 34 76 32 77 58 78
REMARK SMILES IDX 59 79 67 80 60 81 61 82 65 83 68 84 62 85 63 86 66 87 64 88
REMARK SMILES IDX 43 89 44 90 52 91 45 92 46 93 50 94 53 95 47 96 48 97 51 98
REMARK SMILES IDX 49 99
REMARK H PARENT 10 4 80 16 14 33 73 52 41 63
REMARK Flexibility Score: inf
ROOT
ATOM      1  C   UNL A   1      34.774  23.963  23.564  1.00  0.00     0.222 C 
ATOM      2  O   UNL A   1      34.237  23.485  22.563  1.00  0.00    -0.275 OA
ATOM      3  N   UNL A   1      36.034  23.551  23.855  1.00  0.00    -0.356 N 
ATOM      4  H   UNL A   1      36.483  23.069  23.123  1.00  0.00     0.163 HD
ENDROOT
BRANCH   1   5
ATOM      5  C   UNL A   1      34.102  25.047  24.371  1.00  0.00     0.129 C 
BRANCH   5   6
ATOM      6  C   UNL A   1      32.616  24.841  24.731  1.00  0.00     0.122 C 
BRANCH   6   7
ATOM      7  C   UNL A   1      31.819  26.069  24.290  1.00  0.00    -0.025 A 
ATOM      8  C   UNL A   1      29.349  29.085  22.418  1.00  0.00     0.044 C 
ATOM      9  C   UNL A   1      30.206  28.096  23.152  1.00  0.00    -0.051 A 
ATOM     10  C   UNL A   1      31.599  28.190  23.117  1.00  0.00     0.004 A 
ATOM     11  C   UNL A   1      29.619  27.018  23.817  1.00  0.00     0.004 A 
ATOM     12  C   UNL A   1      32.397  27.195  23.692  1.00  0.00     0.006 A 
ATOM     13  C   UNL A   1      30.415  26.022  24.383  1.00  0.00     0.006 A 
ENDBRANCH   6   7
BRANCH   6  14
ATOM     14  N   UNL A   1      32.335  24.444  26.108  1.00  0.00    -0.345 N 
ATOM     15  C   UNL A   1      32.222  23.192  26.659  1.00  0.00     0.251 C 
ATOM     16  H   UNL A   1      32.208  25.190  26.738  1.00  0.00     0.164 HD
ATOM     17  O   UNL A   1      31.667  23.055  27.747  1.00  0.00    -0.269 OA
BRANCH  15  18
ATOM     18  C   UNL A   1      32.757  22.002  25.965  1.00  0.00     0.040 A 
ATOM     19  C   UNL A   1      31.923  21.259  25.127  1.00  0.00     0.017 A 
ATOM     20  C   UNL A   1      34.046  21.544  26.234  1.00  0.00     0.017 A 
ATOM     21  C   UNL A   1      32.410  20.098  24.516  1.00  0.00     0.047 A 
ATOM     22  C   UNL A   1      34.538  20.397  25.604  1.00  0.00     0.047 A 
ATOM     23  C   UNL A   1      33.725  19.671  24.735  1.00  0.00     0.126 A 
BRANCH  23  24
ATOM     24  O   UNL A   1      34.077  18.529  24.074  1.00  0.00    -0.435 OA
BRANCH  24  25
ATOM     25  C   UNL A   1      33.353  17.339  24.363  1.00  0.00     0.542 C 
ATOM     26  F   UNL A   1      33.382  16.508  23.292  1.00  0.00    -0.167 F 
ATOM     27  F   UNL A   1      33.913  16.694  25.415  1.00  0.00    -0.167 F 
ENDBRANCH  24  25
ENDBRANCH  23  24
ENDBRANCH  15  18
ENDBRANCH   6  14
ENDBRANCH   5   6
ENDBRANCH   1   5
BRANCH   3  28
ATOM     28  C   UNL A   1      36.834  23.698  25.058  1.00  0.00     0.117 C 
BRANCH  28  29
ATOM     29  C   UNL A   1      38.058  22.805  24.935  1.00  0.00     0.042 C 
BRANCH  29  30
ATOM     30  C   UNL A   1      38.674  22.399  26.262  1.00  0.00     0.118 C 
BRANCH  30  31
ATOM     31  N   UNL A   1      40.126  22.521  26.360  1.00  0.00    -0.352 N 
ATOM     32  C   UNL A   1      40.847  23.659  26.703  1.00  0.00     0.251 C 
ATOM     33  H   UNL A   1      40.651  21.711  26.164  1.00  0.00     0.163 HD
ATOM     34  O   UNL A   1      42.021  23.620  27.040  1.00  0.00    -0.269 OA
BRANCH  32  35
ATOM     35  C   UNL A   1      40.116  24.939  26.670  1.00  0.00     0.039 A 
ATOM     36  C   UNL A   1      40.701  26.006  25.980  1.00  0.00     0.014 A 
ATOM     37  C   UNL A   1      39.177  25.140  27.680  1.00  0.00     0.014 A 
ATOM     38  C   UNL A   1      40.557  27.288  26.499  1.00  0.00     0.010 A 
ATOM     39  C   UNL A   1      39.091  26.407  28.226  1.00  0.00     0.010 A 
ATOM     40  C   UNL A   1      39.877  27.454  27.706  1.00  0.00    -0.014 A 
BRANCH  40  41
ATOM     41  C   UNL A   1      40.145  28.564  28.629  1.00  0.00     0.031 A 
ATOM     42  C   UNL A   1      39.150  29.645  28.822  1.00  0.00     0.074 A 
ATOM     43  C   UNL A   1      41.221  28.509  29.455  1.00  0.00     0.049 A 
ATOM     44  N   UNL A   1      39.352  30.694  29.548  1.00  0.00    -0.248 NA
ATOM     45  C   UNL A   1      37.863  29.673  28.137  1.00  0.00     0.031 C 
ATOM     46  C   UNL A   1      41.399  29.233  30.714  1.00  0.00     0.029 A 
ATOM     47  N   UNL A   1      42.480  27.919  29.225  1.00  0.00    -0.354 N 
ATOM     48  C   UNL A   1      38.172  31.389  29.643  1.00  0.00     0.074 A 
ATOM     49  C   UNL A   1      37.315  30.776  28.660  1.00  0.00     0.031 C 
ATOM     50  C   UNL A   1      42.706  29.315  30.995  1.00  0.00     0.029 A 
ATOM     51  C   UNL A   1      43.422  28.776  29.858  1.00  0.00     0.049 A 
ATOM     52  H   UNL A   1      42.668  27.088  28.731  1.00  0.00     0.167 HD
ATOM     53  C   UNL A   1      38.052  32.341  30.614  1.00  0.00     0.037 A 
ATOM     54  C   UNL A   1      44.391  29.434  29.157  1.00  0.00     0.037 A 
ATOM     55  C   UNL A   1      39.366  32.696  31.159  1.00  0.00     0.049 A 
ATOM     56  C   UNL A   1      44.341  30.945  29.251  1.00  0.00     0.074 A 
ATOM     57  C   UNL A   1      40.058  32.457  32.333  1.00  0.00     0.029 A 
ATOM     58  N   UNL A   1      40.279  33.269  30.292  1.00  0.00    -0.354 N 
ATOM     59  N   UNL A   1      43.442  31.608  29.922  1.00  0.00    -0.248 NA
ATOM     60  C   UNL A   1      45.234  31.830  28.496  1.00  0.00     0.031 C 
ATOM     61  C   UNL A   1      41.413  32.869  32.139  1.00  0.00     0.029 A 
ATOM     62  C   UNL A   1      41.534  33.368  30.854  1.00  0.00     0.049 A 
ATOM     63  H   UNL A   1      40.059  33.571  29.380  1.00  0.00     0.167 HD
ATOM     64  C   UNL A   1      43.542  32.937  29.615  1.00  0.00     0.074 A 
ATOM     65  C   UNL A   1      44.697  33.036  28.744  1.00  0.00     0.031 C 
ATOM     66  C   UNL A   1      42.629  33.856  30.033  1.00  0.00     0.037 A 
BRANCH  53  67
ATOM     67  C   UNL A   1      36.759  32.914  31.167  1.00  0.00     0.064 A 
ATOM     68  C   UNL A   1      35.966  33.770  30.367  1.00  0.00     0.173 A 
ATOM     69  C   UNL A   1      36.284  32.761  32.487  1.00  0.00     0.173 A 
ATOM     70  F   UNL A   1      36.274  34.015  29.085  1.00  0.00    -0.203 F 
ATOM     71  C   UNL A   1      34.831  34.429  30.853  1.00  0.00     0.198 A 
ATOM     72  C   UNL A   1      35.130  33.393  32.962  1.00  0.00     0.198 A 
ATOM     73  F   UNL A   1      36.919  32.027  33.401  1.00  0.00    -0.203 F 
ATOM     74  F   UNL A   1      34.153  35.265  30.053  1.00  0.00    -0.200 F 
ATOM     75  C   UNL A   1      34.411  34.240  32.151  1.00  0.00     0.200 A 
ATOM     76  F   UNL A   1      34.740  33.185  34.229  1.00  0.00    -0.200 F 
ATOM     77  F   UNL A   1      33.329  34.872  32.622  1.00  0.00    -0.200 F 
ENDBRANCH  53  67
BRANCH  54  78
ATOM     78  C   UNL A   1      44.847  28.670  27.971  1.00  0.00     0.064 A 
ATOM     79  C   UNL A   1      45.739  27.602  28.177  1.00  0.00     0.173 A 
ATOM     80  C   UNL A   1      44.119  28.696  26.777  1.00  0.00     0.173 A 
ATOM     81  F   UNL A   1      46.455  27.536  29.311  1.00  0.00    -0.203 F 
ATOM     82  C   UNL A   1      45.793  26.531  27.291  1.00  0.00     0.198 A 
ATOM     83  C   UNL A   1      44.187  27.628  25.884  1.00  0.00     0.198 A 
ATOM     84  F   UNL A   1      43.240  29.681  26.538  1.00  0.00    -0.203 F 
ATOM     85  F   UNL A   1      46.547  25.462  27.580  1.00  0.00    -0.200 F 
ATOM     86  C   UNL A   1      44.990  26.530  26.162  1.00  0.00     0.200 A 
ATOM     87  F   UNL A   1      43.385  27.608  24.810  1.00  0.00    -0.200 F 
ATOM     88  F   UNL A   1      44.945  25.449  25.372  1.00  0.00    -0.200 F 
ENDBRANCH  54  78
BRANCH  66  89
ATOM     89  C   UNL A   1      42.694  35.300  29.652  1.00  0.00     0.064 A 
ATOM     90  C   UNL A   1      42.072  35.790  28.496  1.00  0.00     0.173 A 
ATOM     91  C   UNL A   1      43.490  36.211  30.376  1.00  0.00     0.173 A 
ATOM     92  F   UNL A   1      41.301  34.988  27.745  1.00  0.00    -0.203 F 
ATOM     93  C   UNL A   1      42.241  37.115  28.084  1.00  0.00     0.198 A 
ATOM     94  C   UNL A   1      43.695  37.518  29.939  1.00  0.00     0.198 A 
ATOM     95  F   UNL A   1      44.068  35.857  31.534  1.00  0.00    -0.203 F 
ATOM     96  F   UNL A   1      41.606  37.558  26.991  1.00  0.00    -0.200 F 
ATOM     97  C   UNL A   1      43.068  37.970  28.794  1.00  0.00     0.200 A 
ATOM     98  F   UNL A   1      44.500  38.332  30.634  1.00  0.00    -0.200 F 
ATOM     99  F   UNL A   1      43.253  39.231  28.381  1.00  0.00    -0.200 F 
ENDBRANCH  66  89
ENDBRANCH  40  41
ENDBRANCH  32  35
ENDBRANCH  30  31
ENDBRANCH  29  30
ENDBRANCH  28  29
ENDBRANCH   3  28
TORSDOF 16
ENDMDL
