MODEL 1
REMARK VINA RESULT:     -10.4      0.000      0.000
REMARK SMILES CS(=O)(=O)c1ccc(C2=NN(c3ccc(C(=O)NCCCNC(=O)c4ccc(-c5c6nc(c(-c7c(F)c(F)c(F)c(F)c7F)c7ccc([nH]7)c(-c7c(F)c(F)c(F)c(F)c7F)c7nc(c(-c8c(F)c(F)c(F)c(F)c8F)c8ccc5[nH]8)C=C7)C=C6)cc4)cc3)[C@H](c3ccc(Cl)cc3)C2)cc1
REMARK SMILES IDX 19 1 18 2 16 3 17 4 15 6 12 7 13 8 89 9 14 10 88 11 11 12
REMARK SMILES IDX 9 13 10 14 98 15 90 16 8 17 5 18 6 19 100 20 7 21 99 22 2 23
REMARK SMILES IDX 1 24 3 25 4 26 91 27 92 28 97 29 93 30 96 31 94 32 95 33
REMARK SMILES IDX 20 34 21 35 22 36 23 37 24 39 25 40 26 41 87 42 27 43 86 44
REMARK SMILES IDX 28 45 29 46 30 47 80 48 31 49 85 50 79 51 81 52 32 53 84 54
REMARK SMILES IDX 78 55 77 56 33 58 65 59 45 60 64 61 46 62 49 63 63 64 82 65
REMARK SMILES IDX 47 66 48 67 62 69 83 70 50 71 34 72 35 73 43 74 36 75 37 76
REMARK SMILES IDX 41 77 44 78 38 79 39 80 42 81 40 82 66 83 67 84 75 85 68 86
REMARK SMILES IDX 69 87 73 88 76 89 70 90 71 91 74 92 72 93 51 94 52 95 60 96
REMARK SMILES IDX 53 97 54 98 58 99 61 100 55 101 56 102 59 103 57 104
REMARK H PARENT 18 5 22 38 81 57 49 68
REMARK Flexibility Score: inf
ROOT
ATOM      1  C   UNL A   1      43.133  21.667  26.445  1.00  0.00     0.118 C 
ENDROOT
BRANCH   1   2
ATOM      2  N   UNL A   1      43.441  21.688  25.026  1.00  0.00    -0.352 N 
ATOM      3  C   UNL A   1      44.060  22.631  24.243  1.00  0.00     0.251 C 
ATOM      4  O   UNL A   1      44.281  22.353  23.066  1.00  0.00    -0.269 OA
ATOM      5  H   UNL A   1      43.154  20.883  24.537  1.00  0.00     0.163 HD
BRANCH   3   6
ATOM      6  C   UNL A   1      44.525  23.934  24.785  1.00  0.00     0.039 A 
ATOM      7  C   UNL A   1      45.524  26.314  25.918  1.00  0.00     0.060 A 
ATOM      8  C   UNL A   1      46.395  25.284  25.551  1.00  0.00     0.029 A 
ATOM      9  C   UNL A   1      44.163  26.169  25.639  1.00  0.00     0.029 A 
ATOM     10  C   UNL A   1      45.901  24.101  24.989  1.00  0.00     0.016 A 
ATOM     11  C   UNL A   1      43.668  25.001  25.061  1.00  0.00     0.016 A 
BRANCH   7  12
ATOM     12  N   UNL A   1      45.965  27.465  26.555  1.00  0.00    -0.257 N 
ATOM     13  C   UNL A   1      45.824  29.571  26.804  1.00  0.00     0.071 C 
ATOM     14  N   UNL A   1      45.105  28.502  26.677  1.00  0.00    -0.176 NA
ATOM     15  C   UNL A   1      47.311  29.378  26.692  1.00  0.00     0.091 C 
ATOM     16  C   UNL A   1      47.383  27.844  26.591  1.00  0.00     0.144 C 
BRANCH  13  17
ATOM     17  C   UNL A   1      45.218  30.888  27.048  1.00  0.00    -0.002 A 
ATOM     18  C   UNL A   1      44.160  33.424  27.455  1.00  0.00     0.067 A 
ATOM     19  C   UNL A   1      45.129  33.236  26.468  1.00  0.00     0.021 A 
ATOM     20  C   UNL A   1      43.711  32.352  28.236  1.00  0.00     0.021 A 
ATOM     21  C   UNL A   1      45.671  31.967  26.277  1.00  0.00     0.011 A 
ATOM     22  C   UNL A   1      44.239  31.074  28.028  1.00  0.00     0.011 A 
BRANCH  18  23
ATOM     23  S   UNL A   1      43.452  35.041  27.670  1.00  0.00     0.175 S 
ATOM     24  C   UNL A   1      42.359  34.843  29.053  1.00  0.00     0.163 C 
ATOM     25  O   UNL A   1      42.649  35.326  26.500  1.00  0.00    -0.224 OA
ATOM     26  O   UNL A   1      44.533  35.927  28.066  1.00  0.00    -0.224 OA
ENDBRANCH  18  23
ENDBRANCH  13  17
BRANCH  16  27
ATOM     27  C   UNL A   1      48.101  27.074  27.699  1.00  0.00    -0.023 A 
ATOM     28  C   UNL A   1      47.446  26.332  28.695  1.00  0.00     0.007 A 
ATOM     29  C   UNL A   1      49.513  27.055  27.692  1.00  0.00     0.007 A 
ATOM     30  C   UNL A   1      48.175  25.604  29.647  1.00  0.00     0.021 A 
ATOM     31  C   UNL A   1      50.240  26.305  28.622  1.00  0.00     0.021 A 
ATOM     32  C   UNL A   1      49.566  25.585  29.599  1.00  0.00     0.041 A 
ATOM     33  Cl  UNL A   1      50.453  24.655  30.742  1.00  0.00    -0.084 Cl
ENDBRANCH  16  27
ENDBRANCH   7  12
ENDBRANCH   3   6
ENDBRANCH   1   2
BRANCH   1  34
ATOM     34  C   UNL A   1      42.009  22.645  26.782  1.00  0.00     0.042 C 
BRANCH  34  35
ATOM     35  C   UNL A   1      40.666  21.964  27.022  1.00  0.00     0.118 C 
BRANCH  35  36
ATOM     36  N   UNL A   1      39.629  22.471  26.135  1.00  0.00    -0.352 N 
ATOM     37  C   UNL A   1      38.980  23.679  26.137  1.00  0.00     0.251 C 
ATOM     38  H   UNL A   1      39.350  21.851  25.423  1.00  0.00     0.163 HD
ATOM     39  O   UNL A   1      37.979  23.831  25.442  1.00  0.00    -0.269 OA
BRANCH  37  40
ATOM     40  C   UNL A   1      39.467  24.797  26.976  1.00  0.00     0.039 A 
ATOM     41  C   UNL A   1      40.268  25.779  26.388  1.00  0.00     0.014 A 
ATOM     42  C   UNL A   1      39.176  24.857  28.340  1.00  0.00     0.014 A 
ATOM     43  C   UNL A   1      40.730  26.851  27.155  1.00  0.00     0.010 A 
ATOM     44  C   UNL A   1      39.574  25.965  29.087  1.00  0.00     0.010 A 
ATOM     45  C   UNL A   1      40.358  26.970  28.503  1.00  0.00    -0.014 A 
BRANCH  45  46
ATOM     46  C   UNL A   1      40.784  28.135  29.320  1.00  0.00     0.031 A 
ATOM     47  C   UNL A   1      39.825  29.262  29.589  1.00  0.00     0.074 A 
ATOM     48  C   UNL A   1      42.052  28.205  29.769  1.00  0.00     0.049 A 
ATOM     49  N   UNL A   1      40.032  30.397  30.208  1.00  0.00    -0.248 NA
ATOM     50  C   UNL A   1      38.455  29.101  29.076  1.00  0.00     0.031 C 
ATOM     51  C   UNL A   1      43.085  27.191  29.546  1.00  0.00     0.029 A 
ATOM     52  N   UNL A   1      42.693  29.175  30.498  1.00  0.00    -0.354 N 
ATOM     53  C   UNL A   1      38.826  31.084  30.151  1.00  0.00     0.074 A 
ATOM     54  C   UNL A   1      37.909  30.267  29.387  1.00  0.00     0.031 C 
ATOM     55  C   UNL A   1      44.221  27.581  30.144  1.00  0.00     0.029 A 
ATOM     56  C   UNL A   1      44.012  28.890  30.754  1.00  0.00     0.049 A 
ATOM     57  H   UNL A   1      42.249  29.997  30.809  1.00  0.00     0.167 HD
ATOM     58  C   UNL A   1      38.506  32.278  30.708  1.00  0.00     0.037 A 
ATOM     59  C   UNL A   1      44.951  29.612  31.397  1.00  0.00     0.037 A 
ATOM     60  C   UNL A   1      39.418  33.081  31.478  1.00  0.00     0.049 A 
ATOM     61  C   UNL A   1      44.577  30.952  31.970  1.00  0.00     0.074 A 
ATOM     62  C   UNL A   1      39.182  34.290  32.111  1.00  0.00     0.029 A 
ATOM     63  N   UNL A   1      40.746  32.758  31.718  1.00  0.00    -0.354 N 
ATOM     64  N   UNL A   1      43.419  31.566  31.958  1.00  0.00    -0.248 NA
ATOM     65  C   UNL A   1      45.643  31.700  32.652  1.00  0.00     0.031 C 
ATOM     66  C   UNL A   1      40.378  34.720  32.694  1.00  0.00     0.029 A 
ATOM     67  C   UNL A   1      41.347  33.753  32.474  1.00  0.00     0.049 A 
ATOM     68  H   UNL A   1      41.196  31.942  31.399  1.00  0.00     0.167 HD
ATOM     69  C   UNL A   1      43.607  32.750  32.658  1.00  0.00     0.074 A 
ATOM     70  C   UNL A   1      44.987  32.763  33.096  1.00  0.00     0.031 C 
ATOM     71  C   UNL A   1      42.717  33.740  32.918  1.00  0.00     0.037 A 
BRANCH  58  72
ATOM     72  C   UNL A   1      37.105  32.784  30.513  1.00  0.00     0.064 A 
ATOM     73  C   UNL A   1      36.103  32.553  31.467  1.00  0.00     0.173 A 
ATOM     74  C   UNL A   1      36.771  33.546  29.383  1.00  0.00     0.173 A 
ATOM     75  F   UNL A   1      36.366  31.822  32.560  1.00  0.00    -0.203 F 
ATOM     76  C   UNL A   1      34.812  33.044  31.285  1.00  0.00     0.198 A 
ATOM     77  C   UNL A   1      35.488  34.063  29.220  1.00  0.00     0.198 A 
ATOM     78  F   UNL A   1      37.692  33.803  28.442  1.00  0.00    -0.203 F 
ATOM     79  F   UNL A   1      33.860  32.770  32.188  1.00  0.00    -0.200 F 
ATOM     80  C   UNL A   1      34.508  33.805  30.168  1.00  0.00     0.200 A 
ATOM     81  F   UNL A   1      35.198  34.810  28.146  1.00  0.00    -0.200 F 
ATOM     82  F   UNL A   1      33.268  34.286  29.999  1.00  0.00    -0.200 F 
ENDBRANCH  58  72
BRANCH  59  83
ATOM     83  C   UNL A   1      46.331  29.079  31.551  1.00  0.00     0.064 A 
ATOM     84  C   UNL A   1      46.635  28.153  32.560  1.00  0.00     0.173 A 
ATOM     85  C   UNL A   1      47.378  29.503  30.720  1.00  0.00     0.173 A 
ATOM     86  F   UNL A   1      45.672  27.732  33.394  1.00  0.00    -0.203 F 
ATOM     87  C   UNL A   1      47.937  27.695  32.750  1.00  0.00     0.198 A 
ATOM     88  C   UNL A   1      48.673  29.019  30.890  1.00  0.00     0.198 A 
ATOM     89  F   UNL A   1      47.142  30.383  29.737  1.00  0.00    -0.203 F 
ATOM     90  F   UNL A   1      48.208  26.856  33.759  1.00  0.00    -0.200 F 
ATOM     91  C   UNL A   1      48.955  28.125  31.912  1.00  0.00     0.200 A 
ATOM     92  F   UNL A   1      49.651  29.424  30.068  1.00  0.00    -0.200 F 
ATOM     93  F   UNL A   1      50.207  27.686  32.097  1.00  0.00    -0.200 F 
ENDBRANCH  59  83
BRANCH  71  94
ATOM     94  C   UNL A   1      43.192  34.893  33.753  1.00  0.00     0.064 A 
ATOM     95  C   UNL A   1      43.125  34.870  35.153  1.00  0.00     0.173 A 
ATOM     96  C   UNL A   1      43.759  36.023  33.142  1.00  0.00     0.173 A 
ATOM     97  F   UNL A   1      42.577  33.821  35.786  1.00  0.00    -0.203 F 
ATOM     98  C   UNL A   1      43.582  35.946  35.910  1.00  0.00     0.198 A 
ATOM     99  C   UNL A   1      44.246  37.081  33.902  1.00  0.00     0.198 A 
ATOM    100  F   UNL A   1      43.853  36.092  31.805  1.00  0.00    -0.203 F 
ATOM    101  F   UNL A   1      43.460  35.923  37.245  1.00  0.00    -0.200 F 
ATOM    102  C   UNL A   1      44.149  37.046  35.285  1.00  0.00     0.200 A 
ATOM    103  F   UNL A   1      44.809  38.136  33.297  1.00  0.00    -0.200 F 
ATOM    104  F   UNL A   1      44.598  38.076  36.014  1.00  0.00    -0.200 F 
ENDBRANCH  71  94
ENDBRANCH  45  46
ENDBRANCH  37  40
ENDBRANCH  35  36
ENDBRANCH  34  35
ENDBRANCH   1  34
TORSDOF 14
ENDMDL
MODEL 2
REMARK VINA RESULT:     -10.3      3.927      9.558
REMARK SMILES CS(=O)(=O)c1ccc(C2=NN(c3ccc(C(=O)NCCCNC(=O)c4ccc(-c5c6nc(c(-c7c(F)c(F)c(F)c(F)c7F)c7ccc([nH]7)c(-c7c(F)c(F)c(F)c(F)c7F)c7nc(c(-c8c(F)c(F)c(F)c(F)c8F)c8ccc5[nH]8)C=C7)C=C6)cc4)cc3)[C@H](c3ccc(Cl)cc3)C2)cc1
REMARK SMILES IDX 19 1 18 2 16 3 17 4 15 6 12 7 13 8 89 9 14 10 88 11 11 12
REMARK SMILES IDX 9 13 10 14 98 15 90 16 8 17 5 18 6 19 100 20 7 21 99 22 2 23
REMARK SMILES IDX 1 24 3 25 4 26 91 27 92 28 97 29 93 30 96 31 94 32 95 33
REMARK SMILES IDX 20 34 21 35 22 36 23 37 24 39 25 40 26 41 87 42 27 43 86 44
REMARK SMILES IDX 28 45 29 46 30 47 80 48 31 49 85 50 79 51 81 52 32 53 84 54
REMARK SMILES IDX 78 55 77 56 33 58 65 59 45 60 64 61 46 62 49 63 63 64 82 65
REMARK SMILES IDX 47 66 48 67 62 69 83 70 50 71 34 72 35 73 43 74 36 75 37 76
REMARK SMILES IDX 41 77 44 78 38 79 39 80 42 81 40 82 66 83 67 84 75 85 68 86
REMARK SMILES IDX 69 87 73 88 76 89 70 90 71 91 74 92 72 93 51 94 52 95 60 96
REMARK SMILES IDX 53 97 54 98 58 99 61 100 55 101 56 102 59 103 57 104
REMARK H PARENT 18 5 22 38 81 57 49 68
REMARK Flexibility Score: inf
ROOT
ATOM      1  C   UNL A   1      36.315  32.725  30.888  1.00  0.00     0.118 C 
ENDROOT
BRANCH   1   2
ATOM      2  N   UNL A   1      36.507  33.522  32.087  1.00  0.00    -0.352 N 
ATOM      3  C   UNL A   1      37.547  34.322  32.492  1.00  0.00     0.251 C 
ATOM      4  O   UNL A   1      37.411  34.968  33.529  1.00  0.00    -0.269 OA
ATOM      5  H   UNL A   1      35.757  33.481  32.724  1.00  0.00     0.163 HD
BRANCH   3   6
ATOM      6  C   UNL A   1      38.789  34.477  31.692  1.00  0.00     0.039 A 
ATOM      7  C   UNL A   1      41.073  34.660  30.049  1.00  0.00     0.060 A 
ATOM      8  C   UNL A   1      39.792  34.704  29.490  1.00  0.00     0.029 A 
ATOM      9  C   UNL A   1      41.192  34.605  31.440  1.00  0.00     0.029 A 
ATOM     10  C   UNL A   1      38.657  34.612  30.304  1.00  0.00     0.016 A 
ATOM     11  C   UNL A   1      40.065  34.532  32.256  1.00  0.00     0.016 A 
BRANCH   7  12
ATOM     12  N   UNL A   1      42.220  34.662  29.271  1.00  0.00    -0.257 N 
ATOM     13  C   UNL A   1      43.933  33.625  28.557  1.00  0.00     0.071 C 
ATOM     14  N   UNL A   1      42.665  33.483  28.779  1.00  0.00    -0.176 NA
ATOM     15  C   UNL A   1      44.528  34.943  28.972  1.00  0.00     0.091 C 
ATOM     16  C   UNL A   1      43.257  35.693  29.409  1.00  0.00     0.144 C 
BRANCH  13  17
ATOM     17  C   UNL A   1      44.734  32.562  27.933  1.00  0.00    -0.002 A 
ATOM     18  C   UNL A   1      46.190  30.477  26.817  1.00  0.00     0.067 A 
ATOM     19  C   UNL A   1      44.982  30.201  27.459  1.00  0.00     0.021 A 
ATOM     20  C   UNL A   1      46.673  31.788  26.722  1.00  0.00     0.021 A 
ATOM     21  C   UNL A   1      44.262  31.246  28.034  1.00  0.00     0.011 A 
ATOM     22  C   UNL A   1      45.937  32.838  27.279  1.00  0.00     0.011 A 
BRANCH  18  23
ATOM     23  S   UNL A   1      47.087  29.140  26.058  1.00  0.00     0.175 S 
ATOM     24  C   UNL A   1      46.586  27.715  26.990  1.00  0.00     0.163 C 
ATOM     25  O   UNL A   1      48.495  29.364  26.302  1.00  0.00    -0.224 OA
ATOM     26  O   UNL A   1      46.576  29.003  24.705  1.00  0.00    -0.224 OA
ENDBRANCH  18  23
ENDBRANCH  13  17
BRANCH  16  27
ATOM     27  C   UNL A   1      42.851  36.948  28.637  1.00  0.00    -0.023 A 
ATOM     28  C   UNL A   1      42.197  36.932  27.395  1.00  0.00     0.007 A 
ATOM     29  C   UNL A   1      43.092  38.205  29.233  1.00  0.00     0.007 A 
ATOM     30  C   UNL A   1      41.805  38.126  26.773  1.00  0.00     0.021 A 
ATOM     31  C   UNL A   1      42.674  39.395  28.628  1.00  0.00     0.021 A 
ATOM     32  C   UNL A   1      42.034  39.349  27.397  1.00  0.00     0.041 A 
ATOM     33  Cl  UNL A   1      41.511  40.808  26.649  1.00  0.00    -0.084 Cl
ENDBRANCH  16  27
ENDBRANCH   7  12
ENDBRANCH   3   6
ENDBRANCH   1   2
BRANCH   1  34
ATOM     34  C   UNL A   1      35.122  33.224  30.076  1.00  0.00     0.042 C 
BRANCH  34  35
ATOM     35  C   UNL A   1      35.244  32.938  28.583  1.00  0.00     0.118 C 
BRANCH  35  36
ATOM     36  N   UNL A   1      34.422  31.809  28.173  1.00  0.00    -0.352 N 
ATOM     37  C   UNL A   1      34.775  30.510  27.909  1.00  0.00     0.251 C 
ATOM     38  H   UNL A   1      33.464  32.008  28.069  1.00  0.00     0.163 HD
ATOM     39  O   UNL A   1      33.971  29.762  27.362  1.00  0.00    -0.269 OA
BRANCH  37  40
ATOM     40  C   UNL A   1      36.119  30.006  28.268  1.00  0.00     0.039 A 
ATOM     41  C   UNL A   1      37.152  30.121  27.333  1.00  0.00     0.014 A 
ATOM     42  C   UNL A   1      36.355  29.383  29.496  1.00  0.00     0.014 A 
ATOM     43  C   UNL A   1      38.433  29.664  27.652  1.00  0.00     0.010 A 
ATOM     44  C   UNL A   1      37.649  28.997  29.842  1.00  0.00     0.010 A 
ATOM     45  C   UNL A   1      38.700  29.129  28.922  1.00  0.00    -0.014 A 
BRANCH  45  46
ATOM     46  C   UNL A   1      40.068  28.698  29.306  1.00  0.00     0.031 A 
ATOM     47  C   UNL A   1      40.919  29.573  30.183  1.00  0.00     0.074 A 
ATOM     48  C   UNL A   1      40.564  27.545  28.815  1.00  0.00     0.049 A 
ATOM     49  N   UNL A   1      42.163  29.409  30.560  1.00  0.00    -0.248 NA
ATOM     50  C   UNL A   1      40.298  30.807  30.689  1.00  0.00     0.031 C 
ATOM     51  C   UNL A   1      39.847  26.626  27.928  1.00  0.00     0.029 A 
ATOM     52  N   UNL A   1      41.790  26.953  28.983  1.00  0.00    -0.354 N 
ATOM     53  C   UNL A   1      42.472  30.520  31.336  1.00  0.00     0.074 A 
ATOM     54  C   UNL A   1      41.307  31.378  31.329  1.00  0.00     0.031 C 
ATOM     55  C   UNL A   1      40.638  25.578  27.649  1.00  0.00     0.029 A 
ATOM     56  C   UNL A   1      41.930  25.770  28.299  1.00  0.00     0.049 A 
ATOM     57  H   UNL A   1      42.503  27.339  29.542  1.00  0.00     0.167 HD
ATOM     58  C   UNL A   1      43.615  30.785  32.014  1.00  0.00     0.037 A 
ATOM     59  C   UNL A   1      42.987  24.941  28.197  1.00  0.00     0.037 A 
ATOM     60  C   UNL A   1      44.766  29.923  32.028  1.00  0.00     0.049 A 
ATOM     61  C   UNL A   1      44.257  25.284  28.928  1.00  0.00     0.074 A 
ATOM     62  C   UNL A   1      45.961  30.087  32.708  1.00  0.00     0.029 A 
ATOM     63  N   UNL A   1      44.869  28.731  31.324  1.00  0.00    -0.354 N 
ATOM     64  N   UNL A   1      44.519  26.308  29.703  1.00  0.00    -0.248 NA
ATOM     65  C   UNL A   1      45.381  24.349  28.772  1.00  0.00     0.031 C 
ATOM     66  C   UNL A   1      46.802  29.019  32.381  1.00  0.00     0.029 A 
ATOM     67  C   UNL A   1      46.113  28.159  31.540  1.00  0.00     0.049 A 
ATOM     68  H   UNL A   1      44.162  28.348  30.756  1.00  0.00     0.167 HD
ATOM     69  C   UNL A   1      45.818  26.123  30.156  1.00  0.00     0.074 A 
ATOM     70  C   UNL A   1      46.288  24.880  29.581  1.00  0.00     0.031 C 
ATOM     71  C   UNL A   1      46.557  26.911  30.975  1.00  0.00     0.037 A 
BRANCH  58  72
ATOM     72  C   UNL A   1      43.673  32.061  32.806  1.00  0.00     0.064 A 
ATOM     73  C   UNL A   1      42.975  32.206  34.014  1.00  0.00     0.173 A 
ATOM     74  C   UNL A   1      44.471  33.133  32.378  1.00  0.00     0.173 A 
ATOM     75  F   UNL A   1      42.190  31.215  34.463  1.00  0.00    -0.203 F 
ATOM     76  C   UNL A   1      43.051  33.385  34.751  1.00  0.00     0.198 A 
ATOM     77  C   UNL A   1      44.571  34.299  33.134  1.00  0.00     0.198 A 
ATOM     78  F   UNL A   1      45.166  33.047  31.234  1.00  0.00    -0.203 F 
ATOM     79  F   UNL A   1      42.338  33.516  35.878  1.00  0.00    -0.200 F 
ATOM     80  C   UNL A   1      43.856  34.427  34.316  1.00  0.00     0.200 A 
ATOM     81  F   UNL A   1      45.360  35.300  32.719  1.00  0.00    -0.200 F 
ATOM     82  F   UNL A   1      43.937  35.557  35.031  1.00  0.00    -0.200 F 
ENDBRANCH  58  72
BRANCH  59  83
ATOM     83  C   UNL A   1      42.890  23.699  27.386  1.00  0.00     0.064 A 
ATOM     84  C   UNL A   1      42.380  22.516  27.942  1.00  0.00     0.173 A 
ATOM     85  C   UNL A   1      43.330  23.654  26.055  1.00  0.00     0.173 A 
ATOM     86  F   UNL A   1      41.965  22.501  29.218  1.00  0.00    -0.203 F 
ATOM     87  C   UNL A   1      42.341  21.332  27.209  1.00  0.00     0.198 A 
ATOM     88  C   UNL A   1      43.261  22.478  25.313  1.00  0.00     0.198 A 
ATOM     89  F   UNL A   1      43.823  24.757  25.473  1.00  0.00    -0.203 F 
ATOM     90  F   UNL A   1      41.903  20.204  27.785  1.00  0.00    -0.200 F 
ATOM     91  C   UNL A   1      42.778  21.315  25.893  1.00  0.00     0.200 A 
ATOM     92  F   UNL A   1      43.669  22.469  24.036  1.00  0.00    -0.200 F 
ATOM     93  F   UNL A   1      42.743  20.175  25.189  1.00  0.00    -0.200 F 
ENDBRANCH  59  83
BRANCH  71  94
ATOM     94  C   UNL A   1      47.932  26.430  31.339  1.00  0.00     0.064 A 
ATOM     95  C   UNL A   1      49.058  26.753  30.569  1.00  0.00     0.173 A 
ATOM     96  C   UNL A   1      48.129  25.666  32.500  1.00  0.00     0.173 A 
ATOM     97  F   UNL A   1      48.922  27.467  29.440  1.00  0.00    -0.203 F 
ATOM     98  C   UNL A   1      50.326  26.306  30.931  1.00  0.00     0.198 A 
ATOM     99  C   UNL A   1      49.401  25.250  32.879  1.00  0.00     0.198 A 
ATOM    100  F   UNL A   1      47.085  25.336  33.277  1.00  0.00    -0.203 F 
ATOM    101  F   UNL A   1      51.380  26.584  30.151  1.00  0.00    -0.200 F 
ATOM    102  C   UNL A   1      50.498  25.563  32.089  1.00  0.00     0.200 A 
ATOM    103  F   UNL A   1      49.568  24.546  34.006  1.00  0.00    -0.200 F 
ATOM    104  F   UNL A   1      51.719  25.142  32.442  1.00  0.00    -0.200 F 
ENDBRANCH  71  94
ENDBRANCH  45  46
ENDBRANCH  37  40
ENDBRANCH  35  36
ENDBRANCH  34  35
ENDBRANCH   1  34
TORSDOF 14
ENDMDL
MODEL 3
REMARK VINA RESULT:     -10.2      1.310      7.101
REMARK SMILES CS(=O)(=O)c1ccc(C2=NN(c3ccc(C(=O)NCCCNC(=O)c4ccc(-c5c6nc(c(-c7c(F)c(F)c(F)c(F)c7F)c7ccc([nH]7)c(-c7c(F)c(F)c(F)c(F)c7F)c7nc(c(-c8c(F)c(F)c(F)c(F)c8F)c8ccc5[nH]8)C=C7)C=C6)cc4)cc3)[C@H](c3ccc(Cl)cc3)C2)cc1
REMARK SMILES IDX 19 1 18 2 16 3 17 4 15 6 12 7 13 8 89 9 14 10 88 11 11 12
REMARK SMILES IDX 9 13 10 14 98 15 90 16 8 17 5 18 6 19 100 20 7 21 99 22 2 23
REMARK SMILES IDX 1 24 3 25 4 26 91 27 92 28 97 29 93 30 96 31 94 32 95 33
REMARK SMILES IDX 20 34 21 35 22 36 23 37 24 39 25 40 26 41 87 42 27 43 86 44
REMARK SMILES IDX 28 45 29 46 30 47 80 48 31 49 85 50 79 51 81 52 32 53 84 54
REMARK SMILES IDX 78 55 77 56 33 58 65 59 45 60 64 61 46 62 49 63 63 64 82 65
REMARK SMILES IDX 47 66 48 67 62 69 83 70 50 71 34 72 35 73 43 74 36 75 37 76
REMARK SMILES IDX 41 77 44 78 38 79 39 80 42 81 40 82 66 83 67 84 75 85 68 86
REMARK SMILES IDX 69 87 73 88 76 89 70 90 71 91 74 92 72 93 51 94 52 95 60 96
REMARK SMILES IDX 53 97 54 98 58 99 61 100 55 101 56 102 59 103 57 104
REMARK H PARENT 18 5 22 38 81 57 49 68
REMARK Flexibility Score: inf
ROOT
ATOM      1  C   UNL A   1      42.651  21.171  25.785  1.00  0.00     0.118 C 
ENDROOT
BRANCH   1   2
ATOM      2  N   UNL A   1      43.895  20.449  25.581  1.00  0.00    -0.352 N 
ATOM      3  C   UNL A   1      45.199  20.877  25.543  1.00  0.00     0.251 C 
ATOM      4  O   UNL A   1      46.085  20.029  25.445  1.00  0.00    -0.269 OA
ATOM      5  H   UNL A   1      43.783  19.481  25.445  1.00  0.00     0.163 HD
BRANCH   3   6
ATOM      6  C   UNL A   1      45.572  22.308  25.682  1.00  0.00     0.039 A 
ATOM      7  C   UNL A   1      46.414  24.995  25.825  1.00  0.00     0.060 A 
ATOM      8  C   UNL A   1      46.347  24.338  24.593  1.00  0.00     0.029 A 
ATOM      9  C   UNL A   1      45.981  24.318  26.967  1.00  0.00     0.029 A 
ATOM     10  C   UNL A   1      45.930  23.004  24.520  1.00  0.00     0.016 A 
ATOM     11  C   UNL A   1      45.547  22.995  26.897  1.00  0.00     0.016 A 
BRANCH   7  12
ATOM     12  N   UNL A   1      46.902  26.287  25.949  1.00  0.00    -0.257 N 
ATOM     13  C   UNL A   1      46.509  28.368  26.120  1.00  0.00     0.071 C 
ATOM     14  N   UNL A   1      46.125  27.212  26.557  1.00  0.00    -0.176 NA
ATOM     15  C   UNL A   1      47.575  28.348  25.060  1.00  0.00     0.091 C 
ATOM     16  C   UNL A   1      47.890  26.843  25.015  1.00  0.00     0.144 C 
BRANCH  13  17
ATOM     17  C   UNL A   1      45.937  29.621  26.637  1.00  0.00    -0.002 A 
ATOM     18  C   UNL A   1      44.755  31.936  27.616  1.00  0.00     0.067 A 
ATOM     19  C   UNL A   1      44.086  30.717  27.746  1.00  0.00     0.021 A 
ATOM     20  C   UNL A   1      46.014  32.005  27.006  1.00  0.00     0.021 A 
ATOM     21  C   UNL A   1      44.673  29.560  27.239  1.00  0.00     0.011 A 
ATOM     22  C   UNL A   1      46.611  30.838  26.517  1.00  0.00     0.011 A 
BRANCH  18  23
ATOM     23  S   UNL A   1      44.012  33.403  28.295  1.00  0.00     0.175 S 
ATOM     24  C   UNL A   1      45.270  34.056  29.364  1.00  0.00     0.163 C 
ATOM     25  O   UNL A   1      42.896  32.988  29.117  1.00  0.00    -0.224 OA
ATOM     26  O   UNL A   1      43.824  34.330  27.192  1.00  0.00    -0.224 OA
ENDBRANCH  18  23
ENDBRANCH  13  17
BRANCH  16  27
ATOM     27  C   UNL A   1      49.294  26.381  25.406  1.00  0.00    -0.023 A 
ATOM     28  C   UNL A   1      49.587  25.639  26.561  1.00  0.00     0.007 A 
ATOM     29  C   UNL A   1      50.359  26.663  24.523  1.00  0.00     0.007 A 
ATOM     30  C   UNL A   1      50.893  25.202  26.824  1.00  0.00     0.021 A 
ATOM     31  C   UNL A   1      51.656  26.202  24.769  1.00  0.00     0.021 A 
ATOM     32  C   UNL A   1      51.918  25.474  25.922  1.00  0.00     0.041 A 
ATOM     33  Cl  UNL A   1      53.509  24.898  26.229  1.00  0.00    -0.084 Cl
ENDBRANCH  16  27
ENDBRANCH   7  12
ENDBRANCH   3   6
ENDBRANCH   1   2
BRANCH   1  34
ATOM     34  C   UNL A   1      41.995  20.780  27.109  1.00  0.00     0.042 C 
BRANCH  34  35
ATOM     35  C   UNL A   1      40.988  21.809  27.611  1.00  0.00     0.118 C 
BRANCH  35  36
ATOM     36  N   UNL A   1      39.945  22.077  26.632  1.00  0.00    -0.352 N 
ATOM     37  C   UNL A   1      39.186  23.203  26.436  1.00  0.00     0.251 C 
ATOM     38  H   UNL A   1      39.754  21.335  26.013  1.00  0.00     0.163 HD
ATOM     39  O   UNL A   1      38.204  23.153  25.701  1.00  0.00    -0.269 OA
BRANCH  37  40
ATOM     40  C   UNL A   1      39.532  24.473  27.112  1.00  0.00     0.039 A 
ATOM     41  C   UNL A   1      39.034  24.709  28.396  1.00  0.00     0.014 A 
ATOM     42  C   UNL A   1      40.303  25.446  26.472  1.00  0.00     0.014 A 
ATOM     43  C   UNL A   1      39.357  25.895  29.060  1.00  0.00     0.010 A 
ATOM     44  C   UNL A   1      40.687  26.594  27.163  1.00  0.00     0.010 A 
ATOM     45  C   UNL A   1      40.214  26.832  28.462  1.00  0.00    -0.014 A 
BRANCH  45  46
ATOM     46  C   UNL A   1      40.623  28.068  29.175  1.00  0.00     0.031 A 
ATOM     47  C   UNL A   1      42.012  28.194  29.737  1.00  0.00     0.074 A 
ATOM     48  C   UNL A   1      39.723  29.054  29.368  1.00  0.00     0.049 A 
ATOM     49  N   UNL A   1      42.530  29.156  30.459  1.00  0.00    -0.248 NA
ATOM     50  C   UNL A   1      42.936  27.082  29.469  1.00  0.00     0.031 C 
ATOM     51  C   UNL A   1      38.336  29.035  28.901  1.00  0.00     0.029 A 
ATOM     52  N   UNL A   1      39.837  30.257  30.018  1.00  0.00    -0.354 N 
ATOM     53  C   UNL A   1      43.833  28.761  30.736  1.00  0.00     0.074 A 
ATOM     54  C   UNL A   1      44.009  27.447  30.156  1.00  0.00     0.031 C 
ATOM     55  C   UNL A   1      37.736  30.181  29.258  1.00  0.00     0.029 A 
ATOM     56  C   UNL A   1      38.679  30.995  30.017  1.00  0.00     0.049 A 
ATOM     57  H   UNL A   1      40.671  30.563  30.443  1.00  0.00     0.167 HD
ATOM     58  C   UNL A   1      44.802  29.444  31.392  1.00  0.00     0.037 A 
ATOM     59  C   UNL A   1      38.405  32.189  30.578  1.00  0.00     0.037 A 
ATOM     60  C   UNL A   1      44.627  30.756  31.956  1.00  0.00     0.049 A 
ATOM     61  C   UNL A   1      39.490  32.906  31.336  1.00  0.00     0.074 A 
ATOM     62  C   UNL A   1      45.555  31.545  32.613  1.00  0.00     0.029 A 
ATOM     63  N   UNL A   1      43.439  31.473  31.933  1.00  0.00    -0.354 N 
ATOM     64  N   UNL A   1      40.734  32.547  31.544  1.00  0.00    -0.248 NA
ATOM     65  C   UNL A   1      39.133  34.199  31.936  1.00  0.00     0.031 C 
ATOM     66  C   UNL A   1      44.918  32.719  33.026  1.00  0.00     0.029 A 
ATOM     67  C   UNL A   1      43.606  32.688  32.579  1.00  0.00     0.049 A 
ATOM     68  H   UNL A   1      42.601  31.165  31.518  1.00  0.00     0.167 HD
ATOM     69  C   UNL A   1      41.315  33.582  32.264  1.00  0.00     0.074 A 
ATOM     70  C   UNL A   1      40.293  34.592  32.444  1.00  0.00     0.031 C 
ATOM     71  C   UNL A   1      42.583  33.689  32.733  1.00  0.00     0.037 A 
BRANCH  58  72
ATOM     72  C   UNL A   1      46.146  28.786  31.529  1.00  0.00     0.064 A 
ATOM     73  C   UNL A   1      46.404  27.849  32.541  1.00  0.00     0.173 A 
ATOM     74  C   UNL A   1      47.173  29.059  30.612  1.00  0.00     0.173 A 
ATOM     75  F   UNL A   1      45.460  27.559  33.449  1.00  0.00    -0.203 F 
ATOM     76  C   UNL A   1      47.647  27.230  32.647  1.00  0.00     0.198 A 
ATOM     77  C   UNL A   1      48.404  28.413  30.702  1.00  0.00     0.198 A 
ATOM     78  F   UNL A   1      46.980  29.941  29.620  1.00  0.00    -0.203 F 
ATOM     79  F   UNL A   1      47.883  26.374  33.651  1.00  0.00    -0.200 F 
ATOM     80  C   UNL A   1      48.642  27.506  31.723  1.00  0.00     0.200 A 
ATOM     81  F   UNL A   1      49.361  28.670  29.799  1.00  0.00    -0.200 F 
ATOM     82  F   UNL A   1      49.835  26.901  31.820  1.00  0.00    -0.200 F 
ENDBRANCH  58  72
BRANCH  59  83
ATOM     83  C   UNL A   1      37.055  32.794  30.433  1.00  0.00     0.064 A 
ATOM     84  C   UNL A   1      36.078  32.617  31.425  1.00  0.00     0.173 A 
ATOM     85  C   UNL A   1      36.700  33.532  29.295  1.00  0.00     0.173 A 
ATOM     86  F   UNL A   1      36.362  31.901  32.523  1.00  0.00    -0.203 F 
ATOM     87  C   UNL A   1      34.791  33.128  31.270  1.00  0.00     0.198 A 
ATOM     88  C   UNL A   1      35.423  34.071  29.156  1.00  0.00     0.198 A 
ATOM     89  F   UNL A   1      37.596  33.736  28.319  1.00  0.00    -0.203 F 
ATOM     90  F   UNL A   1      33.863  32.893  32.206  1.00  0.00    -0.200 F 
ATOM     91  C   UNL A   1      34.466  33.859  30.137  1.00  0.00     0.200 A 
ATOM     92  F   UNL A   1      35.116  34.791  28.068  1.00  0.00    -0.200 F 
ATOM     93  F   UNL A   1      33.227  34.348  29.988  1.00  0.00    -0.200 F 
ENDBRANCH  59  83
BRANCH  71  94
ATOM     94  C   UNL A   1      42.951  34.960  33.442  1.00  0.00     0.064 A 
ATOM     95  C   UNL A   1      43.360  36.106  32.744  1.00  0.00     0.173 A 
ATOM     96  C   UNL A   1      42.853  35.044  34.840  1.00  0.00     0.173 A 
ATOM     97  F   UNL A   1      43.485  36.073  31.408  1.00  0.00    -0.203 F 
ATOM     98  C   UNL A   1      43.685  37.278  33.420  1.00  0.00     0.198 A 
ATOM     99  C   UNL A   1      43.146  36.228  35.510  1.00  0.00     0.198 A 
ATOM    100  F   UNL A   1      42.459  33.979  35.555  1.00  0.00    -0.203 F 
ATOM    101  F   UNL A   1      44.124  38.344  32.735  1.00  0.00    -0.200 F 
ATOM    102  C   UNL A   1      43.570  37.341  34.800  1.00  0.00     0.200 A 
ATOM    103  F   UNL A   1      43.019  36.292  36.842  1.00  0.00    -0.200 F 
ATOM    104  F   UNL A   1      43.874  38.473  35.449  1.00  0.00    -0.200 F 
ENDBRANCH  71  94
ENDBRANCH  45  46
ENDBRANCH  37  40
ENDBRANCH  35  36
ENDBRANCH  34  35
ENDBRANCH   1  34
TORSDOF 14
ENDMDL
