MODEL 1
REMARK VINA RESULT:     -12.5      0.000      0.000
REMARK SMILES O=C(NCCCNC(=O)c1cncc(Oc2cc(F)ccc2F)n1)c1ccc(-c2c3nc(c(-c4c(F)c(F)c(F)c(F)c4F)c4ccc([nH]4)c(-c4c(F)c(F)c(F)c(F)c4F)c4nc(c(-c5c(F)c(F)c(F)c(F)c5F)c5ccc2[nH]5)C=C4)C=C3)cc1
REMARK SMILES IDX 5 1 4 2 3 3 1 4 2 5 25 7 26 8 87 9 27 10 86 11 28 12 29 13
REMARK SMILES IDX 30 14 80 15 31 16 85 17 79 18 81 19 32 20 84 21 78 22 77 23
REMARK SMILES IDX 33 25 65 26 45 27 64 28 46 29 49 30 63 31 82 32 47 33 48 34
REMARK SMILES IDX 62 36 83 37 50 38 34 39 35 40 43 41 36 42 37 43 41 44 44 45
REMARK SMILES IDX 38 46 39 47 42 48 40 49 66 50 67 51 75 52 68 53 69 54 73 55
REMARK SMILES IDX 76 56 70 57 71 58 74 59 72 60 51 61 52 62 60 63 53 64 54 65
REMARK SMILES IDX 58 66 61 67 55 68 56 69 59 70 57 71 6 72 7 73 8 74 9 76
REMARK SMILES IDX 10 77 11 78 24 79 12 80 14 81 13 82 15 83 16 84 17 85 22 86
REMARK SMILES IDX 18 87 21 88 23 89 19 90 20 91
REMARK H PARENT 3 6 81 24 49 35 7 75
REMARK Flexibility Score: inf
ROOT
ATOM      1  C   UNL A   1      40.891  21.139  27.547  1.00  0.00     0.042 C 
ENDROOT
BRANCH   1   2
ATOM      2  C   UNL A   1      40.690  21.665  26.133  1.00  0.00     0.118 C 
BRANCH   2   3
ATOM      3  N   UNL A   1      39.297  21.964  25.821  1.00  0.00    -0.352 N 
ATOM      4  O   UNL A   1      37.319  23.037  25.893  1.00  0.00    -0.269 OA
ATOM      5  C   UNL A   1      38.526  23.060  26.126  1.00  0.00     0.251 C 
ATOM      6  H   UNL A   1      38.832  21.264  25.307  1.00  0.00     0.163 HD
BRANCH   5   7
ATOM      7  C   UNL A   1      39.127  24.256  26.757  1.00  0.00     0.039 A 
ATOM      8  C   UNL A   1      38.981  24.495  28.121  1.00  0.00     0.014 A 
ATOM      9  C   UNL A   1      39.873  25.145  25.973  1.00  0.00     0.014 A 
ATOM     10  C   UNL A   1      39.404  25.702  28.661  1.00  0.00     0.010 A 
ATOM     11  C   UNL A   1      40.403  26.307  26.545  1.00  0.00     0.010 A 
ATOM     12  C   UNL A   1      40.138  26.617  27.885  1.00  0.00    -0.014 A 
BRANCH  12  13
ATOM     13  C   UNL A   1      40.659  27.841  28.545  1.00  0.00     0.031 A 
ATOM     14  C   UNL A   1      42.132  28.093  28.692  1.00  0.00     0.074 A 
ATOM     15  C   UNL A   1      39.773  28.775  28.943  1.00  0.00     0.049 A 
ATOM     16  N   UNL A   1      42.743  29.168  29.127  1.00  0.00    -0.248 NA
ATOM     17  C   UNL A   1      43.043  27.001  28.318  1.00  0.00     0.031 C 
ATOM     18  C   UNL A   1      38.317  28.625  28.877  1.00  0.00     0.029 A 
ATOM     19  N   UNL A   1      39.954  30.044  29.429  1.00  0.00    -0.354 N 
ATOM     20  C   UNL A   1      44.099  28.877  29.099  1.00  0.00     0.074 A 
ATOM     21  C   UNL A   1      44.226  27.514  28.628  1.00  0.00     0.031 C 
ATOM     22  C   UNL A   1      37.740  29.786  29.216  1.00  0.00     0.029 A 
ATOM     23  C   UNL A   1      38.779  30.739  29.587  1.00  0.00     0.049 A 
ATOM     24  H   UNL A   1      40.838  30.421  29.645  1.00  0.00     0.167 HD
ATOM     25  C   UNL A   1      45.139  29.679  29.429  1.00  0.00     0.037 A 
ATOM     26  C   UNL A   1      38.557  32.007  29.980  1.00  0.00     0.037 A 
ATOM     27  C   UNL A   1      45.004  31.044  29.868  1.00  0.00     0.049 A 
ATOM     28  C   UNL A   1      39.726  32.880  30.323  1.00  0.00     0.074 A 
ATOM     29  C   UNL A   1      46.003  31.953  30.175  1.00  0.00     0.029 A 
ATOM     30  N   UNL A   1      43.795  31.697  30.065  1.00  0.00    -0.354 N 
ATOM     31  N   UNL A   1      41.005  32.603  30.255  1.00  0.00    -0.248 NA
ATOM     32  C   UNL A   1      39.425  34.233  30.807  1.00  0.00     0.031 C 
ATOM     33  C   UNL A   1      45.398  33.139  30.600  1.00  0.00     0.029 A 
ATOM     34  C   UNL A   1      44.023  32.987  30.515  1.00  0.00     0.049 A 
ATOM     35  H   UNL A   1      42.908  31.301  29.908  1.00  0.00     0.167 HD
ATOM     36  C   UNL A   1      41.664  33.743  30.687  1.00  0.00     0.074 A 
ATOM     37  C   UNL A   1      40.644  34.725  30.993  1.00  0.00     0.031 C 
ATOM     38  C   UNL A   1      42.996  33.950  30.823  1.00  0.00     0.037 A 
BRANCH  25  39
ATOM     39  C   UNL A   1      46.524  29.104  29.342  1.00  0.00     0.064 A 
ATOM     40  C   UNL A   1      47.144  28.575  30.484  1.00  0.00     0.173 A 
ATOM     41  C   UNL A   1      47.263  29.136  28.150  1.00  0.00     0.173 A 
ATOM     42  F   UNL A   1      46.484  28.528  31.651  1.00  0.00    -0.203 F 
ATOM     43  C   UNL A   1      48.455  28.105  30.438  1.00  0.00     0.198 A 
ATOM     44  C   UNL A   1      48.565  28.643  28.102  1.00  0.00     0.198 A 
ATOM     45  F   UNL A   1      46.714  29.624  27.028  1.00  0.00    -0.203 F 
ATOM     46  F   UNL A   1      49.034  27.629  31.548  1.00  0.00    -0.200 F 
ATOM     47  C   UNL A   1      49.163  28.136  29.246  1.00  0.00     0.200 A 
ATOM     48  F   UNL A   1      49.240  28.652  26.943  1.00  0.00    -0.200 F 
ATOM     49  F   UNL A   1      50.419  27.672  29.200  1.00  0.00    -0.200 F 
ENDBRANCH  25  39
BRANCH  26  50
ATOM     50  C   UNL A   1      37.161  32.509  30.034  1.00  0.00     0.064 A 
ATOM     51  C   UNL A   1      36.617  33.253  28.976  1.00  0.00     0.173 A 
ATOM     52  C   UNL A   1      36.378  32.333  31.182  1.00  0.00     0.173 A 
ATOM     53  F   UNL A   1      37.333  33.457  27.861  1.00  0.00    -0.203 F 
ATOM     54  C   UNL A   1      35.357  33.835  29.080  1.00  0.00     0.198 A 
ATOM     55  C   UNL A   1      35.105  32.894  31.274  1.00  0.00     0.198 A 
ATOM     56  F   UNL A   1      36.850  31.618  32.213  1.00  0.00    -0.203 F 
ATOM     57  F   UNL A   1      34.884  34.589  28.078  1.00  0.00    -0.200 F 
ATOM     58  C   UNL A   1      34.601  33.655  30.229  1.00  0.00     0.200 A 
ATOM     59  F   UNL A   1      34.371  32.705  32.379  1.00  0.00    -0.200 F 
ATOM     60  F   UNL A   1      33.390  34.221  30.332  1.00  0.00    -0.200 F 
ENDBRANCH  26  50
BRANCH  38  61
ATOM     61  C   UNL A   1      43.437  35.289  31.331  1.00  0.00     0.064 A 
ATOM     62  C   UNL A   1      43.455  35.559  32.707  1.00  0.00     0.173 A 
ATOM     63  C   UNL A   1      43.765  36.329  30.450  1.00  0.00     0.173 A 
ATOM     64  F   UNL A   1      43.144  34.597  33.588  1.00  0.00    -0.203 F 
ATOM     65  C   UNL A   1      43.769  36.829  33.182  1.00  0.00     0.198 A 
ATOM     66  C   UNL A   1      44.101  37.592  30.928  1.00  0.00     0.198 A 
ATOM     67  F   UNL A   1      43.774  36.113  29.126  1.00  0.00    -0.203 F 
ATOM     68  F   UNL A   1      43.751  37.074  34.499  1.00  0.00    -0.200 F 
ATOM     69  C   UNL A   1      44.093  37.844  32.293  1.00  0.00     0.200 A 
ATOM     70  F   UNL A   1      44.433  38.566  30.070  1.00  0.00    -0.200 F 
ATOM     71  F   UNL A   1      44.400  39.064  32.751  1.00  0.00    -0.200 F 
ENDBRANCH  38  61
ENDBRANCH  12  13
ENDBRANCH   5   7
ENDBRANCH   2   3
ENDBRANCH   1   2
BRANCH   1  72
ATOM     72  C   UNL A   1      42.175  20.343  27.741  1.00  0.00     0.118 C 
BRANCH  72  73
ATOM     73  N   UNL A   1      42.075  18.998  27.196  1.00  0.00    -0.351 N 
ATOM     74  C   UNL A   1      42.770  18.400  26.169  1.00  0.00     0.271 C 
ATOM     75  H   UNL A   1      41.405  18.424  27.632  1.00  0.00     0.163 HD
ATOM     76  O   UNL A   1      42.386  17.310  25.751  1.00  0.00    -0.267 OA
BRANCH  74  77
ATOM     77  C   UNL A   1      43.975  19.043  25.591  1.00  0.00     0.150 A 
ATOM     78  C   UNL A   1      45.223  18.453  25.744  1.00  0.00     0.145 A 
ATOM     79  N   UNL A   1      43.788  20.180  24.870  1.00  0.00    -0.205 NA
ATOM     80  N   UNL A   1      46.355  19.001  25.239  1.00  0.00    -0.257 NA
ATOM     81  C   UNL A   1      44.911  20.703  24.328  1.00  0.00     0.238 A 
ATOM     82  C   UNL A   1      46.167  20.138  24.526  1.00  0.00     0.179 A 
BRANCH  81  83
ATOM     83  O   UNL A   1      44.859  21.867  23.574  1.00  0.00    -0.434 OA
BRANCH  83  84
ATOM     84  C   UNL A   1      45.116  23.034  24.251  1.00  0.00     0.168 A 
ATOM     85  C   UNL A   1      46.418  23.521  24.350  1.00  0.00     0.089 A 
ATOM     86  C   UNL A   1      44.049  23.778  24.756  1.00  0.00     0.166 A 
ATOM     87  C   UNL A   1      46.634  24.738  24.988  1.00  0.00     0.127 A 
ATOM     88  C   UNL A   1      44.271  24.999  25.388  1.00  0.00     0.046 A 
ATOM     89  F   UNL A   1      42.792  23.329  24.626  1.00  0.00    -0.203 F 
ATOM     90  F   UNL A   1      47.883  25.211  25.095  1.00  0.00    -0.207 F 
ATOM     91  C   UNL A   1      45.575  25.482  25.506  1.00  0.00     0.042 A 
ENDBRANCH  83  84
ENDBRANCH  81  83
ENDBRANCH  74  77
ENDBRANCH  72  73
ENDBRANCH   1  72
TORSDOF 12
ENDMDL
MODEL 2
REMARK VINA RESULT:     -12.3      1.069      7.476
REMARK SMILES O=C(NCCCNC(=O)c1cncc(Oc2cc(F)ccc2F)n1)c1ccc(-c2c3nc(c(-c4c(F)c(F)c(F)c(F)c4F)c4ccc([nH]4)c(-c4c(F)c(F)c(F)c(F)c4F)c4nc(c(-c5c(F)c(F)c(F)c(F)c5F)c5ccc2[nH]5)C=C4)C=C3)cc1
REMARK SMILES IDX 5 1 4 2 3 3 1 4 2 5 25 7 26 8 87 9 27 10 86 11 28 12 29 13
REMARK SMILES IDX 30 14 80 15 31 16 85 17 79 18 81 19 32 20 84 21 78 22 77 23
REMARK SMILES IDX 33 25 65 26 45 27 64 28 46 29 49 30 63 31 82 32 47 33 48 34
REMARK SMILES IDX 62 36 83 37 50 38 34 39 35 40 43 41 36 42 37 43 41 44 44 45
REMARK SMILES IDX 38 46 39 47 42 48 40 49 66 50 67 51 75 52 68 53 69 54 73 55
REMARK SMILES IDX 76 56 70 57 71 58 74 59 72 60 51 61 52 62 60 63 53 64 54 65
REMARK SMILES IDX 58 66 61 67 55 68 56 69 59 70 57 71 6 72 7 73 8 74 9 76
REMARK SMILES IDX 10 77 11 78 24 79 12 80 14 81 13 82 15 83 16 84 17 85 22 86
REMARK SMILES IDX 18 87 21 88 23 89 19 90 20 91
REMARK H PARENT 3 6 81 24 49 35 7 75
REMARK Flexibility Score: inf
ROOT
ATOM      1  C   UNL A   1      40.993  21.194  27.556  1.00  0.00     0.042 C 
ENDROOT
BRANCH   1   2
ATOM      2  C   UNL A   1      40.814  21.740  26.147  1.00  0.00     0.118 C 
BRANCH   2   3
ATOM      3  N   UNL A   1      39.426  22.044  25.818  1.00  0.00    -0.352 N 
ATOM      4  O   UNL A   1      37.451  23.124  25.865  1.00  0.00    -0.269 OA
ATOM      5  C   UNL A   1      38.655  23.143  26.113  1.00  0.00     0.251 C 
ATOM      6  H   UNL A   1      38.965  21.345  25.299  1.00  0.00     0.163 HD
BRANCH   5   7
ATOM      7  C   UNL A   1      39.252  24.337  26.750  1.00  0.00     0.039 A 
ATOM      8  C   UNL A   1      39.096  24.574  28.113  1.00  0.00     0.014 A 
ATOM      9  C   UNL A   1      40.006  25.226  25.973  1.00  0.00     0.014 A 
ATOM     10  C   UNL A   1      39.517  25.779  28.658  1.00  0.00     0.010 A 
ATOM     11  C   UNL A   1      40.533  26.386  26.551  1.00  0.00     0.010 A 
ATOM     12  C   UNL A   1      40.257  26.695  27.890  1.00  0.00    -0.014 A 
BRANCH  12  13
ATOM     13  C   UNL A   1      40.775  27.917  28.555  1.00  0.00     0.031 A 
ATOM     14  C   UNL A   1      39.859  29.019  29.007  1.00  0.00     0.074 A 
ATOM     15  C   UNL A   1      42.095  27.986  28.822  1.00  0.00     0.049 A 
ATOM     16  N   UNL A   1      40.143  30.085  29.714  1.00  0.00    -0.248 NA
ATOM     17  C   UNL A   1      38.447  28.925  28.611  1.00  0.00     0.031 C 
ATOM     18  C   UNL A   1      43.083  26.989  28.404  1.00  0.00     0.029 A 
ATOM     19  N   UNL A   1      42.824  28.894  29.546  1.00  0.00    -0.354 N 
ATOM     20  C   UNL A   1      38.957  30.796  29.828  1.00  0.00     0.074 A 
ATOM     21  C   UNL A   1      37.951  30.056  29.097  1.00  0.00     0.031 C 
ATOM     22  C   UNL A   1      44.267  27.287  28.954  1.00  0.00     0.029 A 
ATOM     23  C   UNL A   1      44.140  28.530  29.706  1.00  0.00     0.049 A 
ATOM     24  H   UNL A   1      42.445  29.724  29.913  1.00  0.00     0.167 HD
ATOM     25  C   UNL A   1      38.731  31.956  30.490  1.00  0.00     0.037 A 
ATOM     26  C   UNL A   1      45.136  29.124  30.389  1.00  0.00     0.037 A 
ATOM     27  C   UNL A   1      39.732  32.671  31.240  1.00  0.00     0.049 A 
ATOM     28  C   UNL A   1      44.856  30.397  31.128  1.00  0.00     0.074 A 
ATOM     29  C   UNL A   1      39.586  33.827  31.987  1.00  0.00     0.029 A 
ATOM     30  N   UNL A   1      41.066  32.298  31.337  1.00  0.00    -0.354 N 
ATOM     31  N   UNL A   1      43.721  31.038  31.259  1.00  0.00    -0.248 NA
ATOM     32  C   UNL A   1      45.993  31.037  31.803  1.00  0.00     0.031 C 
ATOM     33  C   UNL A   1      40.839  34.178  32.498  1.00  0.00     0.029 A 
ATOM     34  C   UNL A   1      41.758  33.217  32.109  1.00  0.00     0.049 A 
ATOM     35  H   UNL A   1      41.460  31.500  30.919  1.00  0.00     0.167 HD
ATOM     36  C   UNL A   1      44.001  32.156  32.028  1.00  0.00     0.074 A 
ATOM     37  C   UNL A   1      45.411  32.095  32.356  1.00  0.00     0.031 C 
ATOM     38  C   UNL A   1      43.164  33.146  32.419  1.00  0.00     0.037 A 
BRANCH  25  39
ATOM     39  C   UNL A   1      37.350  32.542  30.429  1.00  0.00     0.064 A 
ATOM     40  C   UNL A   1      37.004  33.434  29.402  1.00  0.00     0.173 A 
ATOM     41  C   UNL A   1      36.391  32.277  31.417  1.00  0.00     0.173 A 
ATOM     42  F   UNL A   1      37.887  33.728  28.436  1.00  0.00    -0.203 F 
ATOM     43  C   UNL A   1      35.752  34.043  29.371  1.00  0.00     0.198 A 
ATOM     44  C   UNL A   1      35.131  32.869  31.370  1.00  0.00     0.198 A 
ATOM     45  F   UNL A   1      36.669  31.425  32.416  1.00  0.00    -0.203 F 
ATOM     46  F   UNL A   1      35.454  34.912  28.395  1.00  0.00    -0.200 F 
ATOM     47  C   UNL A   1      34.815  33.757  30.353  1.00  0.00     0.200 A 
ATOM     48  F   UNL A   1      34.219  32.574  32.307  1.00  0.00    -0.200 F 
ATOM     49  F   UNL A   1      33.606  34.334  30.316  1.00  0.00    -0.200 F 
ENDBRANCH  25  39
BRANCH  26  50
ATOM     50  C   UNL A   1      46.474  28.481  30.411  1.00  0.00     0.064 A 
ATOM     51  C   UNL A   1      47.416  28.734  29.402  1.00  0.00     0.173 A 
ATOM     52  C   UNL A   1      46.801  27.534  31.390  1.00  0.00     0.173 A 
ATOM     53  F   UNL A   1      47.144  29.625  28.437  1.00  0.00    -0.203 F 
ATOM     54  C   UNL A   1      48.618  28.034  29.349  1.00  0.00     0.198 A 
ATOM     55  C   UNL A   1      48.017  26.854  31.351  1.00  0.00     0.198 A 
ATOM     56  F   UNL A   1      45.939  27.270  32.381  1.00  0.00    -0.203 F 
ATOM     57  F   UNL A   1      49.476  28.253  28.343  1.00  0.00    -0.200 F 
ATOM     58  C   UNL A   1      48.918  27.095  30.324  1.00  0.00     0.200 A 
ATOM     59  F   UNL A   1      48.310  25.958  32.303  1.00  0.00    -0.200 F 
ATOM     60  F   UNL A   1      50.073  26.416  30.270  1.00  0.00    -0.200 F 
ENDBRANCH  26  50
BRANCH  38  61
ATOM     61  C   UNL A   1      43.744  34.254  33.244  1.00  0.00     0.064 A 
ATOM     62  C   UNL A   1      43.760  34.167  34.644  1.00  0.00     0.173 A 
ATOM     63  C   UNL A   1      44.211  35.435  32.651  1.00  0.00     0.173 A 
ATOM     64  F   UNL A   1      43.318  33.058  35.257  1.00  0.00    -0.203 F 
ATOM     65  C   UNL A   1      44.207  35.231  35.421  1.00  0.00     0.198 A 
ATOM     66  C   UNL A   1      44.679  36.489  33.431  1.00  0.00     0.198 A 
ATOM     67  F   UNL A   1      44.227  35.559  31.316  1.00  0.00    -0.203 F 
ATOM     68  F   UNL A   1      44.185  35.138  36.758  1.00  0.00    -0.200 F 
ATOM     69  C   UNL A   1      44.668  36.390  34.814  1.00  0.00     0.200 A 
ATOM     70  F   UNL A   1      45.143  37.600  32.843  1.00  0.00    -0.200 F 
ATOM     71  F   UNL A   1      45.102  37.412  35.564  1.00  0.00    -0.200 F 
ENDBRANCH  38  61
ENDBRANCH  12  13
ENDBRANCH   5   7
ENDBRANCH   2   3
ENDBRANCH   1   2
BRANCH   1  72
ATOM     72  C   UNL A   1      42.253  20.361  27.748  1.00  0.00     0.118 C 
BRANCH  72  73
ATOM     73  N   UNL A   1      42.124  19.030  27.173  1.00  0.00    -0.351 N 
ATOM     74  C   UNL A   1      42.794  18.447  26.121  1.00  0.00     0.271 C 
ATOM     75  H   UNL A   1      41.452  18.456  27.606  1.00  0.00     0.163 HD
ATOM     76  O   UNL A   1      42.387  17.372  25.684  1.00  0.00    -0.267 OA
BRANCH  74  77
ATOM     77  C   UNL A   1      44.000  19.084  25.541  1.00  0.00     0.150 A 
ATOM     78  C   UNL A   1      45.245  18.485  25.683  1.00  0.00     0.145 A 
ATOM     79  N   UNL A   1      43.816  20.227  24.828  1.00  0.00    -0.205 NA
ATOM     80  N   UNL A   1      46.377  19.028  25.174  1.00  0.00    -0.257 NA
ATOM     81  C   UNL A   1      44.940  20.745  24.282  1.00  0.00     0.238 A 
ATOM     82  C   UNL A   1      46.193  20.171  24.469  1.00  0.00     0.179 A 
BRANCH  81  83
ATOM     83  O   UNL A   1      44.892  21.915  23.535  1.00  0.00    -0.434 OA
BRANCH  83  84
ATOM     84  C   UNL A   1      45.189  23.072  24.211  1.00  0.00     0.168 A 
ATOM     85  C   UNL A   1      46.506  23.520  24.301  1.00  0.00     0.089 A 
ATOM     86  C   UNL A   1      44.148  23.848  24.724  1.00  0.00     0.166 A 
ATOM     87  C   UNL A   1      46.763  24.729  24.938  1.00  0.00     0.127 A 
ATOM     88  C   UNL A   1      44.412  25.062  25.356  1.00  0.00     0.046 A 
ATOM     89  F   UNL A   1      42.877  23.437  24.603  1.00  0.00    -0.203 F 
ATOM     90  F   UNL A   1      48.026  25.164  25.037  1.00  0.00    -0.207 F 
ATOM     91  C   UNL A   1      45.731  25.504  25.465  1.00  0.00     0.042 A 
ENDBRANCH  83  84
ENDBRANCH  81  83
ENDBRANCH  74  77
ENDBRANCH  72  73
ENDBRANCH   1  72
TORSDOF 12
ENDMDL
MODEL 3
REMARK VINA RESULT:     -12.2      3.746     11.195
REMARK SMILES O=C(NCCCNC(=O)c1cncc(Oc2cc(F)ccc2F)n1)c1ccc(-c2c3nc(c(-c4c(F)c(F)c(F)c(F)c4F)c4ccc([nH]4)c(-c4c(F)c(F)c(F)c(F)c4F)c4nc(c(-c5c(F)c(F)c(F)c(F)c5F)c5ccc2[nH]5)C=C4)C=C3)cc1
REMARK SMILES IDX 5 1 4 2 3 3 1 4 2 5 25 7 26 8 87 9 27 10 86 11 28 12 29 13
REMARK SMILES IDX 30 14 80 15 31 16 85 17 79 18 81 19 32 20 84 21 78 22 77 23
REMARK SMILES IDX 33 25 65 26 45 27 64 28 46 29 49 30 63 31 82 32 47 33 48 34
REMARK SMILES IDX 62 36 83 37 50 38 34 39 35 40 43 41 36 42 37 43 41 44 44 45
REMARK SMILES IDX 38 46 39 47 42 48 40 49 66 50 67 51 75 52 68 53 69 54 73 55
REMARK SMILES IDX 76 56 70 57 71 58 74 59 72 60 51 61 52 62 60 63 53 64 54 65
REMARK SMILES IDX 58 66 61 67 55 68 56 69 59 70 57 71 6 72 7 73 8 74 9 76
REMARK SMILES IDX 10 77 11 78 24 79 12 80 14 81 13 82 15 83 16 84 17 85 22 86
REMARK SMILES IDX 18 87 21 88 23 89 19 90 20 91
REMARK H PARENT 3 6 81 24 49 35 7 75
REMARK Flexibility Score: inf
ROOT
ATOM      1  C   UNL A   1      35.113  33.339  27.991  1.00  0.00     0.042 C 
ENDROOT
BRANCH   1   2
ATOM      2  C   UNL A   1      34.162  32.427  28.754  1.00  0.00     0.118 C 
BRANCH   2   3
ATOM      3  N   UNL A   1      33.724  31.272  27.979  1.00  0.00    -0.352 N 
ATOM      4  O   UNL A   1      33.879  29.352  26.812  1.00  0.00    -0.269 OA
ATOM      5  C   UNL A   1      34.402  30.137  27.601  1.00  0.00     0.251 C 
ATOM      6  H   UNL A   1      32.788  31.313  27.675  1.00  0.00     0.163 HD
BRANCH   5   7
ATOM      7  C   UNL A   1      35.763  29.864  28.112  1.00  0.00     0.039 A 
ATOM      8  C   UNL A   1      36.883  30.079  27.312  1.00  0.00     0.014 A 
ATOM      9  C   UNL A   1      35.925  29.406  29.425  1.00  0.00     0.014 A 
ATOM     10  C   UNL A   1      38.133  29.658  27.746  1.00  0.00     0.010 A 
ATOM     11  C   UNL A   1      37.202  29.094  29.904  1.00  0.00     0.010 A 
ATOM     12  C   UNL A   1      38.313  29.177  29.055  1.00  0.00    -0.014 A 
BRANCH  12  13
ATOM     13  C   UNL A   1      39.691  28.845  29.500  1.00  0.00     0.031 A 
ATOM     14  C   UNL A   1      40.436  27.663  28.949  1.00  0.00     0.074 A 
ATOM     15  C   UNL A   1      40.300  29.684  30.362  1.00  0.00     0.049 A 
ATOM     16  N   UNL A   1      41.685  27.317  29.141  1.00  0.00    -0.248 NA
ATOM     17  C   UNL A   1      39.688  26.741  28.081  1.00  0.00     0.031 C 
ATOM     18  C   UNL A   1      39.664  30.847  30.985  1.00  0.00     0.029 A 
ATOM     19  N   UNL A   1      41.592  29.725  30.822  1.00  0.00    -0.354 N 
ATOM     20  C   UNL A   1      41.867  26.134  28.440  1.00  0.00     0.074 A 
ATOM     21  C   UNL A   1      40.594  25.803  27.836  1.00  0.00     0.031 C 
ATOM     22  C   UNL A   1      40.585  31.538  31.669  1.00  0.00     0.029 A 
ATOM     23  C   UNL A   1      41.860  30.834  31.589  1.00  0.00     0.049 A 
ATOM     24  H   UNL A   1      42.260  29.030  30.625  1.00  0.00     0.167 HD
ATOM     25  C   UNL A   1      42.996  25.398  28.308  1.00  0.00     0.037 A 
ATOM     26  C   UNL A   1      43.006  31.247  32.161  1.00  0.00     0.037 A 
ATOM     27  C   UNL A   1      44.267  25.751  28.888  1.00  0.00     0.049 A 
ATOM     28  C   UNL A   1      44.247  30.425  31.986  1.00  0.00     0.074 A 
ATOM     29  C   UNL A   1      45.481  25.096  28.767  1.00  0.00     0.029 A 
ATOM     30  N   UNL A   1      44.488  26.854  29.701  1.00  0.00    -0.354 N 
ATOM     31  N   UNL A   1      44.413  29.328  31.288  1.00  0.00    -0.248 NA
ATOM     32  C   UNL A   1      45.454  30.887  32.682  1.00  0.00     0.031 C 
ATOM     33  C   UNL A   1      46.424  25.777  29.542  1.00  0.00     0.029 A 
ATOM     34  C   UNL A   1      45.811  26.883  30.109  1.00  0.00     0.049 A 
ATOM     35  H   UNL A   1      43.805  27.518  29.949  1.00  0.00     0.167 HD
ATOM     36  C   UNL A   1      45.739  28.965  31.460  1.00  0.00     0.074 A 
ATOM     37  C   UNL A   1      46.341  29.972  32.310  1.00  0.00     0.031 C 
ATOM     38  C   UNL A   1      46.393  27.888  30.963  1.00  0.00     0.037 A 
BRANCH  25  39
ATOM     39  C   UNL A   1      42.918  24.126  27.515  1.00  0.00     0.064 A 
ATOM     40  C   UNL A   1      42.581  22.918  28.145  1.00  0.00     0.173 A 
ATOM     41  C   UNL A   1      43.238  24.085  26.150  1.00  0.00     0.173 A 
ATOM     42  F   UNL A   1      42.273  22.900  29.452  1.00  0.00    -0.203 F 
ATOM     43  C   UNL A   1      42.574  21.716  27.441  1.00  0.00     0.198 A 
ATOM     44  C   UNL A   1      43.207  22.885  25.443  1.00  0.00     0.198 A 
ATOM     45  F   UNL A   1      43.559  25.213  25.498  1.00  0.00    -0.203 F 
ATOM     46  F   UNL A   1      42.275  20.573  28.071  1.00  0.00    -0.200 F 
ATOM     47  C   UNL A   1      42.884  21.702  26.089  1.00  0.00     0.200 A 
ATOM     48  F   UNL A   1      43.484  22.876  24.131  1.00  0.00    -0.200 F 
ATOM     49  F   UNL A   1      42.865  20.547  25.409  1.00  0.00    -0.200 F 
ENDBRANCH  25  39
BRANCH  26  50
ATOM     50  C   UNL A   1      43.010  32.521  32.923  1.00  0.00     0.064 A 
ATOM     51  C   UNL A   1      42.736  32.542  34.300  1.00  0.00     0.173 A 
ATOM     52  C   UNL A   1      43.196  33.747  32.274  1.00  0.00     0.173 A 
ATOM     53  F   UNL A   1      42.540  31.393  34.963  1.00  0.00    -0.203 F 
ATOM     54  C   UNL A   1      42.610  33.745  34.989  1.00  0.00     0.198 A 
ATOM     55  C   UNL A   1      43.096  34.950  32.971  1.00  0.00     0.198 A 
ATOM     56  F   UNL A   1      43.474  33.776  30.963  1.00  0.00    -0.203 F 
ATOM     57  F   UNL A   1      42.291  33.739  36.291  1.00  0.00    -0.200 F 
ATOM     58  C   UNL A   1      42.790  34.948  34.325  1.00  0.00     0.200 A 
ATOM     59  F   UNL A   1      43.286  36.111  32.329  1.00  0.00    -0.200 F 
ATOM     60  F   UNL A   1      42.663  36.107  34.986  1.00  0.00    -0.200 F 
ENDBRANCH  26  50
BRANCH  38  61
ATOM     61  C   UNL A   1      47.839  27.732  31.324  1.00  0.00     0.064 A 
ATOM     62  C   UNL A   1      48.213  27.039  32.484  1.00  0.00     0.173 A 
ATOM     63  C   UNL A   1      48.848  28.340  30.564  1.00  0.00     0.173 A 
ATOM     64  F   UNL A   1      47.281  26.445  33.246  1.00  0.00    -0.203 F 
ATOM     65  C   UNL A   1      49.546  26.972  32.879  1.00  0.00     0.198 A 
ATOM     66  C   UNL A   1      50.183  28.252  30.949  1.00  0.00     0.198 A 
ATOM     67  F   UNL A   1      48.539  29.003  29.440  1.00  0.00    -0.203 F 
ATOM     68  F   UNL A   1      49.878  26.330  34.007  1.00  0.00    -0.200 F 
ATOM     69  C   UNL A   1      50.529  27.578  32.111  1.00  0.00     0.200 A 
ATOM     70  F   UNL A   1      51.135  28.820  30.196  1.00  0.00    -0.200 F 
ATOM     71  F   UNL A   1      51.812  27.510  32.490  1.00  0.00    -0.200 F 
ENDBRANCH  38  61
ENDBRANCH  12  13
ENDBRANCH   5   7
ENDBRANCH   2   3
ENDBRANCH   1   2
BRANCH   1  72
ATOM     72  C   UNL A   1      35.191  34.758  28.538  1.00  0.00     0.118 C 
BRANCH  72  73
ATOM     73  N   UNL A   1      33.986  35.523  28.254  1.00  0.00    -0.351 N 
ATOM     74  C   UNL A   1      33.042  36.045  29.110  1.00  0.00     0.271 C 
ATOM     75  H   UNL A   1      33.820  35.693  27.299  1.00  0.00     0.163 HD
ATOM     76  O   UNL A   1      32.000  36.494  28.638  1.00  0.00    -0.267 OA
BRANCH  74  77
ATOM     77  C   UNL A   1      33.285  36.092  30.572  1.00  0.00     0.150 A 
ATOM     78  C   UNL A   1      33.365  37.314  31.229  1.00  0.00     0.145 A 
ATOM     79  N   UNL A   1      33.363  34.904  31.228  1.00  0.00    -0.205 NA
ATOM     80  N   UNL A   1      33.589  37.411  32.561  1.00  0.00    -0.257 NA
ATOM     81  C   UNL A   1      33.541  35.001  32.565  1.00  0.00     0.238 A 
ATOM     82  C   UNL A   1      33.672  36.225  33.213  1.00  0.00     0.179 A 
BRANCH  81  83
ATOM     83  O   UNL A   1      33.643  33.862  33.351  1.00  0.00    -0.434 OA
BRANCH  83  84
ATOM     84  C   UNL A   1      34.918  33.419  33.606  1.00  0.00     0.168 A 
ATOM     85  C   UNL A   1      35.623  33.892  34.711  1.00  0.00     0.089 A 
ATOM     86  C   UNL A   1      35.464  32.418  32.801  1.00  0.00     0.166 A 
ATOM     87  C   UNL A   1      36.887  33.375  34.974  1.00  0.00     0.127 A 
ATOM     88  C   UNL A   1      36.728  31.899  33.073  1.00  0.00     0.046 A 
ATOM     89  F   UNL A   1      34.769  31.934  31.761  1.00  0.00    -0.203 F 
ATOM     90  F   UNL A   1      37.576  33.828  36.029  1.00  0.00    -0.207 F 
ATOM     91  C   UNL A   1      37.446  32.383  34.168  1.00  0.00     0.042 A 
ENDBRANCH  83  84
ENDBRANCH  81  83
ENDBRANCH  74  77
ENDBRANCH  72  73
ENDBRANCH   1  72
TORSDOF 12
ENDMDL
