MODEL 1
REMARK VINA RESULT:     -12.6      0.000      0.000
REMARK SMILES C[C@H]1N=c2ccc(C(=O)NCCCNC(=O)c3ccc(-c4c5nc(c(-c6c(F)c(F)c(F)c(F)c6F)c6ccc([nH]6)c(-c6c(F)c(F)c(F)c(F)c6F)c6nc(c(-c7c(F)c(F)c(F)c(F)c7F)c7ccc4[nH]7)C=C6)C=C5)cc3)cc2=N1
REMARK SMILES IDX 13 1 12 2 11 3 10 4 8 5 9 6 7 8 1 9 2 10 3 11 82 12 4 13
REMARK SMILES IDX 81 14 5 15 80 16 6 17 14 18 15 19 16 21 17 22 18 23 79 24
REMARK SMILES IDX 19 25 78 26 20 27 21 28 22 29 72 30 23 31 77 32 71 33 73 34
REMARK SMILES IDX 24 35 76 36 70 37 69 38 25 40 57 41 37 42 56 43 38 44 41 45
REMARK SMILES IDX 55 46 74 47 39 48 40 49 54 51 75 52 42 53 26 54 27 55 35 56
REMARK SMILES IDX 28 57 29 58 33 59 36 60 30 61 31 62 34 63 32 64 58 65 59 66
REMARK SMILES IDX 67 67 60 68 61 69 65 70 68 71 62 72 63 73 66 74 64 75 43 76
REMARK SMILES IDX 44 77 52 78 45 79 46 80 50 81 53 82 47 83 48 84 51 85 49 86
REMARK H PARENT 10 7 14 20 73 39 41 50
REMARK Flexibility Score: inf
ROOT
ATOM      1  C   UNL A   1      32.632  32.833  27.219  1.00  0.00     0.118 C 
ENDROOT
BRANCH   1   2
ATOM      2  C   UNL A   1      31.403  32.220  26.552  1.00  0.00     0.042 C 
BRANCH   2   3
ATOM      3  C   UNL A   1      31.522  30.713  26.325  1.00  0.00     0.118 C 
BRANCH   3   4
ATOM      4  N   UNL A   1      31.064  30.352  24.996  1.00  0.00    -0.352 N 
ATOM      5  C   UNL A   1      31.148  29.221  24.248  1.00  0.00     0.251 C 
ATOM      6  O   UNL A   1      30.661  29.280  23.116  1.00  0.00    -0.269 OA
ATOM      7  H   UNL A   1      30.590  31.083  24.539  1.00  0.00     0.163 HD
BRANCH   5   8
ATOM      8  C   UNL A   1      31.750  27.938  24.750  1.00  0.00     0.042 A 
ATOM      9  C   UNL A   1      31.357  22.613  26.107  1.00  0.00     0.059 C 
ATOM     10  C   UNL A   1      31.699  23.916  26.813  1.00  0.00     0.218 C 
ATOM     11  N   UNL A   1      33.033  24.371  26.337  1.00  0.00    -0.257 NA
ATOM     12  N   UNL A   1      30.662  24.934  26.501  1.00  0.00    -0.257 NA
ATOM     13  C   UNL A   1      32.760  25.499  25.783  1.00  0.00     0.085 A 
ATOM     14  C   UNL A   1      31.335  25.855  25.908  1.00  0.00     0.086 A 
ATOM     15  C   UNL A   1      33.652  26.388  25.042  1.00  0.00     0.031 A 
ATOM     16  C   UNL A   1      30.867  27.139  25.383  1.00  0.00     0.044 A 
ATOM     17  C   UNL A   1      33.124  27.509  24.528  1.00  0.00     0.016 A 
ENDBRANCH   5   8
ENDBRANCH   3   4
ENDBRANCH   2   3
ENDBRANCH   1   2
BRANCH   1  18
ATOM     18  N   UNL A   1      32.402  34.203  27.657  1.00  0.00    -0.352 N 
ATOM     19  C   UNL A   1      33.001  34.927  28.662  1.00  0.00     0.251 C 
ATOM     20  H   UNL A   1      31.708  34.688  27.153  1.00  0.00     0.163 HD
ATOM     21  O   UNL A   1      32.528  36.004  28.998  1.00  0.00    -0.269 OA
BRANCH  19  22
ATOM     22  C   UNL A   1      34.197  34.398  29.358  1.00  0.00     0.039 A 
ATOM     23  C   UNL A   1      35.479  34.607  28.849  1.00  0.00     0.014 A 
ATOM     24  C   UNL A   1      34.028  33.696  30.556  1.00  0.00     0.014 A 
ATOM     25  C   UNL A   1      36.571  33.980  29.444  1.00  0.00     0.010 A 
ATOM     26  C   UNL A   1      35.137  33.134  31.199  1.00  0.00     0.010 A 
ATOM     27  C   UNL A   1      36.411  33.230  30.620  1.00  0.00    -0.014 A 
BRANCH  27  28
ATOM     28  C   UNL A   1      37.588  32.542  31.216  1.00  0.00     0.031 A 
ATOM     29  C   UNL A   1      38.053  32.886  32.606  1.00  0.00     0.074 A 
ATOM     30  C   UNL A   1      38.198  31.558  30.527  1.00  0.00     0.049 A 
ATOM     31  N   UNL A   1      39.041  32.374  33.297  1.00  0.00    -0.248 NA
ATOM     32  C   UNL A   1      37.318  33.945  33.314  1.00  0.00     0.031 C 
ATOM     33  C   UNL A   1      37.832  31.125  29.178  1.00  0.00     0.029 A 
ATOM     34  N   UNL A   1      39.234  30.727  30.873  1.00  0.00    -0.354 N 
ATOM     35  C   UNL A   1      39.052  33.053  34.508  1.00  0.00     0.074 A 
ATOM     36  C   UNL A   1      37.994  34.038  34.450  1.00  0.00     0.031 C 
ATOM     37  C   UNL A   1      38.592  30.075  28.832  1.00  0.00     0.029 A 
ATOM     38  C   UNL A   1      39.538  29.798  29.908  1.00  0.00     0.049 A 
ATOM     39  H   UNL A   1      39.713  30.791  31.732  1.00  0.00     0.167 HD
ATOM     40  C   UNL A   1      39.859  32.860  35.579  1.00  0.00     0.037 A 
ATOM     41  C   UNL A   1      40.480  28.835  29.888  1.00  0.00     0.037 A 
ATOM     42  C   UNL A   1      40.895  31.861  35.646  1.00  0.00     0.049 A 
ATOM     43  C   UNL A   1      41.390  28.673  31.072  1.00  0.00     0.074 A 
ATOM     44  C   UNL A   1      41.752  31.580  36.696  1.00  0.00     0.029 A 
ATOM     45  N   UNL A   1      41.209  30.978  34.624  1.00  0.00    -0.354 N 
ATOM     46  N   UNL A   1      41.385  29.320  32.212  1.00  0.00    -0.248 NA
ATOM     47  C   UNL A   1      42.443  27.654  30.963  1.00  0.00     0.031 C 
ATOM     48  C   UNL A   1      42.612  30.553  36.295  1.00  0.00     0.029 A 
ATOM     49  C   UNL A   1      42.261  30.164  35.012  1.00  0.00     0.049 A 
ATOM     50  H   UNL A   1      40.753  30.936  33.753  1.00  0.00     0.167 HD
ATOM     51  C   UNL A   1      42.424  28.783  32.959  1.00  0.00     0.074 A 
ATOM     52  C   UNL A   1      43.024  27.740  32.154  1.00  0.00     0.031 C 
ATOM     53  C   UNL A   1      42.846  29.130  34.198  1.00  0.00     0.037 A 
BRANCH  40  54
ATOM     54  C   UNL A   1      39.664  33.743  36.776  1.00  0.00     0.064 A 
ATOM     55  C   UNL A   1      40.259  35.010  36.857  1.00  0.00     0.173 A 
ATOM     56  C   UNL A   1      38.808  33.351  37.817  1.00  0.00     0.173 A 
ATOM     57  F   UNL A   1      41.095  35.426  35.893  1.00  0.00    -0.203 F 
ATOM     58  C   UNL A   1      40.013  35.849  37.941  1.00  0.00     0.198 A 
ATOM     59  C   UNL A   1      38.544  34.202  38.887  1.00  0.00     0.198 A 
ATOM     60  F   UNL A   1      38.209  32.151  37.785  1.00  0.00    -0.203 F 
ATOM     61  F   UNL A   1      40.615  37.044  38.011  1.00  0.00    -0.200 F 
ATOM     62  C   UNL A   1      39.149  35.449  38.950  1.00  0.00     0.200 A 
ATOM     63  F   UNL A   1      37.700  33.819  39.854  1.00  0.00    -0.200 F 
ATOM     64  F   UNL A   1      38.899  36.264  39.983  1.00  0.00    -0.200 F 
ENDBRANCH  40  54
BRANCH  41  65
ATOM     65  C   UNL A   1      40.600  27.950  28.701  1.00  0.00     0.064 A 
ATOM     66  C   UNL A   1      39.914  26.729  28.641  1.00  0.00     0.173 A 
ATOM     67  C   UNL A   1      41.384  28.314  27.596  1.00  0.00     0.173 A 
ATOM     68  F   UNL A   1      39.170  26.327  29.682  1.00  0.00    -0.203 F 
ATOM     69  C   UNL A   1      40.013  25.904  27.522  1.00  0.00     0.198 A 
ATOM     70  C   UNL A   1      41.458  27.502  26.467  1.00  0.00     0.198 A 
ATOM     71  F   UNL A   1      42.058  29.473  27.605  1.00  0.00    -0.203 F 
ATOM     72  F   UNL A   1      39.374  24.727  27.503  1.00  0.00    -0.200 F 
ATOM     73  C   UNL A   1      40.778  26.295  26.434  1.00  0.00     0.200 A 
ATOM     74  F   UNL A   1      42.186  27.892  25.412  1.00  0.00    -0.200 F 
ATOM     75  F   UNL A   1      40.860  25.507  25.352  1.00  0.00    -0.200 F 
ENDBRANCH  41  65
BRANCH  53  76
ATOM     76  C   UNL A   1      44.008  28.373  34.769  1.00  0.00     0.064 A 
ATOM     77  C   UNL A   1      45.321  28.848  34.643  1.00  0.00     0.173 A 
ATOM     78  C   UNL A   1      43.800  27.198  35.507  1.00  0.00     0.173 A 
ATOM     79  F   UNL A   1      45.571  29.961  33.935  1.00  0.00    -0.203 F 
ATOM     80  C   UNL A   1      46.387  28.166  35.224  1.00  0.00     0.198 A 
ATOM     81  C   UNL A   1      44.865  26.534  36.109  1.00  0.00     0.198 A 
ATOM     82  F   UNL A   1      42.561  26.708  35.664  1.00  0.00    -0.203 F 
ATOM     83  F   UNL A   1      47.638  28.621  35.064  1.00  0.00    -0.200 F 
ATOM     84  C   UNL A   1      46.157  27.016  35.964  1.00  0.00     0.200 A 
ATOM     85  F   UNL A   1      44.640  25.430  36.835  1.00  0.00    -0.200 F 
ATOM     86  F   UNL A   1      47.183  26.369  36.535  1.00  0.00    -0.200 F 
ENDBRANCH  53  76
ENDBRANCH  27  28
ENDBRANCH  19  22
ENDBRANCH   1  18
TORSDOF 10
ENDMDL
MODEL 2
REMARK VINA RESULT:     -12.5      0.097      1.177
REMARK SMILES C[C@H]1N=c2ccc(C(=O)NCCCNC(=O)c3ccc(-c4c5nc(c(-c6c(F)c(F)c(F)c(F)c6F)c6ccc([nH]6)c(-c6c(F)c(F)c(F)c(F)c6F)c6nc(c(-c7c(F)c(F)c(F)c(F)c7F)c7ccc4[nH]7)C=C6)C=C5)cc3)cc2=N1
REMARK SMILES IDX 13 1 12 2 11 3 10 4 8 5 9 6 7 8 1 9 2 10 3 11 82 12 4 13
REMARK SMILES IDX 81 14 5 15 80 16 6 17 14 18 15 19 16 21 17 22 18 23 79 24
REMARK SMILES IDX 19 25 78 26 20 27 21 28 22 29 72 30 23 31 77 32 71 33 73 34
REMARK SMILES IDX 24 35 76 36 70 37 69 38 25 40 57 41 37 42 56 43 38 44 41 45
REMARK SMILES IDX 55 46 74 47 39 48 40 49 54 51 75 52 42 53 26 54 27 55 35 56
REMARK SMILES IDX 28 57 29 58 33 59 36 60 30 61 31 62 34 63 32 64 58 65 59 66
REMARK SMILES IDX 67 67 60 68 61 69 65 70 68 71 62 72 63 73 66 74 64 75 43 76
REMARK SMILES IDX 44 77 52 78 45 79 46 80 50 81 53 82 47 83 48 84 51 85 49 86
REMARK H PARENT 10 7 14 20 73 39 41 50
REMARK Flexibility Score: inf
ROOT
ATOM      1  C   UNL A   1      32.630  32.834  27.189  1.00  0.00     0.118 C 
ENDROOT
BRANCH   1   2
ATOM      2  C   UNL A   1      31.403  32.238  26.502  1.00  0.00     0.042 C 
BRANCH   2   3
ATOM      3  C   UNL A   1      31.491  30.725  26.306  1.00  0.00     0.118 C 
BRANCH   3   4
ATOM      4  N   UNL A   1      31.040  30.347  24.980  1.00  0.00    -0.352 N 
ATOM      5  C   UNL A   1      31.133  29.209  24.243  1.00  0.00     0.251 C 
ATOM      6  O   UNL A   1      30.649  29.253  23.110  1.00  0.00    -0.269 OA
ATOM      7  H   UNL A   1      30.564  31.071  24.513  1.00  0.00     0.163 HD
BRANCH   5   8
ATOM      8  C   UNL A   1      31.739  27.934  24.761  1.00  0.00     0.042 A 
ATOM      9  C   UNL A   1      31.380  22.609  26.127  1.00  0.00     0.059 C 
ATOM     10  C   UNL A   1      31.694  23.918  26.836  1.00  0.00     0.218 C 
ATOM     11  N   UNL A   1      33.031  24.387  26.384  1.00  0.00    -0.257 NA
ATOM     12  N   UNL A   1      30.652  24.923  26.501  1.00  0.00    -0.257 NA
ATOM     13  C   UNL A   1      32.757  25.510  25.822  1.00  0.00     0.085 A 
ATOM     14  C   UNL A   1      31.325  25.850  25.918  1.00  0.00     0.086 A 
ATOM     15  C   UNL A   1      33.653  26.407  25.095  1.00  0.00     0.031 A 
ATOM     16  C   UNL A   1      30.853  27.127  25.379  1.00  0.00     0.044 A 
ATOM     17  C   UNL A   1      33.122  27.520  24.567  1.00  0.00     0.016 A 
ENDBRANCH   5   8
ENDBRANCH   3   4
ENDBRANCH   2   3
ENDBRANCH   1   2
BRANCH   1  18
ATOM     18  N   UNL A   1      32.407  34.203  27.633  1.00  0.00    -0.352 N 
ATOM     19  C   UNL A   1      33.009  34.917  28.643  1.00  0.00     0.251 C 
ATOM     20  H   UNL A   1      31.717  34.695  27.131  1.00  0.00     0.163 HD
ATOM     21  O   UNL A   1      32.542  35.996  28.984  1.00  0.00    -0.269 OA
BRANCH  19  22
ATOM     22  C   UNL A   1      34.200  34.378  29.339  1.00  0.00     0.039 A 
ATOM     23  C   UNL A   1      35.489  34.633  28.867  1.00  0.00     0.014 A 
ATOM     24  C   UNL A   1      34.021  33.617  30.498  1.00  0.00     0.014 A 
ATOM     25  C   UNL A   1      36.580  33.998  29.454  1.00  0.00     0.010 A 
ATOM     26  C   UNL A   1      35.127  33.044  31.137  1.00  0.00     0.010 A 
ATOM     27  C   UNL A   1      36.411  33.191  30.590  1.00  0.00    -0.014 A 
BRANCH  27  28
ATOM     28  C   UNL A   1      37.588  32.496  31.177  1.00  0.00     0.031 A 
ATOM     29  C   UNL A   1      38.070  32.842  32.560  1.00  0.00     0.074 A 
ATOM     30  C   UNL A   1      38.183  31.504  30.487  1.00  0.00     0.049 A 
ATOM     31  N   UNL A   1      39.061  32.325  33.244  1.00  0.00    -0.248 NA
ATOM     32  C   UNL A   1      37.351  33.911  33.271  1.00  0.00     0.031 C 
ATOM     33  C   UNL A   1      37.799  31.067  29.144  1.00  0.00     0.029 A 
ATOM     34  N   UNL A   1      39.216  30.666  30.827  1.00  0.00    -0.354 N 
ATOM     35  C   UNL A   1      39.089  33.011  34.452  1.00  0.00     0.074 A 
ATOM     36  C   UNL A   1      38.039  34.004  34.400  1.00  0.00     0.031 C 
ATOM     37  C   UNL A   1      38.548  30.009  28.795  1.00  0.00     0.029 A 
ATOM     38  C   UNL A   1      39.503  29.730  29.863  1.00  0.00     0.049 A 
ATOM     39  H   UNL A   1      39.704  30.730  31.680  1.00  0.00     0.167 HD
ATOM     40  C   UNL A   1      39.907  32.816  35.515  1.00  0.00     0.037 A 
ATOM     41  C   UNL A   1      40.436  28.759  29.838  1.00  0.00     0.037 A 
ATOM     42  C   UNL A   1      40.935  31.810  35.577  1.00  0.00     0.049 A 
ATOM     43  C   UNL A   1      41.357  28.595  31.013  1.00  0.00     0.074 A 
ATOM     44  C   UNL A   1      41.800  31.526  36.619  1.00  0.00     0.029 A 
ATOM     45  N   UNL A   1      41.231  30.919  34.556  1.00  0.00    -0.354 N 
ATOM     46  N   UNL A   1      41.369  29.248  32.150  1.00  0.00    -0.248 NA
ATOM     47  C   UNL A   1      42.401  27.568  30.899  1.00  0.00     0.031 C 
ATOM     48  C   UNL A   1      42.648  30.491  36.215  1.00  0.00     0.029 A 
ATOM     49  C   UNL A   1      42.281  30.098  34.937  1.00  0.00     0.049 A 
ATOM     50  H   UNL A   1      40.766  30.877  33.690  1.00  0.00     0.167 HD
ATOM     51  C   UNL A   1      42.411  28.706  32.889  1.00  0.00     0.074 A 
ATOM     52  C   UNL A   1      42.995  27.654  32.083  1.00  0.00     0.031 C 
ATOM     53  C   UNL A   1      42.849  29.056  34.122  1.00  0.00     0.037 A 
BRANCH  40  54
ATOM     54  C   UNL A   1      39.730  33.706  36.710  1.00  0.00     0.064 A 
ATOM     55  C   UNL A   1      40.348  34.963  36.785  1.00  0.00     0.173 A 
ATOM     56  C   UNL A   1      38.871  33.333  37.755  1.00  0.00     0.173 A 
ATOM     57  F   UNL A   1      41.189  35.361  35.817  1.00  0.00    -0.203 F 
ATOM     58  C   UNL A   1      40.120  35.810  37.866  1.00  0.00     0.198 A 
ATOM     59  C   UNL A   1      38.625  34.193  38.823  1.00  0.00     0.198 A 
ATOM     60  F   UNL A   1      38.251  32.144  37.729  1.00  0.00    -0.203 F 
ATOM     61  F   UNL A   1      40.744  36.994  37.931  1.00  0.00    -0.200 F 
ATOM     62  C   UNL A   1      39.252  35.429  38.879  1.00  0.00     0.200 A 
ATOM     63  F   UNL A   1      37.777  33.828  39.794  1.00  0.00    -0.200 F 
ATOM     64  F   UNL A   1      39.020  36.252  39.911  1.00  0.00    -0.200 F 
ENDBRANCH  40  54
BRANCH  41  65
ATOM     65  C   UNL A   1      40.537  27.867  28.654  1.00  0.00     0.064 A 
ATOM     66  C   UNL A   1      41.322  28.223  27.549  1.00  0.00     0.173 A 
ATOM     67  C   UNL A   1      39.868  26.635  28.611  1.00  0.00     0.173 A 
ATOM     68  F   UNL A   1      41.963  29.401  27.534  1.00  0.00    -0.203 F 
ATOM     69  C   UNL A   1      41.431  27.381  26.444  1.00  0.00     0.198 A 
ATOM     70  C   UNL A   1      40.000  25.782  27.518  1.00  0.00     0.198 A 
ATOM     71  F   UNL A   1      39.104  26.249  29.643  1.00  0.00    -0.203 F 
ATOM     72  F   UNL A   1      42.162  27.758  25.387  1.00  0.00    -0.200 F 
ATOM     73  C   UNL A   1      40.777  26.158  26.434  1.00  0.00     0.200 A 
ATOM     74  F   UNL A   1      39.379  24.595  27.519  1.00  0.00    -0.200 F 
ATOM     75  F   UNL A   1      40.894  25.343  25.376  1.00  0.00    -0.200 F 
ENDBRANCH  41  65
BRANCH  53  76
ATOM     76  C   UNL A   1      44.011  28.293  34.685  1.00  0.00     0.064 A 
ATOM     77  C   UNL A   1      45.326  28.754  34.540  1.00  0.00     0.173 A 
ATOM     78  C   UNL A   1      43.800  27.124  35.434  1.00  0.00     0.173 A 
ATOM     79  F   UNL A   1      45.577  29.860  33.822  1.00  0.00    -0.203 F 
ATOM     80  C   UNL A   1      46.393  28.067  35.113  1.00  0.00     0.198 A 
ATOM     81  C   UNL A   1      44.867  26.455  36.028  1.00  0.00     0.198 A 
ATOM     82  F   UNL A   1      42.559  26.646  35.609  1.00  0.00    -0.203 F 
ATOM     83  F   UNL A   1      47.645  28.509  34.935  1.00  0.00    -0.200 F 
ATOM     84  C   UNL A   1      46.161  26.924  35.864  1.00  0.00     0.200 A 
ATOM     85  F   UNL A   1      44.640  25.358  36.764  1.00  0.00    -0.200 F 
ATOM     86  F   UNL A   1      47.187  26.272  36.428  1.00  0.00    -0.200 F 
ENDBRANCH  53  76
ENDBRANCH  27  28
ENDBRANCH  19  22
ENDBRANCH   1  18
TORSDOF 10
ENDMDL
MODEL 3
REMARK VINA RESULT:     -12.5      0.405      7.798
REMARK SMILES C[C@H]1N=c2ccc(C(=O)NCCCNC(=O)c3ccc(-c4c5nc(c(-c6c(F)c(F)c(F)c(F)c6F)c6ccc([nH]6)c(-c6c(F)c(F)c(F)c(F)c6F)c6nc(c(-c7c(F)c(F)c(F)c(F)c7F)c7ccc4[nH]7)C=C6)C=C5)cc3)cc2=N1
REMARK SMILES IDX 13 1 12 2 11 3 10 4 8 5 9 6 7 8 1 9 2 10 3 11 82 12 4 13
REMARK SMILES IDX 81 14 5 15 80 16 6 17 14 18 15 19 16 21 17 22 18 23 79 24
REMARK SMILES IDX 19 25 78 26 20 27 21 28 22 29 72 30 23 31 77 32 71 33 73 34
REMARK SMILES IDX 24 35 76 36 70 37 69 38 25 40 57 41 37 42 56 43 38 44 41 45
REMARK SMILES IDX 55 46 74 47 39 48 40 49 54 51 75 52 42 53 26 54 27 55 35 56
REMARK SMILES IDX 28 57 29 58 33 59 36 60 30 61 31 62 34 63 32 64 58 65 59 66
REMARK SMILES IDX 67 67 60 68 61 69 65 70 68 71 62 72 63 73 66 74 64 75 43 76
REMARK SMILES IDX 44 77 52 78 45 79 46 80 50 81 53 82 47 83 48 84 51 85 49 86
REMARK H PARENT 10 7 14 20 73 39 41 50
REMARK Flexibility Score: inf
ROOT
ATOM      1  C   UNL A   1      32.698  32.830  27.234  1.00  0.00     0.118 C 
ENDROOT
BRANCH   1   2
ATOM      2  C   UNL A   1      31.457  32.196  26.610  1.00  0.00     0.042 C 
BRANCH   2   3
ATOM      3  C   UNL A   1      31.603  30.696  26.355  1.00  0.00     0.118 C 
BRANCH   3   4
ATOM      4  N   UNL A   1      31.191  30.358  25.005  1.00  0.00    -0.352 N 
ATOM      5  C   UNL A   1      31.280  29.232  24.249  1.00  0.00     0.251 C 
ATOM      6  O   UNL A   1      30.840  29.312  23.100  1.00  0.00    -0.269 OA
ATOM      7  H   UNL A   1      30.752  31.104  24.537  1.00  0.00     0.163 HD
BRANCH   5   8
ATOM      8  C   UNL A   1      31.832  27.931  24.762  1.00  0.00     0.042 A 
ATOM      9  C   UNL A   1      31.262  22.607  26.061  1.00  0.00     0.059 C 
ATOM     10  C   UNL A   1      31.611  23.896  26.790  1.00  0.00     0.218 C 
ATOM     11  N   UNL A   1      32.971  24.323  26.365  1.00  0.00    -0.257 NA
ATOM     12  N   UNL A   1      30.610  24.941  26.449  1.00  0.00    -0.257 NA
ATOM     13  C   UNL A   1      32.745  25.460  25.811  1.00  0.00     0.085 A 
ATOM     14  C   UNL A   1      31.326  25.851  25.888  1.00  0.00     0.086 A 
ATOM     15  C   UNL A   1      33.685  26.333  25.109  1.00  0.00     0.031 A 
ATOM     16  C   UNL A   1      30.908  27.149  25.357  1.00  0.00     0.044 A 
ATOM     17  C   UNL A   1      33.203  27.470  24.586  1.00  0.00     0.016 A 
ENDBRANCH   5   8
ENDBRANCH   3   4
ENDBRANCH   2   3
ENDBRANCH   1   2
BRANCH   1  18
ATOM     18  N   UNL A   1      32.475  34.214  27.630  1.00  0.00    -0.352 N 
ATOM     19  C   UNL A   1      33.024  34.942  28.661  1.00  0.00     0.251 C 
ATOM     20  H   UNL A   1      31.831  34.707  27.071  1.00  0.00     0.163 HD
ATOM     21  O   UNL A   1      32.558  36.038  28.944  1.00  0.00    -0.269 OA
BRANCH  19  22
ATOM     22  C   UNL A   1      34.154  34.396  29.447  1.00  0.00     0.039 A 
ATOM     23  C   UNL A   1      35.468  34.502  28.991  1.00  0.00     0.014 A 
ATOM     24  C   UNL A   1      33.891  33.784  30.677  1.00  0.00     0.014 A 
ATOM     25  C   UNL A   1      36.494  33.858  29.678  1.00  0.00     0.010 A 
ATOM     26  C   UNL A   1      34.935  33.207  31.408  1.00  0.00     0.010 A 
ATOM     27  C   UNL A   1      36.238  33.196  30.889  1.00  0.00    -0.014 A 
BRANCH  27  28
ATOM     28  C   UNL A   1      37.345  32.487  31.584  1.00  0.00     0.031 A 
ATOM     29  C   UNL A   1      38.095  31.378  30.896  1.00  0.00     0.074 A 
ATOM     30  C   UNL A   1      37.719  32.887  32.815  1.00  0.00     0.049 A 
ATOM     31  N   UNL A   1      39.103  30.665  31.334  1.00  0.00    -0.248 NA
ATOM     32  C   UNL A   1      37.656  31.016  29.539  1.00  0.00     0.031 C 
ATOM     33  C   UNL A   1      37.079  33.958  33.580  1.00  0.00     0.029 A 
ATOM     34  N   UNL A   1      38.741  32.462  33.627  1.00  0.00    -0.354 N 
ATOM     35  C   UNL A   1      39.408  29.769  30.317  1.00  0.00     0.074 A 
ATOM     36  C   UNL A   1      38.460  30.003  29.250  1.00  0.00     0.031 C 
ATOM     37  C   UNL A   1      37.754  34.144  34.725  1.00  0.00     0.029 A 
ATOM     38  C   UNL A   1      38.837  33.168  34.802  1.00  0.00     0.049 A 
ATOM     39  H   UNL A   1      39.346  31.723  33.390  1.00  0.00     0.167 HD
ATOM     40  C   UNL A   1      40.400  28.848  30.272  1.00  0.00     0.037 A 
ATOM     41  C   UNL A   1      39.696  33.039  35.832  1.00  0.00     0.037 A 
ATOM     42  C   UNL A   1      41.360  28.634  31.324  1.00  0.00     0.049 A 
ATOM     43  C   UNL A   1      40.759  31.979  35.772  1.00  0.00     0.074 A 
ATOM     44  C   UNL A   1      42.412  27.736  31.359  1.00  0.00     0.029 A 
ATOM     45  N   UNL A   1      41.387  29.331  32.523  1.00  0.00    -0.354 N 
ATOM     46  N   UNL A   1      41.037  31.142  34.802  1.00  0.00    -0.248 NA
ATOM     47  C   UNL A   1      41.621  31.837  36.953  1.00  0.00     0.031 C 
ATOM     48  C   UNL A   1      43.052  27.860  32.596  1.00  0.00     0.029 A 
ATOM     49  C   UNL A   1      42.427  28.868  33.313  1.00  0.00     0.049 A 
ATOM     50  H   UNL A   1      40.761  30.047  32.774  1.00  0.00     0.167 HD
ATOM     51  C   UNL A   1      42.109  30.383  35.250  1.00  0.00     0.074 A 
ATOM     52  C   UNL A   1      42.448  30.873  36.570  1.00  0.00     0.031 C 
ATOM     53  C   UNL A   1      42.750  29.366  34.624  1.00  0.00     0.037 A 
BRANCH  40  54
ATOM     54  C   UNL A   1      40.510  27.993  29.043  1.00  0.00     0.064 A 
ATOM     55  C   UNL A   1      39.762  26.815  28.901  1.00  0.00     0.173 A 
ATOM     56  C   UNL A   1      41.312  28.397  27.965  1.00  0.00     0.173 A 
ATOM     57  F   UNL A   1      38.990  26.380  29.909  1.00  0.00    -0.203 F 
ATOM     58  C   UNL A   1      39.819  26.068  27.728  1.00  0.00     0.198 A 
ATOM     59  C   UNL A   1      41.347  27.661  26.783  1.00  0.00     0.198 A 
ATOM     60  F   UNL A   1      42.042  29.519  28.047  1.00  0.00    -0.203 F 
ATOM     61  F   UNL A   1      39.118  24.931  27.625  1.00  0.00    -0.200 F 
ATOM     62  C   UNL A   1      40.603  26.496  26.666  1.00  0.00     0.200 A 
ATOM     63  F   UNL A   1      42.095  28.082  25.755  1.00  0.00    -0.200 F 
ATOM     64  F   UNL A   1      40.644  25.785  25.531  1.00  0.00    -0.200 F 
ENDBRANCH  40  54
BRANCH  41  65
ATOM     65  C   UNL A   1      39.581  33.945  37.003  1.00  0.00     0.064 A 
ATOM     66  C   UNL A   1      40.245  35.178  37.027  1.00  0.00     0.173 A 
ATOM     67  C   UNL A   1      38.790  33.607  38.111  1.00  0.00     0.173 A 
ATOM     68  F   UNL A   1      41.031  35.536  36.001  1.00  0.00    -0.203 F 
ATOM     69  C   UNL A   1      40.126  36.037  38.118  1.00  0.00     0.198 A 
ATOM     70  C   UNL A   1      38.650  34.479  39.188  1.00  0.00     0.198 A 
ATOM     71  F   UNL A   1      38.134  32.438  38.136  1.00  0.00    -0.203 F 
ATOM     72  F   UNL A   1      40.797  37.196  38.131  1.00  0.00    -0.200 F 
ATOM     73  C   UNL A   1      39.322  35.690  39.193  1.00  0.00     0.200 A 
ATOM     74  F   UNL A   1      37.859  34.146  40.217  1.00  0.00    -0.200 F 
ATOM     75  F   UNL A   1      39.198  36.524  40.236  1.00  0.00    -0.200 F 
ENDBRANCH  41  65
BRANCH  53  76
ATOM     76  C   UNL A   1      43.888  28.716  35.352  1.00  0.00     0.064 A 
ATOM     77  C   UNL A   1      43.681  27.616  36.196  1.00  0.00     0.173 A 
ATOM     78  C   UNL A   1      45.206  29.153  35.151  1.00  0.00     0.173 A 
ATOM     79  F   UNL A   1      42.436  27.171  36.430  1.00  0.00    -0.203 F 
ATOM     80  C   UNL A   1      44.751  26.985  36.825  1.00  0.00     0.198 A 
ATOM     81  C   UNL A   1      46.276  28.503  35.759  1.00  0.00     0.198 A 
ATOM     82  F   UNL A   1      45.458  30.196  34.345  1.00  0.00    -0.203 F 
ATOM     83  F   UNL A   1      44.527  25.956  37.653  1.00  0.00    -0.200 F 
ATOM     84  C   UNL A   1      46.047  27.423  36.598  1.00  0.00     0.200 A 
ATOM     85  F   UNL A   1      47.529  28.918  35.529  1.00  0.00    -0.200 F 
ATOM     86  F   UNL A   1      47.078  26.805  37.192  1.00  0.00    -0.200 F 
ENDBRANCH  53  76
ENDBRANCH  27  28
ENDBRANCH  19  22
ENDBRANCH   1  18
TORSDOF 10
ENDMDL
