MODEL 1
REMARK VINA RESULT:     -13.0      0.000      0.000
REMARK SMILES O=C(NCCCNC(=O)[C@@H]1[C@H](C(=O)NCc2ccncc2)[C@H]2C=C[C@@H]1O2)c1ccc(-c2c3nc(c(-c4c(F)c(F)c(F)c(F)c4F)c4ccc([nH]4)c(-c4c(F)c(F)c(F)c(F)c4F)c4nc(c(-c5c(F)c(F)c(F)c(F)c5F)c5ccc2[nH]5)C=C4)C=C3)cc1
REMARK SMILES IDX 5 1 4 2 3 3 1 4 2 5 27 7 28 8 89 9 29 10 88 11 30 12 31 13
REMARK SMILES IDX 32 14 82 15 33 16 87 17 81 18 83 19 34 20 86 21 80 22 79 23
REMARK SMILES IDX 35 25 67 26 47 27 66 28 48 29 51 30 65 31 84 32 49 33 50 34
REMARK SMILES IDX 64 36 85 37 52 38 36 39 37 40 45 41 38 42 39 43 43 44 46 45
REMARK SMILES IDX 40 46 41 47 44 48 42 49 68 50 69 51 77 52 70 53 71 54 75 55
REMARK SMILES IDX 78 56 72 57 73 58 76 59 74 60 53 61 54 62 62 63 55 64 56 65
REMARK SMILES IDX 60 66 63 67 57 68 58 69 61 70 59 71 6 72 7 73 8 74 9 76
REMARK SMILES IDX 10 77 11 78 25 79 22 80 24 81 26 82 23 83 12 84 13 85 14 86
REMARK SMILES IDX 15 88 16 89 17 90 21 91 18 92 20 93 19 94
REMARK H PARENT 3 6 83 24 51 35 7 75 14 87
REMARK Flexibility Score: inf
ROOT
ATOM      1  C   UNL A   1      31.841  31.655  26.513  1.00  0.00     0.042 C 
ENDROOT
BRANCH   1   2
ATOM      2  C   UNL A   1      32.873  32.432  27.315  1.00  0.00     0.118 C 
BRANCH   2   3
ATOM      3  N   UNL A   1      32.469  33.793  27.634  1.00  0.00    -0.352 N 
ATOM      4  O   UNL A   1      32.489  35.803  28.651  1.00  0.00    -0.269 OA
ATOM      5  C   UNL A   1      33.022  34.707  28.500  1.00  0.00     0.251 C 
ATOM      6  H   UNL A   1      31.671  34.111  27.151  1.00  0.00     0.163 HD
BRANCH   5   7
ATOM      7  C   UNL A   1      34.212  34.343  29.299  1.00  0.00     0.039 A 
ATOM      8  C   UNL A   1      35.501  34.515  28.794  1.00  0.00     0.014 A 
ATOM      9  C   UNL A   1      34.024  33.757  30.553  1.00  0.00     0.014 A 
ATOM     10  C   UNL A   1      36.575  33.905  29.432  1.00  0.00     0.010 A 
ATOM     11  C   UNL A   1      35.121  33.236  31.245  1.00  0.00     0.010 A 
ATOM     12  C   UNL A   1      36.396  33.249  30.659  1.00  0.00    -0.014 A 
BRANCH  12  13
ATOM     13  C   UNL A   1      37.545  32.572  31.313  1.00  0.00     0.031 A 
ATOM     14  C   UNL A   1      38.301  31.481  30.603  1.00  0.00     0.074 A 
ATOM     15  C   UNL A   1      37.924  32.961  32.546  1.00  0.00     0.049 A 
ATOM     16  N   UNL A   1      39.283  30.734  31.043  1.00  0.00    -0.248 NA
ATOM     17  C   UNL A   1      37.896  31.182  29.221  1.00  0.00     0.031 C 
ATOM     18  C   UNL A   1      37.279  34.014  33.331  1.00  0.00     0.029 A 
ATOM     19  N   UNL A   1      38.945  32.523  33.348  1.00  0.00    -0.354 N 
ATOM     20  C   UNL A   1      39.584  29.853  30.011  1.00  0.00     0.074 A 
ATOM     21  C   UNL A   1      38.676  30.151  28.924  1.00  0.00     0.031 C 
ATOM     22  C   UNL A   1      37.941  34.167  34.487  1.00  0.00     0.029 A 
ATOM     23  C   UNL A   1      39.012  33.178  34.552  1.00  0.00     0.049 A 
ATOM     24  H   UNL A   1      39.571  31.809  33.087  1.00  0.00     0.167 HD
ATOM     25  C   UNL A   1      40.533  28.887  29.976  1.00  0.00     0.037 A 
ATOM     26  C   UNL A   1      39.826  32.988  35.607  1.00  0.00     0.037 A 
ATOM     27  C   UNL A   1      41.462  28.621  31.044  1.00  0.00     0.049 A 
ATOM     28  C   UNL A   1      40.867  31.911  35.543  1.00  0.00     0.074 A 
ATOM     29  C   UNL A   1      42.482  27.686  31.091  1.00  0.00     0.029 A 
ATOM     30  N   UNL A   1      41.486  29.299  32.254  1.00  0.00    -0.354 N 
ATOM     31  N   UNL A   1      41.134  31.079  34.566  1.00  0.00    -0.248 NA
ATOM     32  C   UNL A   1      41.712  31.738  36.732  1.00  0.00     0.031 C 
ATOM     33  C   UNL A   1      43.104  27.778  32.342  1.00  0.00     0.029 A 
ATOM     34  C   UNL A   1      42.495  28.794  33.060  1.00  0.00     0.049 A 
ATOM     35  H   UNL A   1      40.877  30.031  32.504  1.00  0.00     0.167 HD
ATOM     36  C   UNL A   1      42.181  30.289  35.016  1.00  0.00     0.074 A 
ATOM     37  C   UNL A   1      42.513  30.754  36.348  1.00  0.00     0.031 C 
ATOM     38  C   UNL A   1      42.808  29.269  34.382  1.00  0.00     0.037 A 
BRANCH  25  39
ATOM     39  C   UNL A   1      40.604  28.023  28.750  1.00  0.00     0.064 A 
ATOM     40  C   UNL A   1      39.885  26.822  28.649  1.00  0.00     0.173 A 
ATOM     41  C   UNL A   1      41.371  28.423  27.646  1.00  0.00     0.173 A 
ATOM     42  F   UNL A   1      39.147  26.388  29.682  1.00  0.00    -0.203 F 
ATOM     43  C   UNL A   1      39.948  26.045  27.494  1.00  0.00     0.198 A 
ATOM     44  C   UNL A   1      41.414  27.655  26.485  1.00  0.00     0.198 A 
ATOM     45  F   UNL A   1      42.075  29.565  27.690  1.00  0.00    -0.203 F 
ATOM     46  F   UNL A   1      39.285  24.883  27.434  1.00  0.00    -0.200 F 
ATOM     47  C   UNL A   1      40.708  26.465  26.412  1.00  0.00     0.200 A 
ATOM     48  F   UNL A   1      42.141  28.067  25.438  1.00  0.00    -0.200 F 
ATOM     49  F   UNL A   1      40.765  25.717  25.300  1.00  0.00    -0.200 F 
ENDBRANCH  25  39
BRANCH  26  50
ATOM     50  C   UNL A   1      39.665  33.843  36.808  1.00  0.00     0.064 A 
ATOM     51  C   UNL A   1      40.273  35.101  36.882  1.00  0.00     0.173 A 
ATOM     52  C   UNL A   1      38.855  33.440  37.880  1.00  0.00     0.173 A 
ATOM     53  F   UNL A   1      41.070  35.520  35.888  1.00  0.00    -0.203 F 
ATOM     54  C   UNL A   1      40.077  35.929  37.987  1.00  0.00     0.198 A 
ATOM     55  C   UNL A   1      38.640  34.277  38.972  1.00  0.00     0.198 A 
ATOM     56  F   UNL A   1      38.247  32.244  37.850  1.00  0.00    -0.203 F 
ATOM     57  F   UNL A   1      40.686  37.120  38.045  1.00  0.00    -0.200 F 
ATOM     58  C   UNL A   1      39.253  35.519  39.024  1.00  0.00     0.200 A 
ATOM     59  F   UNL A   1      37.829  33.885  39.964  1.00  0.00    -0.200 F 
ATOM     60  F   UNL A   1      39.049  36.323  40.077  1.00  0.00    -0.200 F 
ENDBRANCH  26  50
BRANCH  38  61
ATOM     61  C   UNL A   1      43.929  28.600  35.117  1.00  0.00     0.064 A 
ATOM     62  C   UNL A   1      43.702  27.485  35.936  1.00  0.00     0.173 A 
ATOM     63  C   UNL A   1      45.246  29.061  34.975  1.00  0.00     0.173 A 
ATOM     64  F   UNL A   1      42.456  27.021  36.113  1.00  0.00    -0.203 F 
ATOM     65  C   UNL A   1      44.754  26.865  36.603  1.00  0.00     0.198 A 
ATOM     66  C   UNL A   1      46.298  28.425  35.628  1.00  0.00     0.198 A 
ATOM     67  F   UNL A   1      45.511  30.122  34.200  1.00  0.00    -0.203 F 
ATOM     68  F   UNL A   1      44.511  25.824  37.412  1.00  0.00    -0.200 F 
ATOM     69  C   UNL A   1      46.051  27.332  36.445  1.00  0.00     0.200 A 
ATOM     70  F   UNL A   1      47.552  28.872  35.468  1.00  0.00    -0.200 F 
ATOM     71  F   UNL A   1      47.063  26.732  37.087  1.00  0.00    -0.200 F 
ENDBRANCH  38  61
ENDBRANCH  12  13
ENDBRANCH   5   7
ENDBRANCH   2   3
ENDBRANCH   1   2
BRANCH   1  72
ATOM     72  C   UNL A   1      32.260  30.254  26.102  1.00  0.00     0.117 C 
BRANCH  72  73
ATOM     73  N   UNL A   1      31.622  29.214  26.875  1.00  0.00    -0.356 N 
ATOM     74  C   UNL A   1      31.754  27.867  26.837  1.00  0.00     0.227 C 
ATOM     75  H   UNL A   1      30.979  29.541  27.545  1.00  0.00     0.163 HD
ATOM     76  O   UNL A   1      30.986  27.235  27.568  1.00  0.00    -0.275 OA
BRANCH  74  77
ATOM     77  C   UNL A   1      32.640  27.152  25.843  1.00  0.00     0.127 C 
ATOM     78  C   UNL A   1      31.978  26.934  24.450  1.00  0.00     0.127 C 
ATOM     79  C   UNL A   1      33.199  25.741  26.110  1.00  0.00     0.155 C 
ATOM     80  C   UNL A   1      32.393  25.498  24.108  1.00  0.00     0.155 C 
ATOM     81  C   UNL A   1      34.386  25.532  25.211  1.00  0.00     0.004 C 
ATOM     82  O   UNL A   1      32.260  24.883  25.414  1.00  0.00    -0.365 OA
ATOM     83  C   UNL A   1      33.888  25.399  23.972  1.00  0.00     0.004 C 
BRANCH  78  84
ATOM     84  C   UNL A   1      30.478  27.096  24.214  1.00  0.00     0.227 C 
ATOM     85  O   UNL A   1      29.707  26.372  24.861  1.00  0.00    -0.275 OA
ATOM     86  N   UNL A   1      29.882  28.037  23.445  1.00  0.00    -0.352 N 
ATOM     87  H   UNL A   1      28.901  28.021  23.514  1.00  0.00     0.163 HD
BRANCH  86  88
ATOM     88  C   UNL A   1      30.365  29.066  22.542  1.00  0.00     0.151 C 
BRANCH  88  89
ATOM     89  C   UNL A   1      29.466  30.279  22.430  1.00  0.00    -0.026 A 
ATOM     90  C   UNL A   1      29.136  30.986  23.595  1.00  0.00     0.025 A 
ATOM     91  C   UNL A   1      28.922  30.728  21.224  1.00  0.00     0.025 A 
ATOM     92  C   UNL A   1      28.319  32.103  23.501  1.00  0.00     0.111 A 
ATOM     93  C   UNL A   1      28.116  31.857  21.229  1.00  0.00     0.111 A 
ATOM     94  N   UNL A   1      27.811  32.561  22.340  1.00  0.00    -0.265 NA
ENDBRANCH  88  89
ENDBRANCH  86  88
ENDBRANCH  78  84
ENDBRANCH  74  77
ENDBRANCH  72  73
ENDBRANCH   1  72
TORSDOF 13
ENDMDL
MODEL 2
REMARK VINA RESULT:     -12.9      4.630     10.405
REMARK SMILES O=C(NCCCNC(=O)[C@@H]1[C@H](C(=O)NCc2ccncc2)[C@H]2C=C[C@@H]1O2)c1ccc(-c2c3nc(c(-c4c(F)c(F)c(F)c(F)c4F)c4ccc([nH]4)c(-c4c(F)c(F)c(F)c(F)c4F)c4nc(c(-c5c(F)c(F)c(F)c(F)c5F)c5ccc2[nH]5)C=C4)C=C3)cc1
REMARK SMILES IDX 5 1 4 2 3 3 1 4 2 5 27 7 28 8 89 9 29 10 88 11 30 12 31 13
REMARK SMILES IDX 32 14 82 15 33 16 87 17 81 18 83 19 34 20 86 21 80 22 79 23
REMARK SMILES IDX 35 25 67 26 47 27 66 28 48 29 51 30 65 31 84 32 49 33 50 34
REMARK SMILES IDX 64 36 85 37 52 38 36 39 37 40 45 41 38 42 39 43 43 44 46 45
REMARK SMILES IDX 40 46 41 47 44 48 42 49 68 50 69 51 77 52 70 53 71 54 75 55
REMARK SMILES IDX 78 56 72 57 73 58 76 59 74 60 53 61 54 62 62 63 55 64 56 65
REMARK SMILES IDX 60 66 63 67 57 68 58 69 61 70 59 71 6 72 7 73 8 74 9 76
REMARK SMILES IDX 10 77 11 78 25 79 22 80 24 81 26 82 23 83 12 84 13 85 14 86
REMARK SMILES IDX 15 88 16 89 17 90 21 91 18 92 20 93 19 94
REMARK H PARENT 3 6 83 24 51 35 7 75 14 87
REMARK Flexibility Score: inf
ROOT
ATOM      1  C   UNL A   1      36.048  33.582  29.474  1.00  0.00     0.042 C 
ENDROOT
BRANCH   1   2
ATOM      2  C   UNL A   1      35.169  32.469  30.023  1.00  0.00     0.118 C 
BRANCH   2   3
ATOM      3  N   UNL A   1      34.404  31.766  29.004  1.00  0.00    -0.352 N 
ATOM      4  O   UNL A   1      33.943  30.260  27.394  1.00  0.00    -0.269 OA
ATOM      5  C   UNL A   1      34.733  30.673  28.237  1.00  0.00     0.251 C 
ATOM      6  H   UNL A   1      33.504  32.132  28.838  1.00  0.00     0.163 HD
BRANCH   5   7
ATOM      7  C   UNL A   1      36.065  30.045  28.379  1.00  0.00     0.039 A 
ATOM      8  C   UNL A   1      36.429  29.381  29.550  1.00  0.00     0.014 A 
ATOM      9  C   UNL A   1      36.986  30.183  27.337  1.00  0.00     0.014 A 
ATOM     10  C   UNL A   1      37.763  29.059  29.770  1.00  0.00     0.010 A 
ATOM     11  C   UNL A   1      38.306  29.761  27.520  1.00  0.00     0.010 A 
ATOM     12  C   UNL A   1      38.719  29.255  28.761  1.00  0.00    -0.014 A 
BRANCH  12  13
ATOM     13  C   UNL A   1      40.147  28.938  29.021  1.00  0.00     0.031 A 
ATOM     14  C   UNL A   1      41.021  29.895  29.787  1.00  0.00     0.074 A 
ATOM     15  C   UNL A   1      40.652  27.769  28.584  1.00  0.00     0.049 A 
ATOM     16  N   UNL A   1      42.302  29.818  30.049  1.00  0.00    -0.248 NA
ATOM     17  C   UNL A   1      40.375  31.103  30.322  1.00  0.00     0.031 C 
ATOM     18  C   UNL A   1      39.903  26.754  27.842  1.00  0.00     0.029 A 
ATOM     19  N   UNL A   1      41.908  27.234  28.708  1.00  0.00    -0.354 N 
ATOM     20  C   UNL A   1      42.621  30.980  30.739  1.00  0.00     0.074 A 
ATOM     21  C   UNL A   1      41.403  31.753  30.851  1.00  0.00     0.031 C 
ATOM     22  C   UNL A   1      40.701  25.703  27.608  1.00  0.00     0.029 A 
ATOM     23  C   UNL A   1      42.034  25.999  28.122  1.00  0.00     0.049 A 
ATOM     24  H   UNL A   1      42.647  27.689  29.172  1.00  0.00     0.167 HD
ATOM     25  C   UNL A   1      43.822  31.364  31.236  1.00  0.00     0.037 A 
ATOM     26  C   UNL A   1      43.110  25.202  27.988  1.00  0.00     0.037 A 
ATOM     27  C   UNL A   1      45.024  30.573  31.158  1.00  0.00     0.049 A 
ATOM     28  C   UNL A   1      44.428  25.651  28.545  1.00  0.00     0.074 A 
ATOM     29  C   UNL A   1      46.282  30.859  31.661  1.00  0.00     0.029 A 
ATOM     30  N   UNL A   1      45.112  29.333  30.543  1.00  0.00    -0.354 N 
ATOM     31  N   UNL A   1      44.719  26.756  29.186  1.00  0.00    -0.248 NA
ATOM     32  C   UNL A   1      45.570  24.747  28.349  1.00  0.00     0.031 C 
ATOM     33  C   UNL A   1      47.140  29.807  31.322  1.00  0.00     0.029 A 
ATOM     34  C   UNL A   1      46.407  28.847  30.641  1.00  0.00     0.049 A 
ATOM     35  H   UNL A   1      44.366  28.867  30.102  1.00  0.00     0.167 HD
ATOM     36  C   UNL A   1      46.072  26.681  29.478  1.00  0.00     0.074 A 
ATOM     37  C   UNL A   1      46.541  25.411  28.960  1.00  0.00     0.031 C 
ATOM     38  C   UNL A   1      46.855  27.583  30.117  1.00  0.00     0.037 A 
BRANCH  25  39
ATOM     39  C   UNL A   1      43.908  32.713  31.888  1.00  0.00     0.064 A 
ATOM     40  C   UNL A   1      43.680  32.887  33.262  1.00  0.00     0.173 A 
ATOM     41  C   UNL A   1      44.264  33.842  31.135  1.00  0.00     0.173 A 
ATOM     42  F   UNL A   1      43.323  31.842  34.024  1.00  0.00    -0.203 F 
ATOM     43  C   UNL A   1      43.784  34.145  33.852  1.00  0.00     0.198 A 
ATOM     44  C   UNL A   1      44.390  35.094  31.732  1.00  0.00     0.198 A 
ATOM     45  F   UNL A   1      44.497  33.730  29.818  1.00  0.00    -0.203 F 
ATOM     46  F   UNL A   1      43.523  34.294  35.157  1.00  0.00    -0.200 F 
ATOM     47  C   UNL A   1      44.145  35.245  33.087  1.00  0.00     0.200 A 
ATOM     48  F   UNL A   1      44.748  36.153  30.994  1.00  0.00    -0.200 F 
ATOM     49  F   UNL A   1      44.249  36.454  33.658  1.00  0.00    -0.200 F 
ENDBRANCH  25  39
BRANCH  26  50
ATOM     50  C   UNL A   1      42.966  23.905  27.283  1.00  0.00     0.064 A 
ATOM     51  C   UNL A   1      43.296  23.781  25.929  1.00  0.00     0.173 A 
ATOM     52  C   UNL A   1      42.546  22.753  27.965  1.00  0.00     0.173 A 
ATOM     53  F   UNL A   1      43.685  24.859  25.233  1.00  0.00    -0.203 F 
ATOM     54  C   UNL A   1      43.214  22.550  25.280  1.00  0.00     0.198 A 
ATOM     55  C   UNL A   1      42.488  21.519  27.323  1.00  0.00     0.198 A 
ATOM     56  F   UNL A   1      42.225  22.822  29.266  1.00  0.00    -0.203 F 
ATOM     57  F   UNL A   1      43.516  22.460  23.978  1.00  0.00    -0.200 F 
ATOM     58  C   UNL A   1      42.820  21.420  25.980  1.00  0.00     0.200 A 
ATOM     59  F   UNL A   1      42.124  20.426  28.007  1.00  0.00    -0.200 F 
ATOM     60  F   UNL A   1      42.760  20.233  25.361  1.00  0.00    -0.200 F 
ENDBRANCH  26  50
BRANCH  38  61
ATOM     61  C   UNL A   1      48.296  27.220  30.306  1.00  0.00     0.064 A 
ATOM     62  C   UNL A   1      48.713  26.434  31.389  1.00  0.00     0.173 A 
ATOM     63  C   UNL A   1      49.261  27.636  29.378  1.00  0.00     0.173 A 
ATOM     64  F   UNL A   1      47.827  26.028  32.309  1.00  0.00    -0.203 F 
ATOM     65  C   UNL A   1      50.053  26.093  31.547  1.00  0.00     0.198 A 
ATOM     66  C   UNL A   1      50.597  27.276  29.528  1.00  0.00     0.198 A 
ATOM     67  F   UNL A   1      48.907  28.387  28.325  1.00  0.00    -0.203 F 
ATOM     68  F   UNL A   1      50.439  25.373  32.610  1.00  0.00    -0.200 F 
ATOM     69  C   UNL A   1      50.992  26.510  30.614  1.00  0.00     0.200 A 
ATOM     70  F   UNL A   1      51.502  27.672  28.622  1.00  0.00    -0.200 F 
ATOM     71  F   UNL A   1      52.282  26.177  30.767  1.00  0.00    -0.200 F 
ENDBRANCH  38  61
ENDBRANCH  12  13
ENDBRANCH   5   7
ENDBRANCH   2   3
ENDBRANCH   1   2
BRANCH   1  72
ATOM     72  C   UNL A   1      37.422  33.696  30.113  1.00  0.00     0.117 C 
BRANCH  72  73
ATOM     73  N   UNL A   1      37.443  34.548  31.280  1.00  0.00    -0.356 N 
ATOM     74  C   UNL A   1      37.670  34.267  32.584  1.00  0.00     0.227 C 
ATOM     75  H   UNL A   1      37.261  35.498  31.093  1.00  0.00     0.163 HD
ATOM     76  O   UNL A   1      37.519  35.210  33.367  1.00  0.00    -0.275 OA
BRANCH  74  77
ATOM     77  C   UNL A   1      37.909  32.866  33.098  1.00  0.00     0.127 C 
ATOM     78  C   UNL A   1      36.895  32.413  34.190  1.00  0.00     0.127 C 
ATOM     79  C   UNL A   1      39.236  32.451  33.761  1.00  0.00     0.155 C 
ATOM     80  C   UNL A   1      37.797  31.700  35.204  1.00  0.00     0.155 C 
ATOM     81  C   UNL A   1      39.338  30.951  33.701  1.00  0.00     0.004 C 
ATOM     82  O   UNL A   1      38.948  32.582  35.175  1.00  0.00    -0.365 OA
ATOM     83  C   UNL A   1      38.436  30.488  34.581  1.00  0.00     0.004 C 
BRANCH  78  84
ATOM     84  C   UNL A   1      35.982  33.390  34.926  1.00  0.00     0.227 C 
ATOM     85  O   UNL A   1      36.315  33.752  36.064  1.00  0.00    -0.275 OA
ATOM     86  N   UNL A   1      34.886  34.004  34.421  1.00  0.00    -0.352 N 
ATOM     87  H   UNL A   1      34.504  34.671  35.036  1.00  0.00     0.163 HD
BRANCH  86  88
ATOM     88  C   UNL A   1      34.148  33.901  33.176  1.00  0.00     0.151 C 
BRANCH  88  89
ATOM     89  C   UNL A   1      33.815  35.228  32.528  1.00  0.00    -0.026 A 
ATOM     90  C   UNL A   1      33.179  35.232  31.279  1.00  0.00     0.025 A 
ATOM     91  C   UNL A   1      34.129  36.465  33.099  1.00  0.00     0.025 A 
ATOM     92  C   UNL A   1      32.864  36.444  30.682  1.00  0.00     0.111 A 
ATOM     93  C   UNL A   1      33.773  37.625  32.426  1.00  0.00     0.111 A 
ATOM     94  N   UNL A   1      33.137  37.642  31.235  1.00  0.00    -0.265 NA
ENDBRANCH  88  89
ENDBRANCH  86  88
ENDBRANCH  78  84
ENDBRANCH  74  77
ENDBRANCH  72  73
ENDBRANCH   1  72
TORSDOF 13
ENDMDL
MODEL 3
REMARK VINA RESULT:     -12.9      0.104      1.953
REMARK SMILES O=C(NCCCNC(=O)[C@@H]1[C@H](C(=O)NCc2ccncc2)[C@H]2C=C[C@@H]1O2)c1ccc(-c2c3nc(c(-c4c(F)c(F)c(F)c(F)c4F)c4ccc([nH]4)c(-c4c(F)c(F)c(F)c(F)c4F)c4nc(c(-c5c(F)c(F)c(F)c(F)c5F)c5ccc2[nH]5)C=C4)C=C3)cc1
REMARK SMILES IDX 5 1 4 2 3 3 1 4 2 5 27 7 28 8 89 9 29 10 88 11 30 12 31 13
REMARK SMILES IDX 32 14 82 15 33 16 87 17 81 18 83 19 34 20 86 21 80 22 79 23
REMARK SMILES IDX 35 25 67 26 47 27 66 28 48 29 51 30 65 31 84 32 49 33 50 34
REMARK SMILES IDX 64 36 85 37 52 38 36 39 37 40 45 41 38 42 39 43 43 44 46 45
REMARK SMILES IDX 40 46 41 47 44 48 42 49 68 50 69 51 77 52 70 53 71 54 75 55
REMARK SMILES IDX 78 56 72 57 73 58 76 59 74 60 53 61 54 62 62 63 55 64 56 65
REMARK SMILES IDX 60 66 63 67 57 68 58 69 61 70 59 71 6 72 7 73 8 74 9 76
REMARK SMILES IDX 10 77 11 78 25 79 22 80 24 81 26 82 23 83 12 84 13 85 14 86
REMARK SMILES IDX 15 88 16 89 17 90 21 91 18 92 20 93 19 94
REMARK H PARENT 3 6 83 24 51 35 7 75 14 87
REMARK Flexibility Score: inf
ROOT
ATOM      1  C   UNL A   1      31.759  31.662  26.504  1.00  0.00     0.042 C 
ENDROOT
BRANCH   1   2
ATOM      2  C   UNL A   1      32.804  32.449  27.278  1.00  0.00     0.118 C 
BRANCH   2   3
ATOM      3  N   UNL A   1      32.406  33.815  27.584  1.00  0.00    -0.352 N 
ATOM      4  O   UNL A   1      32.434  35.834  28.583  1.00  0.00    -0.269 OA
ATOM      5  C   UNL A   1      32.962  34.735  28.442  1.00  0.00     0.251 C 
ATOM      6  H   UNL A   1      31.609  34.132  27.099  1.00  0.00     0.163 HD
BRANCH   5   7
ATOM      7  C   UNL A   1      34.151  34.373  29.245  1.00  0.00     0.039 A 
ATOM      8  C   UNL A   1      35.441  34.568  28.753  1.00  0.00     0.014 A 
ATOM      9  C   UNL A   1      33.960  33.767  30.489  1.00  0.00     0.014 A 
ATOM     10  C   UNL A   1      36.517  33.961  29.391  1.00  0.00     0.010 A 
ATOM     11  C   UNL A   1      35.057  33.249  31.183  1.00  0.00     0.010 A 
ATOM     12  C   UNL A   1      36.336  33.286  30.607  1.00  0.00    -0.014 A 
BRANCH  12  13
ATOM     13  C   UNL A   1      37.489  32.613  31.260  1.00  0.00     0.031 A 
ATOM     14  C   UNL A   1      38.243  31.519  30.553  1.00  0.00     0.074 A 
ATOM     15  C   UNL A   1      37.871  33.008  32.490  1.00  0.00     0.049 A 
ATOM     16  N   UNL A   1      39.227  30.775  30.993  1.00  0.00    -0.248 NA
ATOM     17  C   UNL A   1      37.834  31.213  29.174  1.00  0.00     0.031 C 
ATOM     18  C   UNL A   1      37.228  34.064  33.272  1.00  0.00     0.029 A 
ATOM     19  N   UNL A   1      38.896  32.575  33.291  1.00  0.00    -0.354 N 
ATOM     20  C   UNL A   1      39.525  29.890  29.964  1.00  0.00     0.074 A 
ATOM     21  C   UNL A   1      38.613  30.181  28.879  1.00  0.00     0.031 C 
ATOM     22  C   UNL A   1      37.893  34.224  34.425  1.00  0.00     0.029 A 
ATOM     23  C   UNL A   1      38.965  33.236  34.491  1.00  0.00     0.049 A 
ATOM     24  H   UNL A   1      39.521  31.860  33.031  1.00  0.00     0.167 HD
ATOM     25  C   UNL A   1      40.475  28.924  29.931  1.00  0.00     0.037 A 
ATOM     26  C   UNL A   1      39.783  33.052  35.544  1.00  0.00     0.037 A 
ATOM     27  C   UNL A   1      41.408  28.664  30.997  1.00  0.00     0.049 A 
ATOM     28  C   UNL A   1      40.825  31.975  35.482  1.00  0.00     0.074 A 
ATOM     29  C   UNL A   1      42.429  27.731  31.045  1.00  0.00     0.029 A 
ATOM     30  N   UNL A   1      41.435  29.348  32.203  1.00  0.00    -0.354 N 
ATOM     31  N   UNL A   1      41.090  31.139  34.508  1.00  0.00    -0.248 NA
ATOM     32  C   UNL A   1      41.675  31.809  36.669  1.00  0.00     0.031 C 
ATOM     33  C   UNL A   1      43.055  27.829  32.293  1.00  0.00     0.029 A 
ATOM     34  C   UNL A   1      42.448  28.848  33.008  1.00  0.00     0.049 A 
ATOM     35  H   UNL A   1      40.826  30.080  32.452  1.00  0.00     0.167 HD
ATOM     36  C   UNL A   1      42.139  30.352  34.958  1.00  0.00     0.074 A 
ATOM     37  C   UNL A   1      42.475  30.824  36.287  1.00  0.00     0.031 C 
ATOM     38  C   UNL A   1      42.765  29.329  34.327  1.00  0.00     0.037 A 
BRANCH  25  39
ATOM     39  C   UNL A   1      40.542  28.054  28.709  1.00  0.00     0.064 A 
ATOM     40  C   UNL A   1      41.318  28.404  27.593  1.00  0.00     0.173 A 
ATOM     41  C   UNL A   1      39.851  26.833  28.671  1.00  0.00     0.173 A 
ATOM     42  F   UNL A   1      41.986  29.566  27.574  1.00  0.00    -0.203 F 
ATOM     43  C   UNL A   1      41.382  27.572  26.477  1.00  0.00     0.198 A 
ATOM     44  C   UNL A   1      39.937  25.994  27.563  1.00  0.00     0.198 A 
ATOM     45  F   UNL A   1      39.099  26.450  29.714  1.00  0.00    -0.203 F 
ATOM     46  F   UNL A   1      42.097  27.944  25.408  1.00  0.00    -0.200 F 
ATOM     47  C   UNL A   1      40.697  26.366  26.466  1.00  0.00     0.200 A 
ATOM     48  F   UNL A   1      39.281  24.825  27.558  1.00  0.00    -0.200 F 
ATOM     49  F   UNL A   1      40.764  25.565  25.393  1.00  0.00    -0.200 F 
ENDBRANCH  25  39
BRANCH  26  50
ATOM     50  C   UNL A   1      39.626  33.912  36.742  1.00  0.00     0.064 A 
ATOM     51  C   UNL A   1      38.843  33.500  37.826  1.00  0.00     0.173 A 
ATOM     52  C   UNL A   1      40.299  35.139  36.845  1.00  0.00     0.173 A 
ATOM     53  F   UNL A   1      38.168  32.343  37.763  1.00  0.00    -0.203 F 
ATOM     54  C   UNL A   1      38.739  34.282  38.975  1.00  0.00     0.198 A 
ATOM     55  C   UNL A   1      40.215  35.909  38.003  1.00  0.00     0.198 A 
ATOM     56  F   UNL A   1      41.066  35.572  35.833  1.00  0.00    -0.203 F 
ATOM     57  F   UNL A   1      37.968  33.877  39.992  1.00  0.00    -0.200 F 
ATOM     58  C   UNL A   1      39.433  35.480  39.065  1.00  0.00     0.200 A 
ATOM     59  F   UNL A   1      40.900  37.056  38.093  1.00  0.00    -0.200 F 
ATOM     60  F   UNL A   1      39.348  36.222  40.177  1.00  0.00    -0.200 F 
ENDBRANCH  26  50
BRANCH  38  61
ATOM     61  C   UNL A   1      43.889  28.665  35.061  1.00  0.00     0.064 A 
ATOM     62  C   UNL A   1      45.208  29.128  34.949  1.00  0.00     0.173 A 
ATOM     63  C   UNL A   1      43.639  27.576  35.908  1.00  0.00     0.173 A 
ATOM     64  F   UNL A   1      45.495  30.157  34.138  1.00  0.00    -0.203 F 
ATOM     65  C   UNL A   1      46.242  28.510  35.646  1.00  0.00     0.198 A 
ATOM     66  C   UNL A   1      44.673  26.973  36.619  1.00  0.00     0.198 A 
ATOM     67  F   UNL A   1      42.393  27.101  36.049  1.00  0.00    -0.203 F 
ATOM     68  F   UNL A   1      47.501  28.943  35.495  1.00  0.00    -0.200 F 
ATOM     69  C   UNL A   1      45.973  27.437  36.483  1.00  0.00     0.200 A 
ATOM     70  F   UNL A   1      44.411  25.942  37.434  1.00  0.00    -0.200 F 
ATOM     71  F   UNL A   1      46.970  26.845  37.155  1.00  0.00    -0.200 F 
ENDBRANCH  38  61
ENDBRANCH  12  13
ENDBRANCH   5   7
ENDBRANCH   2   3
ENDBRANCH   1   2
BRANCH   1  72
ATOM     72  C   UNL A   1      32.186  30.270  26.071  1.00  0.00     0.117 C 
BRANCH  72  73
ATOM     73  N   UNL A   1      31.589  29.215  26.857  1.00  0.00    -0.356 N 
ATOM     74  C   UNL A   1      31.754  27.872  26.819  1.00  0.00     0.227 C 
ATOM     75  H   UNL A   1      30.952  29.528  27.539  1.00  0.00     0.163 HD
ATOM     76  O   UNL A   1      31.017  27.222  27.565  1.00  0.00    -0.275 OA
BRANCH  74  77
ATOM     77  C   UNL A   1      32.639  27.178  25.809  1.00  0.00     0.127 C 
ATOM     78  C   UNL A   1      31.960  26.952  24.425  1.00  0.00     0.127 C 
ATOM     79  C   UNL A   1      33.228  25.776  26.062  1.00  0.00     0.155 C 
ATOM     80  C   UNL A   1      32.397  25.526  24.071  1.00  0.00     0.155 C 
ATOM     81  C   UNL A   1      34.406  25.594  25.144  1.00  0.00     0.004 C 
ATOM     82  O   UNL A   1      32.296  24.904  25.376  1.00  0.00    -0.365 OA
ATOM     83  C   UNL A   1      33.892  25.456  23.912  1.00  0.00     0.004 C 
BRANCH  78  84
ATOM     84  C   UNL A   1      30.454  27.087  24.212  1.00  0.00     0.227 C 
ATOM     85  O   UNL A   1      29.704  26.381  24.903  1.00  0.00    -0.275 OA
ATOM     86  N   UNL A   1      29.831  27.989  23.417  1.00  0.00    -0.352 N 
ATOM     87  H   UNL A   1      28.852  27.963  23.506  1.00  0.00     0.163 HD
BRANCH  86  88
ATOM     88  C   UNL A   1      30.284  28.984  22.463  1.00  0.00     0.151 C 
BRANCH  88  89
ATOM     89  C   UNL A   1      29.430  30.233  22.403  1.00  0.00    -0.026 A 
ATOM     90  C   UNL A   1      29.178  30.939  23.589  1.00  0.00     0.025 A 
ATOM     91  C   UNL A   1      28.852  30.717  21.226  1.00  0.00     0.025 A 
ATOM     92  C   UNL A   1      28.402  32.088  23.541  1.00  0.00     0.111 A 
ATOM     93  C   UNL A   1      28.092  31.877  21.278  1.00  0.00     0.111 A 
ATOM     94  N   UNL A   1      27.863  32.579  22.408  1.00  0.00    -0.265 NA
ENDBRANCH  88  89
ENDBRANCH  86  88
ENDBRANCH  78  84
ENDBRANCH  74  77
ENDBRANCH  72  73
ENDBRANCH   1  72
TORSDOF 13
ENDMDL
