MODEL 1
REMARK VINA RESULT:     -11.4      0.000      0.000
REMARK SMILES C[C@H]1C[C@@H]([NH+]2CC(CC(=O)NCCCNC(=O)c3ccc(-c4c5nc(c(-c6c(F)c(F)c(F)c(F)c6F)c6ccc([nH]6)c(-c6c(F)c(F)c(F)c(F)c6F)c6nc(c(-c7c(F)c(F)c(F)c(F)c7F)c7ccc4[nH]7)C=C6)C=C5)cc3)C2)CS1
REMARK SMILES IDX 13 1 12 2 11 3 9 4 10 5 8 7 7 8 5 9 6 10 81 11 4 13 1 14
REMARK SMILES IDX 2 15 3 16 83 17 82 18 14 19 15 20 16 21 17 23 18 24 19 25
REMARK SMILES IDX 80 26 20 27 79 28 21 29 22 30 23 31 73 32 24 33 78 34 72 35
REMARK SMILES IDX 74 36 25 37 77 38 71 39 70 40 26 42 58 43 38 44 57 45 39 46
REMARK SMILES IDX 42 47 56 48 75 49 40 50 41 51 55 53 76 54 43 55 27 56 28 57
REMARK SMILES IDX 36 58 29 59 30 60 34 61 37 62 31 63 32 64 35 65 33 66 59 67
REMARK SMILES IDX 60 68 68 69 61 70 62 71 66 72 69 73 63 74 64 75 67 76 65 77
REMARK SMILES IDX 44 78 45 79 53 80 46 81 47 82 51 83 54 84 48 85 49 86 52 87
REMARK SMILES IDX 50 88
REMARK H PARENT 11 6 5 12 15 22 74 41 42 52
REMARK Flexibility Score: inf
ROOT
ATOM      1  C   UNL A   1      31.946  28.655  25.445  1.00  0.00     0.042 C 
ENDROOT
BRANCH   1   2
ATOM      2  C   UNL A   1      31.368  28.666  24.034  1.00  0.00     0.117 C 
BRANCH   2   3
ATOM      3  N   UNL A   1      32.415  28.764  23.036  1.00  0.00    -0.356 N 
ATOM      4  C   UNL A   1      33.081  27.777  22.378  1.00  0.00     0.220 C 
ATOM      5  O   UNL A   1      34.026  28.094  21.653  1.00  0.00    -0.275 OA
ATOM      6  H   UNL A   1      32.683  29.682  22.799  1.00  0.00     0.163 HD
BRANCH   4   7
ATOM      7  C   UNL A   1      32.703  26.322  22.570  1.00  0.00     0.115 C 
BRANCH   7   8
ATOM      8  C   UNL A   1      33.871  25.485  23.065  1.00  0.00     0.108 C 
ATOM      9  N   UNL A   1      34.432  23.967  24.447  1.00  0.00    -0.331 N 
ATOM     10  C   UNL A   1      33.711  23.953  23.160  1.00  0.00     0.272 C 
ATOM     11  C   UNL A   1      34.125  25.398  24.595  1.00  0.00     0.272 C 
ATOM     12  H   UNL A   1      34.178  23.270  25.148  1.00  0.00     0.348 HD
BRANCH   9  13
ATOM     13  C   UNL A   1      35.890  23.705  24.415  1.00  0.00     0.195 C 
ATOM     14  C   UNL A   1      36.295  20.454  25.000  1.00  0.00     0.019 C 
ATOM     15  C   UNL A   1      37.216  21.536  24.459  1.00  0.00     0.049 C 
ATOM     16  C   UNL A   1      36.532  22.569  23.574  1.00  0.00     0.080 C 
ATOM     17  S   UNL A   1      37.908  22.544  25.791  1.00  0.00    -0.152 SA
ATOM     18  C   UNL A   1      36.521  23.713  25.820  1.00  0.00     0.134 C 
ENDBRANCH   9  13
ENDBRANCH   7   8
ENDBRANCH   4   7
ENDBRANCH   2   3
ENDBRANCH   1   2
BRANCH   1  19
ATOM     19  C   UNL A   1      33.189  29.509  25.638  1.00  0.00     0.118 C 
BRANCH  19  20
ATOM     20  N   UNL A   1      32.890  30.808  26.203  1.00  0.00    -0.352 N 
ATOM     21  C   UNL A   1      33.495  31.521  27.207  1.00  0.00     0.251 C 
ATOM     22  H   UNL A   1      32.115  31.259  25.795  1.00  0.00     0.163 HD
ATOM     23  O   UNL A   1      32.924  32.535  27.626  1.00  0.00    -0.269 OA
BRANCH  21  24
ATOM     24  C   UNL A   1      34.792  31.124  27.804  1.00  0.00     0.039 A 
ATOM     25  C   UNL A   1      34.921  29.810  28.276  1.00  0.00     0.014 A 
ATOM     26  C   UNL A   1      35.843  32.021  28.002  1.00  0.00     0.014 A 
ATOM     27  C   UNL A   1      36.089  29.404  28.926  1.00  0.00     0.010 A 
ATOM     28  C   UNL A   1      37.048  31.589  28.563  1.00  0.00     0.010 A 
ATOM     29  C   UNL A   1      37.169  30.288  29.068  1.00  0.00    -0.014 A 
BRANCH  29  30
ATOM     30  C   UNL A   1      38.392  29.880  29.810  1.00  0.00     0.031 A 
ATOM     31  C   UNL A   1      38.623  30.370  31.217  1.00  0.00     0.074 A 
ATOM     32  C   UNL A   1      39.302  29.081  29.221  1.00  0.00     0.049 A 
ATOM     33  N   UNL A   1      39.621  30.121  32.030  1.00  0.00    -0.248 NA
ATOM     34  C   UNL A   1      37.615  31.284  31.776  1.00  0.00     0.031 C 
ATOM     35  C   UNL A   1      39.226  28.581  27.848  1.00  0.00     0.029 A 
ATOM     36  N   UNL A   1      40.469  28.543  29.706  1.00  0.00    -0.354 N 
ATOM     37  C   UNL A   1      39.366  30.859  33.179  1.00  0.00     0.074 A 
ATOM     38  C   UNL A   1      38.156  31.612  32.938  1.00  0.00     0.031 C 
ATOM     39  C   UNL A   1      40.280  27.782  27.612  1.00  0.00     0.029 A 
ATOM     40  C   UNL A   1      41.117  27.734  28.806  1.00  0.00     0.049 A 
ATOM     41  H   UNL A   1      40.808  28.722  30.613  1.00  0.00     0.167 HD
ATOM     42  C   UNL A   1      40.060  30.887  34.343  1.00  0.00     0.037 A 
ATOM     43  C   UNL A   1      42.252  27.021  28.937  1.00  0.00     0.037 A 
ATOM     44  C   UNL A   1      41.242  30.107  34.598  1.00  0.00     0.049 A 
ATOM     45  C   UNL A   1      42.982  27.035  30.252  1.00  0.00     0.074 A 
ATOM     46  C   UNL A   1      41.988  30.022  35.761  1.00  0.00     0.029 A 
ATOM     47  N   UNL A   1      41.847  29.269  33.673  1.00  0.00    -0.354 N 
ATOM     48  N   UNL A   1      42.693  27.685  31.354  1.00  0.00    -0.248 NA
ATOM     49  C   UNL A   1      44.186  26.197  30.348  1.00  0.00     0.031 C 
ATOM     50  C   UNL A   1      43.063  29.158  35.529  1.00  0.00     0.029 A 
ATOM     51  C   UNL A   1      42.962  28.670  34.236  1.00  0.00     0.049 A 
ATOM     52  H   UNL A   1      41.531  29.122  32.752  1.00  0.00     0.167 HD
ATOM     53  C   UNL A   1      43.659  27.314  32.280  1.00  0.00     0.074 A 
ATOM     54  C   UNL A   1      44.532  26.367  31.616  1.00  0.00     0.031 C 
ATOM     55  C   UNL A   1      43.813  27.722  33.563  1.00  0.00     0.037 A 
BRANCH  42  56
ATOM     56  C   UNL A   1      39.548  31.786  35.433  1.00  0.00     0.064 A 
ATOM     57  C   UNL A   1      38.626  31.331  36.389  1.00  0.00     0.173 A 
ATOM     58  C   UNL A   1      39.999  33.110  35.536  1.00  0.00     0.173 A 
ATOM     59  F   UNL A   1      38.152  30.078  36.327  1.00  0.00    -0.203 F 
ATOM     60  C   UNL A   1      38.150  32.178  37.386  1.00  0.00     0.198 A 
ATOM     61  C   UNL A   1      39.545  33.945  36.555  1.00  0.00     0.198 A 
ATOM     62  F   UNL A   1      40.885  33.594  34.652  1.00  0.00    -0.203 F 
ATOM     63  F   UNL A   1      37.228  31.738  38.253  1.00  0.00    -0.200 F 
ATOM     64  C   UNL A   1      38.614  33.482  37.472  1.00  0.00     0.200 A 
ATOM     65  F   UNL A   1      40.003  35.201  36.643  1.00  0.00    -0.200 F 
ATOM     66  F   UNL A   1      38.158  34.295  38.434  1.00  0.00    -0.200 F 
ENDBRANCH  42  56
BRANCH  43  67
ATOM     67  C   UNL A   1      42.741  26.192  27.805  1.00  0.00     0.064 A 
ATOM     68  C   UNL A   1      43.666  26.706  26.885  1.00  0.00     0.173 A 
ATOM     69  C   UNL A   1      42.295  24.877  27.617  1.00  0.00     0.173 A 
ATOM     70  F   UNL A   1      44.107  27.966  27.012  1.00  0.00    -0.203 F 
ATOM     71  C   UNL A   1      44.109  25.942  25.806  1.00  0.00     0.198 A 
ATOM     72  C   UNL A   1      42.759  24.105  26.554  1.00  0.00     0.198 A 
ATOM     73  F   UNL A   1      41.415  24.337  28.475  1.00  0.00    -0.203 F 
ATOM     74  F   UNL A   1      44.957  26.473  24.916  1.00  0.00    -0.200 F 
ATOM     75  C   UNL A   1      43.659  24.641  25.645  1.00  0.00     0.200 A 
ATOM     76  F   UNL A   1      42.333  22.843  26.409  1.00  0.00    -0.200 F 
ATOM     77  F   UNL A   1      44.087  23.906  24.610  1.00  0.00    -0.200 F 
ENDBRANCH  43  67
BRANCH  55  78
ATOM     78  C   UNL A   1      44.942  27.115  34.344  1.00  0.00     0.064 A 
ATOM     79  C   UNL A   1      46.210  27.712  34.392  1.00  0.00     0.173 A 
ATOM     80  C   UNL A   1      44.745  25.928  35.066  1.00  0.00     0.173 A 
ATOM     81  F   UNL A   1      46.451  28.839  33.707  1.00  0.00    -0.203 F 
ATOM     82  C   UNL A   1      47.251  27.122  35.105  1.00  0.00     0.198 A 
ATOM     83  C   UNL A   1      45.781  25.357  35.802  1.00  0.00     0.198 A 
ATOM     84  F   UNL A   1      43.549  25.321  35.060  1.00  0.00    -0.203 F 
ATOM     85  F   UNL A   1      48.469  27.679  35.090  1.00  0.00    -0.200 F 
ATOM     86  C   UNL A   1      47.033  25.949  35.813  1.00  0.00     0.200 A 
ATOM     87  F   UNL A   1      45.566  24.231  36.496  1.00  0.00    -0.200 F 
ATOM     88  F   UNL A   1      48.038  25.384  36.497  1.00  0.00    -0.200 F 
ENDBRANCH  55  78
ENDBRANCH  29  30
ENDBRANCH  21  24
ENDBRANCH  19  20
ENDBRANCH   1  19
TORSDOF 12
ENDMDL
MODEL 2
REMARK VINA RESULT:     -11.4      3.736      6.516
REMARK SMILES C[C@H]1C[C@@H]([NH+]2CC(CC(=O)NCCCNC(=O)c3ccc(-c4c5nc(c(-c6c(F)c(F)c(F)c(F)c6F)c6ccc([nH]6)c(-c6c(F)c(F)c(F)c(F)c6F)c6nc(c(-c7c(F)c(F)c(F)c(F)c7F)c7ccc4[nH]7)C=C6)C=C5)cc3)C2)CS1
REMARK SMILES IDX 13 1 12 2 11 3 9 4 10 5 8 7 7 8 5 9 6 10 81 11 4 13 1 14
REMARK SMILES IDX 2 15 3 16 83 17 82 18 14 19 15 20 16 21 17 23 18 24 19 25
REMARK SMILES IDX 80 26 20 27 79 28 21 29 22 30 23 31 73 32 24 33 78 34 72 35
REMARK SMILES IDX 74 36 25 37 77 38 71 39 70 40 26 42 58 43 38 44 57 45 39 46
REMARK SMILES IDX 42 47 56 48 75 49 40 50 41 51 55 53 76 54 43 55 27 56 28 57
REMARK SMILES IDX 36 58 29 59 30 60 34 61 37 62 31 63 32 64 35 65 33 66 59 67
REMARK SMILES IDX 60 68 68 69 61 70 62 71 66 72 69 73 63 74 64 75 67 76 65 77
REMARK SMILES IDX 44 78 45 79 53 80 46 81 47 82 51 83 54 84 48 85 49 86 52 87
REMARK SMILES IDX 50 88
REMARK H PARENT 11 6 5 12 15 22 74 41 42 52
REMARK Flexibility Score: inf
ROOT
ATOM      1  C   UNL A   1      34.632  34.178  29.186  1.00  0.00     0.042 C 
ENDROOT
BRANCH   1   2
ATOM      2  C   UNL A   1      33.253  34.813  29.043  1.00  0.00     0.117 C 
BRANCH   2   3
ATOM      3  N   UNL A   1      33.246  36.176  29.536  1.00  0.00    -0.356 N 
ATOM      4  C   UNL A   1      32.966  36.647  30.782  1.00  0.00     0.220 C 
ATOM      5  O   UNL A   1      32.903  37.866  30.944  1.00  0.00    -0.275 OA
ATOM      6  H   UNL A   1      33.478  36.864  28.870  1.00  0.00     0.163 HD
BRANCH   4   7
ATOM      7  C   UNL A   1      32.691  35.694  31.929  1.00  0.00     0.115 C 
BRANCH   7   8
ATOM      8  C   UNL A   1      33.970  35.194  32.580  1.00  0.00     0.108 C 
ATOM      9  N   UNL A   1      34.777  34.363  34.365  1.00  0.00    -0.331 N 
ATOM     10  C   UNL A   1      33.976  33.808  33.258  1.00  0.00     0.272 C 
ATOM     11  C   UNL A   1      34.335  35.716  33.995  1.00  0.00     0.272 C 
ATOM     12  H   UNL A   1      34.645  33.972  35.297  1.00  0.00     0.348 HD
BRANCH   9  13
ATOM     13  C   UNL A   1      36.249  34.211  34.284  1.00  0.00     0.195 C 
ATOM     14  C   UNL A   1      36.833  31.203  32.983  1.00  0.00     0.019 C 
ATOM     15  C   UNL A   1      37.704  32.432  33.195  1.00  0.00     0.049 C 
ATOM     16  C   UNL A   1      36.988  33.761  32.995  1.00  0.00     0.080 C 
ATOM     17  S   UNL A   1      38.287  32.545  34.904  1.00  0.00    -0.152 SA
ATOM     18  C   UNL A   1      36.830  33.451  35.492  1.00  0.00     0.134 C 
ENDBRANCH   9  13
ENDBRANCH   7   8
ENDBRANCH   4   7
ENDBRANCH   2   3
ENDBRANCH   1   2
BRANCH   1  19
ATOM     19  C   UNL A   1      35.050  33.281  28.030  1.00  0.00     0.118 C 
BRANCH  19  20
ATOM     20  N   UNL A   1      34.177  32.137  27.870  1.00  0.00    -0.352 N 
ATOM     21  C   UNL A   1      34.445  30.792  27.823  1.00  0.00     0.251 C 
ATOM     22  H   UNL A   1      33.223  32.364  27.779  1.00  0.00     0.163 HD
ATOM     23  O   UNL A   1      33.531  30.029  27.490  1.00  0.00    -0.269 OA
BRANCH  21  24
ATOM     24  C   UNL A   1      35.776  30.227  28.149  1.00  0.00     0.039 A 
ATOM     25  C   UNL A   1      35.972  29.713  29.437  1.00  0.00     0.014 A 
ATOM     26  C   UNL A   1      36.858  30.275  27.266  1.00  0.00     0.014 A 
ATOM     27  C   UNL A   1      37.229  29.246  29.829  1.00  0.00     0.010 A 
ATOM     28  C   UNL A   1      38.089  29.718  27.623  1.00  0.00     0.010 A 
ATOM     29  C   UNL A   1      38.299  29.235  28.921  1.00  0.00    -0.014 A 
BRANCH  29  30
ATOM     30  C   UNL A   1      39.654  28.795  29.350  1.00  0.00     0.031 A 
ATOM     31  C   UNL A   1      40.447  29.627  30.324  1.00  0.00     0.074 A 
ATOM     32  C   UNL A   1      40.178  27.656  28.858  1.00  0.00     0.049 A 
ATOM     33  N   UNL A   1      41.640  29.409  30.823  1.00  0.00    -0.248 NA
ATOM     34  C   UNL A   1      39.834  30.885  30.777  1.00  0.00     0.031 C 
ATOM     35  C   UNL A   1      39.538  26.788  27.869  1.00  0.00     0.029 A 
ATOM     36  N   UNL A   1      41.371  27.031  29.127  1.00  0.00    -0.354 N 
ATOM     37  C   UNL A   1      41.920  30.507  31.628  1.00  0.00     0.074 A 
ATOM     38  C   UNL A   1      40.804  31.418  31.503  1.00  0.00     0.031 C 
ATOM     39  C   UNL A   1      40.327  25.725  27.641  1.00  0.00     0.029 A 
ATOM     40  C   UNL A   1      41.537  25.849  28.448  1.00  0.00     0.049 A 
ATOM     41  H   UNL A   1      42.041  27.395  29.749  1.00  0.00     0.167 HD
ATOM     42  C   UNL A   1      42.996  30.727  32.422  1.00  0.00     0.037 A 
ATOM     43  C   UNL A   1      42.548  24.960  28.483  1.00  0.00     0.037 A 
ATOM     44  C   UNL A   1      44.088  29.803  32.577  1.00  0.00     0.049 A 
ATOM     45  C   UNL A   1      43.712  25.205  29.404  1.00  0.00     0.074 A 
ATOM     46  C   UNL A   1      45.198  29.906  33.398  1.00  0.00     0.029 A 
ATOM     47  N   UNL A   1      44.202  28.599  31.900  1.00  0.00    -0.354 N 
ATOM     48  N   UNL A   1      43.933  26.215  30.211  1.00  0.00    -0.248 NA
ATOM     49  C   UNL A   1      44.757  24.173  29.435  1.00  0.00     0.031 C 
ATOM     50  C   UNL A   1      46.001  28.778  33.192  1.00  0.00     0.029 A 
ATOM     51  C   UNL A   1      45.369  27.952  32.276  1.00  0.00     0.049 A 
ATOM     52  H   UNL A   1      43.551  28.254  31.247  1.00  0.00     0.167 HD
ATOM     53  C   UNL A   1      45.124  25.928  30.864  1.00  0.00     0.074 A 
ATOM     54  C   UNL A   1      45.568  24.640  30.374  1.00  0.00     0.031 C 
ATOM     55  C   UNL A   1      45.791  26.666  31.785  1.00  0.00     0.037 A 
BRANCH  42  56
ATOM     56  C   UNL A   1      43.036  32.016  33.193  1.00  0.00     0.064 A 
ATOM     57  C   UNL A   1      42.457  32.130  34.467  1.00  0.00     0.173 A 
ATOM     58  C   UNL A   1      43.677  33.145  32.662  1.00  0.00     0.173 A 
ATOM     59  F   UNL A   1      41.820  31.084  35.015  1.00  0.00    -0.203 F 
ATOM     60  C   UNL A   1      42.491  33.334  35.165  1.00  0.00     0.198 A 
ATOM     61  C   UNL A   1      43.736  34.339  33.377  1.00  0.00     0.198 A 
ATOM     62  F   UNL A   1      44.251  33.090  31.450  1.00  0.00    -0.203 F 
ATOM     63  F   UNL A   1      41.883  33.434  36.355  1.00  0.00    -0.200 F 
ATOM     64  C   UNL A   1      43.135  34.436  34.623  1.00  0.00     0.200 A 
ATOM     65  F   UNL A   1      44.369  35.399  32.856  1.00  0.00    -0.200 F 
ATOM     66  F   UNL A   1      43.169  35.593  35.296  1.00  0.00    -0.200 F 
ENDBRANCH  42  56
BRANCH  43  67
ATOM     67  C   UNL A   1      42.479  23.727  27.656  1.00  0.00     0.064 A 
ATOM     68  C   UNL A   1      41.955  22.538  28.182  1.00  0.00     0.173 A 
ATOM     69  C   UNL A   1      42.936  23.710  26.331  1.00  0.00     0.173 A 
ATOM     70  F   UNL A   1      41.523  22.500  29.451  1.00  0.00    -0.203 F 
ATOM     71  C   UNL A   1      41.912  21.372  27.420  1.00  0.00     0.198 A 
ATOM     72  C   UNL A   1      42.868  22.551  25.562  1.00  0.00     0.198 A 
ATOM     73  F   UNL A   1      43.441  24.825  25.780  1.00  0.00    -0.203 F 
ATOM     74  F   UNL A   1      41.449  20.237  27.962  1.00  0.00    -0.200 F 
ATOM     75  C   UNL A   1      42.364  21.380  26.109  1.00  0.00     0.200 A 
ATOM     76  F   UNL A   1      43.293  22.567  24.291  1.00  0.00    -0.200 F 
ATOM     77  F   UNL A   1      42.320  20.260  25.376  1.00  0.00    -0.200 F 
ENDBRANCH  43  67
BRANCH  55  78
ATOM     78  C   UNL A   1      47.050  26.077  32.351  1.00  0.00     0.064 A 
ATOM     79  C   UNL A   1      48.302  26.313  31.765  1.00  0.00     0.173 A 
ATOM     80  C   UNL A   1      47.003  25.279  33.505  1.00  0.00     0.173 A 
ATOM     81  F   UNL A   1      48.398  27.057  30.654  1.00  0.00    -0.203 F 
ATOM     82  C   UNL A   1      49.457  25.741  32.293  1.00  0.00     0.198 A 
ATOM     83  C   UNL A   1      48.164  24.733  34.046  1.00  0.00     0.198 A 
ATOM     84  F   UNL A   1      45.831  25.029  34.108  1.00  0.00    -0.203 F 
ATOM     85  F   UNL A   1      50.635  25.932  31.683  1.00  0.00    -0.200 F 
ATOM     86  C   UNL A   1      49.387  24.957  33.435  1.00  0.00     0.200 A 
ATOM     87  F   UNL A   1      48.096  23.987  35.157  1.00  0.00    -0.200 F 
ATOM     88  F   UNL A   1      50.500  24.406  33.939  1.00  0.00    -0.200 F 
ENDBRANCH  55  78
ENDBRANCH  29  30
ENDBRANCH  21  24
ENDBRANCH  19  20
ENDBRANCH   1  19
TORSDOF 12
ENDMDL
MODEL 3
REMARK VINA RESULT:     -11.3      4.004      6.738
REMARK SMILES C[C@H]1C[C@@H]([NH+]2CC(CC(=O)NCCCNC(=O)c3ccc(-c4c5nc(c(-c6c(F)c(F)c(F)c(F)c6F)c6ccc([nH]6)c(-c6c(F)c(F)c(F)c(F)c6F)c6nc(c(-c7c(F)c(F)c(F)c(F)c7F)c7ccc4[nH]7)C=C6)C=C5)cc3)C2)CS1
REMARK SMILES IDX 13 1 12 2 11 3 9 4 10 5 8 7 7 8 5 9 6 10 81 11 4 13 1 14
REMARK SMILES IDX 2 15 3 16 83 17 82 18 14 19 15 20 16 21 17 23 18 24 19 25
REMARK SMILES IDX 80 26 20 27 79 28 21 29 22 30 23 31 73 32 24 33 78 34 72 35
REMARK SMILES IDX 74 36 25 37 77 38 71 39 70 40 26 42 58 43 38 44 57 45 39 46
REMARK SMILES IDX 42 47 56 48 75 49 40 50 41 51 55 53 76 54 43 55 27 56 28 57
REMARK SMILES IDX 36 58 29 59 30 60 34 61 37 62 31 63 32 64 35 65 33 66 59 67
REMARK SMILES IDX 60 68 68 69 61 70 62 71 66 72 69 73 63 74 64 75 67 76 65 77
REMARK SMILES IDX 44 78 45 79 53 80 46 81 47 82 51 83 54 84 48 85 49 86 52 87
REMARK SMILES IDX 50 88
REMARK H PARENT 11 6 5 12 15 22 74 41 42 52
REMARK Flexibility Score: inf
ROOT
ATOM      1  C   UNL A   1      34.553  34.060  28.627  1.00  0.00     0.042 C 
ENDROOT
BRANCH   1   2
ATOM      2  C   UNL A   1      33.162  34.671  28.761  1.00  0.00     0.117 C 
BRANCH   2   3
ATOM      3  N   UNL A   1      33.224  36.013  29.304  1.00  0.00    -0.356 N 
ATOM      4  C   UNL A   1      33.016  36.444  30.578  1.00  0.00     0.220 C 
ATOM      5  O   UNL A   1      33.003  37.658  30.789  1.00  0.00    -0.275 OA
ATOM      6  H   UNL A   1      33.451  36.718  28.655  1.00  0.00     0.163 HD
BRANCH   4   7
ATOM      7  C   UNL A   1      32.757  35.457  31.700  1.00  0.00     0.115 C 
BRANCH   7   8
ATOM      8  C   UNL A   1      34.040  35.027  32.393  1.00  0.00     0.108 C 
ATOM      9  N   UNL A   1      34.855  34.381  34.250  1.00  0.00    -0.331 N 
ATOM     10  C   UNL A   1      34.050  33.716  33.208  1.00  0.00     0.272 C 
ATOM     11  C   UNL A   1      34.410  35.690  33.747  1.00  0.00     0.272 C 
ATOM     12  H   UNL A   1      34.727  34.086  35.218  1.00  0.00     0.348 HD
BRANCH   9  13
ATOM     13  C   UNL A   1      36.327  34.223  34.179  1.00  0.00     0.195 C 
ATOM     14  C   UNL A   1      36.908  31.175  32.974  1.00  0.00     0.019 C 
ATOM     15  C   UNL A   1      37.781  32.408  33.151  1.00  0.00     0.049 C 
ATOM     16  C   UNL A   1      37.069  33.732  32.907  1.00  0.00     0.080 C 
ATOM     17  S   UNL A   1      38.358  32.572  34.857  1.00  0.00    -0.152 SA
ATOM     18  C   UNL A   1      36.902  33.500  35.412  1.00  0.00     0.134 C 
ENDBRANCH   9  13
ENDBRANCH   7   8
ENDBRANCH   4   7
ENDBRANCH   2   3
ENDBRANCH   1   2
BRANCH   1  19
ATOM     19  C   UNL A   1      34.746  32.735  29.349  1.00  0.00     0.118 C 
BRANCH  19  20
ATOM     20  N   UNL A   1      34.078  31.637  28.683  1.00  0.00    -0.352 N 
ATOM     21  C   UNL A   1      34.565  30.476  28.137  1.00  0.00     0.251 C 
ATOM     22  H   UNL A   1      33.101  31.741  28.609  1.00  0.00     0.163 HD
ATOM     23  O   UNL A   1      33.797  29.785  27.458  1.00  0.00    -0.269 OA
BRANCH  21  24
ATOM     24  C   UNL A   1      35.965  30.026  28.327  1.00  0.00     0.039 A 
ATOM     25  C   UNL A   1      36.307  29.452  29.559  1.00  0.00     0.014 A 
ATOM     26  C   UNL A   1      36.966  30.237  27.376  1.00  0.00     0.014 A 
ATOM     27  C   UNL A   1      37.630  29.088  29.826  1.00  0.00     0.010 A 
ATOM     28  C   UNL A   1      38.268  29.784  27.604  1.00  0.00     0.010 A 
ATOM     29  C   UNL A   1      38.622  29.243  28.846  1.00  0.00    -0.014 A 
BRANCH  29  30
ATOM     30  C   UNL A   1      40.042  28.912  29.145  1.00  0.00     0.031 A 
ATOM     31  C   UNL A   1      40.876  29.845  29.986  1.00  0.00     0.074 A 
ATOM     32  C   UNL A   1      40.588  27.783  28.655  1.00  0.00     0.049 A 
ATOM     33  N   UNL A   1      42.126  29.731  30.362  1.00  0.00    -0.248 NA
ATOM     34  C   UNL A   1      40.229  31.086  30.441  1.00  0.00     0.031 C 
ATOM     35  C   UNL A   1      39.907  26.823  27.785  1.00  0.00     0.029 A 
ATOM     36  N   UNL A   1      41.842  27.249  28.823  1.00  0.00    -0.354 N 
ATOM     37  C   UNL A   1      42.415  30.887  31.076  1.00  0.00     0.074 A 
ATOM     38  C   UNL A   1      41.232  31.718  31.030  1.00  0.00     0.031 C 
ATOM     39  C   UNL A   1      40.738  25.800  27.525  1.00  0.00     0.029 A 
ATOM     40  C   UNL A   1      42.016  26.045  28.187  1.00  0.00     0.049 A 
ATOM     41  H   UNL A   1      42.548  27.689  29.349  1.00  0.00     0.167 HD
ATOM     42  C   UNL A   1      43.551  31.217  31.736  1.00  0.00     0.037 A 
ATOM     43  C   UNL A   1      43.083  25.224  28.155  1.00  0.00     0.037 A 
ATOM     44  C   UNL A   1      44.714  30.374  31.816  1.00  0.00     0.049 A 
ATOM     45  C   UNL A   1      44.318  25.592  28.931  1.00  0.00     0.074 A 
ATOM     46  C   UNL A   1      45.894  30.591  32.505  1.00  0.00     0.029 A 
ATOM     47  N   UNL A   1      44.837  29.143  31.190  1.00  0.00    -0.354 N 
ATOM     48  N   UNL A   1      44.554  26.657  29.658  1.00  0.00    -0.248 NA
ATOM     49  C   UNL A   1      45.429  24.631  28.898  1.00  0.00     0.031 C 
ATOM     50  C   UNL A   1      46.746  29.507  32.267  1.00  0.00     0.029 A 
ATOM     51  C   UNL A   1      46.079  28.593  31.467  1.00  0.00     0.049 A 
ATOM     52  H   UNL A   1      44.146  28.722  30.629  1.00  0.00     0.167 HD
ATOM     53  C   UNL A   1      45.824  26.482  30.191  1.00  0.00     0.074 A 
ATOM     54  C   UNL A   1      46.301  25.199  29.718  1.00  0.00     0.031 C 
ATOM     55  C   UNL A   1      46.533  27.310  30.997  1.00  0.00     0.037 A 
BRANCH  42  56
ATOM     56  C   UNL A   1      43.584  32.548  32.434  1.00  0.00     0.064 A 
ATOM     57  C   UNL A   1      44.010  33.713  31.778  1.00  0.00     0.173 A 
ATOM     58  C   UNL A   1      43.164  32.664  33.768  1.00  0.00     0.173 A 
ATOM     59  F   UNL A   1      44.435  33.655  30.507  1.00  0.00    -0.203 F 
ATOM     60  C   UNL A   1      44.047  34.937  32.440  1.00  0.00     0.198 A 
ATOM     61  C   UNL A   1      43.172  33.896  34.417  1.00  0.00     0.198 A 
ATOM     62  F   UNL A   1      42.741  31.583  34.441  1.00  0.00    -0.203 F 
ATOM     63  F   UNL A   1      44.511  36.024  31.810  1.00  0.00    -0.200 F 
ATOM     64  C   UNL A   1      43.622  35.030  33.757  1.00  0.00     0.200 A 
ATOM     65  F   UNL A   1      42.750  33.986  35.686  1.00  0.00    -0.200 F 
ATOM     66  F   UNL A   1      43.656  36.208  34.392  1.00  0.00    -0.200 F 
ENDBRANCH  42  56
BRANCH  43  67
ATOM     67  C   UNL A   1      43.012  23.944  27.402  1.00  0.00     0.064 A 
ATOM     68  C   UNL A   1      43.416  23.877  26.061  1.00  0.00     0.173 A 
ATOM     69  C   UNL A   1      42.537  22.770  28.001  1.00  0.00     0.173 A 
ATOM     70  F   UNL A   1      43.859  24.979  25.440  1.00  0.00    -0.203 F 
ATOM     71  C   UNL A   1      43.328  22.687  25.342  1.00  0.00     0.198 A 
ATOM     72  C   UNL A   1      42.474  21.574  27.289  1.00  0.00     0.198 A 
ATOM     73  F   UNL A   1      42.144  22.782  29.284  1.00  0.00    -0.203 F 
ATOM     74  F   UNL A   1      43.677  22.660  24.049  1.00  0.00    -0.200 F 
ATOM     75  C   UNL A   1      42.861  21.535  25.957  1.00  0.00     0.200 A 
ATOM     76  F   UNL A   1      42.036  20.460  27.891  1.00  0.00    -0.200 F 
ATOM     77  F   UNL A   1      42.779  20.390  25.267  1.00  0.00    -0.200 F 
ENDBRANCH  43  67
BRANCH  55  78
ATOM     78  C   UNL A   1      47.882  26.834  31.450  1.00  0.00     0.064 A 
ATOM     79  C   UNL A   1      49.054  27.176  30.760  1.00  0.00     0.173 A 
ATOM     80  C   UNL A   1      48.003  26.037  32.598  1.00  0.00     0.173 A 
ATOM     81  F   UNL A   1      48.990  27.924  29.649  1.00  0.00    -0.203 F 
ATOM     82  C   UNL A   1      50.296  26.708  31.184  1.00  0.00     0.198 A 
ATOM     83  C   UNL A   1      49.249  25.595  33.036  1.00  0.00     0.198 A 
ATOM     84  F   UNL A   1      46.913  25.687  33.298  1.00  0.00    -0.203 F 
ATOM     85  F   UNL A   1      51.396  26.999  30.477  1.00  0.00    -0.200 F 
ATOM     86  C   UNL A   1      50.391  25.922  32.323  1.00  0.00     0.200 A 
ATOM     87  F   UNL A   1      49.341  24.847  34.144  1.00  0.00    -0.200 F 
ATOM     88  F   UNL A   1      51.587  25.472  32.728  1.00  0.00    -0.200 F 
ENDBRANCH  55  78
ENDBRANCH  29  30
ENDBRANCH  21  24
ENDBRANCH  19  20
ENDBRANCH   1  19
TORSDOF 12
ENDMDL
