MODEL 1
REMARK VINA RESULT:     -13.6      0.000      0.000
REMARK SMILES O=C(NCCCNC(=O)c1cc(N2CCN(c3ccc(F)cc3)CC2)ccc1NC(=O)C1CCCC1)c1ccc(-c2c3nc(c(-c4c(F)c(F)c(F)c(F)c4F)c4ccc([nH]4)c(-c4c(F)c(F)c(F)c(F)c4F)c4nc(c(-c5c(F)c(F)c(F)c(F)c5F)c5ccc2[nH]5)C=C4)C=C3)cc1
REMARK SMILES IDX 5 1 4 2 3 3 1 4 2 5 37 7 38 8 99 9 39 10 98 11 40 12 41 13
REMARK SMILES IDX 42 14 92 15 43 16 97 17 91 18 93 19 44 20 96 21 90 22 89 23
REMARK SMILES IDX 45 25 77 26 57 27 76 28 58 29 61 30 75 31 94 32 59 33 60 34
REMARK SMILES IDX 74 36 95 37 62 38 46 39 47 40 55 41 48 42 49 43 53 44 56 45
REMARK SMILES IDX 50 46 51 47 54 48 52 49 78 50 79 51 87 52 80 53 81 54 85 55
REMARK SMILES IDX 88 56 82 57 83 58 86 59 84 60 63 61 64 62 72 63 65 64 66 65
REMARK SMILES IDX 70 66 73 67 67 68 68 69 71 70 69 71 6 72 7 73 8 74 9 76
REMARK SMILES IDX 10 77 11 78 28 79 12 80 27 81 26 82 29 83 30 84 31 86 32 87
REMARK SMILES IDX 33 88 36 89 34 90 35 91 13 92 14 93 25 94 15 95 24 96 16 97
REMARK SMILES IDX 17 98 18 99 23 100 19 101 22 102 20 103 21 104
REMARK H PARENT 3 6 93 24 61 35 7 75 29 85
REMARK Flexibility Score: inf
ROOT
ATOM      1  C   UNL A   1      37.208  20.219  25.001  1.00  0.00     0.042 C 
ENDROOT
BRANCH   1   2
ATOM      2  C   UNL A   1      38.490  20.885  25.469  1.00  0.00     0.118 C 
BRANCH   2   3
ATOM      3  N   UNL A   1      39.515  19.935  25.885  1.00  0.00    -0.352 N 
ATOM      4  O   UNL A   1      41.542  19.188  26.528  1.00  0.00    -0.269 OA
ATOM      5  C   UNL A   1      40.779  20.140  26.383  1.00  0.00     0.251 C 
ATOM      6  H   UNL A   1      39.258  18.989  25.793  1.00  0.00     0.163 HD
BRANCH   5   7
ATOM      7  C   UNL A   1      41.241  21.503  26.717  1.00  0.00     0.039 A 
ATOM      8  C   UNL A   1      41.258  22.507  25.752  1.00  0.00     0.014 A 
ATOM      9  C   UNL A   1      41.647  21.791  28.025  1.00  0.00     0.014 A 
ATOM     10  C   UNL A   1      41.865  23.723  26.027  1.00  0.00     0.010 A 
ATOM     11  C   UNL A   1      42.136  23.064  28.339  1.00  0.00     0.010 A 
ATOM     12  C   UNL A   1      42.282  24.029  27.332  1.00  0.00    -0.014 A 
BRANCH  12  13
ATOM     13  C   UNL A   1      42.781  25.397  27.616  1.00  0.00     0.031 A 
ATOM     14  C   UNL A   1      44.166  25.824  27.223  1.00  0.00     0.074 A 
ATOM     15  C   UNL A   1      41.938  26.273  28.201  1.00  0.00     0.049 A 
ATOM     16  N   UNL A   1      44.743  26.991  27.382  1.00  0.00    -0.248 NA
ATOM     17  C   UNL A   1      45.022  24.818  26.576  1.00  0.00     0.031 C 
ATOM     18  C   UNL A   1      40.574  25.961  28.638  1.00  0.00     0.029 A 
ATOM     19  N   UNL A   1      42.086  27.600  28.507  1.00  0.00    -0.354 N 
ATOM     20  C   UNL A   1      46.031  26.851  26.881  1.00  0.00     0.074 A 
ATOM     21  C   UNL A   1      46.160  25.483  26.426  1.00  0.00     0.031 C 
ATOM     22  C   UNL A   1      39.991  27.075  29.098  1.00  0.00     0.029 A 
ATOM     23  C   UNL A   1      40.963  28.161  29.064  1.00  0.00     0.049 A 
ATOM     24  H   UNL A   1      42.917  28.103  28.343  1.00  0.00     0.167 HD
ATOM     25  C   UNL A   1      47.008  27.786  26.806  1.00  0.00     0.037 A 
ATOM     26  C   UNL A   1      40.743  29.407  29.522  1.00  0.00     0.037 A 
ATOM     27  C   UNL A   1      46.858  29.152  27.238  1.00  0.00     0.049 A 
ATOM     28  C   UNL A   1      41.852  30.413  29.434  1.00  0.00     0.074 A 
ATOM     29  C   UNL A   1      47.777  30.186  27.165  1.00  0.00     0.029 A 
ATOM     30  N   UNL A   1      45.715  29.676  27.825  1.00  0.00    -0.354 N 
ATOM     31  N   UNL A   1      43.054  30.275  28.931  1.00  0.00    -0.248 NA
ATOM     32  C   UNL A   1      41.578  31.745  29.985  1.00  0.00     0.031 C 
ATOM     33  C   UNL A   1      47.206  31.322  27.749  1.00  0.00     0.029 A 
ATOM     34  C   UNL A   1      45.914  31.012  28.141  1.00  0.00     0.049 A 
ATOM     35  H   UNL A   1      44.886  29.174  27.992  1.00  0.00     0.167 HD
ATOM     36  C   UNL A   1      43.676  31.504  29.091  1.00  0.00     0.074 A 
ATOM     37  C   UNL A   1      42.708  32.383  29.715  1.00  0.00     0.031 C 
ATOM     38  C   UNL A   1      44.937  31.869  28.760  1.00  0.00     0.037 A 
BRANCH  25  39
ATOM     39  C   UNL A   1      48.340  27.371  26.250  1.00  0.00     0.064 A 
ATOM     40  C   UNL A   1      49.367  26.889  27.074  1.00  0.00     0.173 A 
ATOM     41  C   UNL A   1      48.562  27.385  24.864  1.00  0.00     0.173 A 
ATOM     42  F   UNL A   1      49.208  26.865  28.406  1.00  0.00    -0.203 F 
ATOM     43  C   UNL A   1      50.571  26.446  26.533  1.00  0.00     0.198 A 
ATOM     44  C   UNL A   1      49.759  26.917  24.325  1.00  0.00     0.198 A 
ATOM     45  F   UNL A   1      47.611  27.830  24.030  1.00  0.00    -0.203 F 
ATOM     46  F   UNL A   1      51.550  26.016  27.341  1.00  0.00    -0.200 F 
ATOM     47  C   UNL A   1      50.763  26.452  25.159  1.00  0.00     0.200 A 
ATOM     48  F   UNL A   1      49.937  26.912  22.996  1.00  0.00    -0.200 F 
ATOM     49  F   UNL A   1      51.917  26.011  24.640  1.00  0.00    -0.200 F 
ENDBRANCH  25  39
BRANCH  26  50
ATOM     50  C   UNL A   1      39.429  29.754  30.120  1.00  0.00     0.064 A 
ATOM     51  C   UNL A   1      39.208  29.633  31.498  1.00  0.00     0.173 A 
ATOM     52  C   UNL A   1      38.371  30.221  29.327  1.00  0.00     0.173 A 
ATOM     53  F   UNL A   1      40.182  29.174  32.297  1.00  0.00    -0.203 F 
ATOM     54  C   UNL A   1      37.971  29.947  32.058  1.00  0.00     0.198 A 
ATOM     55  C   UNL A   1      37.146  30.567  29.891  1.00  0.00     0.198 A 
ATOM     56  F   UNL A   1      38.535  30.363  28.004  1.00  0.00    -0.203 F 
ATOM     57  F   UNL A   1      37.769  29.777  33.371  1.00  0.00    -0.200 F 
ATOM     58  C   UNL A   1      36.943  30.420  31.254  1.00  0.00     0.200 A 
ATOM     59  F   UNL A   1      36.164  31.043  29.114  1.00  0.00    -0.200 F 
ATOM     60  F   UNL A   1      35.757  30.729  31.793  1.00  0.00    -0.200 F 
ENDBRANCH  26  50
BRANCH  38  61
ATOM     61  C   UNL A   1      45.328  33.288  29.044  1.00  0.00     0.064 A 
ATOM     62  C   UNL A   1      45.954  33.649  30.246  1.00  0.00     0.173 A 
ATOM     63  C   UNL A   1      45.090  34.294  28.096  1.00  0.00     0.173 A 
ATOM     64  F   UNL A   1      46.184  32.725  31.191  1.00  0.00    -0.203 F 
ATOM     65  C   UNL A   1      46.302  34.973  30.500  1.00  0.00     0.198 A 
ATOM     66  C   UNL A   1      45.466  35.611  28.341  1.00  0.00     0.198 A 
ATOM     67  F   UNL A   1      44.498  33.997  26.929  1.00  0.00    -0.203 F 
ATOM     68  F   UNL A   1      46.851  35.305  31.676  1.00  0.00    -0.200 F 
ATOM     69  C   UNL A   1      46.064  35.950  29.545  1.00  0.00     0.200 A 
ATOM     70  F   UNL A   1      45.246  36.553  27.413  1.00  0.00    -0.200 F 
ATOM     71  F   UNL A   1      46.402  37.224  29.790  1.00  0.00    -0.200 F 
ENDBRANCH  38  61
ENDBRANCH  12  13
ENDBRANCH   5   7
ENDBRANCH   2   3
ENDBRANCH   1   2
BRANCH   1  72
ATOM     72  C   UNL A   1      35.998  21.130  25.053  1.00  0.00     0.118 C 
BRANCH  72  73
ATOM     73  N   UNL A   1      35.606  21.482  26.415  1.00  0.00    -0.352 N 
ATOM     74  C   UNL A   1      34.498  22.149  26.880  1.00  0.00     0.253 C 
ATOM     75  H   UNL A   1      36.238  21.194  27.114  1.00  0.00     0.163 HD
ATOM     76  O   UNL A   1      34.446  22.473  28.063  1.00  0.00    -0.269 OA
BRANCH  74  77
ATOM     77  C   UNL A   1      33.377  22.477  25.968  1.00  0.00     0.065 A 
ATOM     78  C   UNL A   1      33.221  23.835  25.640  1.00  0.00     0.042 A 
ATOM     79  C   UNL A   1      32.474  21.504  25.486  1.00  0.00     0.054 A 
ATOM     80  C   UNL A   1      32.209  24.247  24.778  1.00  0.00     0.038 A 
ATOM     81  C   UNL A   1      31.592  21.908  24.491  1.00  0.00     0.029 A 
ATOM     82  C   UNL A   1      31.462  23.258  24.146  1.00  0.00     0.028 A 
BRANCH  79  83
ATOM     83  N   UNL A   1      32.514  20.205  26.049  1.00  0.00    -0.325 N 
ATOM     84  C   UNL A   1      32.912  18.966  25.647  1.00  0.00     0.227 C 
ATOM     85  H   UNL A   1      32.164  20.195  26.969  1.00  0.00     0.169 HD
ATOM     86  O   UNL A   1      32.901  18.074  26.501  1.00  0.00    -0.274 OA
BRANCH  84  87
ATOM     87  C   UNL A   1      33.350  18.692  24.232  1.00  0.00     0.079 C 
ATOM     88  C   UNL A   1      34.071  17.360  24.030  1.00  0.00     0.013 C 
ATOM     89  C   UNL A   1      32.153  18.518  23.301  1.00  0.00     0.013 C 
ATOM     90  C   UNL A   1      34.017  17.168  22.517  1.00  0.00     0.001 C 
ATOM     91  C   UNL A   1      32.752  17.889  22.051  1.00  0.00     0.001 C 
ENDBRANCH  84  87
ENDBRANCH  79  83
BRANCH  80  92
ATOM     92  N   UNL A   1      31.904  25.585  24.651  1.00  0.00    -0.368 N 
ATOM     93  C   UNL A   1      32.144  26.300  23.386  1.00  0.00     0.138 C 
ATOM     94  C   UNL A   1      30.828  26.133  25.499  1.00  0.00     0.138 C 
ATOM     95  C   UNL A   1      30.828  26.522  22.593  1.00  0.00     0.138 C 
ATOM     96  C   UNL A   1      29.521  26.330  24.706  1.00  0.00     0.138 C 
ATOM     97  N   UNL A   1      29.764  27.072  23.460  1.00  0.00    -0.368 N 
BRANCH  97  98
ATOM     98  C   UNL A   1      29.359  28.385  23.324  1.00  0.00     0.037 A 
ATOM     99  C   UNL A   1      28.114  28.684  22.751  1.00  0.00     0.029 A 
ATOM    100  C   UNL A   1      30.139  29.459  23.783  1.00  0.00     0.029 A 
ATOM    101  C   UNL A   1      27.653  30.001  22.661  1.00  0.00     0.041 A 
ATOM    102  C   UNL A   1      29.692  30.780  23.681  1.00  0.00     0.041 A 
ATOM    103  C   UNL A   1      28.448  31.037  23.127  1.00  0.00     0.123 A 
ATOM    104  F   UNL A   1      28.008  32.299  23.047  1.00  0.00    -0.207 F 
ENDBRANCH  97  98
ENDBRANCH  80  92
ENDBRANCH  74  77
ENDBRANCH  72  73
ENDBRANCH   1  72
TORSDOF 14
ENDMDL
MODEL 2
REMARK VINA RESULT:     -13.6      4.517     10.326
REMARK SMILES O=C(NCCCNC(=O)c1cc(N2CCN(c3ccc(F)cc3)CC2)ccc1NC(=O)C1CCCC1)c1ccc(-c2c3nc(c(-c4c(F)c(F)c(F)c(F)c4F)c4ccc([nH]4)c(-c4c(F)c(F)c(F)c(F)c4F)c4nc(c(-c5c(F)c(F)c(F)c(F)c5F)c5ccc2[nH]5)C=C4)C=C3)cc1
REMARK SMILES IDX 5 1 4 2 3 3 1 4 2 5 37 7 38 8 99 9 39 10 98 11 40 12 41 13
REMARK SMILES IDX 42 14 92 15 43 16 97 17 91 18 93 19 44 20 96 21 90 22 89 23
REMARK SMILES IDX 45 25 77 26 57 27 76 28 58 29 61 30 75 31 94 32 59 33 60 34
REMARK SMILES IDX 74 36 95 37 62 38 46 39 47 40 55 41 48 42 49 43 53 44 56 45
REMARK SMILES IDX 50 46 51 47 54 48 52 49 78 50 79 51 87 52 80 53 81 54 85 55
REMARK SMILES IDX 88 56 82 57 83 58 86 59 84 60 63 61 64 62 72 63 65 64 66 65
REMARK SMILES IDX 70 66 73 67 67 68 68 69 71 70 69 71 6 72 7 73 8 74 9 76
REMARK SMILES IDX 10 77 11 78 28 79 12 80 27 81 26 82 29 83 30 84 31 86 32 87
REMARK SMILES IDX 33 88 36 89 34 90 35 91 13 92 14 93 25 94 15 95 24 96 16 97
REMARK SMILES IDX 17 98 18 99 23 100 19 101 22 102 20 103 21 104
REMARK H PARENT 3 6 93 24 61 35 7 75 29 85
REMARK Flexibility Score: inf
ROOT
ATOM      1  C   UNL A   1      32.145  27.982  26.703  1.00  0.00     0.042 C 
ENDROOT
BRANCH   1   2
ATOM      2  C   UNL A   1      33.128  28.948  26.065  1.00  0.00     0.118 C 
BRANCH   2   3
ATOM      3  N   UNL A   1      32.777  30.348  26.272  1.00  0.00    -0.352 N 
ATOM      4  O   UNL A   1      32.799  32.397  27.213  1.00  0.00    -0.269 OA
ATOM      5  C   UNL A   1      33.351  31.308  27.070  1.00  0.00     0.251 C 
ATOM      6  H   UNL A   1      31.999  30.656  25.754  1.00  0.00     0.163 HD
BRANCH   5   7
ATOM      7  C   UNL A   1      34.615  31.033  27.784  1.00  0.00     0.039 A 
ATOM      8  C   UNL A   1      34.879  29.767  28.304  1.00  0.00     0.014 A 
ATOM      9  C   UNL A   1      35.565  32.051  27.921  1.00  0.00     0.014 A 
ATOM     10  C   UNL A   1      35.976  29.572  29.128  1.00  0.00     0.010 A 
ATOM     11  C   UNL A   1      36.741  31.815  28.641  1.00  0.00     0.010 A 
ATOM     12  C   UNL A   1      36.938  30.583  29.281  1.00  0.00    -0.014 A 
BRANCH  12  13
ATOM     13  C   UNL A   1      38.175  30.278  30.043  1.00  0.00     0.031 A 
ATOM     14  C   UNL A   1      38.349  30.726  31.466  1.00  0.00     0.074 A 
ATOM     15  C   UNL A   1      39.129  29.542  29.438  1.00  0.00     0.049 A 
ATOM     16  N   UNL A   1      39.361  30.521  32.274  1.00  0.00    -0.248 NA
ATOM     17  C   UNL A   1      37.259  31.512  32.062  1.00  0.00     0.031 C 
ATOM     18  C   UNL A   1      39.071  29.066  28.053  1.00  0.00     0.029 A 
ATOM     19  N   UNL A   1      40.317  29.046  29.907  1.00  0.00    -0.354 N 
ATOM     20  C   UNL A   1      39.041  31.171  33.459  1.00  0.00     0.074 A 
ATOM     21  C   UNL A   1      37.749  31.792  33.263  1.00  0.00     0.031 C 
ATOM     22  C   UNL A   1      40.139  28.298  27.804  1.00  0.00     0.029 A 
ATOM     23  C   UNL A   1      40.998  28.293  28.981  1.00  0.00     0.049 A 
ATOM     24  H   UNL A   1      40.651  29.212  30.818  1.00  0.00     0.167 HD
ATOM     25  C   UNL A   1      39.762  31.234  34.603  1.00  0.00     0.037 A 
ATOM     26  C   UNL A   1      42.195  27.685  29.059  1.00  0.00     0.037 A 
ATOM     27  C   UNL A   1      41.037  30.588  34.795  1.00  0.00     0.049 A 
ATOM     28  C   UNL A   1      42.973  27.785  30.337  1.00  0.00     0.074 A 
ATOM     29  C   UNL A   1      41.826  30.559  35.932  1.00  0.00     0.029 A 
ATOM     30  N   UNL A   1      41.709  29.859  33.824  1.00  0.00    -0.354 N 
ATOM     31  N   UNL A   1      42.644  28.377  31.459  1.00  0.00    -0.248 NA
ATOM     32  C   UNL A   1      44.291  27.140  30.360  1.00  0.00     0.031 C 
ATOM     33  C   UNL A   1      42.996  29.851  35.635  1.00  0.00     0.029 A 
ATOM     34  C   UNL A   1      42.914  29.396  34.329  1.00  0.00     0.049 A 
ATOM     35  H   UNL A   1      41.378  29.695  32.912  1.00  0.00     0.167 HD
ATOM     36  C   UNL A   1      43.707  28.167  32.325  1.00  0.00     0.074 A 
ATOM     37  C   UNL A   1      44.679  27.369  31.606  1.00  0.00     0.031 C 
ATOM     38  C   UNL A   1      43.867  28.602  33.598  1.00  0.00     0.037 A 
BRANCH  25  39
ATOM     39  C   UNL A   1      39.209  32.039  35.743  1.00  0.00     0.064 A 
ATOM     40  C   UNL A   1      38.357  31.473  36.703  1.00  0.00     0.173 A 
ATOM     41  C   UNL A   1      39.599  33.376  35.919  1.00  0.00     0.173 A 
ATOM     42  F   UNL A   1      37.946  30.202  36.575  1.00  0.00    -0.203 F 
ATOM     43  C   UNL A   1      37.908  32.218  37.790  1.00  0.00     0.198 A 
ATOM     44  C   UNL A   1      39.168  34.110  37.022  1.00  0.00     0.198 A 
ATOM     45  F   UNL A   1      40.417  33.964  35.035  1.00  0.00    -0.203 F 
ATOM     46  F   UNL A   1      37.071  31.666  38.679  1.00  0.00    -0.200 F 
ATOM     47  C   UNL A   1      38.320  33.533  37.953  1.00  0.00     0.200 A 
ATOM     48  F   UNL A   1      39.578  35.376  37.184  1.00  0.00    -0.200 F 
ATOM     49  F   UNL A   1      37.899  34.243  39.009  1.00  0.00    -0.200 F 
ENDBRANCH  25  39
BRANCH  26  50
ATOM     50  C   UNL A   1      42.730  26.951  27.884  1.00  0.00     0.064 A 
ATOM     51  C   UNL A   1      43.445  27.617  26.880  1.00  0.00     0.173 A 
ATOM     52  C   UNL A   1      42.544  25.567  27.745  1.00  0.00     0.173 A 
ATOM     53  F   UNL A   1      43.635  28.942  26.958  1.00  0.00    -0.203 F 
ATOM     54  C   UNL A   1      43.936  26.930  25.771  1.00  0.00     0.198 A 
ATOM     55  C   UNL A   1      43.063  24.876  26.655  1.00  0.00     0.198 A 
ATOM     56  F   UNL A   1      41.873  24.882  28.683  1.00  0.00    -0.203 F 
ATOM     57  F   UNL A   1      44.575  27.597  24.802  1.00  0.00    -0.200 F 
ATOM     58  C   UNL A   1      43.751  25.559  25.663  1.00  0.00     0.200 A 
ATOM     59  F   UNL A   1      42.899  23.549  26.566  1.00  0.00    -0.200 F 
ATOM     60  F   UNL A   1      44.229  24.898  24.601  1.00  0.00    -0.200 F 
ENDBRANCH  26  50
BRANCH  38  61
ATOM     61  C   UNL A   1      45.130  28.199  34.297  1.00  0.00     0.064 A 
ATOM     62  C   UNL A   1      46.273  29.010  34.270  1.00  0.00     0.173 A 
ATOM     63  C   UNL A   1      45.190  26.997  35.018  1.00  0.00     0.173 A 
ATOM     64  F   UNL A   1      46.270  30.159  33.577  1.00  0.00    -0.203 F 
ATOM     65  C   UNL A   1      47.443  28.617  34.916  1.00  0.00     0.198 A 
ATOM     66  C   UNL A   1      46.351  26.622  35.687  1.00  0.00     0.198 A 
ATOM     67  F   UNL A   1      44.120  26.189  35.077  1.00  0.00    -0.203 F 
ATOM     68  F   UNL A   1      48.540  29.381  34.833  1.00  0.00    -0.200 F 
ATOM     69  C   UNL A   1      47.478  27.428  35.629  1.00  0.00     0.200 A 
ATOM     70  F   UNL A   1      46.380  25.478  36.385  1.00  0.00    -0.200 F 
ATOM     71  F   UNL A   1      48.603  27.053  36.252  1.00  0.00    -0.200 F 
ENDBRANCH  38  61
ENDBRANCH  12  13
ENDBRANCH   5   7
ENDBRANCH   2   3
ENDBRANCH   1   2
BRANCH   1  72
ATOM     72  C   UNL A   1      32.423  26.530  26.374  1.00  0.00     0.118 C 
BRANCH  72  73
ATOM     73  N   UNL A   1      31.467  25.612  26.988  1.00  0.00    -0.352 N 
ATOM     74  C   UNL A   1      30.891  24.464  26.497  1.00  0.00     0.253 C 
ATOM     75  H   UNL A   1      31.191  25.854  27.901  1.00  0.00     0.163 HD
ATOM     76  O   UNL A   1      29.989  23.927  27.132  1.00  0.00    -0.269 OA
BRANCH  74  77
ATOM     77  C   UNL A   1      31.350  23.878  25.216  1.00  0.00     0.065 A 
ATOM     78  C   UNL A   1      32.553  23.151  25.262  1.00  0.00     0.042 A 
ATOM     79  C   UNL A   1      30.664  24.071  23.997  1.00  0.00     0.054 A 
ATOM     80  C   UNL A   1      33.063  22.546  24.116  1.00  0.00     0.038 A 
ATOM     81  C   UNL A   1      31.089  23.312  22.913  1.00  0.00     0.029 A 
ATOM     82  C   UNL A   1      32.270  22.564  22.973  1.00  0.00     0.028 A 
BRANCH  79  83
ATOM     83  N   UNL A   1      29.613  25.020  23.954  1.00  0.00    -0.325 N 
ATOM     84  C   UNL A   1      29.502  26.362  23.758  1.00  0.00     0.227 C 
ATOM     85  H   UNL A   1      28.736  24.599  24.107  1.00  0.00     0.169 HD
ATOM     86  O   UNL A   1      28.358  26.819  23.670  1.00  0.00    -0.274 OA
BRANCH  84  87
ATOM     87  C   UNL A   1      30.712  27.253  23.646  1.00  0.00     0.079 C 
ATOM     88  C   UNL A   1      31.738  26.816  22.602  1.00  0.00     0.013 C 
ATOM     89  C   UNL A   1      30.339  28.638  23.125  1.00  0.00     0.013 C 
ATOM     90  C   UNL A   1      32.595  28.065  22.420  1.00  0.00     0.001 C 
ATOM     91  C   UNL A   1      31.675  29.248  22.723  1.00  0.00     0.001 C 
ENDBRANCH  84  87
ENDBRANCH  79  83
BRANCH  80  92
ATOM     92  N   UNL A   1      34.348  22.048  24.105  1.00  0.00    -0.368 N 
ATOM     93  C   UNL A   1      35.471  22.858  23.606  1.00  0.00     0.138 C 
ATOM     94  C   UNL A   1      34.698  21.016  25.100  1.00  0.00     0.138 C 
ATOM     95  C   UNL A   1      36.327  23.432  24.768  1.00  0.00     0.138 C 
ATOM     96  C   UNL A   1      35.530  21.601  26.259  1.00  0.00     0.138 C 
ATOM     97  N   UNL A   1      36.668  22.383  25.753  1.00  0.00    -0.368 N 
BRANCH  97  98
ATOM     98  C   UNL A   1      37.958  21.900  25.843  1.00  0.00     0.037 A 
ATOM     99  C   UNL A   1      38.964  22.682  26.431  1.00  0.00     0.029 A 
ATOM    100  C   UNL A   1      38.308  20.615  25.400  1.00  0.00     0.029 A 
ATOM    101  C   UNL A   1      40.263  22.191  26.593  1.00  0.00     0.041 A 
ATOM    102  C   UNL A   1      39.609  20.124  25.543  1.00  0.00     0.041 A 
ATOM    103  C   UNL A   1      40.573  20.916  26.146  1.00  0.00     0.123 A 
ATOM    104  F   UNL A   1      41.815  20.441  26.304  1.00  0.00    -0.207 F 
ENDBRANCH  97  98
ENDBRANCH  80  92
ENDBRANCH  74  77
ENDBRANCH  72  73
ENDBRANCH   1  72
TORSDOF 14
ENDMDL
MODEL 3
REMARK VINA RESULT:     -13.6      8.553     14.339
REMARK SMILES O=C(NCCCNC(=O)c1cc(N2CCN(c3ccc(F)cc3)CC2)ccc1NC(=O)C1CCCC1)c1ccc(-c2c3nc(c(-c4c(F)c(F)c(F)c(F)c4F)c4ccc([nH]4)c(-c4c(F)c(F)c(F)c(F)c4F)c4nc(c(-c5c(F)c(F)c(F)c(F)c5F)c5ccc2[nH]5)C=C4)C=C3)cc1
REMARK SMILES IDX 5 1 4 2 3 3 1 4 2 5 37 7 38 8 99 9 39 10 98 11 40 12 41 13
REMARK SMILES IDX 42 14 92 15 43 16 97 17 91 18 93 19 44 20 96 21 90 22 89 23
REMARK SMILES IDX 45 25 77 26 57 27 76 28 58 29 61 30 75 31 94 32 59 33 60 34
REMARK SMILES IDX 74 36 95 37 62 38 46 39 47 40 55 41 48 42 49 43 53 44 56 45
REMARK SMILES IDX 50 46 51 47 54 48 52 49 78 50 79 51 87 52 80 53 81 54 85 55
REMARK SMILES IDX 88 56 82 57 83 58 86 59 84 60 63 61 64 62 72 63 65 64 66 65
REMARK SMILES IDX 70 66 73 67 67 68 68 69 71 70 69 71 6 72 7 73 8 74 9 76
REMARK SMILES IDX 10 77 11 78 28 79 12 80 27 81 26 82 29 83 30 84 31 86 32 87
REMARK SMILES IDX 33 88 36 89 34 90 35 91 13 92 14 93 25 94 15 95 24 96 16 97
REMARK SMILES IDX 17 98 18 99 23 100 19 101 22 102 20 103 21 104
REMARK H PARENT 3 6 93 24 61 35 7 75 29 85
REMARK Flexibility Score: inf
ROOT
ATOM      1  C   UNL A   1      45.735  24.015  39.672  1.00  0.00     0.042 C 
ENDROOT
BRANCH   1   2
ATOM      2  C   UNL A   1      45.732  24.358  38.193  1.00  0.00     0.118 C 
BRANCH   2   3
ATOM      3  N   UNL A   1      46.994  24.927  37.732  1.00  0.00    -0.352 N 
ATOM      4  O   UNL A   1      48.435  25.994  36.366  1.00  0.00    -0.269 OA
ATOM      5  C   UNL A   1      47.269  25.753  36.669  1.00  0.00     0.251 C 
ATOM      6  H   UNL A   1      47.778  24.677  38.271  1.00  0.00     0.163 HD
BRANCH   5   7
ATOM      7  C   UNL A   1      46.173  26.333  35.865  1.00  0.00     0.039 A 
ATOM      8  C   UNL A   1      46.442  27.238  34.840  1.00  0.00     0.014 A 
ATOM      9  C   UNL A   1      44.853  25.951  36.124  1.00  0.00     0.014 A 
ATOM     10  C   UNL A   1      45.401  27.913  34.221  1.00  0.00     0.010 A 
ATOM     11  C   UNL A   1      43.804  26.534  35.404  1.00  0.00     0.010 A 
ATOM     12  C   UNL A   1      44.070  27.546  34.471  1.00  0.00    -0.014 A 
BRANCH  12  13
ATOM     13  C   UNL A   1      42.995  28.184  33.671  1.00  0.00     0.031 A 
ATOM     14  C   UNL A   1      42.792  27.846  32.222  1.00  0.00     0.074 A 
ATOM     15  C   UNL A   1      42.168  29.050  34.291  1.00  0.00     0.049 A 
ATOM     16  N   UNL A   1      41.885  28.301  31.391  1.00  0.00    -0.248 NA
ATOM     17  C   UNL A   1      43.724  26.883  31.618  1.00  0.00     0.031 C 
ATOM     18  C   UNL A   1      42.283  29.463  35.693  1.00  0.00     0.029 A 
ATOM     19  N   UNL A   1      41.060  29.719  33.842  1.00  0.00    -0.354 N 
ATOM     20  C   UNL A   1      42.153  27.702  30.167  1.00  0.00     0.074 A 
ATOM     21  C   UNL A   1      43.316  26.862  30.355  1.00  0.00     0.031 C 
ATOM     22  C   UNL A   1      41.255  30.262  36.005  1.00  0.00     0.029 A 
ATOM     23  C   UNL A   1      40.455  30.485  34.808  1.00  0.00     0.049 A 
ATOM     24  H   UNL A   1      40.730  29.657  32.916  1.00  0.00     0.167 HD
ATOM     25  C   UNL A   1      41.481  27.840  28.999  1.00  0.00     0.037 A 
ATOM     26  C   UNL A   1      39.386  31.298  34.736  1.00  0.00     0.037 A 
ATOM     27  C   UNL A   1      40.308  28.660  28.831  1.00  0.00     0.049 A 
ATOM     28  C   UNL A   1      38.673  31.438  33.424  1.00  0.00     0.074 A 
ATOM     29  C   UNL A   1      39.532  28.834  27.697  1.00  0.00     0.029 A 
ATOM     30  N   UNL A   1      39.741  29.445  29.825  1.00  0.00    -0.354 N 
ATOM     31  N   UNL A   1      38.919  30.841  32.283  1.00  0.00    -0.248 NA
ATOM     32  C   UNL A   1      37.539  32.368  33.385  1.00  0.00     0.031 C 
ATOM     33  C   UNL A   1      38.524  29.757  27.993  1.00  0.00     0.029 A 
ATOM     34  C   UNL A   1      38.640  30.122  29.324  1.00  0.00     0.049 A 
ATOM     35  H   UNL A   1      40.072  29.510  30.750  1.00  0.00     0.167 HD
ATOM     36  C   UNL A   1      37.966  31.313  31.394  1.00  0.00     0.074 A 
ATOM     37  C   UNL A   1      37.119  32.225  32.136  1.00  0.00     0.031 C 
ATOM     38  C   UNL A   1      37.809  31.024  30.080  1.00  0.00     0.037 A 
BRANCH  25  39
ATOM     39  C   UNL A   1      41.998  27.106  27.796  1.00  0.00     0.064 A 
ATOM     40  C   UNL A   1      42.935  27.681  26.926  1.00  0.00     0.173 A 
ATOM     41  C   UNL A   1      41.607  25.779  27.557  1.00  0.00     0.173 A 
ATOM     42  F   UNL A   1      43.333  28.949  27.105  1.00  0.00    -0.203 F 
ATOM     43  C   UNL A   1      43.453  26.959  25.853  1.00  0.00     0.198 A 
ATOM     44  C   UNL A   1      42.147  25.052  26.498  1.00  0.00     0.198 A 
ATOM     45  F   UNL A   1      40.719  25.179  28.363  1.00  0.00    -0.203 F 
ATOM     46  F   UNL A   1      44.325  27.538  25.016  1.00  0.00    -0.200 F 
ATOM     47  C   UNL A   1      43.065  25.643  25.645  1.00  0.00     0.200 A 
ATOM     48  F   UNL A   1      41.781  23.777  26.306  1.00  0.00    -0.200 F 
ATOM     49  F   UNL A   1      43.578  24.946  24.622  1.00  0.00    -0.200 F 
ENDBRANCH  25  39
BRANCH  26  50
ATOM     50  C   UNL A   1      38.948  32.053  35.938  1.00  0.00     0.064 A 
ATOM     51  C   UNL A   1      39.347  33.380  36.143  1.00  0.00     0.173 A 
ATOM     52  C   UNL A   1      38.115  31.465  36.901  1.00  0.00     0.173 A 
ATOM     53  F   UNL A   1      40.157  33.981  35.260  1.00  0.00    -0.203 F 
ATOM     54  C   UNL A   1      38.946  34.083  37.277  1.00  0.00     0.198 A 
ATOM     55  C   UNL A   1      37.688  32.178  38.017  1.00  0.00     0.198 A 
ATOM     56  F   UNL A   1      37.698  30.199  36.747  1.00  0.00    -0.203 F 
ATOM     57  F   UNL A   1      39.380  35.335  37.474  1.00  0.00    -0.200 F 
ATOM     58  C   UNL A   1      38.111  33.484  38.209  1.00  0.00     0.200 A 
ATOM     59  F   UNL A   1      36.865  31.602  38.903  1.00  0.00    -0.200 F 
ATOM     60  F   UNL A   1      37.720  34.163  39.296  1.00  0.00    -0.200 F 
ENDBRANCH  26  50
BRANCH  38  61
ATOM     61  C   UNL A   1      36.665  31.684  29.373  1.00  0.00     0.064 A 
ATOM     62  C   UNL A   1      35.531  30.959  28.978  1.00  0.00     0.173 A 
ATOM     63  C   UNL A   1      36.694  33.061  29.104  1.00  0.00     0.173 A 
ATOM     64  F   UNL A   1      35.466  29.636  29.195  1.00  0.00    -0.203 F 
ATOM     65  C   UNL A   1      34.480  31.584  28.313  1.00  0.00     0.198 A 
ATOM     66  C   UNL A   1      35.628  33.688  28.466  1.00  0.00     0.198 A 
ATOM     67  F   UNL A   1      37.755  33.798  29.467  1.00  0.00    -0.203 F 
ATOM     68  F   UNL A   1      33.430  30.863  27.896  1.00  0.00    -0.200 F 
ATOM     69  C   UNL A   1      34.527  32.947  28.064  1.00  0.00     0.200 A 
ATOM     70  F   UNL A   1      35.670  35.007  28.236  1.00  0.00    -0.200 F 
ATOM     71  F   UNL A   1      33.512  33.548  27.426  1.00  0.00    -0.200 F 
ENDBRANCH  38  61
ENDBRANCH  12  13
ENDBRANCH   5   7
ENDBRANCH   2   3
ENDBRANCH   1   2
BRANCH   1  72
ATOM     72  C   UNL A   1      45.858  22.530  39.948  1.00  0.00     0.118 C 
BRANCH  72  73
ATOM     73  N   UNL A   1      47.239  22.056  39.919  1.00  0.00    -0.352 N 
ATOM     74  C   UNL A   1      47.769  20.882  39.438  1.00  0.00     0.253 C 
ATOM     75  H   UNL A   1      47.897  22.678  40.305  1.00  0.00     0.163 HD
ATOM     76  O   UNL A   1      48.948  20.623  39.657  1.00  0.00    -0.269 OA
BRANCH  74  77
ATOM     77  C   UNL A   1      46.930  19.936  38.665  1.00  0.00     0.065 A 
ATOM     78  C   UNL A   1      46.361  18.875  39.391  1.00  0.00     0.042 A 
ATOM     79  C   UNL A   1      46.742  20.045  37.270  1.00  0.00     0.054 A 
ATOM     80  C   UNL A   1      45.544  17.940  38.763  1.00  0.00     0.038 A 
ATOM     81  C   UNL A   1      45.782  19.216  36.701  1.00  0.00     0.029 A 
ATOM     82  C   UNL A   1      45.195  18.180  37.437  1.00  0.00     0.028 A 
BRANCH  79  83
ATOM     83  N   UNL A   1      47.540  20.967  36.549  1.00  0.00    -0.325 N 
ATOM     84  C   UNL A   1      47.345  21.874  35.552  1.00  0.00     0.227 C 
ATOM     85  H   UNL A   1      48.478  20.947  36.846  1.00  0.00     0.169 HD
ATOM     86  O   UNL A   1      48.301  22.602  35.268  1.00  0.00    -0.274 OA
BRANCH  84  87
ATOM     87  C   UNL A   1      46.028  21.992  34.830  1.00  0.00     0.079 C 
ATOM     88  C   UNL A   1      44.840  22.361  35.716  1.00  0.00     0.013 C 
ATOM     89  C   UNL A   1      46.033  23.161  33.848  1.00  0.00     0.013 C 
ATOM     90  C   UNL A   1      43.785  22.806  34.706  1.00  0.00     0.001 C 
ATOM     91  C   UNL A   1      44.562  23.360  33.511  1.00  0.00     0.001 C 
ENDBRANCH  84  87
ENDBRANCH  79  83
BRANCH  80  92
ATOM     92  N   UNL A   1      45.189  16.776  39.411  1.00  0.00    -0.368 N 
ATOM     93  C   UNL A   1      45.244  16.679  40.878  1.00  0.00     0.138 C 
ATOM     94  C   UNL A   1      44.219  15.885  38.748  1.00  0.00     0.138 C 
ATOM     95  C   UNL A   1      43.831  16.776  41.514  1.00  0.00     0.138 C 
ATOM     96  C   UNL A   1      42.815  16.004  39.374  1.00  0.00     0.138 C 
ATOM     97  N   UNL A   1      42.875  15.875  40.837  1.00  0.00    -0.368 N 
BRANCH  97  98
ATOM     98  C   UNL A   1      42.421  14.734  41.469  1.00  0.00     0.037 A 
ATOM     99  C   UNL A   1      41.642  13.801  40.767  1.00  0.00     0.029 A 
ATOM    100  C   UNL A   1      42.746  14.437  42.802  1.00  0.00     0.029 A 
ATOM    101  C   UNL A   1      41.224  12.608  41.363  1.00  0.00     0.041 A 
ATOM    102  C   UNL A   1      42.318  13.254  43.411  1.00  0.00     0.041 A 
ATOM    103  C   UNL A   1      41.566  12.346  42.681  1.00  0.00     0.123 A 
ATOM    104  F   UNL A   1      41.172  11.202  43.255  1.00  0.00    -0.207 F 
ENDBRANCH  97  98
ENDBRANCH  80  92
ENDBRANCH  74  77
ENDBRANCH  72  73
ENDBRANCH   1  72
TORSDOF 14
ENDMDL
