MODEL 1
REMARK VINA RESULT:     -13.9      0.000      0.000
REMARK SMILES Cc1ccc(C(=O)Nc2cccc(F)c2C(=O)NCCCNC(=O)c2ccc(-c3c4nc(c(-c5c(F)c(F)c(F)c(F)c5F)c5ccc([nH]5)c(-c5c(F)c(F)c(F)c(F)c5F)c5nc(c(-c6c(F)c(F)c(F)c(F)c6F)c6ccc3[nH]6)C=C5)C=C4)cc2)c(F)c1
REMARK SMILES IDX 20 1 19 2 18 3 16 4 17 5 15 7 9 8 10 9 11 10 13 11 12 12
REMARK SMILES IDX 14 13 8 14 6 15 7 16 5 18 1 19 2 20 3 21 90 22 4 23 88 24
REMARK SMILES IDX 89 25 21 26 22 27 23 28 24 30 25 31 26 32 87 33 27 34 86 35
REMARK SMILES IDX 28 36 29 37 30 38 80 39 31 40 85 41 79 42 81 43 32 44 84 45
REMARK SMILES IDX 78 46 77 47 33 49 65 50 45 51 64 52 46 53 49 54 63 55 82 56
REMARK SMILES IDX 47 57 48 58 62 60 83 61 50 62 34 63 35 64 43 65 36 66 37 67
REMARK SMILES IDX 41 68 44 69 38 70 39 71 42 72 40 73 66 74 67 75 75 76 68 77
REMARK SMILES IDX 69 78 73 79 76 80 70 81 71 82 74 83 72 84 51 85 52 86 60 87
REMARK SMILES IDX 53 88 54 89 58 90 61 91 55 92 56 93 59 94 57 95
REMARK H PARENT 18 6 8 17 22 29 81 48 49 59
REMARK Flexibility Score: inf
ROOT
ATOM      1  C   UNL A   1      35.946  22.806  25.963  1.00  0.00     0.042 C 
ENDROOT
BRANCH   1   2
ATOM      2  C   UNL A   1      34.983  23.979  26.177  1.00  0.00     0.118 C 
BRANCH   2   3
ATOM      3  N   UNL A   1      34.862  24.753  24.962  1.00  0.00    -0.352 N 
ATOM      4  C   UNL A   1      34.083  25.828  24.641  1.00  0.00     0.256 C 
ATOM      5  O   UNL A   1      34.141  26.193  23.462  1.00  0.00    -0.269 OA
ATOM      6  H   UNL A   1      35.451  24.450  24.233  1.00  0.00     0.163 HD
BRANCH   4   7
ATOM      7  C   UNL A   1      33.231  26.609  25.592  1.00  0.00     0.099 A 
ATOM      8  C   UNL A   1      31.885  26.200  25.743  1.00  0.00     0.057 A 
ATOM      9  C   UNL A   1      31.057  26.798  26.711  1.00  0.00     0.027 A 
ATOM     10  C   UNL A   1      31.496  27.896  27.441  1.00  0.00     0.005 A 
ATOM     11  C   UNL A   1      33.626  27.727  26.333  1.00  0.00     0.138 A 
ATOM     12  C   UNL A   1      32.771  28.383  27.219  1.00  0.00     0.040 A 
ATOM     13  F   UNL A   1      34.837  28.271  26.253  1.00  0.00    -0.206 F 
BRANCH   8  14
ATOM     14  N   UNL A   1      31.340  25.251  24.853  1.00  0.00    -0.321 N 
ATOM     15  C   UNL A   1      30.440  25.419  23.816  1.00  0.00     0.258 C 
ATOM     16  O   UNL A   1      30.024  24.429  23.220  1.00  0.00    -0.269 OA
ATOM     17  H   UNL A   1      31.649  24.326  24.989  1.00  0.00     0.170 HD
BRANCH  15  18
ATOM     18  C   UNL A   1      30.062  26.778  23.337  1.00  0.00     0.075 A 
ATOM     19  C   UNL A   1      28.986  30.836  22.342  1.00  0.00     0.044 C 
ATOM     20  C   UNL A   1      29.350  29.414  22.644  1.00  0.00    -0.048 A 
ATOM     21  C   UNL A   1      30.621  28.926  22.337  1.00  0.00     0.004 A 
ATOM     22  C   UNL A   1      28.406  28.542  23.197  1.00  0.00     0.043 A 
ATOM     23  C   UNL A   1      30.957  27.605  22.639  1.00  0.00     0.017 A 
ATOM     24  C   UNL A   1      28.766  27.241  23.553  1.00  0.00     0.136 A 
ATOM     25  F   UNL A   1      27.837  26.471  24.135  1.00  0.00    -0.206 F 
ENDBRANCH  15  18
ENDBRANCH   8  14
ENDBRANCH   4   7
ENDBRANCH   2   3
ENDBRANCH   1   2
BRANCH   1  26
ATOM     26  C   UNL A   1      37.269  23.291  25.451  1.00  0.00     0.118 C 
BRANCH  26  27
ATOM     27  N   UNL A   1      38.366  22.512  26.015  1.00  0.00    -0.352 N 
ATOM     28  C   UNL A   1      39.550  22.950  26.559  1.00  0.00     0.251 C 
ATOM     29  H   UNL A   1      38.240  21.535  26.005  1.00  0.00     0.163 HD
ATOM     30  O   UNL A   1      40.482  22.177  26.713  1.00  0.00    -0.269 OA
BRANCH  28  31
ATOM     31  C   UNL A   1      39.662  24.353  26.985  1.00  0.00     0.039 A 
ATOM     32  C   UNL A   1      40.344  25.299  26.207  1.00  0.00     0.014 A 
ATOM     33  C   UNL A   1      39.157  24.700  28.232  1.00  0.00     0.014 A 
ATOM     34  C   UNL A   1      40.539  26.579  26.716  1.00  0.00     0.010 A 
ATOM     35  C   UNL A   1      39.140  25.992  28.628  1.00  0.00     0.010 A 
ATOM     36  C   UNL A   1      39.952  26.885  27.939  1.00  0.00    -0.014 A 
BRANCH  36  37
ATOM     37  C   UNL A   1      40.195  28.061  28.737  1.00  0.00     0.031 A 
ATOM     38  C   UNL A   1      39.223  29.148  28.692  1.00  0.00     0.074 A 
ATOM     39  C   UNL A   1      41.103  27.855  29.719  1.00  0.00     0.049 A 
ATOM     40  N   UNL A   1      39.476  30.354  29.044  1.00  0.00    -0.248 NA
ATOM     41  C   UNL A   1      37.857  28.960  28.209  1.00  0.00     0.031 C 
ATOM     42  C   UNL A   1      41.277  28.516  30.999  1.00  0.00     0.029 A 
ATOM     43  N   UNL A   1      42.133  26.894  29.699  1.00  0.00    -0.354 N 
ATOM     44  C   UNL A   1      38.256  30.973  29.216  1.00  0.00     0.074 A 
ATOM     45  C   UNL A   1      37.310  30.141  28.512  1.00  0.00     0.031 C 
ATOM     46  C   UNL A   1      42.498  28.201  31.481  1.00  0.00     0.029 A 
ATOM     47  C   UNL A   1      43.187  27.432  30.453  1.00  0.00     0.049 A 
ATOM     48  H   UNL A   1      42.116  26.020  29.247  1.00  0.00     0.167 HD
ATOM     49  C   UNL A   1      38.174  31.984  30.130  1.00  0.00     0.037 A 
ATOM     50  C   UNL A   1      44.311  27.825  29.779  1.00  0.00     0.037 A 
ATOM     51  C   UNL A   1      39.473  32.142  30.792  1.00  0.00     0.049 A 
ATOM     52  C   UNL A   1      44.442  29.327  29.785  1.00  0.00     0.074 A 
ATOM     53  C   UNL A   1      39.945  31.662  32.004  1.00  0.00     0.029 A 
ATOM     54  N   UNL A   1      40.590  32.514  30.052  1.00  0.00    -0.354 N 
ATOM     55  N   UNL A   1      43.428  30.143  29.884  1.00  0.00    -0.248 NA
ATOM     56  C   UNL A   1      45.723  30.020  29.744  1.00  0.00     0.031 C 
ATOM     57  C   UNL A   1      41.362  31.691  31.962  1.00  0.00     0.029 A 
ATOM     58  C   UNL A   1      41.749  32.189  30.729  1.00  0.00     0.049 A 
ATOM     59  H   UNL A   1      40.558  32.949  29.169  1.00  0.00     0.167 HD
ATOM     60  C   UNL A   1      43.887  31.426  29.974  1.00  0.00     0.074 A 
ATOM     61  C   UNL A   1      45.330  31.301  29.862  1.00  0.00     0.031 C 
ATOM     62  C   UNL A   1      43.053  32.491  30.161  1.00  0.00     0.037 A 
BRANCH  49  63
ATOM     63  C   UNL A   1      36.904  32.591  30.690  1.00  0.00     0.064 A 
ATOM     64  C   UNL A   1      36.166  33.524  29.923  1.00  0.00     0.173 A 
ATOM     65  C   UNL A   1      36.355  32.318  31.958  1.00  0.00     0.173 A 
ATOM     66  F   UNL A   1      36.496  33.812  28.659  1.00  0.00    -0.203 F 
ATOM     67  C   UNL A   1      35.041  34.191  30.416  1.00  0.00     0.198 A 
ATOM     68  C   UNL A   1      35.244  33.007  32.463  1.00  0.00     0.198 A 
ATOM     69  F   UNL A   1      36.826  31.338  32.733  1.00  0.00    -0.203 F 
ATOM     70  F   UNL A   1      34.398  35.070  29.636  1.00  0.00    -0.200 F 
ATOM     71  C   UNL A   1      34.593  33.949  31.695  1.00  0.00     0.200 A 
ATOM     72  F   UNL A   1      34.803  32.739  33.700  1.00  0.00    -0.200 F 
ATOM     73  F   UNL A   1      33.521  34.597  32.173  1.00  0.00    -0.200 F 
ENDBRANCH  49  63
BRANCH  50  74
ATOM     74  C   UNL A   1      44.594  26.919  28.617  1.00  0.00     0.064 A 
ATOM     75  C   UNL A   1      44.322  27.426  27.327  1.00  0.00     0.173 A 
ATOM     76  C   UNL A   1      45.520  25.868  28.709  1.00  0.00     0.173 A 
ATOM     77  F   UNL A   1      43.440  28.427  27.177  1.00  0.00    -0.203 F 
ATOM     78  C   UNL A   1      45.063  27.026  26.216  1.00  0.00     0.198 A 
ATOM     79  C   UNL A   1      46.245  25.454  27.585  1.00  0.00     0.198 A 
ATOM     80  F   UNL A   1      45.819  25.328  29.898  1.00  0.00    -0.203 F 
ATOM     81  F   UNL A   1      44.884  27.640  25.037  1.00  0.00    -0.200 F 
ATOM     82  C   UNL A   1      46.048  26.064  26.353  1.00  0.00     0.200 A 
ATOM     83  F   UNL A   1      47.199  24.520  27.713  1.00  0.00    -0.200 F 
ATOM     84  F   UNL A   1      46.828  25.752  25.310  1.00  0.00    -0.200 F 
ENDBRANCH  50  74
BRANCH  62  85
ATOM     85  C   UNL A   1      43.421  33.934  29.941  1.00  0.00     0.064 A 
ATOM     86  C   UNL A   1      43.603  34.497  28.670  1.00  0.00     0.173 A 
ATOM     87  C   UNL A   1      43.438  34.848  31.025  1.00  0.00     0.173 A 
ATOM     88  F   UNL A   1      43.467  33.768  27.554  1.00  0.00    -0.203 F 
ATOM     89  C   UNL A   1      43.874  35.855  28.500  1.00  0.00     0.198 A 
ATOM     90  C   UNL A   1      43.631  36.213  30.843  1.00  0.00     0.198 A 
ATOM     91  F   UNL A   1      43.236  34.451  32.289  1.00  0.00    -0.203 F 
ATOM     92  F   UNL A   1      44.104  36.333  27.270  1.00  0.00    -0.200 F 
ATOM     93  C   UNL A   1      43.877  36.714  29.583  1.00  0.00     0.200 A 
ATOM     94  F   UNL A   1      43.557  37.040  31.895  1.00  0.00    -0.200 F 
ATOM     95  F   UNL A   1      44.092  38.024  29.409  1.00  0.00    -0.200 F 
ENDBRANCH  62  85
ENDBRANCH  36  37
ENDBRANCH  28  31
ENDBRANCH  26  27
ENDBRANCH   1  26
TORSDOF 12
ENDMDL
MODEL 2
REMARK VINA RESULT:     -13.8      1.449      2.652
REMARK SMILES Cc1ccc(C(=O)Nc2cccc(F)c2C(=O)NCCCNC(=O)c2ccc(-c3c4nc(c(-c5c(F)c(F)c(F)c(F)c5F)c5ccc([nH]5)c(-c5c(F)c(F)c(F)c(F)c5F)c5nc(c(-c6c(F)c(F)c(F)c(F)c6F)c6ccc3[nH]6)C=C5)C=C4)cc2)c(F)c1
REMARK SMILES IDX 20 1 19 2 18 3 16 4 17 5 15 7 9 8 10 9 11 10 13 11 12 12
REMARK SMILES IDX 14 13 8 14 6 15 7 16 5 18 1 19 2 20 3 21 90 22 4 23 88 24
REMARK SMILES IDX 89 25 21 26 22 27 23 28 24 30 25 31 26 32 87 33 27 34 86 35
REMARK SMILES IDX 28 36 29 37 30 38 80 39 31 40 85 41 79 42 81 43 32 44 84 45
REMARK SMILES IDX 78 46 77 47 33 49 65 50 45 51 64 52 46 53 49 54 63 55 82 56
REMARK SMILES IDX 47 57 48 58 62 60 83 61 50 62 34 63 35 64 43 65 36 66 37 67
REMARK SMILES IDX 41 68 44 69 38 70 39 71 42 72 40 73 66 74 67 75 75 76 68 77
REMARK SMILES IDX 69 78 73 79 76 80 70 81 71 82 74 83 72 84 51 85 52 86 60 87
REMARK SMILES IDX 53 88 54 89 58 90 61 91 55 92 56 93 59 94 57 95
REMARK H PARENT 18 6 8 17 22 29 81 48 49 59
REMARK Flexibility Score: inf
ROOT
ATOM      1  C   UNL A   1      36.837  22.603  24.327  1.00  0.00     0.042 C 
ENDROOT
BRANCH   1   2
ATOM      2  C   UNL A   1      35.636  23.346  23.731  1.00  0.00     0.118 C 
BRANCH   2   3
ATOM      3  N   UNL A   1      34.456  22.513  23.785  1.00  0.00    -0.352 N 
ATOM      4  C   UNL A   1      33.142  22.778  23.525  1.00  0.00     0.256 C 
ATOM      5  O   UNL A   1      32.354  21.860  23.777  1.00  0.00    -0.269 OA
ATOM      6  H   UNL A   1      34.633  21.585  24.059  1.00  0.00     0.163 HD
BRANCH   4   7
ATOM      7  C   UNL A   1      32.604  24.039  22.923  1.00  0.00     0.099 A 
ATOM      8  C   UNL A   1      31.791  24.855  23.746  1.00  0.00     0.057 A 
ATOM      9  C   UNL A   1      31.354  26.115  23.300  1.00  0.00     0.027 A 
ATOM     10  C   UNL A   1      31.590  26.528  21.994  1.00  0.00     0.005 A 
ATOM     11  C   UNL A   1      32.802  24.484  21.612  1.00  0.00     0.138 A 
ATOM     12  C   UNL A   1      32.282  25.689  21.140  1.00  0.00     0.040 A 
ATOM     13  F   UNL A   1      33.488  23.800  20.700  1.00  0.00    -0.206 F 
BRANCH   8  14
ATOM     14  N   UNL A   1      31.335  24.360  24.986  1.00  0.00    -0.321 N 
ATOM     15  C   UNL A   1      31.511  24.863  26.262  1.00  0.00     0.258 C 
ATOM     16  O   UNL A   1      31.103  24.213  27.222  1.00  0.00    -0.269 OA
ATOM     17  H   UNL A   1      30.810  23.529  24.936  1.00  0.00     0.170 HD
BRANCH  15  18
ATOM     18  C   UNL A   1      32.076  26.223  26.483  1.00  0.00     0.075 A 
ATOM     19  C   UNL A   1      33.719  30.206  26.713  1.00  0.00     0.044 C 
ATOM     20  C   UNL A   1      33.155  28.818  26.679  1.00  0.00    -0.048 A 
ATOM     21  C   UNL A   1      31.818  28.587  27.007  1.00  0.00     0.004 A 
ATOM     22  C   UNL A   1      33.972  27.727  26.361  1.00  0.00     0.043 A 
ATOM     23  C   UNL A   1      31.297  27.293  26.954  1.00  0.00     0.017 A 
ATOM     24  C   UNL A   1      33.431  26.445  26.250  1.00  0.00     0.136 A 
ATOM     25  F   UNL A   1      34.249  25.450  25.883  1.00  0.00    -0.206 F 
ENDBRANCH  15  18
ENDBRANCH   8  14
ENDBRANCH   4   7
ENDBRANCH   2   3
ENDBRANCH   1   2
BRANCH   1  26
ATOM     26  C   UNL A   1      37.325  23.293  25.566  1.00  0.00     0.118 C 
BRANCH  26  27
ATOM     27  N   UNL A   1      38.423  22.552  26.178  1.00  0.00    -0.352 N 
ATOM     28  C   UNL A   1      39.578  23.030  26.750  1.00  0.00     0.251 C 
ATOM     29  H   UNL A   1      38.323  21.572  26.182  1.00  0.00     0.163 HD
ATOM     30  O   UNL A   1      40.524  22.284  26.947  1.00  0.00    -0.269 OA
BRANCH  28  31
ATOM     31  C   UNL A   1      39.641  24.442  27.155  1.00  0.00     0.039 A 
ATOM     32  C   UNL A   1      40.231  25.410  26.331  1.00  0.00     0.014 A 
ATOM     33  C   UNL A   1      39.185  24.780  28.423  1.00  0.00     0.014 A 
ATOM     34  C   UNL A   1      40.388  26.706  26.815  1.00  0.00     0.010 A 
ATOM     35  C   UNL A   1      39.123  26.075  28.806  1.00  0.00     0.010 A 
ATOM     36  C   UNL A   1      39.852  26.998  28.065  1.00  0.00    -0.014 A 
BRANCH  36  37
ATOM     37  C   UNL A   1      40.076  28.195  28.836  1.00  0.00     0.031 A 
ATOM     38  C   UNL A   1      39.087  29.266  28.767  1.00  0.00     0.074 A 
ATOM     39  C   UNL A   1      40.987  28.025  29.822  1.00  0.00     0.049 A 
ATOM     40  N   UNL A   1      39.321  30.483  29.092  1.00  0.00    -0.248 NA
ATOM     41  C   UNL A   1      37.725  29.046  28.288  1.00  0.00     0.031 C 
ATOM     42  C   UNL A   1      41.150  28.717  31.087  1.00  0.00     0.029 A 
ATOM     43  N   UNL A   1      42.031  27.081  29.824  1.00  0.00    -0.354 N 
ATOM     44  C   UNL A   1      38.091  31.087  29.249  1.00  0.00     0.074 A 
ATOM     45  C   UNL A   1      37.159  30.225  28.565  1.00  0.00     0.031 C 
ATOM     46  C   UNL A   1      42.375  28.432  31.577  1.00  0.00     0.029 A 
ATOM     47  C   UNL A   1      43.077  27.651  30.565  1.00  0.00     0.049 A 
ATOM     48  H   UNL A   1      42.028  26.196  29.392  1.00  0.00     0.167 HD
ATOM     49  C   UNL A   1      37.993  32.117  30.140  1.00  0.00     0.037 A 
ATOM     50  C   UNL A   1      44.195  28.047  29.883  1.00  0.00     0.037 A 
ATOM     51  C   UNL A   1      39.290  32.309  30.799  1.00  0.00     0.049 A 
ATOM     52  C   UNL A   1      44.303  29.550  29.855  1.00  0.00     0.074 A 
ATOM     53  C   UNL A   1      39.769  31.864  32.021  1.00  0.00     0.029 A 
ATOM     54  N   UNL A   1      40.401  32.682  30.051  1.00  0.00    -0.354 N 
ATOM     55  N   UNL A   1      43.276  30.352  29.936  1.00  0.00    -0.248 NA
ATOM     56  C   UNL A   1      45.573  30.262  29.798  1.00  0.00     0.031 C 
ATOM     57  C   UNL A   1      41.186  31.915  31.979  1.00  0.00     0.029 A 
ATOM     58  C   UNL A   1      41.565  32.391  30.734  1.00  0.00     0.049 A 
ATOM     59  H   UNL A   1      40.363  33.097  29.158  1.00  0.00     0.167 HD
ATOM     60  C   UNL A   1      43.715  31.644  29.997  1.00  0.00     0.074 A 
ATOM     61  C   UNL A   1      45.159  31.538  29.888  1.00  0.00     0.031 C 
ATOM     62  C   UNL A   1      42.864  32.699  30.160  1.00  0.00     0.037 A 
BRANCH  49  63
ATOM     63  C   UNL A   1      36.714  32.717  30.687  1.00  0.00     0.064 A 
ATOM     64  C   UNL A   1      35.989  33.660  29.920  1.00  0.00     0.173 A 
ATOM     65  C   UNL A   1      36.144  32.427  31.941  1.00  0.00     0.173 A 
ATOM     66  F   UNL A   1      36.341  33.965  28.665  1.00  0.00    -0.203 F 
ATOM     67  C   UNL A   1      34.856  34.320  30.402  1.00  0.00     0.198 A 
ATOM     68  C   UNL A   1      35.025  33.110  32.436  1.00  0.00     0.198 A 
ATOM     69  F   UNL A   1      36.602  31.436  32.711  1.00  0.00    -0.203 F 
ATOM     70  F   UNL A   1      34.227  35.209  29.622  1.00  0.00    -0.200 F 
ATOM     71  C   UNL A   1      34.387  34.062  31.670  1.00  0.00     0.200 A 
ATOM     72  F   UNL A   1      34.562  32.825  33.662  1.00  0.00    -0.200 F 
ATOM     73  F   UNL A   1      33.307  34.703  32.138  1.00  0.00    -0.200 F 
ENDBRANCH  49  63
BRANCH  50  74
ATOM     74  C   UNL A   1      44.492  27.119  28.742  1.00  0.00     0.064 A 
ATOM     75  C   UNL A   1      44.201  27.588  27.442  1.00  0.00     0.173 A 
ATOM     76  C   UNL A   1      45.442  26.092  28.853  1.00  0.00     0.173 A 
ATOM     77  F   UNL A   1      43.295  28.564  27.273  1.00  0.00    -0.203 F 
ATOM     78  C   UNL A   1      44.945  27.178  26.336  1.00  0.00     0.198 A 
ATOM     79  C   UNL A   1      46.170  25.667  27.735  1.00  0.00     0.198 A 
ATOM     80  F   UNL A   1      45.761  25.589  30.054  1.00  0.00    -0.203 F 
ATOM     81  F   UNL A   1      44.745  27.759  25.144  1.00  0.00    -0.200 F 
ATOM     82  C   UNL A   1      45.952  26.242  26.491  1.00  0.00     0.200 A 
ATOM     83  F   UNL A   1      47.147  24.759  27.880  1.00  0.00    -0.200 F 
ATOM     84  F   UNL A   1      46.734  25.922  25.450  1.00  0.00    -0.200 F 
ENDBRANCH  50  74
BRANCH  62  85
ATOM     85  C   UNL A   1      43.210  34.143  29.907  1.00  0.00     0.064 A 
ATOM     86  C   UNL A   1      43.369  35.088  30.930  1.00  0.00     0.173 A 
ATOM     87  C   UNL A   1      43.562  34.583  28.607  1.00  0.00     0.173 A 
ATOM     88  F   UNL A   1      43.209  34.758  32.220  1.00  0.00    -0.203 F 
ATOM     89  C   UNL A   1      43.760  36.401  30.665  1.00  0.00     0.198 A 
ATOM     90  C   UNL A   1      44.027  35.870  28.357  1.00  0.00     0.198 A 
ATOM     91  F   UNL A   1      43.499  33.771  27.542  1.00  0.00    -0.203 F 
ATOM     92  F   UNL A   1      43.835  37.283  31.670  1.00  0.00    -0.200 F 
ATOM     93  C   UNL A   1      44.100  36.788  29.383  1.00  0.00     0.200 A 
ATOM     94  F   UNL A   1      44.422  36.206  27.121  1.00  0.00    -0.200 F 
ATOM     95  F   UNL A   1      44.518  38.036  29.140  1.00  0.00    -0.200 F 
ENDBRANCH  62  85
ENDBRANCH  36  37
ENDBRANCH  28  31
ENDBRANCH  26  27
ENDBRANCH   1  26
TORSDOF 12
ENDMDL
MODEL 3
REMARK VINA RESULT:     -13.8      1.857      3.100
REMARK SMILES Cc1ccc(C(=O)Nc2cccc(F)c2C(=O)NCCCNC(=O)c2ccc(-c3c4nc(c(-c5c(F)c(F)c(F)c(F)c5F)c5ccc([nH]5)c(-c5c(F)c(F)c(F)c(F)c5F)c5nc(c(-c6c(F)c(F)c(F)c(F)c6F)c6ccc3[nH]6)C=C5)C=C4)cc2)c(F)c1
REMARK SMILES IDX 20 1 19 2 18 3 16 4 17 5 15 7 9 8 10 9 11 10 13 11 12 12
REMARK SMILES IDX 14 13 8 14 6 15 7 16 5 18 1 19 2 20 3 21 90 22 4 23 88 24
REMARK SMILES IDX 89 25 21 26 22 27 23 28 24 30 25 31 26 32 87 33 27 34 86 35
REMARK SMILES IDX 28 36 29 37 30 38 80 39 31 40 85 41 79 42 81 43 32 44 84 45
REMARK SMILES IDX 78 46 77 47 33 49 65 50 45 51 64 52 46 53 49 54 63 55 82 56
REMARK SMILES IDX 47 57 48 58 62 60 83 61 50 62 34 63 35 64 43 65 36 66 37 67
REMARK SMILES IDX 41 68 44 69 38 70 39 71 42 72 40 73 66 74 67 75 75 76 68 77
REMARK SMILES IDX 69 78 73 79 76 80 70 81 71 82 74 83 72 84 51 85 52 86 60 87
REMARK SMILES IDX 53 88 54 89 58 90 61 91 55 92 56 93 59 94 57 95
REMARK H PARENT 18 6 8 17 22 29 81 48 49 59
REMARK Flexibility Score: inf
ROOT
ATOM      1  C   UNL A   1      37.222  22.879  25.087  1.00  0.00     0.042 C 
ENDROOT
BRANCH   1   2
ATOM      2  C   UNL A   1      36.519  21.689  25.751  1.00  0.00     0.118 C 
BRANCH   2   3
ATOM      3  N   UNL A   1      35.365  22.142  26.494  1.00  0.00    -0.352 N 
ATOM      4  C   UNL A   1      34.228  22.791  26.104  1.00  0.00     0.256 C 
ATOM      5  O   UNL A   1      33.474  23.138  27.018  1.00  0.00    -0.269 OA
ATOM      6  H   UNL A   1      35.406  21.947  27.457  1.00  0.00     0.163 HD
BRANCH   4   7
ATOM      7  C   UNL A   1      33.811  23.057  24.690  1.00  0.00     0.099 A 
ATOM      8  C   UNL A   1      33.981  24.373  24.200  1.00  0.00     0.057 A 
ATOM      9  C   UNL A   1      33.736  24.674  22.848  1.00  0.00     0.027 A 
ATOM     10  C   UNL A   1      33.187  23.722  21.997  1.00  0.00     0.005 A 
ATOM     11  C   UNL A   1      33.241  22.135  23.806  1.00  0.00     0.138 A 
ATOM     12  C   UNL A   1      32.904  22.463  22.493  1.00  0.00     0.040 A 
ATOM     13  F   UNL A   1      32.959  20.878  24.136  1.00  0.00    -0.206 F 
BRANCH   8  14
ATOM     14  N   UNL A   1      34.308  25.414  25.096  1.00  0.00    -0.321 N 
ATOM     15  C   UNL A   1      33.562  26.506  25.500  1.00  0.00     0.258 C 
ATOM     16  O   UNL A   1      34.082  27.350  26.225  1.00  0.00    -0.269 OA
ATOM     17  H   UNL A   1      35.205  25.352  25.496  1.00  0.00     0.170 HD
BRANCH  15  18
ATOM     18  C   UNL A   1      32.114  26.614  25.170  1.00  0.00     0.075 A 
ATOM     19  C   UNL A   1      27.998  26.703  23.876  1.00  0.00     0.044 C 
ATOM     20  C   UNL A   1      29.417  26.703  24.358  1.00  0.00    -0.048 A 
ATOM     21  C   UNL A   1      29.799  25.908  25.440  1.00  0.00     0.004 A 
ATOM     22  C   UNL A   1      30.370  27.535  23.760  1.00  0.00     0.043 A 
ATOM     23  C   UNL A   1      31.128  25.900  25.869  1.00  0.00     0.017 A 
ATOM     24  C   UNL A   1      31.708  27.477  24.154  1.00  0.00     0.136 A 
ATOM     25  F   UNL A   1      32.586  28.253  23.504  1.00  0.00    -0.206 F 
ENDBRANCH  15  18
ENDBRANCH   8  14
ENDBRANCH   4   7
ENDBRANCH   2   3
ENDBRANCH   1   2
BRANCH   1  26
ATOM     26  C   UNL A   1      37.799  23.799  26.122  1.00  0.00     0.118 C 
BRANCH  26  27
ATOM     27  N   UNL A   1      39.030  23.251  26.680  1.00  0.00    -0.352 N 
ATOM     28  C   UNL A   1      40.147  23.914  27.131  1.00  0.00     0.251 C 
ATOM     29  H   UNL A   1      39.067  22.269  26.742  1.00  0.00     0.163 HD
ATOM     30  O   UNL A   1      41.199  23.315  27.288  1.00  0.00    -0.269 OA
BRANCH  28  31
ATOM     31  C   UNL A   1      40.044  25.345  27.455  1.00  0.00     0.039 A 
ATOM     32  C   UNL A   1      40.389  26.330  26.520  1.00  0.00     0.014 A 
ATOM     33  C   UNL A   1      39.687  25.697  28.750  1.00  0.00     0.014 A 
ATOM     34  C   UNL A   1      40.404  27.664  26.918  1.00  0.00     0.010 A 
ATOM     35  C   UNL A   1      39.476  26.992  29.074  1.00  0.00     0.010 A 
ATOM     36  C   UNL A   1      39.972  27.958  28.207  1.00  0.00    -0.014 A 
BRANCH  36  37
ATOM     37  C   UNL A   1      40.100  29.224  28.886  1.00  0.00     0.031 A 
ATOM     38  C   UNL A   1      38.968  30.144  28.868  1.00  0.00     0.074 A 
ATOM     39  C   UNL A   1      41.119  29.245  29.776  1.00  0.00     0.049 A 
ATOM     40  N   UNL A   1      39.058  31.400  29.102  1.00  0.00    -0.248 NA
ATOM     41  C   UNL A   1      37.610  29.710  28.551  1.00  0.00     0.031 C 
ATOM     42  C   UNL A   1      41.308  30.035  30.978  1.00  0.00     0.029 A 
ATOM     43  N   UNL A   1      42.282  28.452  29.715  1.00  0.00    -0.354 N 
ATOM     44  C   UNL A   1      37.777  31.841  29.359  1.00  0.00     0.074 A 
ATOM     45  C   UNL A   1      36.913  30.817  28.825  1.00  0.00     0.031 C 
ATOM     46  C   UNL A   1      42.603  29.952  31.347  1.00  0.00     0.029 A 
ATOM     47  C   UNL A   1      43.305  29.207  30.308  1.00  0.00     0.049 A 
ATOM     48  H   UNL A   1      42.361  27.549  29.332  1.00  0.00     0.167 HD
ATOM     49  C   UNL A   1      37.624  32.905  30.201  1.00  0.00     0.037 A 
ATOM     50  C   UNL A   1      44.282  29.704  29.490  1.00  0.00     0.037 A 
ATOM     51  C   UNL A   1      38.939  33.315  30.705  1.00  0.00     0.049 A 
ATOM     52  C   UNL A   1      44.173  31.203  29.372  1.00  0.00     0.074 A 
ATOM     53  C   UNL A   1      39.595  33.021  31.890  1.00  0.00     0.029 A 
ATOM     54  N   UNL A   1      39.906  33.785  29.823  1.00  0.00    -0.354 N 
ATOM     55  N   UNL A   1      43.056  31.862  29.521  1.00  0.00    -0.248 NA
ATOM     56  C   UNL A   1      45.317  32.075  29.142  1.00  0.00     0.031 C 
ATOM     57  C   UNL A   1      40.979  33.260  31.693  1.00  0.00     0.029 A 
ATOM     58  C   UNL A   1      41.161  33.699  30.392  1.00  0.00     0.049 A 
ATOM     59  H   UNL A   1      39.721  34.129  28.919  1.00  0.00     0.167 HD
ATOM     60  C   UNL A   1      43.311  33.203  29.468  1.00  0.00     0.074 A 
ATOM     61  C   UNL A   1      44.738  33.287  29.209  1.00  0.00     0.031 C 
ATOM     62  C   UNL A   1      42.340  34.142  29.666  1.00  0.00     0.037 A 
BRANCH  49  63
ATOM     63  C   UNL A   1      36.333  33.362  30.850  1.00  0.00     0.064 A 
ATOM     64  C   UNL A   1      35.437  34.194  30.138  1.00  0.00     0.173 A 
ATOM     65  C   UNL A   1      35.911  33.035  32.153  1.00  0.00     0.173 A 
ATOM     66  F   UNL A   1      35.641  34.510  28.854  1.00  0.00    -0.203 F 
ATOM     67  C   UNL A   1      34.278  34.726  30.709  1.00  0.00     0.198 A 
ATOM     68  C   UNL A   1      34.764  33.591  32.736  1.00  0.00     0.198 A 
ATOM     69  F   UNL A   1      36.549  32.124  32.892  1.00  0.00    -0.203 F 
ATOM     70  F   UNL A   1      33.482  35.517  29.977  1.00  0.00    -0.200 F 
ATOM     71  C   UNL A   1      33.953  34.443  32.017  1.00  0.00     0.200 A 
ATOM     72  F   UNL A   1      34.446  33.282  34.001  1.00  0.00    -0.200 F 
ATOM     73  F   UNL A   1      32.848  34.962  32.570  1.00  0.00    -0.200 F 
ENDBRANCH  49  63
BRANCH  50  74
ATOM     74  C   UNL A   1      44.592  28.751  28.373  1.00  0.00     0.064 A 
ATOM     75  C   UNL A   1      45.107  27.487  28.734  1.00  0.00     0.173 A 
ATOM     76  C   UNL A   1      43.968  28.854  27.120  1.00  0.00     0.173 A 
ATOM     77  F   UNL A   1      45.721  27.330  29.917  1.00  0.00    -0.203 F 
ATOM     78  C   UNL A   1      44.856  26.352  27.963  1.00  0.00     0.198 A 
ATOM     79  C   UNL A   1      43.740  27.715  26.339  1.00  0.00     0.198 A 
ATOM     80  F   UNL A   1      43.466  30.025  26.705  1.00  0.00    -0.203 F 
ATOM     81  F   UNL A   1      45.226  25.143  28.414  1.00  0.00    -0.200 F 
ATOM     82  C   UNL A   1      44.143  26.462  26.784  1.00  0.00     0.200 A 
ATOM     83  F   UNL A   1      43.049  27.817  25.194  1.00  0.00    -0.200 F 
ATOM     84  F   UNL A   1      43.814  25.361  26.095  1.00  0.00    -0.200 F 
ENDBRANCH  50  74
BRANCH  62  85
ATOM     85  C   UNL A   1      42.452  35.599  29.302  1.00  0.00     0.064 A 
ATOM     86  C   UNL A   1      43.267  36.506  29.995  1.00  0.00     0.173 A 
ATOM     87  C   UNL A   1      41.854  36.094  28.117  1.00  0.00     0.173 A 
ATOM     88  F   UNL A   1      44.002  36.124  31.048  1.00  0.00    -0.203 F 
ATOM     89  C   UNL A   1      43.402  37.833  29.587  1.00  0.00     0.198 A 
ATOM     90  C   UNL A   1      42.054  37.397  27.671  1.00  0.00     0.198 A 
ATOM     91  F   UNL A   1      41.084  35.324  27.336  1.00  0.00    -0.203 F 
ATOM     92  F   UNL A   1      44.141  38.677  30.319  1.00  0.00    -0.200 F 
ATOM     93  C   UNL A   1      42.806  38.275  28.421  1.00  0.00     0.200 A 
ATOM     94  F   UNL A   1      41.529  37.787  26.501  1.00  0.00    -0.200 F 
ATOM     95  F   UNL A   1      42.975  39.538  28.009  1.00  0.00    -0.200 F 
ENDBRANCH  62  85
ENDBRANCH  36  37
ENDBRANCH  28  31
ENDBRANCH  26  27
ENDBRANCH   1  26
TORSDOF 12
ENDMDL
