MODEL 1
REMARK VINA RESULT:     -11.8      0.000      0.000
REMARK SMILES O=C(NCCCNC(=O)[C@@H](CCCCl)P(=O)(c1ccccc1)c1ccccc1)c1ccc(-c2c3nc(c(-c4c(F)c(F)c(F)c(F)c4F)c4ccc([nH]4)c(-c4c(F)c(F)c(F)c(F)c4F)c4nc(c(-c5c(F)c(F)c(F)c(F)c5F)c5ccc2[nH]5)C=C4)C=C3)cc1
REMARK SMILES IDX 5 1 4 2 3 3 1 4 2 5 29 7 30 8 91 9 31 10 90 11 32 12 33 13
REMARK SMILES IDX 34 14 84 15 35 16 89 17 83 18 85 19 36 20 88 21 82 22 81 23
REMARK SMILES IDX 37 25 69 26 49 27 68 28 50 29 53 30 67 31 86 32 51 33 52 34
REMARK SMILES IDX 66 36 87 37 54 38 38 39 39 40 47 41 40 42 41 43 45 44 48 45
REMARK SMILES IDX 42 46 43 47 46 48 44 49 70 50 71 51 79 52 72 53 73 54 77 55
REMARK SMILES IDX 80 56 74 57 75 58 78 59 76 60 55 61 56 62 64 63 57 64 58 65
REMARK SMILES IDX 62 66 65 67 59 68 60 69 63 70 61 71 6 72 7 73 8 74 9 76
REMARK SMILES IDX 10 77 11 78 12 79 13 80 14 81 15 82 16 83 17 84 18 85 22 86
REMARK SMILES IDX 19 87 21 88 20 89 23 90 24 91 28 92 25 93 27 94 26 95
REMARK H PARENT 3 6 85 24 53 35 7 75
REMARK Flexibility Score: inf
ROOT
ATOM      1  C   UNL A   1      31.406  32.338  26.569  1.00  0.00     0.042 C 
ENDROOT
BRANCH   1   2
ATOM      2  C   UNL A   1      32.692  32.917  27.122  1.00  0.00     0.118 C 
BRANCH   2   3
ATOM      3  N   UNL A   1      32.485  34.254  27.660  1.00  0.00    -0.352 N 
ATOM      4  O   UNL A   1      32.580  35.881  29.220  1.00  0.00    -0.269 OA
ATOM      5  C   UNL A   1      33.057  34.855  28.758  1.00  0.00     0.251 C 
ATOM      6  H   UNL A   1      31.841  34.810  27.166  1.00  0.00     0.163 HD
BRANCH   5   7
ATOM      7  C   UNL A   1      34.244  34.238  29.389  1.00  0.00     0.039 A 
ATOM      8  C   UNL A   1      34.088  33.269  30.378  1.00  0.00     0.014 A 
ATOM      9  C   UNL A   1      35.524  34.618  28.982  1.00  0.00     0.014 A 
ATOM     10  C   UNL A   1      35.185  32.834  31.100  1.00  0.00     0.010 A 
ATOM     11  C   UNL A   1      36.643  34.053  29.603  1.00  0.00     0.010 A 
ATOM     12  C   UNL A   1      36.478  33.173  30.683  1.00  0.00    -0.014 A 
BRANCH  12  13
ATOM     13  C   UNL A   1      37.628  32.487  31.322  1.00  0.00     0.031 A 
ATOM     14  C   UNL A   1      38.084  32.842  32.705  1.00  0.00     0.074 A 
ATOM     15  C   UNL A   1      38.241  31.507  30.627  1.00  0.00     0.049 A 
ATOM     16  N   UNL A   1      39.082  32.346  33.393  1.00  0.00    -0.248 NA
ATOM     17  C   UNL A   1      37.337  33.896  33.408  1.00  0.00     0.031 C 
ATOM     18  C   UNL A   1      37.880  31.087  29.268  1.00  0.00     0.029 A 
ATOM     19  N   UNL A   1      39.274  30.671  30.963  1.00  0.00    -0.354 N 
ATOM     20  C   UNL A   1      39.099  33.041  34.595  1.00  0.00     0.074 A 
ATOM     21  C   UNL A   1      38.027  34.012  34.535  1.00  0.00     0.031 C 
ATOM     22  C   UNL A   1      38.632  30.038  28.914  1.00  0.00     0.029 A 
ATOM     23  C   UNL A   1      39.594  29.775  29.973  1.00  0.00     0.049 A 
ATOM     24  H   UNL A   1      39.740  30.711  31.829  1.00  0.00     0.167 HD
ATOM     25  C   UNL A   1      39.937  32.874  35.647  1.00  0.00     0.037 A 
ATOM     26  C   UNL A   1      40.578  28.862  29.906  1.00  0.00     0.037 A 
ATOM     27  C   UNL A   1      40.993  31.895  35.691  1.00  0.00     0.049 A 
ATOM     28  C   UNL A   1      41.512  28.733  31.072  1.00  0.00     0.074 A 
ATOM     29  C   UNL A   1      41.879  31.625  36.720  1.00  0.00     0.029 A 
ATOM     30  N   UNL A   1      41.312  31.027  34.653  1.00  0.00    -0.354 N 
ATOM     31  N   UNL A   1      41.505  29.380  32.213  1.00  0.00    -0.248 NA
ATOM     32  C   UNL A   1      42.597  27.753  30.940  1.00  0.00     0.031 C 
ATOM     33  C   UNL A   1      42.770  30.639  36.284  1.00  0.00     0.029 A 
ATOM     34  C   UNL A   1      42.399  30.242  35.009  1.00  0.00     0.049 A 
ATOM     35  H   UNL A   1      40.836  30.976  33.793  1.00  0.00     0.167 HD
ATOM     36  C   UNL A   1      42.566  28.871  32.944  1.00  0.00     0.074 A 
ATOM     37  C   UNL A   1      43.183  27.847  32.124  1.00  0.00     0.031 C 
ATOM     38  C   UNL A   1      42.995  29.224  34.180  1.00  0.00     0.037 A 
BRANCH  25  39
ATOM     39  C   UNL A   1      39.767  33.787  36.829  1.00  0.00     0.064 A 
ATOM     40  C   UNL A   1      40.383  35.048  36.889  1.00  0.00     0.173 A 
ATOM     41  C   UNL A   1      38.936  33.416  37.899  1.00  0.00     0.173 A 
ATOM     42  F   UNL A   1      41.195  35.450  35.901  1.00  0.00    -0.203 F 
ATOM     43  C   UNL A   1      40.193  35.888  37.984  1.00  0.00     0.198 A 
ATOM     44  C   UNL A   1      38.724  34.272  38.976  1.00  0.00     0.198 A 
ATOM     45  F   UNL A   1      38.318  32.226  37.892  1.00  0.00    -0.203 F 
ATOM     46  F   UNL A   1      40.829  37.067  38.040  1.00  0.00    -0.200 F 
ATOM     47  C   UNL A   1      39.357  35.503  39.023  1.00  0.00     0.200 A 
ATOM     48  F   UNL A   1      37.904  33.904  39.970  1.00  0.00    -0.200 F 
ATOM     49  F   UNL A   1      39.169  36.318  40.069  1.00  0.00    -0.200 F 
ENDBRANCH  25  39
BRANCH  26  50
ATOM     50  C   UNL A   1      40.735  28.030  28.686  1.00  0.00     0.064 A 
ATOM     51  C   UNL A   1      40.064  26.808  28.553  1.00  0.00     0.173 A 
ATOM     52  C   UNL A   1      41.547  28.448  27.619  1.00  0.00     0.173 A 
ATOM     53  F   UNL A   1      39.287  26.359  29.550  1.00  0.00    -0.203 F 
ATOM     54  C   UNL A   1      40.216  26.025  27.412  1.00  0.00     0.198 A 
ATOM     55  C   UNL A   1      41.668  27.682  26.462  1.00  0.00     0.198 A 
ATOM     56  F   UNL A   1      42.202  29.616  27.690  1.00  0.00    -0.203 F 
ATOM     57  F   UNL A   1      39.602  24.836  27.332  1.00  0.00    -0.200 F 
ATOM     58  C   UNL A   1      41.011  26.465  26.364  1.00  0.00     0.200 A 
ATOM     59  F   UNL A   1      42.418  28.125  25.444  1.00  0.00    -0.200 F 
ATOM     60  F   UNL A   1      41.149  25.716  25.262  1.00  0.00    -0.200 F 
ENDBRANCH  26  50
BRANCH  38  61
ATOM     61  C   UNL A   1      44.163  28.462  34.737  1.00  0.00     0.064 A 
ATOM     62  C   UNL A   1      45.482  28.914  34.586  1.00  0.00     0.173 A 
ATOM     63  C   UNL A   1      43.953  27.272  35.450  1.00  0.00     0.173 A 
ATOM     64  F   UNL A   1      45.735  30.036  33.895  1.00  0.00    -0.203 F 
ATOM     65  C   UNL A   1      46.550  28.188  35.102  1.00  0.00     0.198 A 
ATOM     66  C   UNL A   1      45.021  26.567  35.996  1.00  0.00     0.198 A 
ATOM     67  F   UNL A   1      42.711  26.798  35.625  1.00  0.00    -0.203 F 
ATOM     68  F   UNL A   1      47.805  28.608  34.896  1.00  0.00    -0.200 F 
ATOM     69  C   UNL A   1      46.318  27.020  35.814  1.00  0.00     0.200 A 
ATOM     70  F   UNL A   1      44.794  25.447  36.696  1.00  0.00    -0.200 F 
ATOM     71  F   UNL A   1      47.348  26.325  36.317  1.00  0.00    -0.200 F 
ENDBRANCH  38  61
ENDBRANCH  12  13
ENDBRANCH   5   7
ENDBRANCH   2   3
ENDBRANCH   1   2
BRANCH   1  72
ATOM     72  C   UNL A   1      31.576  30.866  26.254  1.00  0.00     0.117 C 
BRANCH  72  73
ATOM     73  N   UNL A   1      32.840  30.386  26.772  1.00  0.00    -0.355 N 
ATOM     74  C   UNL A   1      33.595  29.343  26.348  1.00  0.00     0.231 C 
ATOM     75  H   UNL A   1      33.201  30.886  27.540  1.00  0.00     0.163 HD
ATOM     76  O   UNL A   1      34.667  29.144  26.927  1.00  0.00    -0.274 OA
BRANCH  74  77
ATOM     77  C   UNL A   1      33.131  28.423  25.233  1.00  0.00     0.148 C 
BRANCH  77  78
ATOM     78  C   UNL A   1      34.089  28.341  24.036  1.00  0.00     0.023 C 
BRANCH  78  79
ATOM     79  C   UNL A   1      33.590  28.045  22.618  1.00  0.00     0.017 C 
BRANCH  79  80
ATOM     80  C   UNL A   1      33.493  26.577  22.244  1.00  0.00     0.109 C 
ATOM     81  Cl  UNL A   1      31.868  26.158  21.663  1.00  0.00    -0.127 Cl
ENDBRANCH  79  80
ENDBRANCH  78  79
ENDBRANCH  77  78
BRANCH  77  82
ATOM     82  P   UNL A   1      31.986  27.148  25.851  1.00  0.00     0.155 P 
ATOM     83  O   UNL A   1      31.584  27.518  27.270  1.00  0.00    -0.313 OA
BRANCH  82  84
ATOM     84  C   UNL A   1      30.527  27.216  24.779  1.00  0.00     0.017 A 
ATOM     85  C   UNL A   1      30.345  28.359  23.991  1.00  0.00     0.012 A 
ATOM     86  C   UNL A   1      29.535  26.223  24.784  1.00  0.00     0.012 A 
ATOM     87  C   UNL A   1      29.195  28.512  23.225  1.00  0.00     0.001 A 
ATOM     88  C   UNL A   1      28.391  26.370  24.004  1.00  0.00     0.001 A 
ATOM     89  C   UNL A   1      28.219  27.517  23.230  1.00  0.00     0.000 A 
ENDBRANCH  82  84
BRANCH  82  90
ATOM     90  C   UNL A   1      32.476  25.407  25.869  1.00  0.00     0.017 A 
ATOM     91  C   UNL A   1      31.719  24.451  26.571  1.00  0.00     0.012 A 
ATOM     92  C   UNL A   1      33.808  25.075  25.563  1.00  0.00     0.012 A 
ATOM     93  C   UNL A   1      32.295  23.261  27.029  1.00  0.00     0.001 A 
ATOM     94  C   UNL A   1      34.372  23.864  25.982  1.00  0.00     0.001 A 
ATOM     95  C   UNL A   1      33.625  22.975  26.746  1.00  0.00     0.000 A 
ENDBRANCH  82  90
ENDBRANCH  77  82
ENDBRANCH  74  77
ENDBRANCH  72  73
ENDBRANCH   1  72
TORSDOF 16
ENDMDL
MODEL 2
REMARK VINA RESULT:     -11.7      5.663     10.876
REMARK SMILES O=C(NCCCNC(=O)[C@@H](CCCCl)P(=O)(c1ccccc1)c1ccccc1)c1ccc(-c2c3nc(c(-c4c(F)c(F)c(F)c(F)c4F)c4ccc([nH]4)c(-c4c(F)c(F)c(F)c(F)c4F)c4nc(c(-c5c(F)c(F)c(F)c(F)c5F)c5ccc2[nH]5)C=C4)C=C3)cc1
REMARK SMILES IDX 5 1 4 2 3 3 1 4 2 5 29 7 30 8 91 9 31 10 90 11 32 12 33 13
REMARK SMILES IDX 34 14 84 15 35 16 89 17 83 18 85 19 36 20 88 21 82 22 81 23
REMARK SMILES IDX 37 25 69 26 49 27 68 28 50 29 53 30 67 31 86 32 51 33 52 34
REMARK SMILES IDX 66 36 87 37 54 38 38 39 39 40 47 41 40 42 41 43 45 44 48 45
REMARK SMILES IDX 42 46 43 47 46 48 44 49 70 50 71 51 79 52 72 53 73 54 77 55
REMARK SMILES IDX 80 56 74 57 75 58 78 59 76 60 55 61 56 62 64 63 57 64 58 65
REMARK SMILES IDX 62 66 65 67 59 68 60 69 63 70 61 71 6 72 7 73 8 74 9 76
REMARK SMILES IDX 10 77 11 78 12 79 13 80 14 81 15 82 16 83 17 84 18 85 22 86
REMARK SMILES IDX 19 87 21 88 20 89 23 90 24 91 28 92 25 93 27 94 26 95
REMARK H PARENT 3 6 85 24 53 35 7 75
REMARK Flexibility Score: inf
ROOT
ATOM      1  C   UNL A   1      38.232  19.519  25.007  1.00  0.00     0.042 C 
ENDROOT
BRANCH   1   2
ATOM      2  C   UNL A   1      39.303  19.993  25.968  1.00  0.00     0.118 C 
BRANCH   2   3
ATOM      3  N   UNL A   1      40.454  19.100  25.964  1.00  0.00    -0.352 N 
ATOM      4  O   UNL A   1      42.629  18.549  25.738  1.00  0.00    -0.269 OA
ATOM      5  C   UNL A   1      41.796  19.400  26.012  1.00  0.00     0.251 C 
ATOM      6  H   UNL A   1      40.239  18.141  25.922  1.00  0.00     0.163 HD
BRANCH   5   7
ATOM      7  C   UNL A   1      42.222  20.768  26.379  1.00  0.00     0.039 A 
ATOM      8  C   UNL A   1      42.459  21.718  25.387  1.00  0.00     0.014 A 
ATOM      9  C   UNL A   1      42.376  21.111  27.723  1.00  0.00     0.014 A 
ATOM     10  C   UNL A   1      43.040  22.930  25.714  1.00  0.00     0.010 A 
ATOM     11  C   UNL A   1      42.809  22.397  28.063  1.00  0.00     0.010 A 
ATOM     12  C   UNL A   1      43.166  23.308  27.057  1.00  0.00    -0.014 A 
BRANCH  12  13
ATOM     13  C   UNL A   1      43.554  24.707  27.363  1.00  0.00     0.031 A 
ATOM     14  C   UNL A   1      44.945  25.207  27.120  1.00  0.00     0.074 A 
ATOM     15  C   UNL A   1      42.603  25.531  27.846  1.00  0.00     0.049 A 
ATOM     16  N   UNL A   1      45.443  26.395  27.351  1.00  0.00    -0.248 NA
ATOM     17  C   UNL A   1      45.912  24.253  26.555  1.00  0.00     0.031 C 
ATOM     18  C   UNL A   1      41.216  25.143  28.128  1.00  0.00     0.029 A 
ATOM     19  N   UNL A   1      42.639  26.863  28.167  1.00  0.00    -0.354 N 
ATOM     20  C   UNL A   1      46.781  26.327  26.986  1.00  0.00     0.074 A 
ATOM     21  C   UNL A   1      47.026  24.972  26.539  1.00  0.00     0.031 C 
ATOM     22  C   UNL A   1      40.523  26.221  28.516  1.00  0.00     0.029 A 
ATOM     23  C   UNL A   1      41.434  27.351  28.609  1.00  0.00     0.049 A 
ATOM     24  H   UNL A   1      43.450  27.415  28.088  1.00  0.00     0.167 HD
ATOM     25  C   UNL A   1      47.711  27.312  27.021  1.00  0.00     0.037 A 
ATOM     26  C   UNL A   1      41.102  28.568  29.075  1.00  0.00     0.037 A 
ATOM     27  C   UNL A   1      47.444  28.659  27.461  1.00  0.00     0.049 A 
ATOM     28  C   UNL A   1      42.166  29.622  29.139  1.00  0.00     0.074 A 
ATOM     29  C   UNL A   1      48.308  29.739  27.509  1.00  0.00     0.029 A 
ATOM     30  N   UNL A   1      46.218  29.108  27.937  1.00  0.00    -0.354 N 
ATOM     31  N   UNL A   1      43.422  29.552  28.770  1.00  0.00    -0.248 NA
ATOM     32  C   UNL A   1      41.770  30.922  29.693  1.00  0.00     0.031 C 
ATOM     33  C   UNL A   1      47.624  30.822  28.070  1.00  0.00     0.029 A 
ATOM     34  C   UNL A   1      46.313  30.441  28.307  1.00  0.00     0.049 A 
ATOM     35  H   UNL A   1      45.402  28.561  28.002  1.00  0.00     0.167 HD
ATOM     36  C   UNL A   1      43.962  30.803  29.023  1.00  0.00     0.074 A 
ATOM     37  C   UNL A   1      42.889  31.619  29.559  1.00  0.00     0.031 C 
ATOM     38  C   UNL A   1      45.232  31.237  28.834  1.00  0.00     0.037 A 
BRANCH  25  39
ATOM     39  C   UNL A   1      49.112  26.968  26.601  1.00  0.00     0.064 A 
ATOM     40  C   UNL A   1      50.068  26.496  27.515  1.00  0.00     0.173 A 
ATOM     41  C   UNL A   1      49.493  27.066  25.253  1.00  0.00     0.173 A 
ATOM     42  F   UNL A   1      49.763  26.392  28.817  1.00  0.00    -0.203 F 
ATOM     43  C   UNL A   1      51.354  26.161  27.100  1.00  0.00     0.198 A 
ATOM     44  C   UNL A   1      50.770  26.700  24.837  1.00  0.00     0.198 A 
ATOM     45  F   UNL A   1      48.619  27.505  24.335  1.00  0.00    -0.203 F 
ATOM     46  F   UNL A   1      52.263  25.757  27.999  1.00  0.00    -0.200 F 
ATOM     47  C   UNL A   1      51.702  26.255  25.760  1.00  0.00     0.200 A 
ATOM     48  F   UNL A   1      51.098  26.778  23.540  1.00  0.00    -0.200 F 
ATOM     49  F   UNL A   1      52.937  25.922  25.362  1.00  0.00    -0.200 F 
ENDBRANCH  25  39
BRANCH  26  50
ATOM     50  C   UNL A   1      39.714  28.831  29.535  1.00  0.00     0.064 A 
ATOM     51  C   UNL A   1      38.751  29.356  28.663  1.00  0.00     0.173 A 
ATOM     52  C   UNL A   1      39.318  28.548  30.852  1.00  0.00     0.173 A 
ATOM     53  F   UNL A   1      39.085  29.654  27.399  1.00  0.00    -0.203 F 
ATOM     54  C   UNL A   1      37.452  29.609  29.096  1.00  0.00     0.198 A 
ATOM     55  C   UNL A   1      38.008  28.766  31.273  1.00  0.00     0.198 A 
ATOM     56  F   UNL A   1      40.198  28.034  31.723  1.00  0.00    -0.203 F 
ATOM     57  F   UNL A   1      36.564  30.157  28.255  1.00  0.00    -0.200 F 
ATOM     58  C   UNL A   1      37.079  29.307  30.398  1.00  0.00     0.200 A 
ATOM     59  F   UNL A   1      37.648  28.450  32.523  1.00  0.00    -0.200 F 
ATOM     60  F   UNL A   1      35.826  29.542  30.810  1.00  0.00    -0.200 F 
ENDBRANCH  26  50
BRANCH  38  61
ATOM     61  C   UNL A   1      45.516  32.672  29.170  1.00  0.00     0.064 A 
ATOM     62  C   UNL A   1      45.305  33.704  28.244  1.00  0.00     0.173 A 
ATOM     63  C   UNL A   1      45.987  33.019  30.445  1.00  0.00     0.173 A 
ATOM     64  F   UNL A   1      44.875  33.422  27.005  1.00  0.00    -0.203 F 
ATOM     65  C   UNL A   1      45.583  35.027  28.573  1.00  0.00     0.198 A 
ATOM     66  C   UNL A   1      46.230  34.347  30.783  1.00  0.00     0.198 A 
ATOM     67  F   UNL A   1      46.202  32.069  31.368  1.00  0.00    -0.203 F 
ATOM     68  F   UNL A   1      45.430  35.990  27.655  1.00  0.00    -0.200 F 
ATOM     69  C   UNL A   1      46.037  35.348  29.845  1.00  0.00     0.200 A 
ATOM     70  F   UNL A   1      46.654  34.656  32.016  1.00  0.00    -0.200 F 
ATOM     71  F   UNL A   1      46.297  36.624  30.161  1.00  0.00    -0.200 F 
ENDBRANCH  38  61
ENDBRANCH  12  13
ENDBRANCH   5   7
ENDBRANCH   2   3
ENDBRANCH   1   2
BRANCH   1  72
ATOM     72  C   UNL A   1      37.179  20.589  24.812  1.00  0.00     0.117 C 
BRANCH  72  73
ATOM     73  N   UNL A   1      37.645  21.854  25.342  1.00  0.00    -0.355 N 
ATOM     74  C   UNL A   1      36.924  22.902  25.810  1.00  0.00     0.231 C 
ATOM     75  H   UNL A   1      38.623  21.968  25.365  1.00  0.00     0.163 HD
ATOM     76  O   UNL A   1      37.548  23.871  26.251  1.00  0.00    -0.274 OA
BRANCH  74  77
ATOM     77  C   UNL A   1      35.406  22.912  25.760  1.00  0.00     0.148 C 
BRANCH  77  78
ATOM     78  C   UNL A   1      34.726  23.086  27.125  1.00  0.00     0.023 C 
BRANCH  78  79
ATOM     79  C   UNL A   1      33.328  22.529  27.411  1.00  0.00     0.017 C 
BRANCH  79  80
ATOM     80  C   UNL A   1      32.166  23.403  26.972  1.00  0.00     0.109 C 
ATOM     81  Cl  UNL A   1      30.934  22.463  26.105  1.00  0.00    -0.127 Cl
ENDBRANCH  79  80
ENDBRANCH  78  79
ENDBRANCH  77  78
BRANCH  77  82
ATOM     82  P   UNL A   1      34.795  23.421  24.121  1.00  0.00     0.155 P 
ATOM     83  O   UNL A   1      35.971  23.429  23.156  1.00  0.00    -0.313 OA
BRANCH  82  84
ATOM     84  C   UNL A   1      33.608  22.153  23.607  1.00  0.00     0.017 A 
ATOM     85  C   UNL A   1      33.600  20.940  24.307  1.00  0.00     0.012 A 
ATOM     86  C   UNL A   1      32.777  22.302  22.486  1.00  0.00     0.012 A 
ATOM     87  C   UNL A   1      32.782  19.894  23.897  1.00  0.00     0.001 A 
ATOM     88  C   UNL A   1      31.947  21.258  22.085  1.00  0.00     0.001 A 
ATOM     89  C   UNL A   1      31.955  20.053  22.787  1.00  0.00     0.000 A 
ENDBRANCH  82  84
BRANCH  82  90
ATOM     90  C   UNL A   1      33.923  24.993  23.916  1.00  0.00     0.017 A 
ATOM     91  C   UNL A   1      33.651  25.506  22.635  1.00  0.00     0.012 A 
ATOM     92  C   UNL A   1      33.900  25.900  24.991  1.00  0.00     0.012 A 
ATOM     93  C   UNL A   1      33.460  26.876  22.425  1.00  0.00     0.001 A 
ATOM     94  C   UNL A   1      33.664  27.264  24.788  1.00  0.00     0.001 A 
ATOM     95  C   UNL A   1      33.480  27.756  23.500  1.00  0.00     0.000 A 
ENDBRANCH  82  90
ENDBRANCH  77  82
ENDBRANCH  74  77
ENDBRANCH  72  73
ENDBRANCH   1  72
TORSDOF 16
ENDMDL
MODEL 3
REMARK VINA RESULT:     -11.7      0.398      7.343
REMARK SMILES O=C(NCCCNC(=O)[C@@H](CCCCl)P(=O)(c1ccccc1)c1ccccc1)c1ccc(-c2c3nc(c(-c4c(F)c(F)c(F)c(F)c4F)c4ccc([nH]4)c(-c4c(F)c(F)c(F)c(F)c4F)c4nc(c(-c5c(F)c(F)c(F)c(F)c5F)c5ccc2[nH]5)C=C4)C=C3)cc1
REMARK SMILES IDX 5 1 4 2 3 3 1 4 2 5 29 7 30 8 91 9 31 10 90 11 32 12 33 13
REMARK SMILES IDX 34 14 84 15 35 16 89 17 83 18 85 19 36 20 88 21 82 22 81 23
REMARK SMILES IDX 37 25 69 26 49 27 68 28 50 29 53 30 67 31 86 32 51 33 52 34
REMARK SMILES IDX 66 36 87 37 54 38 38 39 39 40 47 41 40 42 41 43 45 44 48 45
REMARK SMILES IDX 42 46 43 47 46 48 44 49 70 50 71 51 79 52 72 53 73 54 77 55
REMARK SMILES IDX 80 56 74 57 75 58 78 59 76 60 55 61 56 62 64 63 57 64 58 65
REMARK SMILES IDX 62 66 65 67 59 68 60 69 63 70 61 71 6 72 7 73 8 74 9 76
REMARK SMILES IDX 10 77 11 78 12 79 13 80 14 81 15 82 16 83 17 84 18 85 22 86
REMARK SMILES IDX 19 87 21 88 20 89 23 90 24 91 28 92 25 93 27 94 26 95
REMARK H PARENT 3 6 85 24 53 35 7 75
REMARK Flexibility Score: inf
ROOT
ATOM      1  C   UNL A   1      31.395  32.276  26.650  1.00  0.00     0.042 C 
ENDROOT
BRANCH   1   2
ATOM      2  C   UNL A   1      32.711  32.869  27.108  1.00  0.00     0.118 C 
BRANCH   2   3
ATOM      3  N   UNL A   1      32.527  34.199  27.673  1.00  0.00    -0.352 N 
ATOM      4  O   UNL A   1      32.659  35.797  29.260  1.00  0.00    -0.269 OA
ATOM      5  C   UNL A   1      33.118  34.774  28.774  1.00  0.00     0.251 C 
ATOM      6  H   UNL A   1      31.884  34.772  27.196  1.00  0.00     0.163 HD
BRANCH   5   7
ATOM      7  C   UNL A   1      34.304  34.131  29.380  1.00  0.00     0.039 A 
ATOM      8  C   UNL A   1      34.149  33.066  30.266  1.00  0.00     0.014 A 
ATOM      9  C   UNL A   1      35.584  34.584  29.054  1.00  0.00     0.014 A 
ATOM     10  C   UNL A   1      35.237  32.593  30.978  1.00  0.00     0.010 A 
ATOM     11  C   UNL A   1      36.701  33.993  29.653  1.00  0.00     0.010 A 
ATOM     12  C   UNL A   1      36.531  33.007  30.638  1.00  0.00    -0.014 A 
BRANCH  12  13
ATOM     13  C   UNL A   1      37.682  32.294  31.244  1.00  0.00     0.031 A 
ATOM     14  C   UNL A   1      38.431  31.233  30.495  1.00  0.00     0.074 A 
ATOM     15  C   UNL A   1      38.056  32.649  32.490  1.00  0.00     0.049 A 
ATOM     16  N   UNL A   1      39.446  30.509  30.894  1.00  0.00    -0.248 NA
ATOM     17  C   UNL A   1      37.982  30.933  29.127  1.00  0.00     0.031 C 
ATOM     18  C   UNL A   1      37.389  33.665  33.311  1.00  0.00     0.029 A 
ATOM     19  N   UNL A   1      39.091  32.220  33.279  1.00  0.00    -0.354 N 
ATOM     20  C   UNL A   1      39.741  29.653  29.841  1.00  0.00     0.074 A 
ATOM     21  C   UNL A   1      38.782  29.930  28.792  1.00  0.00     0.031 C 
ATOM     22  C   UNL A   1      38.066  33.826  34.454  1.00  0.00     0.029 A 
ATOM     23  C   UNL A   1      39.150  32.858  34.494  1.00  0.00     0.049 A 
ATOM     24  H   UNL A   1      39.729  31.524  33.001  1.00  0.00     0.167 HD
ATOM     25  C   UNL A   1      40.726  28.725  29.765  1.00  0.00     0.037 A 
ATOM     26  C   UNL A   1      39.966  32.661  35.545  1.00  0.00     0.037 A 
ATOM     27  C   UNL A   1      41.678  28.471  30.818  1.00  0.00     0.049 A 
ATOM     28  C   UNL A   1      41.019  31.598  35.442  1.00  0.00     0.074 A 
ATOM     29  C   UNL A   1      42.732  27.574  30.831  1.00  0.00     0.029 A 
ATOM     30  N   UNL A   1      41.685  29.111  32.051  1.00  0.00    -0.354 N 
ATOM     31  N   UNL A   1      41.303  30.811  34.433  1.00  0.00    -0.248 NA
ATOM     32  C   UNL A   1      41.859  31.390  36.626  1.00  0.00     0.031 C 
ATOM     33  C   UNL A   1      43.337  27.627  32.090  1.00  0.00     0.029 A 
ATOM     34  C   UNL A   1      42.707  28.608  32.841  1.00  0.00     0.049 A 
ATOM     35  H   UNL A   1      41.057  29.819  32.324  1.00  0.00     0.167 HD
ATOM     36  C   UNL A   1      42.368  30.030  34.849  1.00  0.00     0.074 A 
ATOM     37  C   UNL A   1      42.693  30.454  36.198  1.00  0.00     0.031 C 
ATOM     38  C   UNL A   1      43.017  29.046  34.179  1.00  0.00     0.037 A 
BRANCH  25  39
ATOM     39  C   UNL A   1      40.812  27.895  28.516  1.00  0.00     0.064 A 
ATOM     40  C   UNL A   1      41.588  28.288  27.413  1.00  0.00     0.173 A 
ATOM     41  C   UNL A   1      40.147  26.660  28.437  1.00  0.00     0.173 A 
ATOM     42  F   UNL A   1      42.236  29.462  27.429  1.00  0.00    -0.203 F 
ATOM     43  C   UNL A   1      41.672  27.492  26.273  1.00  0.00     0.198 A 
ATOM     44  C   UNL A   1      40.259  25.852  27.309  1.00  0.00     0.198 A 
ATOM     45  F   UNL A   1      39.397  26.231  29.463  1.00  0.00    -0.203 F 
ATOM     46  F   UNL A   1      42.380  27.910  25.216  1.00  0.00    -0.200 F 
ATOM     47  C   UNL A   1      41.014  26.270  26.225  1.00  0.00     0.200 A 
ATOM     48  F   UNL A   1      39.635  24.667  27.272  1.00  0.00    -0.200 F 
ATOM     49  F   UNL A   1      41.105  25.501  25.132  1.00  0.00    -0.200 F 
ENDBRANCH  25  39
BRANCH  26  50
ATOM     50  C   UNL A   1      39.793  33.471  36.778  1.00  0.00     0.064 A 
ATOM     51  C   UNL A   1      40.529  34.646  36.979  1.00  0.00     0.173 A 
ATOM     52  C   UNL A   1      38.877  33.096  37.773  1.00  0.00     0.173 A 
ATOM     53  F   UNL A   1      41.426  35.040  36.064  1.00  0.00    -0.203 F 
ATOM     54  C   UNL A   1      40.372  35.402  38.138  1.00  0.00     0.198 A 
ATOM     55  C   UNL A   1      38.693  33.873  38.914  1.00  0.00     0.198 A 
ATOM     56  F   UNL A   1      38.139  31.986  37.624  1.00  0.00    -0.203 F 
ATOM     57  F   UNL A   1      41.123  36.495  38.329  1.00  0.00    -0.200 F 
ATOM     58  C   UNL A   1      39.449  35.020  39.101  1.00  0.00     0.200 A 
ATOM     59  F   UNL A   1      37.783  33.512  39.828  1.00  0.00    -0.200 F 
ATOM     60  F   UNL A   1      39.292  35.753  40.211  1.00  0.00    -0.200 F 
ENDBRANCH  26  50
BRANCH  38  61
ATOM     61  C   UNL A   1      44.172  28.394  34.881  1.00  0.00     0.064 A 
ATOM     62  C   UNL A   1      44.012  27.227  35.643  1.00  0.00     0.173 A 
ATOM     63  C   UNL A   1      45.462  28.935  34.770  1.00  0.00     0.173 A 
ATOM     64  F   UNL A   1      42.795  26.683  35.796  1.00  0.00    -0.203 F 
ATOM     65  C   UNL A   1      45.094  26.644  36.293  1.00  0.00     0.198 A 
ATOM     66  C   UNL A   1      46.549  28.328  35.392  1.00  0.00     0.198 A 
ATOM     67  F   UNL A   1      45.670  30.047  34.050  1.00  0.00    -0.203 F 
ATOM     68  F   UNL A   1      44.908  25.563  37.063  1.00  0.00    -0.200 F 
ATOM     69  C   UNL A   1      46.363  27.189  36.160  1.00  0.00     0.200 A 
ATOM     70  F   UNL A   1      47.776  28.848  35.250  1.00  0.00    -0.200 F 
ATOM     71  F   UNL A   1      47.406  26.621  36.781  1.00  0.00    -0.200 F 
ENDBRANCH  38  61
ENDBRANCH  12  13
ENDBRANCH   5   7
ENDBRANCH   2   3
ENDBRANCH   1   2
BRANCH   1  72
ATOM     72  C   UNL A   1      31.534  30.785  26.421  1.00  0.00     0.117 C 
BRANCH  72  73
ATOM     73  N   UNL A   1      32.708  30.280  27.102  1.00  0.00    -0.355 N 
ATOM     74  C   UNL A   1      33.494  29.225  26.780  1.00  0.00     0.231 C 
ATOM     75  H   UNL A   1      32.970  30.772  27.914  1.00  0.00     0.163 HD
ATOM     76  O   UNL A   1      34.474  29.004  27.497  1.00  0.00    -0.274 OA
BRANCH  74  77
ATOM     77  C   UNL A   1      33.169  28.316  25.607  1.00  0.00     0.148 C 
BRANCH  77  78
ATOM     78  C   UNL A   1      34.245  28.281  24.512  1.00  0.00     0.023 C 
BRANCH  78  79
ATOM     79  C   UNL A   1      34.027  28.926  23.141  1.00  0.00     0.017 C 
BRANCH  79  80
ATOM     80  C   UNL A   1      33.758  27.967  21.994  1.00  0.00     0.109 C 
ATOM     81  Cl  UNL A   1      33.483  26.313  22.577  1.00  0.00    -0.127 Cl
ENDBRANCH  79  80
ENDBRANCH  78  79
ENDBRANCH  77  78
BRANCH  77  82
ATOM     82  P   UNL A   1      32.000  27.002  26.083  1.00  0.00     0.155 P 
ATOM     83  O   UNL A   1      31.494  27.302  27.486  1.00  0.00    -0.313 OA
BRANCH  82  84
ATOM     84  C   UNL A   1      30.621  27.104  24.915  1.00  0.00     0.017 A 
ATOM     85  C   UNL A   1      30.574  28.205  24.050  1.00  0.00     0.012 A 
ATOM     86  C   UNL A   1      29.559  26.186  24.912  1.00  0.00     0.012 A 
ATOM     87  C   UNL A   1      29.489  28.390  23.201  1.00  0.00     0.001 A 
ATOM     88  C   UNL A   1      28.480  26.364  24.050  1.00  0.00     0.001 A 
ATOM     89  C   UNL A   1      28.443  27.468  23.200  1.00  0.00     0.000 A 
ENDBRANCH  82  84
BRANCH  82  90
ATOM     90  C   UNL A   1      32.512  25.268  26.058  1.00  0.00     0.017 A 
ATOM     91  C   UNL A   1      31.727  24.274  26.672  1.00  0.00     0.012 A 
ATOM     92  C   UNL A   1      33.864  24.963  25.819  1.00  0.00     0.012 A 
ATOM     93  C   UNL A   1      32.290  23.072  27.113  1.00  0.00     0.001 A 
ATOM     94  C   UNL A   1      34.418  23.742  26.220  1.00  0.00     0.001 A 
ATOM     95  C   UNL A   1      33.639  22.812  26.899  1.00  0.00     0.000 A 
ENDBRANCH  82  90
ENDBRANCH  77  82
ENDBRANCH  74  77
ENDBRANCH  72  73
ENDBRANCH   1  72
TORSDOF 16
ENDMDL
