MODEL 1
REMARK VINA RESULT:     -12.9      0.000      0.000
REMARK SMILES Cn1ncc(C(=O)NCCCNC(=O)c2ccc(-c3c4nc(c(-c5c(F)c(F)c(F)c(F)c5F)c5ccc([nH]5)c(-c5c(F)c(F)c(F)c(F)c5F)c5nc(c(-c6c(F)c(F)c(F)c(F)c6F)c6ccc3[nH]6)C=C5)C=C4)cc2)c1C(=O)Nc1ccccn1
REMARK SMILES IDX 10 1 9 2 8 3 6 4 7 5 5 7 1 8 2 9 3 10 78 11 4 12 79 13 80 14
REMARK SMILES IDX 81 15 82 17 83 18 87 19 84 20 86 21 85 22 11 23 12 24 13 25
REMARK SMILES IDX 14 27 15 28 16 29 77 30 17 31 76 32 18 33 19 34 20 35 70 36
REMARK SMILES IDX 21 37 75 38 69 39 71 40 22 41 74 42 68 43 67 44 23 46 55 47
REMARK SMILES IDX 35 48 54 49 36 50 39 51 53 52 72 53 37 54 38 55 52 57 73 58
REMARK SMILES IDX 40 59 24 60 25 61 33 62 26 63 27 64 31 65 34 66 28 67 29 68
REMARK SMILES IDX 32 69 30 70 56 71 57 72 65 73 58 74 59 75 63 76 66 77 60 78
REMARK SMILES IDX 61 79 64 80 62 81 41 82 42 83 50 84 43 85 44 86 48 87 51 88
REMARK SMILES IDX 45 89 46 90 49 91 47 92
REMARK H PARENT 8 6 81 16 12 26 71 45 39 56
REMARK Flexibility Score: inf
ROOT
ATOM      1  C   UNL A   1      31.652  32.049  26.727  1.00  0.00     0.042 C 
ENDROOT
BRANCH   1   2
ATOM      2  C   UNL A   1      31.763  30.543  26.859  1.00  0.00     0.118 C 
BRANCH   2   3
ATOM      3  N   UNL A   1      32.841  29.969  26.094  1.00  0.00    -0.352 N 
ATOM      4  C   UNL A   1      32.961  28.820  25.364  1.00  0.00     0.255 C 
ATOM      5  O   UNL A   1      34.089  28.627  24.899  1.00  0.00    -0.269 OA
ATOM      6  H   UNL A   1      33.658  30.518  26.097  1.00  0.00     0.163 HD
BRANCH   4   7
ATOM      7  C   UNL A   1      31.912  27.826  25.143  1.00  0.00     0.090 A 
ATOM      8  C   UNL A   1      29.938  25.133  23.773  1.00  0.00     0.174 C 
ATOM      9  N   UNL A   1      30.533  26.223  24.515  1.00  0.00    -0.262 N 
ATOM     10  N   UNL A   1      30.549  26.112  25.851  1.00  0.00    -0.180 NA
ATOM     11  C   UNL A   1      31.212  27.324  24.037  1.00  0.00     0.139 A 
ATOM     12  C   UNL A   1      31.442  27.024  26.220  1.00  0.00     0.149 A 
BRANCH  11  13
ATOM     13  C   UNL A   1      31.321  27.660  22.642  1.00  0.00     0.275 C 
ATOM     14  O   UNL A   1      31.696  26.840  21.803  1.00  0.00    -0.267 OA
ATOM     15  N   UNL A   1      31.184  28.977  22.229  1.00  0.00    -0.305 N 
ATOM     16  H   UNL A   1      31.933  29.392  21.743  1.00  0.00     0.171 HD
BRANCH  15  17
ATOM     17  C   UNL A   1      30.047  29.745  22.464  1.00  0.00     0.132 A 
ATOM     18  C   UNL A   1      29.873  30.517  23.600  1.00  0.00     0.047 A 
ATOM     19  N   UNL A   1      29.129  29.645  21.485  1.00  0.00    -0.239 NA
ATOM     20  C   UNL A   1      28.642  31.157  23.765  1.00  0.00     0.005 A 
ATOM     21  C   UNL A   1      27.943  30.252  21.678  1.00  0.00     0.113 A 
ATOM     22  C   UNL A   1      27.649  31.001  22.801  1.00  0.00     0.020 A 
ENDBRANCH  15  17
ENDBRANCH  11  13
ENDBRANCH   4   7
ENDBRANCH   2   3
ENDBRANCH   1   2
BRANCH   1  23
ATOM     23  C   UNL A   1      32.840  32.813  27.279  1.00  0.00     0.118 C 
BRANCH  23  24
ATOM     24  N   UNL A   1      32.517  34.189  27.638  1.00  0.00    -0.352 N 
ATOM     25  C   UNL A   1      33.025  35.002  28.624  1.00  0.00     0.251 C 
ATOM     26  H   UNL A   1      31.819  34.606  27.083  1.00  0.00     0.163 HD
ATOM     27  O   UNL A   1      32.487  36.078  28.874  1.00  0.00    -0.269 OA
BRANCH  25  28
ATOM     28  C   UNL A   1      34.199  34.572  29.412  1.00  0.00     0.039 A 
ATOM     29  C   UNL A   1      34.011  34.016  30.681  1.00  0.00     0.014 A 
ATOM     30  C   UNL A   1      35.487  34.703  28.894  1.00  0.00     0.014 A 
ATOM     31  C   UNL A   1      35.105  33.499  31.380  1.00  0.00     0.010 A 
ATOM     32  C   UNL A   1      36.551  34.081  29.529  1.00  0.00     0.010 A 
ATOM     33  C   UNL A   1      36.376  33.476  30.782  1.00  0.00    -0.014 A 
BRANCH  33  34
ATOM     34  C   UNL A   1      37.551  32.851  31.439  1.00  0.00     0.031 A 
ATOM     35  C   UNL A   1      38.236  31.687  30.778  1.00  0.00     0.074 A 
ATOM     36  C   UNL A   1      37.927  33.251  32.670  1.00  0.00     0.049 A 
ATOM     37  N   UNL A   1      39.158  30.887  31.250  1.00  0.00    -0.248 NA
ATOM     38  C   UNL A   1      37.791  31.349  29.415  1.00  0.00     0.031 C 
ATOM     39  C   UNL A   1      37.310  34.336  33.436  1.00  0.00     0.029 A 
ATOM     40  N   UNL A   1      38.906  32.772  33.505  1.00  0.00    -0.354 N 
ATOM     41  C   UNL A   1      39.375  29.939  30.259  1.00  0.00     0.074 A 
ATOM     42  C   UNL A   1      38.449  30.223  29.185  1.00  0.00     0.031 C 
ATOM     43  C   UNL A   1      37.937  34.452  34.618  1.00  0.00     0.029 A 
ATOM     44  C   UNL A   1      38.964  33.421  34.716  1.00  0.00     0.049 A 
ATOM     45  H   UNL A   1      39.510  32.034  33.260  1.00  0.00     0.167 HD
ATOM     46  C   UNL A   1      40.284  28.936  30.234  1.00  0.00     0.037 A 
ATOM     47  C   UNL A   1      39.746  33.194  35.788  1.00  0.00     0.037 A 
ATOM     48  C   UNL A   1      41.231  28.686  31.288  1.00  0.00     0.049 A 
ATOM     49  C   UNL A   1      40.750  32.074  35.737  1.00  0.00     0.074 A 
ATOM     50  C   UNL A   1      42.240  27.742  31.334  1.00  0.00     0.029 A 
ATOM     51  N   UNL A   1      41.284  29.391  32.482  1.00  0.00    -0.354 N 
ATOM     52  N   UNL A   1      40.990  31.222  34.770  1.00  0.00    -0.248 NA
ATOM     53  C   UNL A   1      41.595  31.885  36.925  1.00  0.00     0.031 C 
ATOM     54  C   UNL A   1      42.873  27.844  32.577  1.00  0.00     0.029 A 
ATOM     55  C   UNL A   1      42.296  28.888  33.282  1.00  0.00     0.049 A 
ATOM     56  H   UNL A   1      40.690  30.138  32.725  1.00  0.00     0.167 HD
ATOM     57  C   UNL A   1      42.032  30.421  35.216  1.00  0.00     0.074 A 
ATOM     58  C   UNL A   1      42.384  30.893  36.539  1.00  0.00     0.031 C 
ATOM     59  C   UNL A   1      42.643  29.387  34.588  1.00  0.00     0.037 A 
BRANCH  46  60
ATOM     60  C   UNL A   1      40.302  28.041  29.029  1.00  0.00     0.064 A 
ATOM     61  C   UNL A   1      41.042  28.364  27.881  1.00  0.00     0.173 A 
ATOM     62  C   UNL A   1      39.595  26.830  29.032  1.00  0.00     0.173 A 
ATOM     63  F   UNL A   1      41.727  29.516  27.820  1.00  0.00    -0.203 F 
ATOM     64  C   UNL A   1      41.045  27.525  26.769  1.00  0.00     0.198 A 
ATOM     65  C   UNL A   1      39.627  25.977  27.931  1.00  0.00     0.198 A 
ATOM     66  F   UNL A   1      38.874  26.468  30.104  1.00  0.00    -0.203 F 
ATOM     67  F   UNL A   1      41.713  27.883  25.664  1.00  0.00    -0.200 F 
ATOM     68  C   UNL A   1      40.344  26.329  26.798  1.00  0.00     0.200 A 
ATOM     69  F   UNL A   1      38.961  24.814  27.966  1.00  0.00    -0.200 F 
ATOM     70  F   UNL A   1      40.354  25.519  25.731  1.00  0.00    -0.200 F 
ENDBRANCH  46  60
BRANCH  47  71
ATOM     71  C   UNL A   1      39.625  34.057  36.993  1.00  0.00     0.064 A 
ATOM     72  C   UNL A   1      38.845  33.656  38.088  1.00  0.00     0.173 A 
ATOM     73  C   UNL A   1      40.277  35.296  37.079  1.00  0.00     0.173 A 
ATOM     74  F   UNL A   1      38.186  32.488  38.047  1.00  0.00    -0.203 F 
ATOM     75  C   UNL A   1      38.705  34.469  39.210  1.00  0.00     0.198 A 
ATOM     76  C   UNL A   1      40.160  36.095  38.215  1.00  0.00     0.198 A 
ATOM     77  F   UNL A   1      41.040  35.725  36.064  1.00  0.00    -0.203 F 
ATOM     78  F   UNL A   1      37.915  34.081  40.221  1.00  0.00    -0.200 F 
ATOM     79  C   UNL A   1      39.366  35.686  39.276  1.00  0.00     0.200 A 
ATOM     80  F   UNL A   1      40.815  37.262  38.281  1.00  0.00    -0.200 F 
ATOM     81  F   UNL A   1      39.235  36.466  40.357  1.00  0.00    -0.200 F 
ENDBRANCH  47  71
BRANCH  59  82
ATOM     82  C   UNL A   1      43.790  28.727  35.295  1.00  0.00     0.064 A 
ATOM     83  C   UNL A   1      45.114  29.146  35.107  1.00  0.00     0.173 A 
ATOM     84  C   UNL A   1      43.550  27.702  36.223  1.00  0.00     0.173 A 
ATOM     85  F   UNL A   1      45.397  30.112  34.219  1.00  0.00    -0.203 F 
ATOM     86  C   UNL A   1      46.159  28.552  35.809  1.00  0.00     0.198 A 
ATOM     87  C   UNL A   1      44.592  27.131  36.947  1.00  0.00     0.198 A 
ATOM     88  F   UNL A   1      42.299  27.269  36.445  1.00  0.00    -0.203 F 
ATOM     89  F   UNL A   1      47.421  28.940  35.584  1.00  0.00    -0.200 F 
ATOM     90  C   UNL A   1      45.896  27.552  36.735  1.00  0.00     0.200 A 
ATOM     91  F   UNL A   1      44.335  26.177  37.853  1.00  0.00    -0.200 F 
ATOM     92  F   UNL A   1      46.902  26.992  37.422  1.00  0.00    -0.200 F 
ENDBRANCH  59  82
ENDBRANCH  33  34
ENDBRANCH  25  28
ENDBRANCH  23  24
ENDBRANCH   1  23
TORSDOF 12
ENDMDL
MODEL 2
REMARK VINA RESULT:     -12.9      0.099      1.975
REMARK SMILES Cn1ncc(C(=O)NCCCNC(=O)c2ccc(-c3c4nc(c(-c5c(F)c(F)c(F)c(F)c5F)c5ccc([nH]5)c(-c5c(F)c(F)c(F)c(F)c5F)c5nc(c(-c6c(F)c(F)c(F)c(F)c6F)c6ccc3[nH]6)C=C5)C=C4)cc2)c1C(=O)Nc1ccccn1
REMARK SMILES IDX 10 1 9 2 8 3 6 4 7 5 5 7 1 8 2 9 3 10 78 11 4 12 79 13 80 14
REMARK SMILES IDX 81 15 82 17 83 18 87 19 84 20 86 21 85 22 11 23 12 24 13 25
REMARK SMILES IDX 14 27 15 28 16 29 77 30 17 31 76 32 18 33 19 34 20 35 70 36
REMARK SMILES IDX 21 37 75 38 69 39 71 40 22 41 74 42 68 43 67 44 23 46 55 47
REMARK SMILES IDX 35 48 54 49 36 50 39 51 53 52 72 53 37 54 38 55 52 57 73 58
REMARK SMILES IDX 40 59 24 60 25 61 33 62 26 63 27 64 31 65 34 66 28 67 29 68
REMARK SMILES IDX 32 69 30 70 56 71 57 72 65 73 58 74 59 75 63 76 66 77 60 78
REMARK SMILES IDX 61 79 64 80 62 81 41 82 42 83 50 84 43 85 44 86 48 87 51 88
REMARK SMILES IDX 45 89 46 90 49 91 47 92
REMARK H PARENT 8 6 81 16 12 26 71 45 39 56
REMARK Flexibility Score: inf
ROOT
ATOM      1  C   UNL A   1      31.629  31.987  26.759  1.00  0.00     0.042 C 
ENDROOT
BRANCH   1   2
ATOM      2  C   UNL A   1      31.771  30.480  26.839  1.00  0.00     0.118 C 
BRANCH   2   3
ATOM      3  N   UNL A   1      32.827  29.950  26.016  1.00  0.00    -0.352 N 
ATOM      4  C   UNL A   1      32.945  28.818  25.259  1.00  0.00     0.255 C 
ATOM      5  O   UNL A   1      34.056  28.664  24.739  1.00  0.00    -0.269 OA
ATOM      6  H   UNL A   1      33.629  30.521  25.993  1.00  0.00     0.163 HD
BRANCH   4   7
ATOM      7  C   UNL A   1      31.914  27.800  25.065  1.00  0.00     0.090 A 
ATOM      8  C   UNL A   1      29.969  25.058  23.751  1.00  0.00     0.174 C 
ATOM      9  N   UNL A   1      30.556  26.165  24.474  1.00  0.00    -0.262 N 
ATOM     10  N   UNL A   1      30.604  26.060  25.810  1.00  0.00    -0.180 NA
ATOM     11  C   UNL A   1      31.200  27.277  23.977  1.00  0.00     0.139 A 
ATOM     12  C   UNL A   1      31.484  26.994  26.156  1.00  0.00     0.149 A 
BRANCH  11  13
ATOM     13  C   UNL A   1      31.272  27.609  22.578  1.00  0.00     0.275 C 
ATOM     14  O   UNL A   1      31.608  26.780  21.730  1.00  0.00    -0.267 OA
ATOM     15  N   UNL A   1      31.145  28.926  22.166  1.00  0.00    -0.305 N 
ATOM     16  H   UNL A   1      31.886  29.328  21.656  1.00  0.00     0.171 HD
BRANCH  15  17
ATOM     17  C   UNL A   1      30.029  29.714  22.434  1.00  0.00     0.132 A 
ATOM     18  C   UNL A   1      29.899  30.485  23.577  1.00  0.00     0.047 A 
ATOM     19  N   UNL A   1      29.084  29.636  21.478  1.00  0.00    -0.239 NA
ATOM     20  C   UNL A   1      28.684  31.146  23.777  1.00  0.00     0.005 A 
ATOM     21  C   UNL A   1      27.915  30.264  21.705  1.00  0.00     0.113 A 
ATOM     22  C   UNL A   1      27.664  31.013  22.839  1.00  0.00     0.020 A 
ENDBRANCH  15  17
ENDBRANCH  11  13
ENDBRANCH   4   7
ENDBRANCH   2   3
ENDBRANCH   1   2
BRANCH   1  23
ATOM     23  C   UNL A   1      32.818  32.755  27.304  1.00  0.00     0.118 C 
BRANCH  23  24
ATOM     24  N   UNL A   1      32.498  34.136  27.646  1.00  0.00    -0.352 N 
ATOM     25  C   UNL A   1      33.014  34.963  28.615  1.00  0.00     0.251 C 
ATOM     26  H   UNL A   1      31.795  34.545  27.090  1.00  0.00     0.163 HD
ATOM     27  O   UNL A   1      32.477  36.043  28.854  1.00  0.00    -0.269 OA
BRANCH  25  28
ATOM     28  C   UNL A   1      34.194  34.545  29.399  1.00  0.00     0.039 A 
ATOM     29  C   UNL A   1      34.018  34.027  30.686  1.00  0.00     0.014 A 
ATOM     30  C   UNL A   1      35.476  34.650  28.861  1.00  0.00     0.014 A 
ATOM     31  C   UNL A   1      35.117  33.519  31.385  1.00  0.00     0.010 A 
ATOM     32  C   UNL A   1      36.543  34.036  29.500  1.00  0.00     0.010 A 
ATOM     33  C   UNL A   1      36.379  33.469  30.772  1.00  0.00    -0.014 A 
BRANCH  33  34
ATOM     34  C   UNL A   1      37.558  32.852  31.431  1.00  0.00     0.031 A 
ATOM     35  C   UNL A   1      38.253  31.694  30.769  1.00  0.00     0.074 A 
ATOM     36  C   UNL A   1      37.927  33.252  32.663  1.00  0.00     0.049 A 
ATOM     37  N   UNL A   1      39.180  30.901  31.242  1.00  0.00    -0.248 NA
ATOM     38  C   UNL A   1      37.815  31.355  29.405  1.00  0.00     0.031 C 
ATOM     39  C   UNL A   1      37.300  34.331  33.430  1.00  0.00     0.029 A 
ATOM     40  N   UNL A   1      38.908  32.779  33.500  1.00  0.00    -0.354 N 
ATOM     41  C   UNL A   1      39.408  29.956  30.250  1.00  0.00     0.074 A 
ATOM     42  C   UNL A   1      38.482  30.235  29.174  1.00  0.00     0.031 C 
ATOM     43  C   UNL A   1      37.923  34.450  34.613  1.00  0.00     0.029 A 
ATOM     44  C   UNL A   1      38.958  33.426  34.712  1.00  0.00     0.049 A 
ATOM     45  H   UNL A   1      39.518  32.047  33.255  1.00  0.00     0.167 HD
ATOM     46  C   UNL A   1      40.325  28.960  30.226  1.00  0.00     0.037 A 
ATOM     47  C   UNL A   1      39.739  33.204  35.786  1.00  0.00     0.037 A 
ATOM     48  C   UNL A   1      41.271  28.716  31.282  1.00  0.00     0.049 A 
ATOM     49  C   UNL A   1      40.752  32.092  35.735  1.00  0.00     0.074 A 
ATOM     50  C   UNL A   1      42.287  27.780  31.329  1.00  0.00     0.029 A 
ATOM     51  N   UNL A   1      41.315  29.419  32.478  1.00  0.00    -0.354 N 
ATOM     52  N   UNL A   1      41.000  31.244  34.768  1.00  0.00    -0.248 NA
ATOM     53  C   UNL A   1      41.594  31.907  36.925  1.00  0.00     0.031 C 
ATOM     54  C   UNL A   1      42.916  27.884  32.574  1.00  0.00     0.029 A 
ATOM     55  C   UNL A   1      42.329  28.922  33.279  1.00  0.00     0.049 A 
ATOM     56  H   UNL A   1      40.715  30.161  32.720  1.00  0.00     0.167 HD
ATOM     57  C   UNL A   1      42.048  30.450  35.215  1.00  0.00     0.074 A 
ATOM     58  C   UNL A   1      42.393  30.923  36.540  1.00  0.00     0.031 C 
ATOM     59  C   UNL A   1      42.669  29.422  34.587  1.00  0.00     0.037 A 
BRANCH  46  60
ATOM     60  C   UNL A   1      40.353  28.068  29.019  1.00  0.00     0.064 A 
ATOM     61  C   UNL A   1      39.624  26.870  28.969  1.00  0.00     0.173 A 
ATOM     62  C   UNL A   1      41.097  28.429  27.885  1.00  0.00     0.173 A 
ATOM     63  F   UNL A   1      38.906  26.471  30.030  1.00  0.00    -0.203 F 
ATOM     64  C   UNL A   1      39.664  26.051  27.843  1.00  0.00     0.198 A 
ATOM     65  C   UNL A   1      41.108  27.624  26.749  1.00  0.00     0.198 A 
ATOM     66  F   UNL A   1      41.810  29.565  27.875  1.00  0.00    -0.203 F 
ATOM     67  F   UNL A   1      39.005  24.884  27.842  1.00  0.00    -0.200 F 
ATOM     68  C   UNL A   1      40.400  26.432  26.732  1.00  0.00     0.200 A 
ATOM     69  F   UNL A   1      41.808  28.001  25.669  1.00  0.00    -0.200 F 
ATOM     70  F   UNL A   1      40.432  25.647  25.646  1.00  0.00    -0.200 F 
ENDBRANCH  46  60
BRANCH  47  71
ATOM     71  C   UNL A   1      39.608  34.064  36.992  1.00  0.00     0.064 A 
ATOM     72  C   UNL A   1      40.277  35.294  37.073  1.00  0.00     0.173 A 
ATOM     73  C   UNL A   1      38.819  33.679  38.087  1.00  0.00     0.173 A 
ATOM     74  F   UNL A   1      41.058  35.697  36.060  1.00  0.00    -0.203 F 
ATOM     75  C   UNL A   1      40.181  36.094  38.209  1.00  0.00     0.198 A 
ATOM     76  C   UNL A   1      38.700  34.495  39.211  1.00  0.00     0.198 A 
ATOM     77  F   UNL A   1      38.153  32.517  38.059  1.00  0.00    -0.203 F 
ATOM     78  F   UNL A   1      40.870  37.242  38.278  1.00  0.00    -0.200 F 
ATOM     79  C   UNL A   1      39.389  35.697  39.276  1.00  0.00     0.200 A 
ATOM     80  F   UNL A   1      37.920  34.115  40.232  1.00  0.00    -0.200 F 
ATOM     81  F   UNL A   1      39.292  36.468  40.367  1.00  0.00    -0.200 F 
ENDBRANCH  47  71
BRANCH  59  82
ATOM     82  C   UNL A   1      43.819  28.769  35.296  1.00  0.00     0.064 A 
ATOM     83  C   UNL A   1      43.631  27.694  36.175  1.00  0.00     0.173 A 
ATOM     84  C   UNL A   1      45.134  29.187  35.039  1.00  0.00     0.173 A 
ATOM     85  F   UNL A   1      42.391  27.267  36.465  1.00  0.00    -0.203 F 
ATOM     86  C   UNL A   1      44.716  27.071  36.786  1.00  0.00     0.198 A 
ATOM     87  C   UNL A   1      46.218  28.542  35.626  1.00  0.00     0.198 A 
ATOM     88  F   UNL A   1      45.368  30.207  34.199  1.00  0.00    -0.203 F 
ATOM     89  F   UNL A   1      44.511  26.072  37.654  1.00  0.00    -0.200 F 
ATOM     90  C   UNL A   1      46.008  27.489  36.503  1.00  0.00     0.200 A 
ATOM     91  F   UNL A   1      47.467  28.937  35.339  1.00  0.00    -0.200 F 
ATOM     92  F   UNL A   1      47.052  26.878  37.080  1.00  0.00    -0.200 F 
ENDBRANCH  59  82
ENDBRANCH  33  34
ENDBRANCH  25  28
ENDBRANCH  23  24
ENDBRANCH   1  23
TORSDOF 12
ENDMDL
MODEL 3
REMARK VINA RESULT:     -12.8      1.596      2.893
REMARK SMILES Cn1ncc(C(=O)NCCCNC(=O)c2ccc(-c3c4nc(c(-c5c(F)c(F)c(F)c(F)c5F)c5ccc([nH]5)c(-c5c(F)c(F)c(F)c(F)c5F)c5nc(c(-c6c(F)c(F)c(F)c(F)c6F)c6ccc3[nH]6)C=C5)C=C4)cc2)c1C(=O)Nc1ccccn1
REMARK SMILES IDX 10 1 9 2 8 3 6 4 7 5 5 7 1 8 2 9 3 10 78 11 4 12 79 13 80 14
REMARK SMILES IDX 81 15 82 17 83 18 87 19 84 20 86 21 85 22 11 23 12 24 13 25
REMARK SMILES IDX 14 27 15 28 16 29 77 30 17 31 76 32 18 33 19 34 20 35 70 36
REMARK SMILES IDX 21 37 75 38 69 39 71 40 22 41 74 42 68 43 67 44 23 46 55 47
REMARK SMILES IDX 35 48 54 49 36 50 39 51 53 52 72 53 37 54 38 55 52 57 73 58
REMARK SMILES IDX 40 59 24 60 25 61 33 62 26 63 27 64 31 65 34 66 28 67 29 68
REMARK SMILES IDX 32 69 30 70 56 71 57 72 65 73 58 74 59 75 63 76 66 77 60 78
REMARK SMILES IDX 61 79 64 80 62 81 41 82 42 83 50 84 43 85 44 86 48 87 51 88
REMARK SMILES IDX 45 89 46 90 49 91 47 92
REMARK H PARENT 8 6 81 16 12 26 71 45 39 56
REMARK Flexibility Score: inf
ROOT
ATOM      1  C   UNL A   1      31.508  31.871  26.730  1.00  0.00     0.042 C 
ENDROOT
BRANCH   1   2
ATOM      2  C   UNL A   1      31.853  30.543  26.087  1.00  0.00     0.118 C 
BRANCH   2   3
ATOM      3  N   UNL A   1      33.068  29.952  26.589  1.00  0.00    -0.352 N 
ATOM      4  C   UNL A   1      33.888  28.962  26.124  1.00  0.00     0.255 C 
ATOM      5  O   UNL A   1      34.820  28.673  26.882  1.00  0.00    -0.269 OA
ATOM      6  H   UNL A   1      33.370  30.342  27.441  1.00  0.00     0.163 HD
BRANCH   4   7
ATOM      7  C   UNL A   1      33.724  28.224  24.873  1.00  0.00     0.090 A 
ATOM      8  C   UNL A   1      32.436  26.084  22.267  1.00  0.00     0.174 C 
ATOM      9  N   UNL A   1      33.159  26.988  23.135  1.00  0.00    -0.262 N 
ATOM     10  N   UNL A   1      33.656  28.100  22.575  1.00  0.00    -0.180 NA
ATOM     11  C   UNL A   1      33.307  26.937  24.505  1.00  0.00     0.139 A 
ATOM     12  C   UNL A   1      33.921  28.874  23.622  1.00  0.00     0.149 A 
BRANCH  11  13
ATOM     13  C   UNL A   1      32.864  25.838  25.323  1.00  0.00     0.275 C 
ATOM     14  O   UNL A   1      31.686  25.714  25.661  1.00  0.00    -0.267 OA
ATOM     15  N   UNL A   1      33.789  24.989  25.909  1.00  0.00    -0.305 N 
ATOM     16  H   UNL A   1      33.784  24.902  26.890  1.00  0.00     0.171 HD
BRANCH  15  17
ATOM     17  C   UNL A   1      34.725  24.251  25.189  1.00  0.00     0.132 A 
ATOM     18  C   UNL A   1      36.058  24.155  25.550  1.00  0.00     0.047 A 
ATOM     19  N   UNL A   1      34.205  23.658  24.098  1.00  0.00    -0.239 NA
ATOM     20  C   UNL A   1      36.916  23.471  24.684  1.00  0.00     0.005 A 
ATOM     21  C   UNL A   1      35.056  23.025  23.268  1.00  0.00     0.113 A 
ATOM     22  C   UNL A   1      36.412  22.919  23.509  1.00  0.00     0.020 A 
ENDBRANCH  15  17
ENDBRANCH  11  13
ENDBRANCH   4   7
ENDBRANCH   2   3
ENDBRANCH   1   2
BRANCH   1  23
ATOM     23  C   UNL A   1      32.695  32.603  27.324  1.00  0.00     0.118 C 
BRANCH  23  24
ATOM     24  N   UNL A   1      32.414  34.006  27.615  1.00  0.00    -0.352 N 
ATOM     25  C   UNL A   1      32.965  34.858  28.542  1.00  0.00     0.251 C 
ATOM     26  H   UNL A   1      31.712  34.408  27.053  1.00  0.00     0.163 HD
ATOM     27  O   UNL A   1      32.459  35.959  28.744  1.00  0.00    -0.269 OA
BRANCH  25  28
ATOM     28  C   UNL A   1      34.148  34.442  29.324  1.00  0.00     0.039 A 
ATOM     29  C   UNL A   1      33.971  33.873  30.590  1.00  0.00     0.014 A 
ATOM     30  C   UNL A   1      35.432  34.600  28.806  1.00  0.00     0.014 A 
ATOM     31  C   UNL A   1      35.075  33.370  31.283  1.00  0.00     0.010 A 
ATOM     32  C   UNL A   1      36.507  33.991  29.435  1.00  0.00     0.010 A 
ATOM     33  C   UNL A   1      36.345  33.374  30.684  1.00  0.00    -0.014 A 
BRANCH  33  34
ATOM     34  C   UNL A   1      37.532  32.765  31.334  1.00  0.00     0.031 A 
ATOM     35  C   UNL A   1      38.225  31.606  30.671  1.00  0.00     0.074 A 
ATOM     36  C   UNL A   1      37.911  33.172  32.561  1.00  0.00     0.049 A 
ATOM     37  N   UNL A   1      39.160  30.819  31.139  1.00  0.00    -0.248 NA
ATOM     38  C   UNL A   1      37.775  31.259  29.313  1.00  0.00     0.031 C 
ATOM     39  C   UNL A   1      37.287  34.252  33.329  1.00  0.00     0.029 A 
ATOM     40  N   UNL A   1      38.901  32.707  33.391  1.00  0.00    -0.354 N 
ATOM     41  C   UNL A   1      39.382  29.870  30.149  1.00  0.00     0.074 A 
ATOM     42  C   UNL A   1      38.445  30.141  29.081  1.00  0.00     0.031 C 
ATOM     43  C   UNL A   1      37.921  34.379  34.506  1.00  0.00     0.029 A 
ATOM     44  C   UNL A   1      38.960  33.359  34.599  1.00  0.00     0.049 A 
ATOM     45  H   UNL A   1      39.512  31.975  33.144  1.00  0.00     0.167 HD
ATOM     46  C   UNL A   1      40.302  28.878  30.121  1.00  0.00     0.037 A 
ATOM     47  C   UNL A   1      39.752  33.145  35.667  1.00  0.00     0.037 A 
ATOM     48  C   UNL A   1      41.258  28.642  31.169  1.00  0.00     0.049 A 
ATOM     49  C   UNL A   1      40.769  32.036  35.612  1.00  0.00     0.074 A 
ATOM     50  C   UNL A   1      42.279  27.710  31.211  1.00  0.00     0.029 A 
ATOM     51  N   UNL A   1      41.312  29.351  32.361  1.00  0.00    -0.354 N 
ATOM     52  N   UNL A   1      41.012  31.185  34.646  1.00  0.00    -0.248 NA
ATOM     53  C   UNL A   1      41.624  31.861  36.795  1.00  0.00     0.031 C 
ATOM     54  C   UNL A   1      42.919  27.822  32.449  1.00  0.00     0.029 A 
ATOM     55  C   UNL A   1      42.335  28.861  33.155  1.00  0.00     0.049 A 
ATOM     56  H   UNL A   1      40.711  30.091  32.606  1.00  0.00     0.167 HD
ATOM     57  C   UNL A   1      42.066  30.397  35.087  1.00  0.00     0.074 A 
ATOM     58  C   UNL A   1      42.422  30.877  36.406  1.00  0.00     0.031 C 
ATOM     59  C   UNL A   1      42.685  29.368  34.457  1.00  0.00     0.037 A 
BRANCH  46  60
ATOM     60  C   UNL A   1      40.322  27.980  28.918  1.00  0.00     0.064 A 
ATOM     61  C   UNL A   1      41.074  28.293  27.776  1.00  0.00     0.173 A 
ATOM     62  C   UNL A   1      39.604  26.774  28.918  1.00  0.00     0.173 A 
ATOM     63  F   UNL A   1      41.769  29.439  27.718  1.00  0.00    -0.203 F 
ATOM     64  C   UNL A   1      41.079  27.452  26.666  1.00  0.00     0.198 A 
ATOM     65  C   UNL A   1      39.638  25.919  27.820  1.00  0.00     0.198 A 
ATOM     66  F   UNL A   1      38.871  26.422  29.985  1.00  0.00    -0.203 F 
ATOM     67  F   UNL A   1      41.759  27.802  25.565  1.00  0.00    -0.200 F 
ATOM     68  C   UNL A   1      40.368  26.262  26.691  1.00  0.00     0.200 A 
ATOM     69  F   UNL A   1      38.961  24.762  27.852  1.00  0.00    -0.200 F 
ATOM     70  F   UNL A   1      40.379  25.450  25.626  1.00  0.00    -0.200 F 
ENDBRANCH  46  60
BRANCH  47  71
ATOM     71  C   UNL A   1      39.630  34.010  36.870  1.00  0.00     0.064 A 
ATOM     72  C   UNL A   1      38.838  33.616  37.959  1.00  0.00     0.173 A 
ATOM     73  C   UNL A   1      40.292  35.243  36.960  1.00  0.00     0.173 A 
ATOM     74  F   UNL A   1      38.170  32.454  37.914  1.00  0.00    -0.203 F 
ATOM     75  C   UNL A   1      38.696  34.431  39.080  1.00  0.00     0.198 A 
ATOM     76  C   UNL A   1      40.173  36.044  38.095  1.00  0.00     0.198 A 
ATOM     77  F   UNL A   1      41.066  35.665  35.951  1.00  0.00    -0.203 F 
ATOM     78  F   UNL A   1      37.895  34.050  40.085  1.00  0.00    -0.200 F 
ATOM     79  C   UNL A   1      39.368  35.642  39.150  1.00  0.00     0.200 A 
ATOM     80  F   UNL A   1      40.837  37.206  38.165  1.00  0.00    -0.200 F 
ATOM     81  F   UNL A   1      39.235  36.424  40.230  1.00  0.00    -0.200 F 
ENDBRANCH  47  71
BRANCH  59  82
ATOM     82  C   UNL A   1      43.844  28.723  35.158  1.00  0.00     0.064 A 
ATOM     83  C   UNL A   1      45.154  29.202  35.015  1.00  0.00     0.173 A 
ATOM     84  C   UNL A   1      43.628  27.650  36.037  1.00  0.00     0.173 A 
ATOM     85  F   UNL A   1      45.414  30.216  34.175  1.00  0.00    -0.203 F 
ATOM     86  C   UNL A   1      46.208  28.619  35.712  1.00  0.00     0.198 A 
ATOM     87  C   UNL A   1      44.679  27.090  36.756  1.00  0.00     0.198 A 
ATOM     88  F   UNL A   1      42.392  27.160  36.214  1.00  0.00    -0.203 F 
ATOM     89  F   UNL A   1      47.458  29.065  35.529  1.00  0.00    -0.200 F 
ATOM     90  C   UNL A   1      45.969  27.571  36.588  1.00  0.00     0.200 A 
ATOM     91  F   UNL A   1      44.443  26.088  37.615  1.00  0.00    -0.200 F 
ATOM     92  F   UNL A   1      46.983  27.021  37.271  1.00  0.00    -0.200 F 
ENDBRANCH  59  82
ENDBRANCH  33  34
ENDBRANCH  25  28
ENDBRANCH  23  24
ENDBRANCH   1  23
TORSDOF 12
ENDMDL
