MODEL 1
REMARK VINA RESULT:     -12.0      0.000      0.000
REMARK SMILES CC1(C)CCC[C@@]1(CC(=O)NCCCNC(=O)c1ccc(-c2c3nc(c(-c4c(F)c(F)c(F)c(F)c4F)c4ccc([nH]4)c(-c4c(F)c(F)c(F)c(F)c4F)c4nc(c(-c5c(F)c(F)c(F)c(F)c5F)c5ccc2[nH]5)C=C4)C=C3)cc1)[NH+]1CCCCC1
REMARK SMILES IDX 13 1 12 2 11 3 9 4 10 5 8 7 7 8 1 9 2 10 3 11 4 12 5 13 6 14
REMARK SMILES IDX 81 15 82 16 86 17 83 19 85 20 84 21 14 22 15 23 16 24 17 26
REMARK SMILES IDX 18 27 19 28 80 29 20 30 79 31 21 32 22 33 23 34 73 35 24 36
REMARK SMILES IDX 78 37 72 38 74 39 25 40 77 41 71 42 70 43 26 45 58 46 38 47
REMARK SMILES IDX 57 48 39 49 42 50 56 51 75 52 40 53 41 54 55 56 76 57 43 58
REMARK SMILES IDX 27 59 28 60 36 61 29 62 30 63 34 64 37 65 31 66 32 67 35 68
REMARK SMILES IDX 33 69 59 70 60 71 68 72 61 73 62 74 66 75 69 76 63 77 64 78
REMARK SMILES IDX 67 79 65 80 44 81 45 82 53 83 46 84 47 85 51 86 54 87 48 88
REMARK SMILES IDX 49 89 52 90 50 91
REMARK H PARENT 11 6 81 18 15 25 74 44 42 55
REMARK Flexibility Score: inf
ROOT
ATOM      1  C   UNL A   1      33.198  28.996  23.366  1.00  0.00     0.042 C 
ENDROOT
BRANCH   1   2
ATOM      2  C   UNL A   1      32.082  28.025  22.971  1.00  0.00     0.117 C 
BRANCH   2   3
ATOM      3  N   UNL A   1      32.572  26.967  22.099  1.00  0.00    -0.356 N 
ATOM      4  C   UNL A   1      33.362  25.878  22.311  1.00  0.00     0.226 C 
ATOM      5  O   UNL A   1      33.523  25.149  21.329  1.00  0.00    -0.275 OA
ATOM      6  H   UNL A   1      32.271  27.056  21.165  1.00  0.00     0.163 HD
BRANCH   4   7
ATOM      7  C   UNL A   1      33.925  25.524  23.693  1.00  0.00     0.169 C 
BRANCH   7   8
ATOM      8  C   UNL A   1      33.489  24.188  24.439  1.00  0.00     0.112 C 
ATOM      9  C   UNL A   1      35.667  23.305  25.680  1.00  0.00     0.018 C 
ATOM     10  C   UNL A   1      34.743  23.151  24.462  1.00  0.00     0.020 C 
ATOM     11  C   UNL A   1      35.671  23.221  23.214  1.00  0.00     0.018 C 
ATOM     12  C   UNL A   1      34.096  21.749  24.416  1.00  0.00     0.013 C 
ATOM     13  C   UNL A   1      32.872  21.911  23.539  1.00  0.00     0.007 C 
ATOM     14  C   UNL A   1      32.501  23.389  23.563  1.00  0.00     0.070 C 
BRANCH   8  15
ATOM     15  N   UNL A   1      32.969  24.467  25.828  1.00  0.00    -0.329 N 
ATOM     16  C   UNL A   1      32.112  23.511  26.542  1.00  0.00     0.262 C 
ATOM     17  C   UNL A   1      32.455  25.812  26.134  1.00  0.00     0.262 C 
ATOM     18  H   UNL A   1      33.914  24.340  26.192  1.00  0.00     0.348 HD
ATOM     19  C   UNL A   1      30.620  23.579  26.207  1.00  0.00     0.062 C 
ATOM     20  C   UNL A   1      31.025  26.037  25.642  1.00  0.00     0.062 C 
ATOM     21  C   UNL A   1      30.066  25.003  26.230  1.00  0.00     0.012 C 
ENDBRANCH   8  15
ENDBRANCH   7   8
ENDBRANCH   4   7
ENDBRANCH   2   3
ENDBRANCH   1   2
BRANCH   1  22
ATOM     22  C   UNL A   1      33.452  29.060  24.866  1.00  0.00     0.118 C 
BRANCH  22  23
ATOM     23  N   UNL A   1      32.841  30.234  25.463  1.00  0.00    -0.352 N 
ATOM     24  C   UNL A   1      33.149  30.885  26.627  1.00  0.00     0.251 C 
ATOM     25  H   UNL A   1      32.092  30.621  24.954  1.00  0.00     0.163 HD
ATOM     26  O   UNL A   1      32.338  31.695  27.094  1.00  0.00    -0.269 OA
BRANCH  24  27
ATOM     27  C   UNL A   1      34.421  30.640  27.348  1.00  0.00     0.039 A 
ATOM     28  C   UNL A   1      34.693  29.347  27.811  1.00  0.00     0.014 A 
ATOM     29  C   UNL A   1      35.310  31.675  27.653  1.00  0.00     0.014 A 
ATOM     30  C   UNL A   1      35.854  29.091  28.548  1.00  0.00     0.010 A 
ATOM     31  C   UNL A   1      36.511  31.404  28.308  1.00  0.00     0.010 A 
ATOM     32  C   UNL A   1      36.783  30.115  28.791  1.00  0.00    -0.014 A 
BRANCH  32  33
ATOM     33  C   UNL A   1      38.007  29.874  29.601  1.00  0.00     0.031 A 
ATOM     34  C   UNL A   1      39.088  28.963  29.079  1.00  0.00     0.074 A 
ATOM     35  C   UNL A   1      38.133  30.429  30.821  1.00  0.00     0.049 A 
ATOM     36  N   UNL A   1      40.193  28.566  29.660  1.00  0.00    -0.248 NA
ATOM     37  C   UNL A   1      38.886  28.398  27.735  1.00  0.00     0.031 C 
ATOM     38  C   UNL A   1      37.143  31.294  31.463  1.00  0.00     0.029 A 
ATOM     39  N   UNL A   1      39.146  30.339  31.746  1.00  0.00    -0.354 N 
ATOM     40  C   UNL A   1      40.796  27.688  28.768  1.00  0.00     0.074 A 
ATOM     41  C   UNL A   1      39.915  27.571  27.628  1.00  0.00     0.031 C 
ATOM     42  C   UNL A   1      37.604  31.672  32.667  1.00  0.00     0.029 A 
ATOM     43  C   UNL A   1      38.906  31.050  32.895  1.00  0.00     0.049 A 
ATOM     44  H   UNL A   1      39.964  29.814  31.597  1.00  0.00     0.167 HD
ATOM     45  C   UNL A   1      41.989  27.053  28.878  1.00  0.00     0.037 A 
ATOM     46  C   UNL A   1      39.651  31.183  34.010  1.00  0.00     0.037 A 
ATOM     47  C   UNL A   1      42.891  27.207  29.988  1.00  0.00     0.049 A 
ATOM     48  C   UNL A   1      40.983  30.490  34.096  1.00  0.00     0.074 A 
ATOM     49  C   UNL A   1      44.154  26.668  30.155  1.00  0.00     0.029 A 
ATOM     50  N   UNL A   1      42.624  27.962  31.120  1.00  0.00    -0.354 N 
ATOM     51  N   UNL A   1      41.569  29.712  33.219  1.00  0.00    -0.248 NA
ATOM     52  C   UNL A   1      41.760  30.700  35.327  1.00  0.00     0.031 C 
ATOM     53  C   UNL A   1      44.639  27.068  31.405  1.00  0.00     0.029 A 
ATOM     54  C   UNL A   1      43.694  27.890  31.998  1.00  0.00     0.049 A 
ATOM     55  H   UNL A   1      41.799  28.475  31.277  1.00  0.00     0.167 HD
ATOM     56  C   UNL A   1      42.791  29.360  33.778  1.00  0.00     0.074 A 
ATOM     57  C   UNL A   1      42.868  30.020  35.065  1.00  0.00     0.031 C 
ATOM     58  C   UNL A   1      43.759  28.560  33.271  1.00  0.00     0.037 A 
BRANCH  45  59
ATOM     59  C   UNL A   1      42.391  26.136  27.760  1.00  0.00     0.064 A 
ATOM     60  C   UNL A   1      43.272  26.549  26.749  1.00  0.00     0.173 A 
ATOM     61  C   UNL A   1      41.918  24.816  27.718  1.00  0.00     0.173 A 
ATOM     62  F   UNL A   1      43.744  27.805  26.737  1.00  0.00    -0.203 F 
ATOM     63  C   UNL A   1      43.638  25.685  25.720  1.00  0.00     0.198 A 
ATOM     64  C   UNL A   1      42.310  23.946  26.704  1.00  0.00     0.198 A 
ATOM     65  F   UNL A   1      41.080  24.368  28.664  1.00  0.00    -0.203 F 
ATOM     66  F   UNL A   1      44.442  26.118  24.739  1.00  0.00    -0.200 F 
ATOM     67  C   UNL A   1      43.163  24.384  25.702  1.00  0.00     0.200 A 
ATOM     68  F   UNL A   1      41.859  22.683  26.693  1.00  0.00    -0.200 F 
ATOM     69  F   UNL A   1      43.521  23.552  24.714  1.00  0.00    -0.200 F 
ENDBRANCH  45  59
BRANCH  46  70
ATOM     70  C   UNL A   1      39.162  32.032  35.126  1.00  0.00     0.064 A 
ATOM     71  C   UNL A   1      39.407  33.412  35.140  1.00  0.00     0.173 A 
ATOM     72  C   UNL A   1      38.438  31.487  36.196  1.00  0.00     0.173 A 
ATOM     73  F   UNL A   1      40.114  33.975  34.149  1.00  0.00    -0.203 F 
ATOM     74  C   UNL A   1      38.961  34.212  36.189  1.00  0.00     0.198 A 
ATOM     75  C   UNL A   1      37.970  32.292  37.233  1.00  0.00     0.198 A 
ATOM     76  F   UNL A   1      38.173  30.172  36.228  1.00  0.00    -0.203 F 
ATOM     77  F   UNL A   1      39.243  35.522  36.197  1.00  0.00    -0.200 F 
ATOM     78  C   UNL A   1      38.238  33.652  37.232  1.00  0.00     0.200 A 
ATOM     79  F   UNL A   1      37.261  31.749  38.232  1.00  0.00    -0.200 F 
ATOM     80  F   UNL A   1      37.804  34.423  38.238  1.00  0.00    -0.200 F 
ENDBRANCH  46  70
BRANCH  58  81
ATOM     81  C   UNL A   1      45.000  28.375  34.093  1.00  0.00     0.064 A 
ATOM     82  C   UNL A   1      45.131  27.310  34.995  1.00  0.00     0.173 A 
ATOM     83  C   UNL A   1      46.087  29.250  33.945  1.00  0.00     0.173 A 
ATOM     84  F   UNL A   1      44.114  26.455  35.182  1.00  0.00    -0.203 F 
ATOM     85  C   UNL A   1      46.298  27.138  35.734  1.00  0.00     0.198 A 
ATOM     86  C   UNL A   1      47.262  29.061  34.666  1.00  0.00     0.198 A 
ATOM     87  F   UNL A   1      46.012  30.282  33.090  1.00  0.00    -0.203 F 
ATOM     88  F   UNL A   1      46.387  26.137  36.620  1.00  0.00    -0.200 F 
ATOM     89  C   UNL A   1      47.364  28.010  35.564  1.00  0.00     0.200 A 
ATOM     90  F   UNL A   1      48.296  29.897  34.492  1.00  0.00    -0.200 F 
ATOM     91  F   UNL A   1      48.490  27.838  36.272  1.00  0.00    -0.200 F 
ENDBRANCH  58  81
ENDBRANCH  32  33
ENDBRANCH  24  27
ENDBRANCH  22  23
ENDBRANCH   1  22
TORSDOF 12
ENDMDL
MODEL 2
REMARK VINA RESULT:     -12.0      0.112      1.624
REMARK SMILES CC1(C)CCC[C@@]1(CC(=O)NCCCNC(=O)c1ccc(-c2c3nc(c(-c4c(F)c(F)c(F)c(F)c4F)c4ccc([nH]4)c(-c4c(F)c(F)c(F)c(F)c4F)c4nc(c(-c5c(F)c(F)c(F)c(F)c5F)c5ccc2[nH]5)C=C4)C=C3)cc1)[NH+]1CCCCC1
REMARK SMILES IDX 13 1 12 2 11 3 9 4 10 5 8 7 7 8 1 9 2 10 3 11 4 12 5 13 6 14
REMARK SMILES IDX 81 15 82 16 86 17 83 19 85 20 84 21 14 22 15 23 16 24 17 26
REMARK SMILES IDX 18 27 19 28 80 29 20 30 79 31 21 32 22 33 23 34 73 35 24 36
REMARK SMILES IDX 78 37 72 38 74 39 25 40 77 41 71 42 70 43 26 45 58 46 38 47
REMARK SMILES IDX 57 48 39 49 42 50 56 51 75 52 40 53 41 54 55 56 76 57 43 58
REMARK SMILES IDX 27 59 28 60 36 61 29 62 30 63 34 64 37 65 31 66 32 67 35 68
REMARK SMILES IDX 33 69 59 70 60 71 68 72 61 73 62 74 66 75 69 76 63 77 64 78
REMARK SMILES IDX 67 79 65 80 44 81 45 82 53 83 46 84 47 85 51 86 54 87 48 88
REMARK SMILES IDX 49 89 52 90 50 91
REMARK H PARENT 11 6 81 18 15 25 74 44 42 55
REMARK Flexibility Score: inf
ROOT
ATOM      1  C   UNL A   1      33.204  28.985  23.431  1.00  0.00     0.042 C 
ENDROOT
BRANCH   1   2
ATOM      2  C   UNL A   1      32.106  27.989  23.047  1.00  0.00     0.117 C 
BRANCH   2   3
ATOM      3  N   UNL A   1      32.607  26.947  22.163  1.00  0.00    -0.356 N 
ATOM      4  C   UNL A   1      33.415  25.869  22.361  1.00  0.00     0.226 C 
ATOM      5  O   UNL A   1      33.582  25.151  21.372  1.00  0.00    -0.275 OA
ATOM      6  H   UNL A   1      32.300  27.041  21.232  1.00  0.00     0.163 HD
BRANCH   4   7
ATOM      7  C   UNL A   1      33.989  25.510  23.738  1.00  0.00     0.169 C 
BRANCH   7   8
ATOM      8  C   UNL A   1      33.552  24.177  24.487  1.00  0.00     0.112 C 
ATOM      9  C   UNL A   1      35.717  23.322  25.772  1.00  0.00     0.018 C 
ATOM     10  C   UNL A   1      34.814  23.151  24.540  1.00  0.00     0.020 C 
ATOM     11  C   UNL A   1      35.763  23.218  23.307  1.00  0.00     0.018 C 
ATOM     12  C   UNL A   1      34.180  21.743  24.495  1.00  0.00     0.013 C 
ATOM     13  C   UNL A   1      32.970  21.887  23.596  1.00  0.00     0.007 C 
ATOM     14  C   UNL A   1      32.586  23.362  23.601  1.00  0.00     0.070 C 
BRANCH   8  15
ATOM     15  N   UNL A   1      33.007  24.462  25.866  1.00  0.00    -0.329 N 
ATOM     16  C   UNL A   1      32.220  23.470  26.609  1.00  0.00     0.262 C 
ATOM     17  C   UNL A   1      32.393  25.775  26.125  1.00  0.00     0.262 C 
ATOM     18  H   UNL A   1      33.957  24.419  26.235  1.00  0.00     0.348 HD
ATOM     19  C   UNL A   1      30.729  23.415  26.270  1.00  0.00     0.062 C 
ATOM     20  C   UNL A   1      30.953  25.877  25.623  1.00  0.00     0.062 C 
ATOM     21  C   UNL A   1      30.070  24.794  26.243  1.00  0.00     0.012 C 
ENDBRANCH   8  15
ENDBRANCH   7   8
ENDBRANCH   4   7
ENDBRANCH   2   3
ENDBRANCH   1   2
BRANCH   1  22
ATOM     22  C   UNL A   1      33.464  29.064  24.929  1.00  0.00     0.118 C 
BRANCH  22  23
ATOM     23  N   UNL A   1      32.866  30.251  25.514  1.00  0.00    -0.352 N 
ATOM     24  C   UNL A   1      33.186  30.915  26.667  1.00  0.00     0.251 C 
ATOM     25  H   UNL A   1      32.116  30.637  25.005  1.00  0.00     0.163 HD
ATOM     26  O   UNL A   1      32.385  31.737  27.128  1.00  0.00    -0.269 OA
BRANCH  24  27
ATOM     27  C   UNL A   1      34.462  30.670  27.383  1.00  0.00     0.039 A 
ATOM     28  C   UNL A   1      34.695  29.401  27.924  1.00  0.00     0.014 A 
ATOM     29  C   UNL A   1      35.392  31.690  27.606  1.00  0.00     0.014 A 
ATOM     30  C   UNL A   1      35.860  29.150  28.658  1.00  0.00     0.010 A 
ATOM     31  C   UNL A   1      36.595  31.417  28.259  1.00  0.00     0.010 A 
ATOM     32  C   UNL A   1      36.828  30.153  28.820  1.00  0.00    -0.014 A 
BRANCH  32  33
ATOM     33  C   UNL A   1      38.057  29.919  29.625  1.00  0.00     0.031 A 
ATOM     34  C   UNL A   1      39.144  29.019  29.096  1.00  0.00     0.074 A 
ATOM     35  C   UNL A   1      38.183  30.472  30.846  1.00  0.00     0.049 A 
ATOM     36  N   UNL A   1      40.254  28.629  29.673  1.00  0.00    -0.248 NA
ATOM     37  C   UNL A   1      38.942  28.456  27.752  1.00  0.00     0.031 C 
ATOM     38  C   UNL A   1      37.188  31.327  31.494  1.00  0.00     0.029 A 
ATOM     39  N   UNL A   1      39.200  30.388  31.767  1.00  0.00    -0.354 N 
ATOM     40  C   UNL A   1      40.862  27.758  28.776  1.00  0.00     0.074 A 
ATOM     41  C   UNL A   1      39.977  27.638  27.639  1.00  0.00     0.031 C 
ATOM     42  C   UNL A   1      37.651  31.706  32.697  1.00  0.00     0.029 A 
ATOM     43  C   UNL A   1      38.959  31.094  32.919  1.00  0.00     0.049 A 
ATOM     44  H   UNL A   1      40.022  29.870  31.614  1.00  0.00     0.167 HD
ATOM     45  C   UNL A   1      42.060  27.133  28.880  1.00  0.00     0.037 A 
ATOM     46  C   UNL A   1      39.706  31.229  34.031  1.00  0.00     0.037 A 
ATOM     47  C   UNL A   1      42.964  27.291  29.987  1.00  0.00     0.049 A 
ATOM     48  C   UNL A   1      41.044  30.547  34.112  1.00  0.00     0.074 A 
ATOM     49  C   UNL A   1      44.233  26.763  30.148  1.00  0.00     0.029 A 
ATOM     50  N   UNL A   1      42.696  28.042  31.122  1.00  0.00    -0.354 N 
ATOM     51  N   UNL A   1      41.634  29.777  33.230  1.00  0.00    -0.248 NA
ATOM     52  C   UNL A   1      41.824  30.760  35.340  1.00  0.00     0.031 C 
ATOM     53  C   UNL A   1      44.719  27.163  31.398  1.00  0.00     0.029 A 
ATOM     54  C   UNL A   1      43.769  27.976  31.996  1.00  0.00     0.049 A 
ATOM     55  H   UNL A   1      41.867  28.547  31.283  1.00  0.00     0.167 HD
ATOM     56  C   UNL A   1      42.860  29.433  33.784  1.00  0.00     0.074 A 
ATOM     57  C   UNL A   1      42.936  30.090  35.072  1.00  0.00     0.031 C 
ATOM     58  C   UNL A   1      43.833  28.642  33.271  1.00  0.00     0.037 A 
BRANCH  45  59
ATOM     59  C   UNL A   1      42.466  26.222  27.758  1.00  0.00     0.064 A 
ATOM     60  C   UNL A   1      43.320  26.654  26.732  1.00  0.00     0.173 A 
ATOM     61  C   UNL A   1      42.023  24.892  27.727  1.00  0.00     0.173 A 
ATOM     62  F   UNL A   1      43.763  27.920  26.709  1.00  0.00    -0.203 F 
ATOM     63  C   UNL A   1      43.690  25.796  25.699  1.00  0.00     0.198 A 
ATOM     64  C   UNL A   1      42.419  24.028  26.708  1.00  0.00     0.198 A 
ATOM     65  F   UNL A   1      41.211  24.427  28.687  1.00  0.00    -0.203 F 
ATOM     66  F   UNL A   1      44.468  26.245  24.704  1.00  0.00    -0.200 F 
ATOM     67  C   UNL A   1      43.246  24.483  25.692  1.00  0.00     0.200 A 
ATOM     68  F   UNL A   1      41.998  22.756  26.708  1.00  0.00    -0.200 F 
ATOM     69  F   UNL A   1      43.606  23.657  24.700  1.00  0.00    -0.200 F 
ENDBRANCH  45  59
BRANCH  46  70
ATOM     70  C   UNL A   1      39.214  32.072  35.152  1.00  0.00     0.064 A 
ATOM     71  C   UNL A   1      38.488  31.508  36.210  1.00  0.00     0.173 A 
ATOM     72  C   UNL A   1      39.462  33.452  35.193  1.00  0.00     0.173 A 
ATOM     73  F   UNL A   1      38.208  30.196  36.204  1.00  0.00    -0.203 F 
ATOM     74  C   UNL A   1      38.015  32.293  37.258  1.00  0.00     0.198 A 
ATOM     75  C   UNL A   1      39.010  34.232  36.254  1.00  0.00     0.198 A 
ATOM     76  F   UNL A   1      40.156  34.039  34.206  1.00  0.00    -0.203 F 
ATOM     77  F   UNL A   1      37.290  31.735  38.237  1.00  0.00    -0.200 F 
ATOM     78  C   UNL A   1      38.282  33.654  37.282  1.00  0.00     0.200 A 
ATOM     79  F   UNL A   1      39.281  35.545  36.280  1.00  0.00    -0.200 F 
ATOM     80  F   UNL A   1      37.831  34.409  38.293  1.00  0.00    -0.200 F 
ENDBRANCH  46  70
BRANCH  58  81
ATOM     81  C   UNL A   1      45.079  28.465  34.088  1.00  0.00     0.064 A 
ATOM     82  C   UNL A   1      46.160  29.351  33.979  1.00  0.00     0.173 A 
ATOM     83  C   UNL A   1      45.173  27.422  35.022  1.00  0.00     0.173 A 
ATOM     84  F   UNL A   1      46.122  30.354  33.089  1.00  0.00    -0.203 F 
ATOM     85  C   UNL A   1      47.300  29.187  34.761  1.00  0.00     0.198 A 
ATOM     86  C   UNL A   1      46.304  27.277  35.821  1.00  0.00     0.198 A 
ATOM     87  F   UNL A   1      44.162  26.552  35.168  1.00  0.00    -0.203 F 
ATOM     88  F   UNL A   1      48.338  30.021  34.611  1.00  0.00    -0.200 F 
ATOM     89  C   UNL A   1      47.368  28.155  35.685  1.00  0.00     0.200 A 
ATOM     90  F   UNL A   1      46.363  26.286  36.722  1.00  0.00    -0.200 F 
ATOM     91  F   UNL A   1      48.464  28.004  36.442  1.00  0.00    -0.200 F 
ENDBRANCH  58  81
ENDBRANCH  32  33
ENDBRANCH  24  27
ENDBRANCH  22  23
ENDBRANCH   1  22
TORSDOF 12
ENDMDL
MODEL 3
REMARK VINA RESULT:     -12.0      0.550      2.077
REMARK SMILES CC1(C)CCC[C@@]1(CC(=O)NCCCNC(=O)c1ccc(-c2c3nc(c(-c4c(F)c(F)c(F)c(F)c4F)c4ccc([nH]4)c(-c4c(F)c(F)c(F)c(F)c4F)c4nc(c(-c5c(F)c(F)c(F)c(F)c5F)c5ccc2[nH]5)C=C4)C=C3)cc1)[NH+]1CCCCC1
REMARK SMILES IDX 13 1 12 2 11 3 9 4 10 5 8 7 7 8 1 9 2 10 3 11 4 12 5 13 6 14
REMARK SMILES IDX 81 15 82 16 86 17 83 19 85 20 84 21 14 22 15 23 16 24 17 26
REMARK SMILES IDX 18 27 19 28 80 29 20 30 79 31 21 32 22 33 23 34 73 35 24 36
REMARK SMILES IDX 78 37 72 38 74 39 25 40 77 41 71 42 70 43 26 45 58 46 38 47
REMARK SMILES IDX 57 48 39 49 42 50 56 51 75 52 40 53 41 54 55 56 76 57 43 58
REMARK SMILES IDX 27 59 28 60 36 61 29 62 30 63 34 64 37 65 31 66 32 67 35 68
REMARK SMILES IDX 33 69 59 70 60 71 68 72 61 73 62 74 66 75 69 76 63 77 64 78
REMARK SMILES IDX 67 79 65 80 44 81 45 82 53 83 46 84 47 85 51 86 54 87 48 88
REMARK SMILES IDX 49 89 52 90 50 91
REMARK H PARENT 11 6 81 18 15 25 74 44 42 55
REMARK Flexibility Score: inf
ROOT
ATOM      1  C   UNL A   1      33.378  29.111  23.411  1.00  0.00     0.042 C 
ENDROOT
BRANCH   1   2
ATOM      2  C   UNL A   1      32.226  28.256  22.875  1.00  0.00     0.117 C 
BRANCH   2   3
ATOM      3  N   UNL A   1      32.710  27.143  22.071  1.00  0.00    -0.356 N 
ATOM      4  C   UNL A   1      33.364  25.989  22.380  1.00  0.00     0.226 C 
ATOM      5  O   UNL A   1      33.566  25.231  21.428  1.00  0.00    -0.275 OA
ATOM      6  H   UNL A   1      32.528  27.244  21.109  1.00  0.00     0.163 HD
BRANCH   4   7
ATOM      7  C   UNL A   1      33.727  25.606  23.821  1.00  0.00     0.169 C 
BRANCH   7   8
ATOM      8  C   UNL A   1      33.274  24.212  24.439  1.00  0.00     0.112 C 
ATOM      9  C   UNL A   1      30.963  23.615  23.269  1.00  0.00     0.018 C 
ATOM     10  C   UNL A   1      31.650  24.166  24.529  1.00  0.00     0.020 C 
ATOM     11  C   UNL A   1      30.972  25.538  24.816  1.00  0.00     0.018 C 
ATOM     12  C   UNL A   1      31.348  23.291  25.766  1.00  0.00     0.013 C 
ATOM     13  C   UNL A   1      32.454  23.610  26.750  1.00  0.00     0.007 C 
ATOM     14  C   UNL A   1      33.624  24.158  25.941  1.00  0.00     0.070 C 
BRANCH   8  15
ATOM     15  N   UNL A   1      33.823  23.046  23.652  1.00  0.00    -0.329 N 
ATOM     16  C   UNL A   1      33.569  21.655  24.049  1.00  0.00     0.262 C 
ATOM     17  C   UNL A   1      35.215  23.107  23.178  1.00  0.00     0.262 C 
ATOM     18  H   UNL A   1      33.166  23.261  22.902  1.00  0.00     0.348 HD
ATOM     19  C   UNL A   1      34.502  21.089  25.122  1.00  0.00     0.062 C 
ATOM     20  C   UNL A   1      36.237  22.754  24.258  1.00  0.00     0.062 C 
ATOM     21  C   UNL A   1      35.978  21.363  24.835  1.00  0.00     0.012 C 
ENDBRANCH   8  15
ENDBRANCH   7   8
ENDBRANCH   4   7
ENDBRANCH   2   3
ENDBRANCH   1   2
BRANCH   1  22
ATOM     22  C   UNL A   1      33.491  29.105  24.929  1.00  0.00     0.118 C 
BRANCH  22  23
ATOM     23  N   UNL A   1      32.893  30.290  25.517  1.00  0.00    -0.352 N 
ATOM     24  C   UNL A   1      33.206  30.947  26.675  1.00  0.00     0.251 C 
ATOM     25  H   UNL A   1      32.148  30.681  25.004  1.00  0.00     0.163 HD
ATOM     26  O   UNL A   1      32.404  31.770  27.134  1.00  0.00    -0.269 OA
BRANCH  24  27
ATOM     27  C   UNL A   1      34.475  30.695  27.399  1.00  0.00     0.039 A 
ATOM     28  C   UNL A   1      34.722  29.409  27.894  1.00  0.00     0.014 A 
ATOM     29  C   UNL A   1      35.386  31.719  27.676  1.00  0.00     0.014 A 
ATOM     30  C   UNL A   1      35.880  29.148  28.635  1.00  0.00     0.010 A 
ATOM     31  C   UNL A   1      36.584  31.440  28.334  1.00  0.00     0.010 A 
ATOM     32  C   UNL A   1      36.830  30.159  28.849  1.00  0.00    -0.014 A 
BRANCH  32  33
ATOM     33  C   UNL A   1      38.051  29.913  29.662  1.00  0.00     0.031 A 
ATOM     34  C   UNL A   1      39.141  29.016  29.133  1.00  0.00     0.074 A 
ATOM     35  C   UNL A   1      38.167  30.452  30.891  1.00  0.00     0.049 A 
ATOM     36  N   UNL A   1      40.244  28.617  29.715  1.00  0.00    -0.248 NA
ATOM     37  C   UNL A   1      38.948  28.469  27.780  1.00  0.00     0.031 C 
ATOM     38  C   UNL A   1      37.169  31.302  31.540  1.00  0.00     0.029 A 
ATOM     39  N   UNL A   1      39.176  30.355  31.819  1.00  0.00    -0.354 N 
ATOM     40  C   UNL A   1      40.858  27.755  28.814  1.00  0.00     0.074 A 
ATOM     41  C   UNL A   1      39.983  27.650  27.668  1.00  0.00     0.031 C 
ATOM     42  C   UNL A   1      37.622  31.666  32.751  1.00  0.00     0.029 A 
ATOM     43  C   UNL A   1      38.926  31.048  32.978  1.00  0.00     0.049 A 
ATOM     44  H   UNL A   1      39.999  29.837  31.668  1.00  0.00     0.167 HD
ATOM     45  C   UNL A   1      42.053  27.126  28.921  1.00  0.00     0.037 A 
ATOM     46  C   UNL A   1      39.664  31.170  34.098  1.00  0.00     0.037 A 
ATOM     47  C   UNL A   1      42.948  27.269  30.038  1.00  0.00     0.049 A 
ATOM     48  C   UNL A   1      41.000  30.483  34.182  1.00  0.00     0.074 A 
ATOM     49  C   UNL A   1      44.214  26.736  30.204  1.00  0.00     0.029 A 
ATOM     50  N   UNL A   1      42.672  28.008  31.179  1.00  0.00    -0.354 N 
ATOM     51  N   UNL A   1      41.596  29.721  33.297  1.00  0.00    -0.248 NA
ATOM     52  C   UNL A   1      41.770  30.681  35.419  1.00  0.00     0.031 C 
ATOM     53  C   UNL A   1      44.690  27.121  31.462  1.00  0.00     0.029 A 
ATOM     54  C   UNL A   1      43.737  27.929  32.061  1.00  0.00     0.049 A 
ATOM     55  H   UNL A   1      41.843  28.513  31.338  1.00  0.00     0.167 HD
ATOM     56  C   UNL A   1      42.816  29.369  33.857  1.00  0.00     0.074 A 
ATOM     57  C   UNL A   1      42.883  30.011  35.153  1.00  0.00     0.031 C 
ATOM     58  C   UNL A   1      43.792  28.581  33.344  1.00  0.00     0.037 A 
BRANCH  45  59
ATOM     59  C   UNL A   1      42.467  26.227  27.792  1.00  0.00     0.064 A 
ATOM     60  C   UNL A   1      43.369  26.652  26.804  1.00  0.00     0.173 A 
ATOM     61  C   UNL A   1      41.983  24.912  27.716  1.00  0.00     0.173 A 
ATOM     62  F   UNL A   1      43.852  27.904  26.825  1.00  0.00    -0.203 F 
ATOM     63  C   UNL A   1      43.745  25.805  25.766  1.00  0.00     0.198 A 
ATOM     64  C   UNL A   1      42.384  24.059  26.692  1.00  0.00     0.198 A 
ATOM     65  F   UNL A   1      41.124  24.454  28.639  1.00  0.00    -0.203 F 
ATOM     66  F   UNL A   1      44.570  26.249  24.807  1.00  0.00    -0.200 F 
ATOM     67  C   UNL A   1      43.259  24.508  25.714  1.00  0.00     0.200 A 
ATOM     68  F   UNL A   1      41.923  22.801  26.649  1.00  0.00    -0.200 F 
ATOM     69  F   UNL A   1      43.626  23.692  24.716  1.00  0.00    -0.200 F 
ENDBRANCH  45  59
BRANCH  46  70
ATOM     70  C   UNL A   1      39.165  32.000  35.223  1.00  0.00     0.064 A 
ATOM     71  C   UNL A   1      39.420  33.378  35.269  1.00  0.00     0.173 A 
ATOM     72  C   UNL A   1      38.421  31.439  36.272  1.00  0.00     0.173 A 
ATOM     73  F   UNL A   1      40.145  33.955  34.299  1.00  0.00    -0.203 F 
ATOM     74  C   UNL A   1      38.963  34.160  36.326  1.00  0.00     0.198 A 
ATOM     75  C   UNL A   1      37.943  32.227  37.317  1.00  0.00     0.198 A 
ATOM     76  F   UNL A   1      38.147  30.126  36.273  1.00  0.00    -0.203 F 
ATOM     77  F   UNL A   1      39.255  35.468  36.364  1.00  0.00    -0.200 F 
ATOM     78  C   UNL A   1      38.221  33.585  37.347  1.00  0.00     0.200 A 
ATOM     79  F   UNL A   1      37.215  31.669  38.294  1.00  0.00    -0.200 F 
ATOM     80  F   UNL A   1      37.777  34.339  38.362  1.00  0.00    -0.200 F 
ENDBRANCH  46  70
BRANCH  58  81
ATOM     81  C   UNL A   1      45.030  28.392  34.170  1.00  0.00     0.064 A 
ATOM     82  C   UNL A   1      46.116  29.274  34.077  1.00  0.00     0.173 A 
ATOM     83  C   UNL A   1      45.112  27.341  35.095  1.00  0.00     0.173 A 
ATOM     84  F   UNL A   1      46.089  30.286  33.196  1.00  0.00    -0.203 F 
ATOM     85  C   UNL A   1      47.248  29.099  34.867  1.00  0.00     0.198 A 
ATOM     86  C   UNL A   1      46.236  27.183  35.902  1.00  0.00     0.198 A 
ATOM     87  F   UNL A   1      44.097  26.473  35.225  1.00  0.00    -0.203 F 
ATOM     88  F   UNL A   1      48.291  29.930  34.734  1.00  0.00    -0.200 F 
ATOM     89  C   UNL A   1      47.304  28.058  35.783  1.00  0.00     0.200 A 
ATOM     90  F   UNL A   1      46.283  26.184  36.795  1.00  0.00    -0.200 F 
ATOM     91  F   UNL A   1      48.393  27.896  36.547  1.00  0.00    -0.200 F 
ENDBRANCH  58  81
ENDBRANCH  32  33
ENDBRANCH  24  27
ENDBRANCH  22  23
ENDBRANCH   1  22
TORSDOF 12
ENDMDL
