MODEL 1
REMARK VINA RESULT:     -12.1      0.000      0.000
REMARK SMILES O=C(NCCCNC(=O)c1cnc2ccc(Cl)cc2c1C(F)(F)F)c1ccc(-c2c3nc(c(-c4c(F)c(F)c(F)c(F)c4F)c4ccc([nH]4)c(-c4c(F)c(F)c(F)c(F)c4F)c4nc(c(-c5c(F)c(F)c(F)c(F)c5F)c5ccc2[nH]5)C=C4)C=C3)cc1
REMARK SMILES IDX 4 1 3 2 1 3 2 4 25 6 26 7 87 8 27 9 86 10 28 11 29 12 30 13
REMARK SMILES IDX 80 14 31 15 85 16 79 17 81 18 32 19 84 20 78 21 77 22 33 24
REMARK SMILES IDX 65 25 45 26 64 27 46 28 49 29 63 30 82 31 47 32 48 33 62 35
REMARK SMILES IDX 83 36 50 37 34 38 35 39 43 40 36 41 37 42 41 43 44 44 38 45
REMARK SMILES IDX 39 46 42 47 40 48 66 49 67 50 75 51 68 52 69 53 73 54 76 55
REMARK SMILES IDX 70 56 71 57 74 58 72 59 51 60 52 61 60 62 53 63 54 64 58 65
REMARK SMILES IDX 61 66 55 67 56 68 59 69 57 70 5 71 6 72 7 73 8 74 9 76 10 77
REMARK SMILES IDX 11 78 20 79 12 80 19 81 13 82 18 83 14 84 16 85 15 86 17 87
REMARK SMILES IDX 21 88 22 89 23 90 24 91
REMARK H PARENT 3 5 81 23 49 34 7 75
REMARK Flexibility Score: inf
ROOT
ATOM      1  C   UNL A   1      32.656  32.439  26.895  1.00  0.00     0.118 C 
ENDROOT
BRANCH   1   2
ATOM      2  N   UNL A   1      32.440  33.795  27.382  1.00  0.00    -0.352 N 
ATOM      3  O   UNL A   1      32.606  35.583  28.742  1.00  0.00    -0.269 OA
ATOM      4  C   UNL A   1      33.054  34.495  28.394  1.00  0.00     0.251 C 
ATOM      5  H   UNL A   1      31.737  34.294  26.906  1.00  0.00     0.163 HD
BRANCH   4   6
ATOM      6  C   UNL A   1      34.230  33.932  29.090  1.00  0.00     0.039 A 
ATOM      7  C   UNL A   1      35.516  34.385  28.802  1.00  0.00     0.014 A 
ATOM      8  C   UNL A   1      34.045  32.946  30.064  1.00  0.00     0.014 A 
ATOM      9  C   UNL A   1      36.616  33.724  29.327  1.00  0.00     0.010 A 
ATOM     10  C   UNL A   1      35.153  32.365  30.690  1.00  0.00     0.010 A 
ATOM     11  C   UNL A   1      36.451  32.722  30.296  1.00  0.00    -0.014 A 
BRANCH  11  12
ATOM     12  C   UNL A   1      37.658  32.123  30.921  1.00  0.00     0.031 A 
ATOM     13  C   UNL A   1      38.094  32.506  32.306  1.00  0.00     0.074 A 
ATOM     14  C   UNL A   1      38.338  31.187  30.231  1.00  0.00     0.049 A 
ATOM     15  N   UNL A   1      39.110  32.059  33.003  1.00  0.00    -0.248 NA
ATOM     16  C   UNL A   1      37.295  33.525  33.004  1.00  0.00     0.031 C 
ATOM     17  C   UNL A   1      38.013  30.744  28.871  1.00  0.00     0.029 A 
ATOM     18  N   UNL A   1      39.420  30.420  30.578  1.00  0.00    -0.354 N 
ATOM     19  C   UNL A   1      39.088  32.758  34.204  1.00  0.00     0.074 A 
ATOM     20  C   UNL A   1      37.969  33.674  34.136  1.00  0.00     0.031 C 
ATOM     21  C   UNL A   1      38.835  29.744  28.525  1.00  0.00     0.029 A 
ATOM     22  C   UNL A   1      39.794  29.528  29.601  1.00  0.00     0.049 A 
ATOM     23  H   UNL A   1      39.884  30.500  31.441  1.00  0.00     0.167 HD
ATOM     24  C   UNL A   1      39.923  32.636  35.264  1.00  0.00     0.037 A 
ATOM     25  C   UNL A   1      40.808  28.646  29.565  1.00  0.00     0.037 A 
ATOM     26  C   UNL A   1      41.020  31.705  35.330  1.00  0.00     0.049 A 
ATOM     27  C   UNL A   1      41.724  28.547  30.748  1.00  0.00     0.074 A 
ATOM     28  C   UNL A   1      41.903  31.483  36.373  1.00  0.00     0.029 A 
ATOM     29  N   UNL A   1      41.387  30.841  34.308  1.00  0.00    -0.354 N 
ATOM     30  N   UNL A   1      41.677  29.196  31.886  1.00  0.00    -0.248 NA
ATOM     31  C   UNL A   1      42.840  27.599  30.641  1.00  0.00     0.031 C 
ATOM     32  C   UNL A   1      42.830  30.519  35.967  1.00  0.00     0.029 A 
ATOM     33  C   UNL A   1      42.497  30.102  34.689  1.00  0.00     0.049 A 
ATOM     34  H   UNL A   1      40.927  30.765  33.440  1.00  0.00     0.167 HD
ATOM     35  C   UNL A   1      42.745  28.729  32.635  1.00  0.00     0.074 A 
ATOM     36  C   UNL A   1      43.409  27.722  31.832  1.00  0.00     0.031 C 
ATOM     37  C   UNL A   1      43.143  29.103  33.875  1.00  0.00     0.037 A 
BRANCH  24  38
ATOM     38  C   UNL A   1      39.698  33.545  36.439  1.00  0.00     0.064 A 
ATOM     39  C   UNL A   1      40.279  34.821  36.508  1.00  0.00     0.173 A 
ATOM     40  C   UNL A   1      38.844  33.157  37.483  1.00  0.00     0.173 A 
ATOM     41  F   UNL A   1      41.111  35.237  35.543  1.00  0.00    -0.203 F 
ATOM     42  C   UNL A   1      40.028  35.665  37.589  1.00  0.00     0.198 A 
ATOM     43  C   UNL A   1      38.575  34.013  38.548  1.00  0.00     0.198 A 
ATOM     44  F   UNL A   1      38.258  31.950  37.463  1.00  0.00    -0.203 F 
ATOM     45  F   UNL A   1      40.624  36.864  37.653  1.00  0.00    -0.200 F 
ATOM     46  C   UNL A   1      39.171  35.263  38.603  1.00  0.00     0.200 A 
ATOM     47  F   UNL A   1      37.737  33.628  39.521  1.00  0.00    -0.200 F 
ATOM     48  F   UNL A   1      38.923  36.080  39.637  1.00  0.00    -0.200 F 
ENDBRANCH  24  38
BRANCH  25  49
ATOM     49  C   UNL A   1      41.007  27.803  28.359  1.00  0.00     0.064 A 
ATOM     50  C   UNL A   1      40.391  26.550  28.243  1.00  0.00     0.173 A 
ATOM     51  C   UNL A   1      41.799  28.243  27.287  1.00  0.00     0.173 A 
ATOM     52  F   UNL A   1      39.638  26.079  29.247  1.00  0.00    -0.203 F 
ATOM     53  C   UNL A   1      40.570  25.764  27.106  1.00  0.00     0.198 A 
ATOM     54  C   UNL A   1      41.952  27.471  26.139  1.00  0.00     0.198 A 
ATOM     55  F   UNL A   1      42.404  29.439  27.347  1.00  0.00    -0.203 F 
ATOM     56  F   UNL A   1      40.002  24.553  27.036  1.00  0.00    -0.200 F 
ATOM     57  C   UNL A   1      41.344  26.229  26.052  1.00  0.00     0.200 A 
ATOM     58  F   UNL A   1      42.683  27.933  25.116  1.00  0.00    -0.200 F 
ATOM     59  F   UNL A   1      41.505  25.477  24.955  1.00  0.00    -0.200 F 
ENDBRANCH  25  49
BRANCH  37  60
ATOM     60  C   UNL A   1      44.338  28.400  34.445  1.00  0.00     0.064 A 
ATOM     61  C   UNL A   1      45.634  28.915  34.297  1.00  0.00     0.173 A 
ATOM     62  C   UNL A   1      44.182  27.207  35.167  1.00  0.00     0.173 A 
ATOM     63  F   UNL A   1      45.835  30.043  33.598  1.00  0.00    -0.203 F 
ATOM     64  C   UNL A   1      46.733  28.248  34.829  1.00  0.00     0.198 A 
ATOM     65  C   UNL A   1      45.281  26.558  35.723  1.00  0.00     0.198 A 
ATOM     66  F   UNL A   1      42.963  26.676  35.340  1.00  0.00    -0.203 F 
ATOM     67  F   UNL A   1      47.968  28.732  34.633  1.00  0.00    -0.200 F 
ATOM     68  C   UNL A   1      46.555  27.075  35.546  1.00  0.00     0.200 A 
ATOM     69  F   UNL A   1      45.106  25.430  36.425  1.00  0.00    -0.200 F 
ATOM     70  F   UNL A   1      47.615  26.435  36.061  1.00  0.00    -0.200 F 
ENDBRANCH  37  60
ENDBRANCH  11  12
ENDBRANCH   4   6
ENDBRANCH   1   2
BRANCH   1  71
ATOM     71  C   UNL A   1      31.369  31.720  26.519  1.00  0.00     0.042 C 
BRANCH  71  72
ATOM     72  C   UNL A   1      31.557  30.251  26.182  1.00  0.00     0.118 C 
BRANCH  72  73
ATOM     73  N   UNL A   1      31.775  30.020  24.763  1.00  0.00    -0.352 N 
ATOM     74  C   UNL A   1      31.752  28.859  24.040  1.00  0.00     0.253 C 
ATOM     75  H   UNL A   1      31.970  30.830  24.237  1.00  0.00     0.163 HD
ATOM     76  O   UNL A   1      32.017  28.862  22.846  1.00  0.00    -0.269 OA
BRANCH  74  77
ATOM     77  C   UNL A   1      31.460  27.582  24.705  1.00  0.00     0.070 A 
ATOM     78  C   UNL A   1      30.140  27.167  24.661  1.00  0.00     0.126 A 
ATOM     79  C   UNL A   1      32.397  26.789  25.380  1.00  0.00     0.079 A 
ATOM     80  N   UNL A   1      29.706  25.999  25.178  1.00  0.00    -0.255 NA
ATOM     81  C   UNL A   1      31.977  25.518  25.868  1.00  0.00     0.015 A 
ATOM     82  C   UNL A   1      30.603  25.190  25.753  1.00  0.00     0.071 A 
ATOM     83  C   UNL A   1      32.846  24.563  26.449  1.00  0.00     0.031 A 
ATOM     84  C   UNL A   1      30.149  23.976  26.251  1.00  0.00     0.030 A 
ATOM     85  C   UNL A   1      32.364  23.343  26.922  1.00  0.00     0.041 A 
ATOM     86  C   UNL A   1      31.013  23.050  26.838  1.00  0.00     0.023 A 
ATOM     87  Cl  UNL A   1      33.450  22.201  27.609  1.00  0.00    -0.084 Cl
BRANCH  79  88
ATOM     88  C   UNL A   1      33.811  27.262  25.591  1.00  0.00     0.417 C 
ATOM     89  F   UNL A   1      34.673  26.217  25.744  1.00  0.00    -0.166 F 
ATOM     90  F   UNL A   1      34.328  28.025  24.592  1.00  0.00    -0.166 F 
ATOM     91  F   UNL A   1      33.952  28.020  26.714  1.00  0.00    -0.166 F 
ENDBRANCH  79  88
ENDBRANCH  74  77
ENDBRANCH  72  73
ENDBRANCH  71  72
ENDBRANCH   1  71
TORSDOF 11
ENDMDL
MODEL 2
REMARK VINA RESULT:     -12.1      0.179      1.620
REMARK SMILES O=C(NCCCNC(=O)c1cnc2ccc(Cl)cc2c1C(F)(F)F)c1ccc(-c2c3nc(c(-c4c(F)c(F)c(F)c(F)c4F)c4ccc([nH]4)c(-c4c(F)c(F)c(F)c(F)c4F)c4nc(c(-c5c(F)c(F)c(F)c(F)c5F)c5ccc2[nH]5)C=C4)C=C3)cc1
REMARK SMILES IDX 4 1 3 2 1 3 2 4 25 6 26 7 87 8 27 9 86 10 28 11 29 12 30 13
REMARK SMILES IDX 80 14 31 15 85 16 79 17 81 18 32 19 84 20 78 21 77 22 33 24
REMARK SMILES IDX 65 25 45 26 64 27 46 28 49 29 63 30 82 31 47 32 48 33 62 35
REMARK SMILES IDX 83 36 50 37 34 38 35 39 43 40 36 41 37 42 41 43 44 44 38 45
REMARK SMILES IDX 39 46 42 47 40 48 66 49 67 50 75 51 68 52 69 53 73 54 76 55
REMARK SMILES IDX 70 56 71 57 74 58 72 59 51 60 52 61 60 62 53 63 54 64 58 65
REMARK SMILES IDX 61 66 55 67 56 68 59 69 57 70 5 71 6 72 7 73 8 74 9 76 10 77
REMARK SMILES IDX 11 78 20 79 12 80 19 81 13 82 18 83 14 84 16 85 15 86 17 87
REMARK SMILES IDX 21 88 22 89 23 90 24 91
REMARK H PARENT 3 5 81 23 49 34 7 75
REMARK Flexibility Score: inf
ROOT
ATOM      1  C   UNL A   1      32.639  32.450  26.896  1.00  0.00     0.118 C 
ENDROOT
BRANCH   1   2
ATOM      2  N   UNL A   1      32.448  33.809  27.386  1.00  0.00    -0.352 N 
ATOM      3  O   UNL A   1      32.645  35.590  28.749  1.00  0.00    -0.269 OA
ATOM      4  C   UNL A   1      33.073  34.495  28.401  1.00  0.00     0.251 C 
ATOM      5  H   UNL A   1      31.757  34.323  26.908  1.00  0.00     0.163 HD
BRANCH   4   6
ATOM      6  C   UNL A   1      34.236  33.907  29.098  1.00  0.00     0.039 A 
ATOM      7  C   UNL A   1      35.533  34.323  28.801  1.00  0.00     0.014 A 
ATOM      8  C   UNL A   1      34.027  32.935  30.083  1.00  0.00     0.014 A 
ATOM      9  C   UNL A   1      36.617  33.637  29.330  1.00  0.00     0.010 A 
ATOM     10  C   UNL A   1      35.122  32.332  30.710  1.00  0.00     0.010 A 
ATOM     11  C   UNL A   1      36.428  32.650  30.309  1.00  0.00    -0.014 A 
BRANCH  11  12
ATOM     12  C   UNL A   1      37.620  32.025  30.936  1.00  0.00     0.031 A 
ATOM     13  C   UNL A   1      38.054  32.388  32.327  1.00  0.00     0.074 A 
ATOM     14  C   UNL A   1      38.289  31.083  30.242  1.00  0.00     0.049 A 
ATOM     15  N   UNL A   1      39.059  31.918  33.026  1.00  0.00    -0.248 NA
ATOM     16  C   UNL A   1      37.269  33.415  33.029  1.00  0.00     0.031 C 
ATOM     17  C   UNL A   1      37.964  30.656  28.877  1.00  0.00     0.029 A 
ATOM     18  N   UNL A   1      39.355  30.294  30.589  1.00  0.00    -0.354 N 
ATOM     19  C   UNL A   1      39.040  32.607  34.233  1.00  0.00     0.074 A 
ATOM     20  C   UNL A   1      37.939  33.543  34.166  1.00  0.00     0.031 C 
ATOM     21  C   UNL A   1      38.771  29.646  28.527  1.00  0.00     0.029 A 
ATOM     22  C   UNL A   1      39.719  29.404  29.608  1.00  0.00     0.049 A 
ATOM     23  H   UNL A   1      39.815  30.359  31.456  1.00  0.00     0.167 HD
ATOM     24  C   UNL A   1      39.867  32.462  35.297  1.00  0.00     0.037 A 
ATOM     25  C   UNL A   1      40.718  28.504  29.570  1.00  0.00     0.037 A 
ATOM     26  C   UNL A   1      40.947  31.511  35.362  1.00  0.00     0.049 A 
ATOM     27  C   UNL A   1      41.625  28.380  30.758  1.00  0.00     0.074 A 
ATOM     28  C   UNL A   1      41.820  31.266  36.409  1.00  0.00     0.029 A 
ATOM     29  N   UNL A   1      41.306  30.650  34.335  1.00  0.00    -0.354 N 
ATOM     30  N   UNL A   1      41.582  29.021  31.900  1.00  0.00    -0.248 NA
ATOM     31  C   UNL A   1      42.725  27.414  30.649  1.00  0.00     0.031 C 
ATOM     32  C   UNL A   1      42.733  30.288  35.999  1.00  0.00     0.029 A 
ATOM     33  C   UNL A   1      42.400  29.888  34.716  1.00  0.00     0.049 A 
ATOM     34  H   UNL A   1      40.850  30.589  33.464  1.00  0.00     0.167 HD
ATOM     35  C   UNL A   1      42.637  28.528  32.652  1.00  0.00     0.074 A 
ATOM     36  C   UNL A   1      43.288  27.517  31.845  1.00  0.00     0.031 C 
ATOM     37  C   UNL A   1      43.034  28.885  33.897  1.00  0.00     0.037 A 
BRANCH  24  38
ATOM     38  C   UNL A   1      39.651  33.365  36.479  1.00  0.00     0.064 A 
ATOM     39  C   UNL A   1      40.260  34.627  36.565  1.00  0.00     0.173 A 
ATOM     40  C   UNL A   1      38.777  32.986  37.509  1.00  0.00     0.173 A 
ATOM     41  F   UNL A   1      41.111  35.033  35.613  1.00  0.00    -0.203 F 
ATOM     42  C   UNL A   1      40.017  35.465  37.652  1.00  0.00     0.198 A 
ATOM     43  C   UNL A   1      38.517  33.838  38.580  1.00  0.00     0.198 A 
ATOM     44  F   UNL A   1      38.164  31.794  37.473  1.00  0.00    -0.203 F 
ATOM     45  F   UNL A   1      40.639  36.650  37.733  1.00  0.00    -0.200 F 
ATOM     46  C   UNL A   1      39.141  35.074  38.653  1.00  0.00     0.200 A 
ATOM     47  F   UNL A   1      37.660  33.464  39.540  1.00  0.00    -0.200 F 
ATOM     48  F   UNL A   1      38.900  35.887  39.692  1.00  0.00    -0.200 F 
ENDBRANCH  24  38
BRANCH  25  49
ATOM     49  C   UNL A   1      40.910  27.668  28.358  1.00  0.00     0.064 A 
ATOM     50  C   UNL A   1      41.735  28.095  27.309  1.00  0.00     0.173 A 
ATOM     51  C   UNL A   1      40.291  26.415  28.234  1.00  0.00     0.173 A 
ATOM     52  F   UNL A   1      42.335  29.292  27.373  1.00  0.00    -0.203 F 
ATOM     53  C   UNL A   1      41.923  27.305  26.176  1.00  0.00     0.198 A 
ATOM     54  C   UNL A   1      40.504  25.613  27.116  1.00  0.00     0.198 A 
ATOM     55  F   UNL A   1      39.498  25.959  29.215  1.00  0.00    -0.203 F 
ATOM     56  F   UNL A   1      42.685  27.752  25.169  1.00  0.00    -0.200 F 
ATOM     57  C   UNL A   1      41.313  26.062  26.084  1.00  0.00     0.200 A 
ATOM     58  F   UNL A   1      39.930  24.405  27.042  1.00  0.00    -0.200 F 
ATOM     59  F   UNL A   1      41.504  25.298  25.000  1.00  0.00    -0.200 F 
ENDBRANCH  25  49
BRANCH  37  60
ATOM     60  C   UNL A   1      44.214  28.157  34.469  1.00  0.00     0.064 A 
ATOM     61  C   UNL A   1      44.063  26.950  35.167  1.00  0.00     0.173 A 
ATOM     62  C   UNL A   1      45.511  28.661  34.297  1.00  0.00     0.173 A 
ATOM     63  F   UNL A   1      42.841  26.438  35.374  1.00  0.00    -0.203 F 
ATOM     64  C   UNL A   1      45.168  26.288  35.695  1.00  0.00     0.198 A 
ATOM     65  C   UNL A   1      46.616  27.982  34.801  1.00  0.00     0.198 A 
ATOM     66  F   UNL A   1      45.707  29.811  33.633  1.00  0.00    -0.203 F 
ATOM     67  F   UNL A   1      44.997  25.162  36.402  1.00  0.00    -0.200 F 
ATOM     68  C   UNL A   1      46.442  26.801  35.506  1.00  0.00     0.200 A 
ATOM     69  F   UNL A   1      47.848  28.473  34.608  1.00  0.00    -0.200 F 
ATOM     70  F   UNL A   1      47.506  26.161  36.012  1.00  0.00    -0.200 F 
ENDBRANCH  37  60
ENDBRANCH  11  12
ENDBRANCH   4   6
ENDBRANCH   1   2
BRANCH   1  71
ATOM     71  C   UNL A   1      31.340  31.763  26.501  1.00  0.00     0.042 C 
BRANCH  71  72
ATOM     72  C   UNL A   1      31.499  30.292  26.153  1.00  0.00     0.118 C 
BRANCH  72  73
ATOM     73  N   UNL A   1      31.714  30.069  24.732  1.00  0.00    -0.352 N 
ATOM     74  C   UNL A   1      31.720  28.908  24.008  1.00  0.00     0.253 C 
ATOM     75  H   UNL A   1      31.882  30.885  24.206  1.00  0.00     0.163 HD
ATOM     76  O   UNL A   1      31.976  28.920  22.813  1.00  0.00    -0.269 OA
BRANCH  74  77
ATOM     77  C   UNL A   1      31.469  27.623  24.673  1.00  0.00     0.070 A 
ATOM     78  C   UNL A   1      30.166  27.159  24.618  1.00  0.00     0.126 A 
ATOM     79  C   UNL A   1      32.428  26.867  25.360  1.00  0.00     0.079 A 
ATOM     80  N   UNL A   1      29.771  25.976  25.134  1.00  0.00    -0.255 NA
ATOM     81  C   UNL A   1      32.051  25.583  25.848  1.00  0.00     0.015 A 
ATOM     82  C   UNL A   1      30.692  25.203  25.721  1.00  0.00     0.071 A 
ATOM     83  C   UNL A   1      32.950  24.662  26.441  1.00  0.00     0.031 A 
ATOM     84  C   UNL A   1      30.279  23.974  26.218  1.00  0.00     0.030 A 
ATOM     85  C   UNL A   1      32.509  23.427  26.913  1.00  0.00     0.041 A 
ATOM     86  C   UNL A   1      31.171  23.083  26.816  1.00  0.00     0.023 A 
ATOM     87  Cl  UNL A   1      33.630  22.328  27.614  1.00  0.00    -0.084 Cl
BRANCH  79  88
ATOM     88  C   UNL A   1      33.821  27.394  25.585  1.00  0.00     0.417 C 
ATOM     89  F   UNL A   1      34.720  26.382  25.751  1.00  0.00    -0.166 F 
ATOM     90  F   UNL A   1      34.319  28.172  24.588  1.00  0.00    -0.166 F 
ATOM     91  F   UNL A   1      33.922  28.161  26.706  1.00  0.00    -0.166 F 
ENDBRANCH  79  88
ENDBRANCH  74  77
ENDBRANCH  72  73
ENDBRANCH  71  72
ENDBRANCH   1  71
TORSDOF 11
ENDMDL
MODEL 3
REMARK VINA RESULT:     -12.1      2.248      3.338
REMARK SMILES O=C(NCCCNC(=O)c1cnc2ccc(Cl)cc2c1C(F)(F)F)c1ccc(-c2c3nc(c(-c4c(F)c(F)c(F)c(F)c4F)c4ccc([nH]4)c(-c4c(F)c(F)c(F)c(F)c4F)c4nc(c(-c5c(F)c(F)c(F)c(F)c5F)c5ccc2[nH]5)C=C4)C=C3)cc1
REMARK SMILES IDX 4 1 3 2 1 3 2 4 25 6 26 7 87 8 27 9 86 10 28 11 29 12 30 13
REMARK SMILES IDX 80 14 31 15 85 16 79 17 81 18 32 19 84 20 78 21 77 22 33 24
REMARK SMILES IDX 65 25 45 26 64 27 46 28 49 29 63 30 82 31 47 32 48 33 62 35
REMARK SMILES IDX 83 36 50 37 34 38 35 39 43 40 36 41 37 42 41 43 44 44 38 45
REMARK SMILES IDX 39 46 42 47 40 48 66 49 67 50 75 51 68 52 69 53 73 54 76 55
REMARK SMILES IDX 70 56 71 57 74 58 72 59 51 60 52 61 60 62 53 63 54 64 58 65
REMARK SMILES IDX 61 66 55 67 56 68 59 69 57 70 5 71 6 72 7 73 8 74 9 76 10 77
REMARK SMILES IDX 11 78 20 79 12 80 19 81 13 82 18 83 14 84 16 85 15 86 17 87
REMARK SMILES IDX 21 88 22 89 23 90 24 91
REMARK H PARENT 3 5 81 23 49 34 7 75
REMARK Flexibility Score: inf
ROOT
ATOM      1  C   UNL A   1      33.260  29.163  24.904  1.00  0.00     0.118 C 
ENDROOT
BRANCH   1   2
ATOM      2  N   UNL A   1      32.630  30.292  25.576  1.00  0.00    -0.352 N 
ATOM      3  O   UNL A   1      32.215  31.797  27.199  1.00  0.00    -0.269 OA
ATOM      4  C   UNL A   1      32.981  30.966  26.722  1.00  0.00     0.251 C 
ATOM      5  H   UNL A   1      31.817  30.630  25.134  1.00  0.00     0.163 HD
BRANCH   4   6
ATOM      6  C   UNL A   1      34.261  30.674  27.401  1.00  0.00     0.039 A 
ATOM      7  C   UNL A   1      34.564  29.384  27.832  1.00  0.00     0.014 A 
ATOM      8  C   UNL A   1      35.186  31.706  27.595  1.00  0.00     0.014 A 
ATOM      9  C   UNL A   1      35.681  29.164  28.624  1.00  0.00     0.010 A 
ATOM     10  C   UNL A   1      36.376  31.454  28.287  1.00  0.00     0.010 A 
ATOM     11  C   UNL A   1      36.615  30.189  28.842  1.00  0.00    -0.014 A 
BRANCH  11  12
ATOM     12  C   UNL A   1      37.856  29.879  29.596  1.00  0.00     0.031 A 
ATOM     13  C   UNL A   1      38.084  30.413  30.982  1.00  0.00     0.074 A 
ATOM     14  C   UNL A   1      38.766  29.066  29.025  1.00  0.00     0.049 A 
ATOM     15  N   UNL A   1      39.103  30.218  31.783  1.00  0.00    -0.248 NA
ATOM     16  C   UNL A   1      37.041  31.284  31.546  1.00  0.00     0.031 C 
ATOM     17  C   UNL A   1      38.656  28.497  27.678  1.00  0.00     0.029 A 
ATOM     18  N   UNL A   1      39.944  28.553  29.505  1.00  0.00    -0.354 N 
ATOM     19  C   UNL A   1      38.837  30.958  32.928  1.00  0.00     0.074 A 
ATOM     20  C   UNL A   1      37.570  31.623  32.713  1.00  0.00     0.031 C 
ATOM     21  C   UNL A   1      39.687  27.669  27.464  1.00  0.00     0.029 A 
ATOM     22  C   UNL A   1      40.570  27.707  28.623  1.00  0.00     0.049 A 
ATOM     23  H   UNL A   1      40.304  28.770  30.394  1.00  0.00     0.167 HD
ATOM     24  C   UNL A   1      39.582  31.062  34.055  1.00  0.00     0.037 A 
ATOM     25  C   UNL A   1      41.739  27.047  28.723  1.00  0.00     0.037 A 
ATOM     26  C   UNL A   1      40.832  30.377  34.267  1.00  0.00     0.049 A 
ATOM     27  C   UNL A   1      42.548  27.198  29.977  1.00  0.00     0.074 A 
ATOM     28  C   UNL A   1      41.645  30.393  35.388  1.00  0.00     0.029 A 
ATOM     29  N   UNL A   1      41.451  29.555  33.338  1.00  0.00    -0.354 N 
ATOM     30  N   UNL A   1      42.273  27.881  31.061  1.00  0.00    -0.248 NA
ATOM     31  C   UNL A   1      43.834  26.491  30.020  1.00  0.00     0.031 C 
ATOM     32  C   UNL A   1      42.778  29.616  35.119  1.00  0.00     0.029 A 
ATOM     33  C   UNL A   1      42.647  29.076  33.851  1.00  0.00     0.049 A 
ATOM     34  H   UNL A   1      41.094  29.342  32.444  1.00  0.00     0.167 HD
ATOM     35  C   UNL A   1      43.342  27.678  31.920  1.00  0.00     0.074 A 
ATOM     36  C   UNL A   1      44.260  26.788  31.240  1.00  0.00     0.031 C 
ATOM     37  C   UNL A   1      43.547  28.189  33.158  1.00  0.00     0.037 A 
BRANCH  24  38
ATOM     38  C   UNL A   1      39.080  31.966  35.145  1.00  0.00     0.064 A 
ATOM     39  C   UNL A   1      38.356  31.470  36.241  1.00  0.00     0.173 A 
ATOM     40  C   UNL A   1      39.377  33.337  35.122  1.00  0.00     0.173 A 
ATOM     41  F   UNL A   1      38.037  30.170  36.307  1.00  0.00    -0.203 F 
ATOM     42  C   UNL A   1      37.931  32.319  37.261  1.00  0.00     0.198 A 
ATOM     43  C   UNL A   1      38.974  34.177  36.157  1.00  0.00     0.198 A 
ATOM     44  F   UNL A   1      40.072  33.862  34.101  1.00  0.00    -0.203 F 
ATOM     45  F   UNL A   1      37.208  31.831  38.279  1.00  0.00    -0.200 F 
ATOM     46  C   UNL A   1      38.247  33.669  37.223  1.00  0.00     0.200 A 
ATOM     47  F   UNL A   1      39.290  35.480  36.124  1.00  0.00    -0.200 F 
ATOM     48  F   UNL A   1      37.846  34.482  38.211  1.00  0.00    -0.200 F 
ENDBRANCH  24  38
BRANCH  25  49
ATOM     49  C   UNL A   1      42.206  26.202  27.596  1.00  0.00     0.064 A 
ATOM     50  C   UNL A   1      43.166  26.671  26.690  1.00  0.00     0.173 A 
ATOM     51  C   UNL A   1      41.720  24.898  27.415  1.00  0.00     0.173 A 
ATOM     52  F   UNL A   1      43.649  27.916  26.811  1.00  0.00    -0.203 F 
ATOM     53  C   UNL A   1      43.612  25.873  25.638  1.00  0.00     0.198 A 
ATOM     54  C   UNL A   1      42.189  24.090  26.383  1.00  0.00     0.198 A 
ATOM     55  F   UNL A   1      40.805  24.400  28.261  1.00  0.00    -0.203 F 
ATOM     56  F   UNL A   1      44.501  26.359  24.762  1.00  0.00    -0.200 F 
ATOM     57  C   UNL A   1      43.128  24.582  25.490  1.00  0.00     0.200 A 
ATOM     58  F   UNL A   1      41.734  22.837  26.257  1.00  0.00    -0.200 F 
ATOM     59  F   UNL A   1      43.566  23.811  24.486  1.00  0.00    -0.200 F 
ENDBRANCH  25  49
BRANCH  37  60
ATOM     60  C   UNL A   1      44.803  27.772  33.864  1.00  0.00     0.064 A 
ATOM     61  C   UNL A   1      45.985  28.518  33.760  1.00  0.00     0.173 A 
ATOM     62  C   UNL A   1      44.815  26.625  34.672  1.00  0.00     0.173 A 
ATOM     63  F   UNL A   1      46.028  29.611  32.984  1.00  0.00    -0.203 F 
ATOM     64  C   UNL A   1      47.144  28.115  34.419  1.00  0.00     0.198 A 
ATOM     65  C   UNL A   1      45.967  26.242  35.353  1.00  0.00     0.198 A 
ATOM     66  F   UNL A   1      43.708  25.881  34.807  1.00  0.00    -0.203 F 
ATOM     67  F   UNL A   1      48.277  28.815  34.265  1.00  0.00    -0.200 F 
ATOM     68  C   UNL A   1      47.132  26.983  35.219  1.00  0.00     0.200 A 
ATOM     69  F   UNL A   1      45.952  25.153  36.133  1.00  0.00    -0.200 F 
ATOM     70  F   UNL A   1      48.247  26.598  35.855  1.00  0.00    -0.200 F 
ENDBRANCH  37  60
ENDBRANCH  11  12
ENDBRANCH   4   6
ENDBRANCH   1   2
BRANCH   1  71
ATOM     71  C   UNL A   1      33.324  29.321  23.391  1.00  0.00     0.042 C 
BRANCH  71  72
ATOM     72  C   UNL A   1      33.143  28.021  22.627  1.00  0.00     0.118 C 
BRANCH  72  73
ATOM     73  N   UNL A   1      31.958  27.285  23.038  1.00  0.00    -0.352 N 
ATOM     74  C   UNL A   1      31.816  25.981  23.430  1.00  0.00     0.253 C 
ATOM     75  H   UNL A   1      31.123  27.808  23.035  1.00  0.00     0.163 HD
ATOM     76  O   UNL A   1      30.712  25.525  23.691  1.00  0.00    -0.269 OA
BRANCH  74  77
ATOM     77  C   UNL A   1      32.988  25.097  23.491  1.00  0.00     0.070 A 
ATOM     78  C   UNL A   1      33.243  24.355  22.352  1.00  0.00     0.126 A 
ATOM     79  C   UNL A   1      33.827  24.944  24.602  1.00  0.00     0.079 A 
ATOM     80  N   UNL A   1      34.303  23.530  22.219  1.00  0.00    -0.255 NA
ATOM     81  C   UNL A   1      34.992  24.137  24.459  1.00  0.00     0.015 A 
ATOM     82  C   UNL A   1      35.162  23.435  23.240  1.00  0.00     0.071 A 
ATOM     83  C   UNL A   1      35.992  24.001  25.453  1.00  0.00     0.031 A 
ATOM     84  C   UNL A   1      36.266  22.609  23.078  1.00  0.00     0.030 A 
ATOM     85  C   UNL A   1      37.100  23.180  25.254  1.00  0.00     0.041 A 
ATOM     86  C   UNL A   1      37.236  22.470  24.072  1.00  0.00     0.023 A 
ATOM     87  Cl  UNL A   1      38.303  23.050  26.475  1.00  0.00    -0.084 Cl
BRANCH  79  88
ATOM     88  C   UNL A   1      33.511  25.608  25.916  1.00  0.00     0.417 C 
ATOM     89  F   UNL A   1      34.429  26.566  26.229  1.00  0.00    -0.166 F 
ATOM     90  F   UNL A   1      32.299  26.219  25.986  1.00  0.00    -0.166 F 
ATOM     91  F   UNL A   1      33.520  24.737  26.964  1.00  0.00    -0.166 F 
ENDBRANCH  79  88
ENDBRANCH  74  77
ENDBRANCH  72  73
ENDBRANCH  71  72
ENDBRANCH   1  71
TORSDOF 11
ENDMDL
