MODEL 1
REMARK VINA RESULT:     -11.4      0.000      0.000
REMARK SMILES CC(C)Cn1c([C@@H](O)[C@@H](O)C(=O)NCCCNC(=O)c2ccc(-c3c4nc(c(-c5c(F)c(F)c(F)c(F)c5F)c5ccc([nH]5)c(-c5c(F)c(F)c(F)c(F)c5F)c5nc(c(-c6c(F)c(F)c(F)c(F)c6F)c6ccc3[nH]6)C=C5)C=C4)cc2)nc2cc(Cl)ccc21
REMARK SMILES IDX 14 1 13 2 11 3 12 4 9 6 7 7 6 8 5 9 90 10 83 11 84 12 89 13
REMARK SMILES IDX 85 14 88 15 86 16 87 17 4 18 2 19 1 20 3 21 8 22 10 24 15 26
REMARK SMILES IDX 16 27 17 28 18 29 19 31 20 32 21 33 82 34 22 35 81 36 23 37
REMARK SMILES IDX 24 38 25 39 75 40 26 41 80 42 74 43 76 44 27 45 79 46 73 47
REMARK SMILES IDX 72 48 28 50 60 51 40 52 59 53 41 54 44 55 58 56 77 57 42 58
REMARK SMILES IDX 43 59 57 61 78 62 45 63 29 64 30 65 38 66 31 67 32 68 36 69
REMARK SMILES IDX 39 70 33 71 34 72 37 73 35 74 61 75 62 76 70 77 63 78 64 79
REMARK SMILES IDX 68 80 71 81 65 82 66 83 69 84 67 85 46 86 47 87 55 88 48 89
REMARK SMILES IDX 49 90 53 91 56 92 50 93 51 94 54 95 52 96
REMARK H PARENT 13 5 8 23 10 25 17 30 76 49 44 60
REMARK Flexibility Score: inf
ROOT
ATOM      1  C   UNL A   1      42.991  19.748  25.589  1.00  0.00     0.117 C 
ENDROOT
BRANCH   1   2
ATOM      2  N   UNL A   1      44.427  19.929  25.506  1.00  0.00    -0.354 N 
ATOM      3  C   UNL A   1      45.166  20.917  24.918  1.00  0.00     0.252 C 
ATOM      4  O   UNL A   1      46.388  20.887  25.097  1.00  0.00    -0.272 OA
ATOM      5  H   UNL A   1      44.957  19.225  25.946  1.00  0.00     0.163 HD
BRANCH   3   6
ATOM      6  C   UNL A   1      44.510  22.029  24.084  1.00  0.00     0.239 C 
BRANCH   6   7
ATOM      7  C   UNL A   1      45.209  23.381  24.287  1.00  0.00     0.219 C 
BRANCH   7   8
ATOM      8  C   UNL A   1      45.118  23.805  25.730  1.00  0.00     0.142 A 
ATOM      9  N   UNL A   1      45.225  25.108  26.177  1.00  0.00    -0.325 N 
ATOM     10  C   UNL A   1      45.049  25.107  27.544  1.00  0.00     0.068 A 
ATOM     11  N   UNL A   1      44.937  22.981  26.745  1.00  0.00    -0.230 NA
ATOM     12  C   UNL A   1      44.878  23.766  27.869  1.00  0.00     0.090 A 
ATOM     13  C   UNL A   1      45.040  26.125  28.505  1.00  0.00     0.030 A 
ATOM     14  C   UNL A   1      44.683  23.392  29.205  1.00  0.00     0.051 A 
ATOM     15  C   UNL A   1      44.853  25.739  29.837  1.00  0.00     0.023 A 
ATOM     16  C   UNL A   1      44.679  24.396  30.177  1.00  0.00     0.043 A 
ATOM     17  Cl  UNL A   1      44.458  23.968  31.831  1.00  0.00    -0.084 Cl
BRANCH   9  18
ATOM     18  C   UNL A   1      45.506  26.290  25.382  1.00  0.00     0.127 C 
BRANCH  18  19
ATOM     19  C   UNL A   1      46.907  26.876  25.633  1.00  0.00     0.003 C 
ATOM     20  C   UNL A   1      47.927  26.470  24.566  1.00  0.00     0.009 C 
ATOM     21  C   UNL A   1      46.824  28.401  25.709  1.00  0.00     0.009 C 
ENDBRANCH  18  19
ENDBRANCH   9  18
ENDBRANCH   7   8
BRANCH   7  22
ATOM     22  O   UNL A   1      46.596  23.325  23.943  1.00  0.00    -0.382 OA
ATOM     23  H   UNL A   1      46.941  22.437  24.132  1.00  0.00     0.211 HD
ENDBRANCH   7  22
ENDBRANCH   6   7
BRANCH   6  24
ATOM     24  O   UNL A   1      44.483  21.666  22.694  1.00  0.00    -0.380 OA
ATOM     25  H   UNL A   1      45.257  21.118  22.488  1.00  0.00     0.211 HD
ENDBRANCH   6  24
ENDBRANCH   3   6
ENDBRANCH   1   2
BRANCH   1  26
ATOM     26  C   UNL A   1      42.485  19.713  27.034  1.00  0.00     0.042 C 
BRANCH  26  27
ATOM     27  C   UNL A   1      41.928  21.046  27.535  1.00  0.00     0.118 C 
BRANCH  27  28
ATOM     28  N   UNL A   1      40.671  21.420  26.926  1.00  0.00    -0.352 N 
ATOM     29  C   UNL A   1      40.006  22.591  26.679  1.00  0.00     0.251 C 
ATOM     30  H   UNL A   1      40.165  20.637  26.611  1.00  0.00     0.163 HD
ATOM     31  O   UNL A   1      38.981  22.492  26.017  1.00  0.00    -0.269 OA
BRANCH  29  32
ATOM     32  C   UNL A   1      40.395  23.935  27.194  1.00  0.00     0.039 A 
ATOM     33  C   UNL A   1      41.301  24.198  28.221  1.00  0.00     0.014 A 
ATOM     34  C   UNL A   1      39.713  25.024  26.610  1.00  0.00     0.014 A 
ATOM     35  C   UNL A   1      41.446  25.494  28.714  1.00  0.00     0.010 A 
ATOM     36  C   UNL A   1      39.865  26.321  27.089  1.00  0.00     0.010 A 
ATOM     37  C   UNL A   1      40.694  26.548  28.179  1.00  0.00    -0.014 A 
BRANCH  37  38
ATOM     38  C   UNL A   1      40.861  27.880  28.756  1.00  0.00     0.031 A 
ATOM     39  C   UNL A   1      42.110  28.597  28.366  1.00  0.00     0.074 A 
ATOM     40  C   UNL A   1      39.935  28.492  29.524  1.00  0.00     0.049 A 
ATOM     41  N   UNL A   1      43.075  28.994  29.130  1.00  0.00    -0.248 NA
ATOM     42  C   UNL A   1      42.349  28.826  26.933  1.00  0.00     0.031 C 
ATOM     43  C   UNL A   1      38.553  28.084  29.790  1.00  0.00     0.029 A 
ATOM     44  N   UNL A   1      40.031  29.684  30.179  1.00  0.00    -0.354 N 
ATOM     45  C   UNL A   1      43.985  29.651  28.303  1.00  0.00     0.074 A 
ATOM     46  C   UNL A   1      43.539  29.428  26.951  1.00  0.00     0.031 C 
ATOM     47  C   UNL A   1      37.885  29.111  30.367  1.00  0.00     0.029 A 
ATOM     48  C   UNL A   1      38.822  30.187  30.641  1.00  0.00     0.049 A 
ATOM     49  H   UNL A   1      40.887  30.151  30.314  1.00  0.00     0.167 HD
ATOM     50  C   UNL A   1      44.947  30.476  28.802  1.00  0.00     0.037 A 
ATOM     51  C   UNL A   1      38.603  31.420  31.164  1.00  0.00     0.037 A 
ATOM     52  C   UNL A   1      45.180  30.233  30.199  1.00  0.00     0.049 A 
ATOM     53  C   UNL A   1      39.909  31.948  31.627  1.00  0.00     0.074 A 
ATOM     54  C   UNL A   1      45.624  29.148  30.931  1.00  0.00     0.029 A 
ATOM     55  N   UNL A   1      44.636  31.096  31.115  1.00  0.00    -0.354 N 
ATOM     56  N   UNL A   1      40.571  31.468  32.643  1.00  0.00    -0.248 NA
ATOM     57  C   UNL A   1      40.687  32.740  30.687  1.00  0.00     0.031 C 
ATOM     58  C   UNL A   1      44.871  29.190  32.139  1.00  0.00     0.029 A 
ATOM     59  C   UNL A   1      44.058  30.323  32.087  1.00  0.00     0.049 A 
ATOM     60  H   UNL A   1      44.656  32.081  31.080  1.00  0.00     0.167 HD
ATOM     61  C   UNL A   1      41.901  31.535  32.256  1.00  0.00     0.074 A 
ATOM     62  C   UNL A   1      41.917  32.402  31.081  1.00  0.00     0.031 C 
ATOM     63  C   UNL A   1      42.824  30.662  32.750  1.00  0.00     0.037 A 
BRANCH  50  64
ATOM     64  C   UNL A   1      45.464  31.715  28.115  1.00  0.00     0.064 A 
ATOM     65  C   UNL A   1      44.556  32.720  27.720  1.00  0.00     0.173 A 
ATOM     66  C   UNL A   1      46.756  31.808  27.558  1.00  0.00     0.173 A 
ATOM     67  F   UNL A   1      43.294  32.720  28.175  1.00  0.00    -0.203 F 
ATOM     68  C   UNL A   1      44.895  33.690  26.773  1.00  0.00     0.198 A 
ATOM     69  C   UNL A   1      47.105  32.809  26.653  1.00  0.00     0.198 A 
ATOM     70  F   UNL A   1      47.689  30.873  27.774  1.00  0.00    -0.203 F 
ATOM     71  F   UNL A   1      43.962  34.545  26.331  1.00  0.00    -0.200 F 
ATOM     72  C   UNL A   1      46.168  33.729  26.234  1.00  0.00     0.200 A 
ATOM     73  F   UNL A   1      48.338  32.818  26.126  1.00  0.00    -0.200 F 
ATOM     74  F   UNL A   1      46.476  34.615  25.279  1.00  0.00    -0.200 F 
ENDBRANCH  50  64
BRANCH  51  75
ATOM     75  C   UNL A   1      37.407  32.284  31.016  1.00  0.00     0.064 A 
ATOM     76  C   UNL A   1      37.164  33.001  29.833  1.00  0.00     0.173 A 
ATOM     77  C   UNL A   1      36.335  32.201  31.926  1.00  0.00     0.173 A 
ATOM     78  F   UNL A   1      38.114  33.089  28.890  1.00  0.00    -0.203 F 
ATOM     79  C   UNL A   1      35.917  33.579  29.567  1.00  0.00     0.198 A 
ATOM     80  C   UNL A   1      35.095  32.782  31.664  1.00  0.00     0.198 A 
ATOM     81  F   UNL A   1      36.441  31.469  33.045  1.00  0.00    -0.203 F 
ATOM     82  F   UNL A   1      35.703  34.203  28.400  1.00  0.00    -0.200 F 
ATOM     83  C   UNL A   1      34.881  33.461  30.479  1.00  0.00     0.200 A 
ATOM     84  F   UNL A   1      34.090  32.626  32.538  1.00  0.00    -0.200 F 
ATOM     85  F   UNL A   1      33.669  33.960  30.199  1.00  0.00    -0.200 F 
ENDBRANCH  51  75
BRANCH  63  86
ATOM     86  C   UNL A   1      42.436  29.786  33.906  1.00  0.00     0.064 A 
ATOM     87  C   UNL A   1      41.811  28.537  33.755  1.00  0.00     0.173 A 
ATOM     88  C   UNL A   1      42.912  30.125  35.179  1.00  0.00     0.173 A 
ATOM     89  F   UNL A   1      41.415  28.102  32.553  1.00  0.00    -0.203 F 
ATOM     90  C   UNL A   1      41.663  27.672  34.839  1.00  0.00     0.198 A 
ATOM     91  C   UNL A   1      42.793  29.245  36.251  1.00  0.00     0.198 A 
ATOM     92  F   UNL A   1      43.567  31.282  35.366  1.00  0.00    -0.203 F 
ATOM     93  F   UNL A   1      41.085  26.473  34.668  1.00  0.00    -0.200 F 
ATOM     94  C   UNL A   1      42.167  28.021  36.081  1.00  0.00     0.200 A 
ATOM     95  F   UNL A   1      43.331  29.563  37.437  1.00  0.00    -0.200 F 
ATOM     96  F   UNL A   1      42.088  27.159  37.104  1.00  0.00    -0.200 F 
ENDBRANCH  63  86
ENDBRANCH  37  38
ENDBRANCH  29  32
ENDBRANCH  27  28
ENDBRANCH  26  27
ENDBRANCH   1  26
TORSDOF 16
ENDMDL
MODEL 2
REMARK VINA RESULT:     -11.3      4.163      6.879
REMARK SMILES CC(C)Cn1c([C@@H](O)[C@@H](O)C(=O)NCCCNC(=O)c2ccc(-c3c4nc(c(-c5c(F)c(F)c(F)c(F)c5F)c5ccc([nH]5)c(-c5c(F)c(F)c(F)c(F)c5F)c5nc(c(-c6c(F)c(F)c(F)c(F)c6F)c6ccc3[nH]6)C=C5)C=C4)cc2)nc2cc(Cl)ccc21
REMARK SMILES IDX 14 1 13 2 11 3 12 4 9 6 7 7 6 8 5 9 90 10 83 11 84 12 89 13
REMARK SMILES IDX 85 14 88 15 86 16 87 17 4 18 2 19 1 20 3 21 8 22 10 24 15 26
REMARK SMILES IDX 16 27 17 28 18 29 19 31 20 32 21 33 82 34 22 35 81 36 23 37
REMARK SMILES IDX 24 38 25 39 75 40 26 41 80 42 74 43 76 44 27 45 79 46 73 47
REMARK SMILES IDX 72 48 28 50 60 51 40 52 59 53 41 54 44 55 58 56 77 57 42 58
REMARK SMILES IDX 43 59 57 61 78 62 45 63 29 64 30 65 38 66 31 67 32 68 36 69
REMARK SMILES IDX 39 70 33 71 34 72 37 73 35 74 61 75 62 76 70 77 63 78 64 79
REMARK SMILES IDX 68 80 71 81 65 82 66 83 69 84 67 85 46 86 47 87 55 88 48 89
REMARK SMILES IDX 49 90 53 91 56 92 50 93 51 94 54 95 52 96
REMARK H PARENT 13 5 8 23 10 25 17 30 76 49 44 60
REMARK Flexibility Score: inf
ROOT
ATOM      1  C   UNL A   1      35.260  23.610  24.165  1.00  0.00     0.117 C 
ENDROOT
BRANCH   1   2
ATOM      2  N   UNL A   1      34.684  23.208  22.896  1.00  0.00    -0.354 N 
ATOM      3  C   UNL A   1      33.522  23.588  22.287  1.00  0.00     0.252 C 
ATOM      4  O   UNL A   1      33.326  23.173  21.140  1.00  0.00    -0.272 OA
ATOM      5  H   UNL A   1      35.220  22.554  22.390  1.00  0.00     0.163 HD
BRANCH   3   6
ATOM      6  C   UNL A   1      32.507  24.507  22.986  1.00  0.00     0.239 C 
BRANCH   6   7
ATOM      7  C   UNL A   1      32.615  25.957  22.490  1.00  0.00     0.219 C 
BRANCH   7   8
ATOM      8  C   UNL A   1      32.778  26.898  23.656  1.00  0.00     0.142 A 
ATOM      9  N   UNL A   1      31.739  27.541  24.300  1.00  0.00    -0.325 N 
ATOM     10  C   UNL A   1      32.270  28.279  25.335  1.00  0.00     0.068 A 
ATOM     11  N   UNL A   1      33.935  27.231  24.196  1.00  0.00    -0.230 NA
ATOM     12  C   UNL A   1      33.641  28.069  25.241  1.00  0.00     0.090 A 
ATOM     13  C   UNL A   1      31.696  29.102  26.312  1.00  0.00     0.030 A 
ATOM     14  C   UNL A   1      34.506  28.694  26.149  1.00  0.00     0.051 A 
ATOM     15  C   UNL A   1      32.570  29.726  27.209  1.00  0.00     0.023 A 
ATOM     16  C   UNL A   1      33.949  29.524  27.126  1.00  0.00     0.043 A 
ATOM     17  Cl  UNL A   1      34.986  30.319  28.248  1.00  0.00    -0.084 Cl
BRANCH   9  18
ATOM     18  C   UNL A   1      30.329  27.498  23.955  1.00  0.00     0.127 C 
BRANCH  18  19
ATOM     19  C   UNL A   1      29.803  28.822  23.370  1.00  0.00     0.003 C 
ATOM     20  C   UNL A   1      30.626  29.320  22.178  1.00  0.00     0.009 C 
ATOM     21  C   UNL A   1      28.341  28.659  22.952  1.00  0.00     0.009 C 
ENDBRANCH  18  19
ENDBRANCH   9  18
ENDBRANCH   7   8
BRANCH   7  22
ATOM     22  O   UNL A   1      33.740  26.146  21.626  1.00  0.00    -0.382 OA
ATOM     23  H   UNL A   1      33.906  25.329  21.128  1.00  0.00     0.211 HD
ENDBRANCH   7  22
ENDBRANCH   6   7
BRANCH   6  24
ATOM     24  O   UNL A   1      31.173  24.003  22.817  1.00  0.00    -0.380 OA
ATOM     25  H   UNL A   1      30.943  23.437  23.571  1.00  0.00     0.211 HD
ENDBRANCH   6  24
ENDBRANCH   3   6
ENDBRANCH   1   2
BRANCH   1  26
ATOM     26  C   UNL A   1      36.628  22.970  24.419  1.00  0.00     0.042 C 
BRANCH  26  27
ATOM     27  C   UNL A   1      37.000  22.852  25.897  1.00  0.00     0.118 C 
BRANCH  27  28
ATOM     28  N   UNL A   1      38.243  22.151  26.133  1.00  0.00    -0.352 N 
ATOM     29  C   UNL A   1      39.450  22.451  26.704  1.00  0.00     0.251 C 
ATOM     30  H   UNL A   1      38.215  21.226  25.796  1.00  0.00     0.163 HD
ATOM     31  O   UNL A   1      40.234  21.517  26.815  1.00  0.00    -0.269 OA
BRANCH  29  32
ATOM     32  C   UNL A   1      39.893  23.808  27.135  1.00  0.00     0.039 A 
ATOM     33  C   UNL A   1      40.994  24.103  27.937  1.00  0.00     0.014 A 
ATOM     34  C   UNL A   1      39.058  24.871  26.729  1.00  0.00     0.014 A 
ATOM     35  C   UNL A   1      41.197  25.402  28.401  1.00  0.00     0.010 A 
ATOM     36  C   UNL A   1      39.264  26.171  27.179  1.00  0.00     0.010 A 
ATOM     37  C   UNL A   1      40.306  26.427  28.059  1.00  0.00    -0.014 A 
BRANCH  37  38
ATOM     38  C   UNL A   1      40.547  27.763  28.600  1.00  0.00     0.031 A 
ATOM     39  C   UNL A   1      41.794  28.432  28.128  1.00  0.00     0.074 A 
ATOM     40  C   UNL A   1      39.684  28.418  29.405  1.00  0.00     0.049 A 
ATOM     41  N   UNL A   1      42.813  28.810  28.831  1.00  0.00    -0.248 NA
ATOM     42  C   UNL A   1      41.961  28.628  26.680  1.00  0.00     0.031 C 
ATOM     43  C   UNL A   1      38.307  28.062  29.754  1.00  0.00     0.029 A 
ATOM     44  N   UNL A   1      39.854  29.619  30.031  1.00  0.00    -0.354 N 
ATOM     45  C   UNL A   1      43.696  29.422  27.942  1.00  0.00     0.074 A 
ATOM     46  C   UNL A   1      43.170  29.190  26.621  1.00  0.00     0.031 C 
ATOM     47  C   UNL A   1      37.705  29.120  30.346  1.00  0.00     0.029 A 
ATOM     48  C   UNL A   1      38.690  30.169  30.547  1.00  0.00     0.049 A 
ATOM     49  H   UNL A   1      40.731  30.059  30.110  1.00  0.00     0.167 HD
ATOM     50  C   UNL A   1      44.710  30.223  28.372  1.00  0.00     0.037 A 
ATOM     51  C   UNL A   1      38.539  31.418  31.058  1.00  0.00     0.037 A 
ATOM     52  C   UNL A   1      45.011  29.998  29.759  1.00  0.00     0.049 A 
ATOM     53  C   UNL A   1      39.884  31.911  31.438  1.00  0.00     0.074 A 
ATOM     54  C   UNL A   1      45.460  28.912  30.487  1.00  0.00     0.029 A 
ATOM     55  N   UNL A   1      44.547  30.895  30.686  1.00  0.00    -0.354 N 
ATOM     56  N   UNL A   1      40.586  31.427  32.426  1.00  0.00    -0.248 NA
ATOM     57  C   UNL A   1      40.634  32.660  30.442  1.00  0.00     0.031 C 
ATOM     58  C   UNL A   1      44.777  29.000  31.733  1.00  0.00     0.029 A 
ATOM     59  C   UNL A   1      43.998  30.159  31.703  1.00  0.00     0.049 A 
ATOM     60  H   UNL A   1      44.596  31.877  30.631  1.00  0.00     0.167 HD
ATOM     61  C   UNL A   1      41.894  31.443  31.966  1.00  0.00     0.074 A 
ATOM     62  C   UNL A   1      41.873  32.289  30.775  1.00  0.00     0.031 C 
ATOM     63  C   UNL A   1      42.815  30.550  32.426  1.00  0.00     0.037 A 
BRANCH  50  64
ATOM     64  C   UNL A   1      45.228  31.432  27.634  1.00  0.00     0.064 A 
ATOM     65  C   UNL A   1      46.563  31.449  27.179  1.00  0.00     0.173 A 
ATOM     66  C   UNL A   1      44.569  32.678  27.634  1.00  0.00     0.173 A 
ATOM     67  F   UNL A   1      47.292  30.323  27.152  1.00  0.00    -0.203 F 
ATOM     68  C   UNL A   1      47.210  32.639  26.833  1.00  0.00     0.198 A 
ATOM     69  C   UNL A   1      45.203  33.856  27.239  1.00  0.00     0.198 A 
ATOM     70  F   UNL A   1      43.332  32.825  28.124  1.00  0.00    -0.203 F 
ATOM     71  F   UNL A   1      48.516  32.623  26.531  1.00  0.00    -0.200 F 
ATOM     72  C   UNL A   1      46.531  33.842  26.871  1.00  0.00     0.200 A 
ATOM     73  F   UNL A   1      44.534  35.016  27.301  1.00  0.00    -0.200 F 
ATOM     74  F   UNL A   1      47.166  34.991  26.605  1.00  0.00    -0.200 F 
ENDBRANCH  50  64
BRANCH  51  75
ATOM     75  C   UNL A   1      37.365  32.318  30.959  1.00  0.00     0.064 A 
ATOM     76  C   UNL A   1      37.082  33.025  29.777  1.00  0.00     0.173 A 
ATOM     77  C   UNL A   1      36.341  32.283  31.925  1.00  0.00     0.173 A 
ATOM     78  F   UNL A   1      37.983  33.068  28.785  1.00  0.00    -0.203 F 
ATOM     79  C   UNL A   1      35.843  33.640  29.568  1.00  0.00     0.198 A 
ATOM     80  C   UNL A   1      35.107  32.901  31.718  1.00  0.00     0.198 A 
ATOM     81  F   UNL A   1      36.482  31.565  33.048  1.00  0.00    -0.203 F 
ATOM     82  F   UNL A   1      35.587  34.252  28.403  1.00  0.00    -0.200 F 
ATOM     83  C   UNL A   1      34.852  33.569  30.535  1.00  0.00     0.200 A 
ATOM     84  F   UNL A   1      34.145  32.791  32.646  1.00  0.00    -0.200 F 
ATOM     85  F   UNL A   1      33.644  34.103  30.310  1.00  0.00    -0.200 F 
ENDBRANCH  51  75
BRANCH  63  86
ATOM     86  C   UNL A   1      42.463  29.708  33.618  1.00  0.00     0.064 A 
ATOM     87  C   UNL A   1      41.825  28.459  33.523  1.00  0.00     0.173 A 
ATOM     88  C   UNL A   1      42.987  30.077  34.864  1.00  0.00     0.173 A 
ATOM     89  F   UNL A   1      41.384  27.995  32.348  1.00  0.00    -0.203 F 
ATOM     90  C   UNL A   1      41.711  27.625  34.634  1.00  0.00     0.198 A 
ATOM     91  C   UNL A   1      42.901  29.227  35.962  1.00  0.00     0.198 A 
ATOM     92  F   UNL A   1      43.655  31.234  34.996  1.00  0.00    -0.203 F 
ATOM     93  F   UNL A   1      41.120  26.426  34.517  1.00  0.00    -0.200 F 
ATOM     94  C   UNL A   1      42.262  28.003  35.848  1.00  0.00     0.200 A 
ATOM     95  F   UNL A   1      43.483  29.572  37.119  1.00  0.00    -0.200 F 
ATOM     96  F   UNL A   1      42.215  27.169  36.896  1.00  0.00    -0.200 F 
ENDBRANCH  63  86
ENDBRANCH  37  38
ENDBRANCH  29  32
ENDBRANCH  27  28
ENDBRANCH  26  27
ENDBRANCH   1  26
TORSDOF 16
ENDMDL
MODEL 3
REMARK VINA RESULT:     -11.3      4.637     10.505
REMARK SMILES CC(C)Cn1c([C@@H](O)[C@@H](O)C(=O)NCCCNC(=O)c2ccc(-c3c4nc(c(-c5c(F)c(F)c(F)c(F)c5F)c5ccc([nH]5)c(-c5c(F)c(F)c(F)c(F)c5F)c5nc(c(-c6c(F)c(F)c(F)c(F)c6F)c6ccc3[nH]6)C=C5)C=C4)cc2)nc2cc(Cl)ccc21
REMARK SMILES IDX 14 1 13 2 11 3 12 4 9 6 7 7 6 8 5 9 90 10 83 11 84 12 89 13
REMARK SMILES IDX 85 14 88 15 86 16 87 17 4 18 2 19 1 20 3 21 8 22 10 24 15 26
REMARK SMILES IDX 16 27 17 28 18 29 19 31 20 32 21 33 82 34 22 35 81 36 23 37
REMARK SMILES IDX 24 38 25 39 75 40 26 41 80 42 74 43 76 44 27 45 79 46 73 47
REMARK SMILES IDX 72 48 28 50 60 51 40 52 59 53 41 54 44 55 58 56 77 57 42 58
REMARK SMILES IDX 43 59 57 61 78 62 45 63 29 64 30 65 38 66 31 67 32 68 36 69
REMARK SMILES IDX 39 70 33 71 34 72 37 73 35 74 61 75 62 76 70 77 63 78 64 79
REMARK SMILES IDX 68 80 71 81 65 82 66 83 69 84 67 85 46 86 47 87 55 88 48 89
REMARK SMILES IDX 49 90 53 91 56 92 50 93 51 94 54 95 52 96
REMARK H PARENT 13 5 8 23 10 25 17 30 76 49 44 60
REMARK Flexibility Score: inf
ROOT
ATOM      1  C   UNL A   1      32.174  28.341  27.434  1.00  0.00     0.117 C 
ENDROOT
BRANCH   1   2
ATOM      2  N   UNL A   1      31.048  27.521  27.029  1.00  0.00    -0.354 N 
ATOM      3  C   UNL A   1      31.008  26.250  26.529  1.00  0.00     0.252 C 
ATOM      4  O   UNL A   1      29.893  25.742  26.374  1.00  0.00    -0.272 OA
ATOM      5  H   UNL A   1      30.167  27.951  27.132  1.00  0.00     0.163 HD
BRANCH   3   6
ATOM      6  C   UNL A   1      32.291  25.475  26.190  1.00  0.00     0.239 C 
BRANCH   6   7
ATOM      7  C   UNL A   1      32.060  23.957  26.205  1.00  0.00     0.219 C 
BRANCH   7   8
ATOM      8  C   UNL A   1      33.364  23.228  26.005  1.00  0.00     0.142 A 
ATOM      9  N   UNL A   1      33.481  21.938  25.525  1.00  0.00    -0.325 N 
ATOM     10  C   UNL A   1      34.822  21.633  25.442  1.00  0.00     0.068 A 
ATOM     11  N   UNL A   1      34.555  23.730  26.277  1.00  0.00    -0.230 NA
ATOM     12  C   UNL A   1      35.465  22.767  25.923  1.00  0.00     0.090 A 
ATOM     13  C   UNL A   1      35.516  20.493  25.017  1.00  0.00     0.030 A 
ATOM     14  C   UNL A   1      36.864  22.798  25.993  1.00  0.00     0.051 A 
ATOM     15  C   UNL A   1      36.912  20.533  25.098  1.00  0.00     0.023 A 
ATOM     16  C   UNL A   1      37.571  21.666  25.579  1.00  0.00     0.043 A 
ATOM     17  Cl  UNL A   1      39.291  21.666  25.668  1.00  0.00    -0.084 Cl
BRANCH   9  18
ATOM     18  C   UNL A   1      32.403  21.025  25.189  1.00  0.00     0.127 C 
BRANCH  18  19
ATOM     19  C   UNL A   1      32.060  21.011  23.688  1.00  0.00     0.003 C 
ATOM     20  C   UNL A   1      32.752  22.129  22.904  1.00  0.00     0.009 C 
ATOM     21  C   UNL A   1      32.430  19.655  23.084  1.00  0.00     0.009 C 
ENDBRANCH  18  19
ENDBRANCH   9  18
ENDBRANCH   7   8
BRANCH   7  22
ATOM     22  O   UNL A   1      31.505  23.511  27.446  1.00  0.00    -0.382 OA
ATOM     23  H   UNL A   1      30.875  22.792  27.278  1.00  0.00     0.211 HD
ENDBRANCH   7  22
ENDBRANCH   6   7
BRANCH   6  24
ATOM     24  O   UNL A   1      32.818  25.904  24.924  1.00  0.00    -0.380 OA
ATOM     25  H   UNL A   1      33.031  26.850  24.967  1.00  0.00     0.211 HD
ENDBRANCH   6  24
ENDBRANCH   3   6
ENDBRANCH   1   2
BRANCH   1  26
ATOM     26  C   UNL A   1      32.026  29.800  26.993  1.00  0.00     0.042 C 
BRANCH  26  27
ATOM     27  C   UNL A   1      33.353  30.510  26.725  1.00  0.00     0.118 C 
BRANCH  27  28
ATOM     28  N   UNL A   1      33.717  31.473  27.742  1.00  0.00    -0.352 N 
ATOM     29  C   UNL A   1      34.847  31.773  28.453  1.00  0.00     0.251 C 
ATOM     30  H   UNL A   1      32.963  32.057  27.984  1.00  0.00     0.163 HD
ATOM     31  O   UNL A   1      34.780  32.768  29.165  1.00  0.00    -0.269 OA
BRANCH  29  32
ATOM     32  C   UNL A   1      36.102  30.967  28.473  1.00  0.00     0.039 A 
ATOM     33  C   UNL A   1      36.223  29.618  28.143  1.00  0.00     0.014 A 
ATOM     34  C   UNL A   1      37.247  31.648  28.936  1.00  0.00     0.014 A 
ATOM     35  C   UNL A   1      37.425  28.947  28.365  1.00  0.00     0.010 A 
ATOM     36  C   UNL A   1      38.453  30.987  29.146  1.00  0.00     0.010 A 
ATOM     37  C   UNL A   1      38.526  29.620  28.909  1.00  0.00    -0.014 A 
BRANCH  37  38
ATOM     38  C   UNL A   1      39.751  28.862  29.153  1.00  0.00     0.031 A 
ATOM     39  C   UNL A   1      40.126  28.690  30.586  1.00  0.00     0.074 A 
ATOM     40  C   UNL A   1      40.477  28.267  28.182  1.00  0.00     0.049 A 
ATOM     41  N   UNL A   1      41.189  29.111  31.190  1.00  0.00    -0.248 NA
ATOM     42  C   UNL A   1      39.153  28.037  31.475  1.00  0.00     0.031 C 
ATOM     43  C   UNL A   1      40.137  28.083  26.769  1.00  0.00     0.029 A 
ATOM     44  N   UNL A   1      41.673  27.620  28.293  1.00  0.00    -0.354 N 
ATOM     45  C   UNL A   1      41.098  28.659  32.506  1.00  0.00     0.074 A 
ATOM     46  C   UNL A   1      39.780  28.096  32.652  1.00  0.00     0.031 C 
ATOM     47  C   UNL A   1      40.995  27.196  26.213  1.00  0.00     0.029 A 
ATOM     48  C   UNL A   1      42.024  26.864  27.184  1.00  0.00     0.049 A 
ATOM     49  H   UNL A   1      42.240  27.684  29.095  1.00  0.00     0.167 HD
ATOM     50  C   UNL A   1      42.179  28.631  33.335  1.00  0.00     0.037 A 
ATOM     51  C   UNL A   1      43.059  25.991  27.092  1.00  0.00     0.037 A 
ATOM     52  C   UNL A   1      43.229  29.490  32.864  1.00  0.00     0.049 A 
ATOM     53  C   UNL A   1      44.033  26.338  28.154  1.00  0.00     0.074 A 
ATOM     54  C   UNL A   1      43.341  30.850  32.643  1.00  0.00     0.029 A 
ATOM     55  N   UNL A   1      44.303  28.925  32.225  1.00  0.00    -0.354 N 
ATOM     56  N   UNL A   1      44.752  27.426  28.157  1.00  0.00    -0.248 NA
ATOM     57  C   UNL A   1      43.891  25.675  29.441  1.00  0.00     0.031 C 
ATOM     58  C   UNL A   1      44.155  30.965  31.481  1.00  0.00     0.029 A 
ATOM     59  C   UNL A   1      44.528  29.675  31.101  1.00  0.00     0.049 A 
ATOM     60  H   UNL A   1      44.811  28.133  32.516  1.00  0.00     0.167 HD
ATOM     61  C   UNL A   1      44.798  27.811  29.488  1.00  0.00     0.074 A 
ATOM     62  C   UNL A   1      44.324  26.653  30.241  1.00  0.00     0.031 C 
ATOM     63  C   UNL A   1      44.948  29.120  29.839  1.00  0.00     0.037 A 
BRANCH  50  64
ATOM     64  C   UNL A   1      42.419  27.596  34.405  1.00  0.00     0.064 A 
ATOM     65  C   UNL A   1      43.044  26.377  34.064  1.00  0.00     0.173 A 
ATOM     66  C   UNL A   1      41.787  27.624  35.664  1.00  0.00     0.173 A 
ATOM     67  F   UNL A   1      43.662  26.231  32.882  1.00  0.00    -0.203 F 
ATOM     68  C   UNL A   1      42.964  25.251  34.888  1.00  0.00     0.198 A 
ATOM     69  C   UNL A   1      41.754  26.513  36.506  1.00  0.00     0.198 A 
ATOM     70  F   UNL A   1      41.080  28.682  36.078  1.00  0.00    -0.203 F 
ATOM     71  F   UNL A   1      43.461  24.080  34.465  1.00  0.00    -0.200 F 
ATOM     72  C   UNL A   1      42.313  25.318  36.105  1.00  0.00     0.200 A 
ATOM     73  F   UNL A   1      41.101  26.591  37.674  1.00  0.00    -0.200 F 
ATOM     74  F   UNL A   1      42.177  24.224  36.866  1.00  0.00    -0.200 F 
ENDBRANCH  50  64
BRANCH  51  75
ATOM     75  C   UNL A   1      43.118  24.706  26.354  1.00  0.00     0.064 A 
ATOM     76  C   UNL A   1      43.943  24.546  25.228  1.00  0.00     0.173 A 
ATOM     77  C   UNL A   1      42.582  23.527  26.906  1.00  0.00     0.173 A 
ATOM     78  F   UNL A   1      44.534  25.612  24.668  1.00  0.00    -0.203 F 
ATOM     79  C   UNL A   1      44.232  23.282  24.702  1.00  0.00     0.198 A 
ATOM     80  C   UNL A   1      42.865  22.267  26.379  1.00  0.00     0.198 A 
ATOM     81  F   UNL A   1      41.851  23.567  28.030  1.00  0.00    -0.203 F 
ATOM     82  F   UNL A   1      45.073  23.164  23.665  1.00  0.00    -0.200 F 
ATOM     83  C   UNL A   1      43.700  22.142  25.285  1.00  0.00     0.200 A 
ATOM     84  F   UNL A   1      42.375  21.171  26.976  1.00  0.00    -0.200 F 
ATOM     85  F   UNL A   1      44.026  20.928  24.821  1.00  0.00    -0.200 F 
ENDBRANCH  51  75
BRANCH  63  86
ATOM     86  C   UNL A   1      45.313  30.111  28.772  1.00  0.00     0.064 A 
ATOM     87  C   UNL A   1      44.368  30.739  27.944  1.00  0.00     0.173 A 
ATOM     88  C   UNL A   1      46.626  30.596  28.744  1.00  0.00     0.173 A 
ATOM     89  F   UNL A   1      43.075  30.395  27.984  1.00  0.00    -0.203 F 
ATOM     90  C   UNL A   1      44.731  31.802  27.117  1.00  0.00     0.198 A 
ATOM     91  C   UNL A   1      46.977  31.679  27.943  1.00  0.00     0.198 A 
ATOM     92  F   UNL A   1      47.556  30.069  29.557  1.00  0.00    -0.203 F 
ATOM     93  F   UNL A   1      43.807  32.404  26.352  1.00  0.00    -0.200 F 
ATOM     94  C   UNL A   1      46.031  32.280  27.130  1.00  0.00     0.200 A 
ATOM     95  F   UNL A   1      48.222  32.174  28.000  1.00  0.00    -0.200 F 
ATOM     96  F   UNL A   1      46.361  33.347  26.389  1.00  0.00    -0.200 F 
ENDBRANCH  63  86
ENDBRANCH  37  38
ENDBRANCH  29  32
ENDBRANCH  27  28
ENDBRANCH  26  27
ENDBRANCH   1  26
TORSDOF 16
ENDMDL
