MODEL 1
REMARK VINA RESULT:     -11.4      0.000      0.000
REMARK SMILES O=C(NCCCNC(=O)[C@]1(O)C[C@@H]2C=C[C@H]1C2)c1ccc(-c2c3nc(c(-c4c(F)c(F)c(F)c(F)c4F)c4ccc([nH]4)c(-c4c(F)c(F)c(F)c(F)c4F)c4nc(c(-c5c(F)c(F)c(F)c(F)c5F)c5ccc2[nH]5)C=C4)C=C3)cc1
REMARK SMILES IDX 4 1 3 2 1 3 2 4 18 6 19 7 80 8 20 9 79 10 21 11 22 12 23 13
REMARK SMILES IDX 73 14 24 15 78 16 72 17 74 18 25 19 77 20 71 21 70 22 26 24
REMARK SMILES IDX 58 25 38 26 57 27 39 28 42 29 56 30 75 31 40 32 41 33 55 35
REMARK SMILES IDX 76 36 43 37 27 38 28 39 36 40 29 41 30 42 34 43 37 44 31 45
REMARK SMILES IDX 32 46 35 47 33 48 59 49 60 50 68 51 61 52 62 53 66 54 69 55
REMARK SMILES IDX 63 56 64 57 67 58 65 59 44 60 45 61 53 62 46 63 47 64 51 65
REMARK SMILES IDX 54 66 48 67 49 68 52 69 50 70 5 71 6 72 7 73 8 74 9 76 10 77
REMARK SMILES IDX 12 78 16 79 13 80 15 81 17 82 14 83 11 84
REMARK H PARENT 3 5 74 23 42 34 7 75 11 85
REMARK Flexibility Score: inf
ROOT
ATOM      1  C   UNL A   1      41.886  19.699  27.527  1.00  0.00     0.118 C 
ENDROOT
BRANCH   1   2
ATOM      2  N   UNL A   1      40.669  19.834  26.746  1.00  0.00    -0.352 N 
ATOM      3  O   UNL A   1      38.784  20.807  26.004  1.00  0.00    -0.269 OA
ATOM      4  C   UNL A   1      39.897  20.943  26.501  1.00  0.00     0.251 C 
ATOM      5  H   UNL A   1      40.349  19.003  26.328  1.00  0.00     0.163 HD
BRANCH   4   6
ATOM      6  C   UNL A   1      40.389  22.299  26.839  1.00  0.00     0.039 A 
ATOM      7  C   UNL A   1      41.400  22.490  27.783  1.00  0.00     0.014 A 
ATOM      8  C   UNL A   1      39.877  23.396  26.138  1.00  0.00     0.014 A 
ATOM      9  C   UNL A   1      41.809  23.779  28.115  1.00  0.00     0.010 A 
ATOM     10  C   UNL A   1      40.354  24.683  26.406  1.00  0.00     0.010 A 
ATOM     11  C   UNL A   1      41.313  24.886  27.410  1.00  0.00    -0.014 A 
BRANCH  11  12
ATOM     12  C   UNL A   1      41.879  26.232  27.676  1.00  0.00     0.031 A 
ATOM     13  C   UNL A   1      43.240  26.620  27.170  1.00  0.00     0.074 A 
ATOM     14  C   UNL A   1      41.142  27.113  28.379  1.00  0.00     0.049 A 
ATOM     15  N   UNL A   1      43.878  27.755  27.309  1.00  0.00    -0.248 NA
ATOM     16  C   UNL A   1      43.986  25.600  26.418  1.00  0.00     0.031 C 
ATOM     17  C   UNL A   1      39.815  26.839  28.938  1.00  0.00     0.029 A 
ATOM     18  N   UNL A   1      41.390  28.414  28.736  1.00  0.00    -0.354 N 
ATOM     19  C   UNL A   1      45.103  27.584  26.678  1.00  0.00     0.074 A 
ATOM     20  C   UNL A   1      45.131  26.225  26.178  1.00  0.00     0.031 C 
ATOM     21  C   UNL A   1      39.350  27.948  29.531  1.00  0.00     0.029 A 
ATOM     22  C   UNL A   1      40.367  28.989  29.451  1.00  0.00     0.049 A 
ATOM     23  H   UNL A   1      42.219  28.889  28.504  1.00  0.00     0.167 HD
ATOM     24  C   UNL A   1      46.104  28.483  26.523  1.00  0.00     0.037 A 
ATOM     25  C   UNL A   1      40.266  30.214  29.998  1.00  0.00     0.037 A 
ATOM     26  C   UNL A   1      46.062  29.838  27.017  1.00  0.00     0.049 A 
ATOM     27  C   UNL A   1      41.404  31.180  29.833  1.00  0.00     0.074 A 
ATOM     28  C   UNL A   1      47.008  30.838  26.875  1.00  0.00     0.029 A 
ATOM     29  N   UNL A   1      45.019  30.378  27.756  1.00  0.00    -0.354 N 
ATOM     30  N   UNL A   1      42.536  31.022  29.192  1.00  0.00    -0.248 NA
ATOM     31  C   UNL A   1      41.249  32.495  30.467  1.00  0.00     0.031 C 
ATOM     32  C   UNL A   1      46.563  31.966  27.573  1.00  0.00     0.029 A 
ATOM     33  C   UNL A   1      45.311  31.689  28.101  1.00  0.00     0.049 A 
ATOM     34  H   UNL A   1      44.193  29.901  28.000  1.00  0.00     0.167 HD
ATOM     35  C   UNL A   1      43.222  32.219  29.330  1.00  0.00     0.074 A 
ATOM     36  C   UNL A   1      42.368  33.104  30.097  1.00  0.00     0.031 C 
ATOM     37  C   UNL A   1      44.451  32.555  28.866  1.00  0.00     0.037 A 
BRANCH  24  38
ATOM     38  C   UNL A   1      47.344  28.032  25.805  1.00  0.00     0.064 A 
ATOM     39  C   UNL A   1      48.514  27.687  26.497  1.00  0.00     0.173 A 
ATOM     40  C   UNL A   1      47.346  27.894  24.408  1.00  0.00     0.173 A 
ATOM     41  F   UNL A   1      48.569  27.808  27.833  1.00  0.00    -0.203 F 
ATOM     42  C   UNL A   1      49.647  27.246  25.817  1.00  0.00     0.198 A 
ATOM     43  C   UNL A   1      48.471  27.426  23.734  1.00  0.00     0.198 A 
ATOM     44  F   UNL A   1      46.252  28.202  23.696  1.00  0.00    -0.203 F 
ATOM     45  F   UNL A   1      50.768  26.965  26.497  1.00  0.00    -0.200 F 
ATOM     46  C   UNL A   1      49.623  27.109  24.438  1.00  0.00     0.200 A 
ATOM     47  F   UNL A   1      48.441  27.282  22.401  1.00  0.00    -0.200 F 
ATOM     48  F   UNL A   1      50.712  26.678  23.786  1.00  0.00    -0.200 F 
ENDBRANCH  24  38
BRANCH  25  49
ATOM     49  C   UNL A   1      39.042  30.585  30.755  1.00  0.00     0.064 A 
ATOM     50  C   UNL A   1      38.978  30.429  32.145  1.00  0.00     0.173 A 
ATOM     51  C   UNL A   1      37.920  31.120  30.104  1.00  0.00     0.173 A 
ATOM     52  F   UNL A   1      40.018  29.905  32.810  1.00  0.00    -0.203 F 
ATOM     53  C   UNL A   1      37.830  30.777  32.856  1.00  0.00     0.198 A 
ATOM     54  C   UNL A   1      36.786  31.497  30.818  1.00  0.00     0.198 A 
ATOM     55  F   UNL A   1      37.934  31.296  28.774  1.00  0.00    -0.203 F 
ATOM     56  F   UNL A   1      37.778  30.577  34.179  1.00  0.00    -0.200 F 
ATOM     57  C   UNL A   1      36.739  31.318  32.192  1.00  0.00     0.200 A 
ATOM     58  F   UNL A   1      35.741  32.036  30.176  1.00  0.00    -0.200 F 
ATOM     59  F   UNL A   1      35.639  31.661  32.877  1.00  0.00    -0.200 F 
ENDBRANCH  25  49
BRANCH  37  60
ATOM     60  C   UNL A   1      44.930  33.949  29.153  1.00  0.00     0.064 A 
ATOM     61  C   UNL A   1      45.698  34.243  30.289  1.00  0.00     0.173 A 
ATOM     62  C   UNL A   1      44.638  34.995  28.265  1.00  0.00     0.173 A 
ATOM     63  F   UNL A   1      45.988  33.279  31.176  1.00  0.00    -0.203 F 
ATOM     64  C   UNL A   1      46.133  35.542  30.540  1.00  0.00     0.198 A 
ATOM     65  C   UNL A   1      45.101  36.286  28.504  1.00  0.00     0.198 A 
ATOM     66  F   UNL A   1      43.911  34.765  27.162  1.00  0.00    -0.203 F 
ATOM     67  F   UNL A   1      46.821  35.811  31.658  1.00  0.00    -0.200 F 
ATOM     68  C   UNL A   1      45.840  36.559  29.645  1.00  0.00     0.200 A 
ATOM     69  F   UNL A   1      44.828  37.266  27.632  1.00  0.00    -0.200 F 
ATOM     70  F   UNL A   1      46.264  37.808  29.887  1.00  0.00    -0.200 F 
ENDBRANCH  37  60
ENDBRANCH  11  12
ENDBRANCH   4   6
ENDBRANCH   1   2
BRANCH   1  71
ATOM     71  C   UNL A   1      42.659  18.434  27.184  1.00  0.00     0.042 C 
BRANCH  71  72
ATOM     72  C   UNL A   1      43.316  18.454  25.803  1.00  0.00     0.117 C 
BRANCH  72  73
ATOM     73  N   UNL A   1      44.757  18.477  25.907  1.00  0.00    -0.354 N 
ATOM     74  C   UNL A   1      45.692  19.234  25.276  1.00  0.00     0.252 C 
ATOM     75  H   UNL A   1      45.127  17.831  26.551  1.00  0.00     0.163 HD
ATOM     76  O   UNL A   1      46.868  18.949  25.542  1.00  0.00    -0.272 OA
BRANCH  74  77
ATOM     77  C   UNL A   1      45.353  20.453  24.369  1.00  0.00     0.149 C 
ATOM     78  C   UNL A   1      46.403  21.543  24.007  1.00  0.00     0.053 C 
ATOM     79  C   UNL A   1      44.269  21.314  25.112  1.00  0.00     0.053 C 
ATOM     80  C   UNL A   1      45.813  22.836  24.604  1.00  0.00     0.015 C 
ATOM     81  C   UNL A   1      44.865  21.809  26.420  1.00  0.00    -0.024 C 
ATOM     82  C   UNL A   1      44.323  22.635  24.339  1.00  0.00     0.019 C 
ATOM     83  C   UNL A   1      45.817  22.699  26.107  1.00  0.00    -0.027 C 
BRANCH  77  84
ATOM     84  O   UNL A   1      44.868  19.929  23.121  1.00  0.00    -0.379 OA
ATOM     85  H   UNL A   1      44.792  20.649  22.476  1.00  0.00     0.212 HD
ENDBRANCH  77  84
ENDBRANCH  74  77
ENDBRANCH  72  73
ENDBRANCH  71  72
ENDBRANCH   1  71
TORSDOF 11
ENDMDL
MODEL 2
REMARK VINA RESULT:     -11.4      1.237      2.193
REMARK SMILES O=C(NCCCNC(=O)[C@]1(O)C[C@@H]2C=C[C@H]1C2)c1ccc(-c2c3nc(c(-c4c(F)c(F)c(F)c(F)c4F)c4ccc([nH]4)c(-c4c(F)c(F)c(F)c(F)c4F)c4nc(c(-c5c(F)c(F)c(F)c(F)c5F)c5ccc2[nH]5)C=C4)C=C3)cc1
REMARK SMILES IDX 4 1 3 2 1 3 2 4 18 6 19 7 80 8 20 9 79 10 21 11 22 12 23 13
REMARK SMILES IDX 73 14 24 15 78 16 72 17 74 18 25 19 77 20 71 21 70 22 26 24
REMARK SMILES IDX 58 25 38 26 57 27 39 28 42 29 56 30 75 31 40 32 41 33 55 35
REMARK SMILES IDX 76 36 43 37 27 38 28 39 36 40 29 41 30 42 34 43 37 44 31 45
REMARK SMILES IDX 32 46 35 47 33 48 59 49 60 50 68 51 61 52 62 53 66 54 69 55
REMARK SMILES IDX 63 56 64 57 67 58 65 59 44 60 45 61 53 62 46 63 47 64 51 65
REMARK SMILES IDX 54 66 48 67 49 68 52 69 50 70 5 71 6 72 7 73 8 74 9 76 10 77
REMARK SMILES IDX 12 78 16 79 13 80 15 81 17 82 14 83 11 84
REMARK H PARENT 3 5 74 23 42 34 7 75 11 85
REMARK Flexibility Score: inf
ROOT
ATOM      1  C   UNL A   1      41.606  20.446  27.222  1.00  0.00     0.118 C 
ENDROOT
BRANCH   1   2
ATOM      2  N   UNL A   1      40.371  20.630  26.481  1.00  0.00    -0.352 N 
ATOM      3  O   UNL A   1      38.445  21.621  25.883  1.00  0.00    -0.269 OA
ATOM      4  C   UNL A   1      39.563  21.735  26.375  1.00  0.00     0.251 C 
ATOM      5  H   UNL A   1      40.067  19.841  25.978  1.00  0.00     0.163 HD
BRANCH   4   6
ATOM      6  C   UNL A   1      40.022  23.059  26.855  1.00  0.00     0.039 A 
ATOM      7  C   UNL A   1      40.924  23.174  27.915  1.00  0.00     0.014 A 
ATOM      8  C   UNL A   1      39.596  24.207  26.177  1.00  0.00     0.014 A 
ATOM      9  C   UNL A   1      41.301  24.433  28.375  1.00  0.00     0.010 A 
ATOM     10  C   UNL A   1      40.048  25.467  26.582  1.00  0.00     0.010 A 
ATOM     11  C   UNL A   1      40.892  25.590  27.696  1.00  0.00    -0.014 A 
BRANCH  11  12
ATOM     12  C   UNL A   1      41.433  26.908  28.112  1.00  0.00     0.031 A 
ATOM     13  C   UNL A   1      42.885  27.247  27.934  1.00  0.00     0.074 A 
ATOM     14  C   UNL A   1      40.588  27.810  28.651  1.00  0.00     0.049 A 
ATOM     15  N   UNL A   1      43.518  28.354  28.238  1.00  0.00    -0.248 NA
ATOM     16  C   UNL A   1      43.744  26.208  27.347  1.00  0.00     0.031 C 
ATOM     17  C   UNL A   1      39.161  27.583  28.891  1.00  0.00     0.029 A 
ATOM     18  N   UNL A   1      40.797  29.094  29.083  1.00  0.00    -0.354 N 
ATOM     19  C   UNL A   1      44.846  28.141  27.894  1.00  0.00     0.074 A 
ATOM     20  C   UNL A   1      44.936  26.788  27.384  1.00  0.00     0.031 C 
ATOM     21  C   UNL A   1      38.615  28.702  29.389  1.00  0.00     0.029 A 
ATOM     22  C   UNL A   1      39.662  29.701  29.562  1.00  0.00     0.049 A 
ATOM     23  H   UNL A   1      41.675  29.539  29.054  1.00  0.00     0.167 HD
ATOM     24  C   UNL A   1      45.889  29.001  27.988  1.00  0.00     0.037 A 
ATOM     25  C   UNL A   1      39.485  30.922  30.099  1.00  0.00     0.037 A 
ATOM     26  C   UNL A   1      45.786  30.349  28.490  1.00  0.00     0.049 A 
ATOM     27  C   UNL A   1      40.665  31.843  30.216  1.00  0.00     0.074 A 
ATOM     28  C   UNL A   1      46.776  31.311  28.588  1.00  0.00     0.029 A 
ATOM     29  N   UNL A   1      44.624  30.922  28.988  1.00  0.00    -0.354 N 
ATOM     30  N   UNL A   1      41.907  31.647  29.843  1.00  0.00    -0.248 NA
ATOM     31  C   UNL A   1      40.421  33.155  30.828  1.00  0.00     0.031 C 
ATOM     32  C   UNL A   1      46.227  32.447  29.192  1.00  0.00     0.029 A 
ATOM     33  C   UNL A   1      44.879  32.214  29.419  1.00  0.00     0.049 A 
ATOM     34  H   UNL A   1      43.748  30.476  29.029  1.00  0.00     0.167 HD
ATOM     35  C   UNL A   1      42.588  32.814  30.158  1.00  0.00     0.074 A 
ATOM     36  C   UNL A   1      41.616  33.722  30.733  1.00  0.00     0.031 C 
ATOM     37  C   UNL A   1      43.901  33.104  29.989  1.00  0.00     0.037 A 
BRANCH  24  38
ATOM     38  C   UNL A   1      47.241  28.508  27.558  1.00  0.00     0.064 A 
ATOM     39  C   UNL A   1      48.187  28.044  28.484  1.00  0.00     0.173 A 
ATOM     40  C   UNL A   1      47.577  28.453  26.197  1.00  0.00     0.173 A 
ATOM     41  F   UNL A   1      47.921  28.083  29.799  1.00  0.00    -0.203 F 
ATOM     42  C   UNL A   1      49.427  27.568  28.065  1.00  0.00     0.198 A 
ATOM     43  C   UNL A   1      48.807  27.949  25.779  1.00  0.00     0.198 A 
ATOM     44  F   UNL A   1      46.707  28.876  25.267  1.00  0.00    -0.203 F 
ATOM     45  F   UNL A   1      50.332  27.171  28.971  1.00  0.00    -0.200 F 
ATOM     46  C   UNL A   1      49.733  27.514  26.714  1.00  0.00     0.200 A 
ATOM     47  F   UNL A   1      49.095  27.886  24.471  1.00  0.00    -0.200 F 
ATOM     48  F   UNL A   1      50.925  27.048  26.312  1.00  0.00    -0.200 F 
ENDBRANCH  24  38
BRANCH  25  49
ATOM     49  C   UNL A   1      38.137  31.333  30.570  1.00  0.00     0.064 A 
ATOM     50  C   UNL A   1      37.154  31.756  29.667  1.00  0.00     0.173 A 
ATOM     51  C   UNL A   1      37.800  31.293  31.932  1.00  0.00     0.173 A 
ATOM     52  F   UNL A   1      37.434  31.829  28.357  1.00  0.00    -0.203 F 
ATOM     53  C   UNL A   1      35.889  32.142  30.108  1.00  0.00     0.198 A 
ATOM     54  C   UNL A   1      36.526  31.648  32.369  1.00  0.00     0.198 A 
ATOM     55  F   UNL A   1      38.704  30.889  32.837  1.00  0.00    -0.203 F 
ATOM     56  F   UNL A   1      34.981  32.584  29.228  1.00  0.00    -0.200 F 
ATOM     57  C   UNL A   1      35.575  32.080  31.457  1.00  0.00     0.200 A 
ATOM     58  F   UNL A   1      36.221  31.570  33.671  1.00  0.00    -0.200 F 
ATOM     59  F   UNL A   1      34.356  32.442  31.880  1.00  0.00    -0.200 F 
ENDBRANCH  25  49
BRANCH  37  60
ATOM     60  C   UNL A   1      44.354  34.474  30.407  1.00  0.00     0.064 A 
ATOM     61  C   UNL A   1      44.289  35.569  29.533  1.00  0.00     0.173 A 
ATOM     62  C   UNL A   1      44.832  34.696  31.707  1.00  0.00     0.173 A 
ATOM     63  F   UNL A   1      43.855  35.403  28.275  1.00  0.00    -0.203 F 
ATOM     64  C   UNL A   1      44.715  36.832  29.937  1.00  0.00     0.198 A 
ATOM     65  C   UNL A   1      45.228  35.966  32.117  1.00  0.00     0.198 A 
ATOM     66  F   UNL A   1      44.909  33.683  32.583  1.00  0.00    -0.203 F 
ATOM     67  F   UNL A   1      44.693  37.853  29.070  1.00  0.00    -0.200 F 
ATOM     68  C   UNL A   1      45.176  37.030  31.229  1.00  0.00     0.200 A 
ATOM     69  F   UNL A   1      45.662  36.159  33.370  1.00  0.00    -0.200 F 
ATOM     70  F   UNL A   1      45.581  38.247  31.618  1.00  0.00    -0.200 F 
ENDBRANCH  37  60
ENDBRANCH  11  12
ENDBRANCH   4   6
ENDBRANCH   1   2
BRANCH   1  71
ATOM     71  C   UNL A   1      42.350  19.185  26.809  1.00  0.00     0.042 C 
BRANCH  71  72
ATOM     72  C   UNL A   1      43.062  19.289  25.459  1.00  0.00     0.117 C 
BRANCH  72  73
ATOM     73  N   UNL A   1      44.498  19.282  25.621  1.00  0.00    -0.354 N 
ATOM     74  C   UNL A   1      45.461  20.115  25.146  1.00  0.00     0.252 C 
ATOM     75  H   UNL A   1      44.839  18.543  26.173  1.00  0.00     0.163 HD
ATOM     76  O   UNL A   1      46.624  19.781  25.412  1.00  0.00    -0.272 OA
BRANCH  74  77
ATOM     77  C   UNL A   1      45.163  21.460  24.421  1.00  0.00     0.149 C 
ATOM     78  C   UNL A   1      46.265  22.523  24.144  1.00  0.00     0.053 C 
ATOM     79  C   UNL A   1      44.173  22.280  25.324  1.00  0.00     0.053 C 
ATOM     80  C   UNL A   1      45.791  23.760  24.931  1.00  0.00     0.015 C 
ATOM     81  C   UNL A   1      44.859  22.564  26.650  1.00  0.00    -0.024 C 
ATOM     82  C   UNL A   1      44.280  23.686  24.723  1.00  0.00     0.019 C 
ATOM     83  C   UNL A   1      45.853  23.429  26.402  1.00  0.00    -0.027 C 
BRANCH  77  84
ATOM     84  O   UNL A   1      44.588  21.133  23.144  1.00  0.00    -0.379 OA
ATOM     85  H   UNL A   1      43.886  21.768  22.934  1.00  0.00     0.212 HD
ENDBRANCH  77  84
ENDBRANCH  74  77
ENDBRANCH  72  73
ENDBRANCH  71  72
ENDBRANCH   1  71
TORSDOF 11
ENDMDL
MODEL 3
REMARK VINA RESULT:     -11.4      0.210      1.205
REMARK SMILES O=C(NCCCNC(=O)[C@]1(O)C[C@@H]2C=C[C@H]1C2)c1ccc(-c2c3nc(c(-c4c(F)c(F)c(F)c(F)c4F)c4ccc([nH]4)c(-c4c(F)c(F)c(F)c(F)c4F)c4nc(c(-c5c(F)c(F)c(F)c(F)c5F)c5ccc2[nH]5)C=C4)C=C3)cc1
REMARK SMILES IDX 4 1 3 2 1 3 2 4 18 6 19 7 80 8 20 9 79 10 21 11 22 12 23 13
REMARK SMILES IDX 73 14 24 15 78 16 72 17 74 18 25 19 77 20 71 21 70 22 26 24
REMARK SMILES IDX 58 25 38 26 57 27 39 28 42 29 56 30 75 31 40 32 41 33 55 35
REMARK SMILES IDX 76 36 43 37 27 38 28 39 36 40 29 41 30 42 34 43 37 44 31 45
REMARK SMILES IDX 32 46 35 47 33 48 59 49 60 50 68 51 61 52 62 53 66 54 69 55
REMARK SMILES IDX 63 56 64 57 67 58 65 59 44 60 45 61 53 62 46 63 47 64 51 65
REMARK SMILES IDX 54 66 48 67 49 68 52 69 50 70 5 71 6 72 7 73 8 74 9 76 10 77
REMARK SMILES IDX 12 78 16 79 13 80 15 81 17 82 14 83 11 84
REMARK H PARENT 3 5 74 23 42 34 7 75 11 85
REMARK Flexibility Score: inf
ROOT
ATOM      1  C   UNL A   1      41.819  19.578  27.627  1.00  0.00     0.118 C 
ENDROOT
BRANCH   1   2
ATOM      2  N   UNL A   1      40.640  19.734  26.795  1.00  0.00    -0.352 N 
ATOM      3  O   UNL A   1      38.814  20.746  25.962  1.00  0.00    -0.269 OA
ATOM      4  C   UNL A   1      39.909  20.859  26.504  1.00  0.00     0.251 C 
ATOM      5  H   UNL A   1      40.315  18.906  26.375  1.00  0.00     0.163 HD
BRANCH   4   6
ATOM      6  C   UNL A   1      40.422  22.206  26.844  1.00  0.00     0.039 A 
ATOM      7  C   UNL A   1      41.493  22.374  27.725  1.00  0.00     0.014 A 
ATOM      8  C   UNL A   1      39.866  23.321  26.207  1.00  0.00     0.014 A 
ATOM      9  C   UNL A   1      41.924  23.654  28.063  1.00  0.00     0.010 A 
ATOM     10  C   UNL A   1      40.361  24.601  26.478  1.00  0.00     0.010 A 
ATOM     11  C   UNL A   1      41.384  24.778  27.422  1.00  0.00    -0.014 A 
BRANCH  11  12
ATOM     12  C   UNL A   1      41.967  26.117  27.686  1.00  0.00     0.031 A 
ATOM     13  C   UNL A   1      43.320  26.497  27.155  1.00  0.00     0.074 A 
ATOM     14  C   UNL A   1      41.252  27.000  28.410  1.00  0.00     0.049 A 
ATOM     15  N   UNL A   1      43.972  27.626  27.289  1.00  0.00    -0.248 NA
ATOM     16  C   UNL A   1      44.042  25.477  26.381  1.00  0.00     0.031 C 
ATOM     17  C   UNL A   1      39.935  26.734  28.994  1.00  0.00     0.029 A 
ATOM     18  N   UNL A   1      41.518  28.296  28.771  1.00  0.00    -0.354 N 
ATOM     19  C   UNL A   1      45.182  27.449  26.631  1.00  0.00     0.074 A 
ATOM     20  C   UNL A   1      45.188  26.093  26.122  1.00  0.00     0.031 C 
ATOM     21  C   UNL A   1      39.492  27.842  29.605  1.00  0.00     0.029 A 
ATOM     22  C   UNL A   1      40.516  28.875  29.510  1.00  0.00     0.049 A 
ATOM     23  H   UNL A   1      42.348  28.766  28.525  1.00  0.00     0.167 HD
ATOM     24  C   UNL A   1      46.187  28.341  26.462  1.00  0.00     0.037 A 
ATOM     25  C   UNL A   1      40.437  30.096  30.068  1.00  0.00     0.037 A 
ATOM     26  C   UNL A   1      46.167  29.692  26.966  1.00  0.00     0.049 A 
ATOM     27  C   UNL A   1      41.579  31.054  29.887  1.00  0.00     0.074 A 
ATOM     28  C   UNL A   1      47.119  30.684  26.813  1.00  0.00     0.029 A 
ATOM     29  N   UNL A   1      45.144  30.236  27.730  1.00  0.00    -0.354 N 
ATOM     30  N   UNL A   1      42.697  30.891  29.222  1.00  0.00    -0.248 NA
ATOM     31  C   UNL A   1      41.450  32.366  30.533  1.00  0.00     0.031 C 
ATOM     32  C   UNL A   1      46.698  31.811  27.527  1.00  0.00     0.029 A 
ATOM     33  C   UNL A   1      45.455  31.541  28.079  1.00  0.00     0.049 A 
ATOM     34  H   UNL A   1      44.320  29.764  27.988  1.00  0.00     0.167 HD
ATOM     35  C   UNL A   1      43.396  32.081  29.354  1.00  0.00     0.074 A 
ATOM     36  C   UNL A   1      42.566  32.967  30.144  1.00  0.00     0.031 C 
ATOM     37  C   UNL A   1      44.618  32.409  28.867  1.00  0.00     0.037 A 
BRANCH  24  38
ATOM     38  C   UNL A   1      47.408  27.883  25.716  1.00  0.00     0.064 A 
ATOM     39  C   UNL A   1      47.452  27.861  24.314  1.00  0.00     0.173 A 
ATOM     40  C   UNL A   1      48.568  27.509  26.412  1.00  0.00     0.173 A 
ATOM     41  F   UNL A   1      46.368  28.200  23.598  1.00  0.00    -0.203 F 
ATOM     42  C   UNL A   1      48.601  27.457  23.638  1.00  0.00     0.198 A 
ATOM     43  C   UNL A   1      49.724  27.133  25.733  1.00  0.00     0.198 A 
ATOM     44  F   UNL A   1      48.585  27.519  27.754  1.00  0.00    -0.203 F 
ATOM     45  F   UNL A   1      48.604  27.401  22.299  1.00  0.00    -0.200 F 
ATOM     46  C   UNL A   1      49.738  27.101  24.347  1.00  0.00     0.200 A 
ATOM     47  F   UNL A   1      50.827  26.802  26.420  1.00  0.00    -0.200 F 
ATOM     48  F   UNL A   1      50.845  26.719  23.695  1.00  0.00    -0.200 F 
ENDBRANCH  24  38
BRANCH  25  49
ATOM     49  C   UNL A   1      39.232  30.473  30.853  1.00  0.00     0.064 A 
ATOM     50  C   UNL A   1      39.149  30.200  32.224  1.00  0.00     0.173 A 
ATOM     51  C   UNL A   1      38.148  31.128  30.249  1.00  0.00     0.173 A 
ATOM     52  F   UNL A   1      40.152  29.559  32.842  1.00  0.00    -0.203 F 
ATOM     53  C   UNL A   1      38.019  30.553  32.960  1.00  0.00     0.198 A 
ATOM     54  C   UNL A   1      37.033  31.509  30.992  1.00  0.00     0.198 A 
ATOM     55  F   UNL A   1      38.182  31.418  28.940  1.00  0.00    -0.203 F 
ATOM     56  F   UNL A   1      37.946  30.242  34.261  1.00  0.00    -0.200 F 
ATOM     57  C   UNL A   1      36.966  31.213  32.345  1.00  0.00     0.200 A 
ATOM     58  F   UNL A   1      36.027  32.163  30.398  1.00  0.00    -0.200 F 
ATOM     59  F   UNL A   1      35.884  31.561  33.055  1.00  0.00    -0.200 F 
ENDBRANCH  25  49
BRANCH  37  60
ATOM     60  C   UNL A   1      45.115  33.797  29.154  1.00  0.00     0.064 A 
ATOM     61  C   UNL A   1      45.900  34.078  30.282  1.00  0.00     0.173 A 
ATOM     62  C   UNL A   1      44.824  34.850  28.275  1.00  0.00     0.173 A 
ATOM     63  F   UNL A   1      46.191  33.108  31.162  1.00  0.00    -0.203 F 
ATOM     64  C   UNL A   1      46.351  35.371  30.533  1.00  0.00     0.198 A 
ATOM     65  C   UNL A   1      45.303  36.135  28.513  1.00  0.00     0.198 A 
ATOM     66  F   UNL A   1      44.081  34.632  27.179  1.00  0.00    -0.203 F 
ATOM     67  F   UNL A   1      47.056  35.628  31.644  1.00  0.00    -0.200 F 
ATOM     68  C   UNL A   1      46.058  36.395  29.646  1.00  0.00     0.200 A 
ATOM     69  F   UNL A   1      45.030  37.122  27.648  1.00  0.00    -0.200 F 
ATOM     70  F   UNL A   1      46.498  37.638  29.888  1.00  0.00    -0.200 F 
ENDBRANCH  37  60
ENDBRANCH  11  12
ENDBRANCH   4   6
ENDBRANCH   1   2
BRANCH   1  71
ATOM     71  C   UNL A   1      42.649  18.363  27.238  1.00  0.00     0.042 C 
BRANCH  71  72
ATOM     72  C   UNL A   1      43.310  18.469  25.863  1.00  0.00     0.117 C 
BRANCH  72  73
ATOM     73  N   UNL A   1      44.751  18.464  25.970  1.00  0.00    -0.354 N 
ATOM     74  C   UNL A   1      45.704  19.178  25.317  1.00  0.00     0.252 C 
ATOM     75  H   UNL A   1      45.105  17.831  26.635  1.00  0.00     0.163 HD
ATOM     76  O   UNL A   1      46.873  18.876  25.597  1.00  0.00    -0.272 OA
BRANCH  74  77
ATOM     77  C   UNL A   1      45.394  20.375  24.371  1.00  0.00     0.149 C 
ATOM     78  C   UNL A   1      46.478  21.410  23.950  1.00  0.00     0.053 C 
ATOM     79  C   UNL A   1      44.358  21.304  25.100  1.00  0.00     0.053 C 
ATOM     80  C   UNL A   1      45.949  22.746  24.508  1.00  0.00     0.015 C 
ATOM     81  C   UNL A   1      44.997  21.824  26.378  1.00  0.00    -0.024 C 
ATOM     82  C   UNL A   1      44.447  22.593  24.277  1.00  0.00     0.019 C 
ATOM     83  C   UNL A   1      45.976  22.665  26.014  1.00  0.00    -0.027 C 
BRANCH  77  84
ATOM     84  O   UNL A   1      44.866  19.824  23.153  1.00  0.00    -0.379 OA
ATOM     85  H   UNL A   1      45.524  19.915  22.446  1.00  0.00     0.212 HD
ENDBRANCH  77  84
ENDBRANCH  74  77
ENDBRANCH  72  73
ENDBRANCH  71  72
ENDBRANCH   1  71
TORSDOF 11
ENDMDL
