MODEL 1
REMARK VINA RESULT:     -11.1      0.000      0.000
REMARK SMILES CN(CC1CCC1)C(=O)N(CC(=O)NCCCNC(=O)c1ccc(-c2c3nc(c(-c4c(F)c(F)c(F)c(F)c4F)c4ccc([nH]4)c(-c4c(F)c(F)c(F)c(F)c4F)c4nc(c(-c5c(F)c(F)c(F)c(F)c5F)c5ccc2[nH]5)C=C4)C=C3)cc1)C(C)(C)C
REMARK SMILES IDX 12 1 13 2 14 3 11 5 10 6 8 7 9 8 2 9 1 10 3 11 4 12 5 13
REMARK SMILES IDX 7 14 6 15 84 16 85 17 86 18 87 19 15 20 16 21 17 22 18 23
REMARK SMILES IDX 19 24 20 26 21 27 22 28 83 29 23 30 82 31 24 32 25 33 26 34
REMARK SMILES IDX 76 35 27 36 81 37 75 38 77 39 28 40 80 41 74 42 73 43 29 45
REMARK SMILES IDX 61 46 41 47 60 48 42 49 45 50 59 51 78 52 43 53 44 54 58 56
REMARK SMILES IDX 79 57 46 58 30 59 31 60 39 61 32 62 33 63 37 64 40 65 34 66
REMARK SMILES IDX 35 67 38 68 36 69 62 70 63 71 71 72 64 73 65 74 69 75 72 76
REMARK SMILES IDX 66 77 67 78 70 79 68 80 47 81 48 82 56 83 49 84 50 85 54 86
REMARK SMILES IDX 57 87 51 88 52 89 55 90 53 91
REMARK H PARENT 14 4 18 25 77 44 45 55
REMARK Flexibility Score: inf
ROOT
ATOM      1  C   UNL A   1      34.913  22.754  26.707  1.00  0.00     0.239 C 
ATOM      2  O   UNL A   1      34.294  22.341  27.695  1.00  0.00    -0.273 OA
ATOM      3  N   UNL A   1      36.054  22.085  26.392  1.00  0.00    -0.354 N 
ATOM      4  H   UNL A   1      36.428  21.542  27.123  1.00  0.00     0.163 HD
ENDROOT
BRANCH   1   5
ATOM      5  C   UNL A   1      34.290  23.839  25.815  1.00  0.00     0.221 C 
BRANCH   5   6
ATOM      6  N   UNL A   1      32.854  23.803  25.502  1.00  0.00    -0.311 N 
BRANCH   6   7
ATOM      7  C   UNL A   1      31.857  24.438  26.244  1.00  0.00     0.320 C 
ATOM      8  O   UNL A   1      31.399  23.885  27.252  1.00  0.00    -0.248 OA
BRANCH   7   9
ATOM      9  N   UNL A   1      31.395  25.721  25.950  1.00  0.00    -0.327 N 
ATOM     10  C   UNL A   1      29.944  25.793  25.759  1.00  0.00     0.148 C 
BRANCH   9  11
ATOM     11  C   UNL A   1      32.132  26.875  25.406  1.00  0.00     0.124 C 
BRANCH  11  12
ATOM     12  C   UNL A   1      33.038  27.472  26.503  1.00  0.00     0.008 C 
ATOM     13  C   UNL A   1      34.028  28.585  26.124  1.00  0.00     0.005 C 
ATOM     14  C   UNL A   1      32.378  28.469  27.492  1.00  0.00     0.005 C 
ATOM     15  C   UNL A   1      33.516  29.470  27.251  1.00  0.00     0.001 C 
ENDBRANCH  11  12
ENDBRANCH   9  11
ENDBRANCH   7   9
ENDBRANCH   6   7
BRANCH   6  16
ATOM     16  C   UNL A   1      32.420  22.820  24.410  1.00  0.00     0.037 C 
ATOM     17  C   UNL A   1      33.550  22.589  23.380  1.00  0.00     0.034 C 
ATOM     18  C   UNL A   1      31.989  21.459  25.010  1.00  0.00     0.034 C 
ATOM     19  C   UNL A   1      31.187  23.293  23.588  1.00  0.00     0.034 C 
ENDBRANCH   6  16
ENDBRANCH   5   6
ENDBRANCH   1   5
BRANCH   3  20
ATOM     20  C   UNL A   1      36.812  22.042  25.154  1.00  0.00     0.117 C 
BRANCH  20  21
ATOM     21  C   UNL A   1      37.706  20.829  25.023  1.00  0.00     0.042 C 
BRANCH  21  22
ATOM     22  C   UNL A   1      38.974  20.970  25.846  1.00  0.00     0.118 C 
BRANCH  22  23
ATOM     23  N   UNL A   1      39.767  19.744  25.907  1.00  0.00    -0.352 N 
ATOM     24  C   UNL A   1      41.121  19.563  26.093  1.00  0.00     0.251 C 
ATOM     25  H   UNL A   1      39.250  18.912  25.798  1.00  0.00     0.163 HD
ATOM     26  O   UNL A   1      41.622  18.459  25.964  1.00  0.00    -0.269 OA
BRANCH  24  27
ATOM     27  C   UNL A   1      41.969  20.736  26.397  1.00  0.00     0.039 A 
ATOM     28  C   UNL A   1      42.480  21.500  25.348  1.00  0.00     0.014 A 
ATOM     29  C   UNL A   1      42.185  21.123  27.717  1.00  0.00     0.014 A 
ATOM     30  C   UNL A   1      43.093  22.725  25.627  1.00  0.00     0.010 A 
ATOM     31  C   UNL A   1      42.655  22.399  27.983  1.00  0.00     0.010 A 
ATOM     32  C   UNL A   1      43.113  23.218  26.942  1.00  0.00    -0.014 A 
BRANCH  32  33
ATOM     33  C   UNL A   1      43.590  24.587  27.267  1.00  0.00     0.031 A 
ATOM     34  C   UNL A   1      42.613  25.621  27.757  1.00  0.00     0.074 A 
ATOM     35  C   UNL A   1      44.869  24.930  27.009  1.00  0.00     0.049 A 
ATOM     36  N   UNL A   1      42.788  26.905  27.943  1.00  0.00    -0.248 NA
ATOM     37  C   UNL A   1      41.241  25.159  28.026  1.00  0.00     0.031 C 
ATOM     38  C   UNL A   1      45.895  24.039  26.463  1.00  0.00     0.029 A 
ATOM     39  N   UNL A   1      45.519  26.131  27.153  1.00  0.00    -0.354 N 
ATOM     40  C   UNL A   1      41.545  27.402  28.314  1.00  0.00     0.074 A 
ATOM     41  C   UNL A   1      40.612  26.300  28.264  1.00  0.00     0.031 C 
ATOM     42  C   UNL A   1      47.050  24.713  26.348  1.00  0.00     0.029 A 
ATOM     43  C   UNL A   1      46.836  26.095  26.761  1.00  0.00     0.049 A 
ATOM     44  H   UNL A   1      45.084  26.940  27.504  1.00  0.00     0.167 HD
ATOM     45  C   UNL A   1      41.218  28.661  28.692  1.00  0.00     0.037 A 
ATOM     46  C   UNL A   1      47.762  27.072  26.725  1.00  0.00     0.037 A 
ATOM     47  C   UNL A   1      42.162  29.741  28.790  1.00  0.00     0.049 A 
ATOM     48  C   UNL A   1      47.378  28.458  27.166  1.00  0.00     0.074 A 
ATOM     49  C   UNL A   1      41.957  31.026  29.256  1.00  0.00     0.029 A 
ATOM     50  N   UNL A   1      43.496  29.657  28.416  1.00  0.00    -0.354 N 
ATOM     51  N   UNL A   1      46.219  28.899  27.593  1.00  0.00    -0.248 NA
ATOM     52  C   UNL A   1      48.430  29.483  27.121  1.00  0.00     0.031 C 
ATOM     53  C   UNL A   1      43.155  31.736  29.119  1.00  0.00     0.029 A 
ATOM     54  C   UNL A   1      44.119  30.878  28.613  1.00  0.00     0.049 A 
ATOM     55  H   UNL A   1      43.935  28.849  28.064  1.00  0.00     0.167 HD
ATOM     56  C   UNL A   1      46.404  30.243  27.880  1.00  0.00     0.074 A 
ATOM     57  C   UNL A   1      47.794  30.542  27.603  1.00  0.00     0.031 C 
ATOM     58  C   UNL A   1      45.503  31.153  28.326  1.00  0.00     0.037 A 
BRANCH  45  59
ATOM     59  C   UNL A   1      39.783  28.930  29.041  1.00  0.00     0.064 A 
ATOM     60  C   UNL A   1      39.296  28.761  30.347  1.00  0.00     0.173 A 
ATOM     61  C   UNL A   1      38.887  29.386  28.062  1.00  0.00     0.173 A 
ATOM     62  F   UNL A   1      40.108  28.314  31.318  1.00  0.00    -0.203 F 
ATOM     63  C   UNL A   1      37.960  29.006  30.652  1.00  0.00     0.198 A 
ATOM     64  C   UNL A   1      37.559  29.662  28.378  1.00  0.00     0.198 A 
ATOM     65  F   UNL A   1      39.299  29.568  26.799  1.00  0.00    -0.203 F 
ATOM     66  F   UNL A   1      37.507  28.782  31.893  1.00  0.00    -0.200 F 
ATOM     67  C   UNL A   1      37.094  29.463  29.670  1.00  0.00     0.200 A 
ATOM     68  F   UNL A   1      36.726  30.115  27.432  1.00  0.00    -0.200 F 
ATOM     69  F   UNL A   1      35.810  29.703  29.967  1.00  0.00    -0.200 F 
ENDBRANCH  45  59
BRANCH  46  70
ATOM     70  C   UNL A   1      49.144  26.771  26.267  1.00  0.00     0.064 A 
ATOM     71  C   UNL A   1      49.514  26.967  24.929  1.00  0.00     0.173 A 
ATOM     72  C   UNL A   1      50.120  26.286  27.148  1.00  0.00     0.173 A 
ATOM     73  F   UNL A   1      48.610  27.408  24.042  1.00  0.00    -0.203 F 
ATOM     74  C   UNL A   1      50.803  26.672  24.486  1.00  0.00     0.198 A 
ATOM     75  C   UNL A   1      51.417  26.019  26.711  1.00  0.00     0.198 A 
ATOM     76  F   UNL A   1      49.820  26.084  28.439  1.00  0.00    -0.203 F 
ATOM     77  F   UNL A   1      51.116  26.827  23.192  1.00  0.00    -0.200 F 
ATOM     78  C   UNL A   1      51.755  26.204  25.378  1.00  0.00     0.200 A 
ATOM     79  F   UNL A   1      52.338  25.578  27.580  1.00  0.00    -0.200 F 
ATOM     80  F   UNL A   1      52.995  25.926  24.954  1.00  0.00    -0.200 F 
ENDBRANCH  46  70
BRANCH  58  81
ATOM     81  C   UNL A   1      45.996  32.552  28.551  1.00  0.00     0.064 A 
ATOM     82  C   UNL A   1      45.911  33.527  27.547  1.00  0.00     0.173 A 
ATOM     83  C   UNL A   1      46.516  32.933  29.797  1.00  0.00     0.173 A 
ATOM     84  F   UNL A   1      45.436  33.207  26.333  1.00  0.00    -0.203 F 
ATOM     85  C   UNL A   1      46.350  34.828  27.775  1.00  0.00     0.198 A 
ATOM     86  C   UNL A   1      46.925  34.242  30.032  1.00  0.00     0.198 A 
ATOM     87  F   UNL A   1      46.611  32.038  30.792  1.00  0.00    -0.203 F 
ATOM     88  F   UNL A   1      46.302  35.733  26.787  1.00  0.00    -0.200 F 
ATOM     89  C   UNL A   1      46.849  35.187  29.019  1.00  0.00     0.200 A 
ATOM     90  F   UNL A   1      47.393  34.590  31.238  1.00  0.00    -0.200 F 
ATOM     91  F   UNL A   1      47.261  36.442  29.240  1.00  0.00    -0.200 F 
ENDBRANCH  58  81
ENDBRANCH  32  33
ENDBRANCH  24  27
ENDBRANCH  22  23
ENDBRANCH  21  22
ENDBRANCH  20  21
ENDBRANCH   3  20
TORSDOF 16
ENDMDL
MODEL 2
REMARK VINA RESULT:     -11.1      5.695     11.064
REMARK SMILES CN(CC1CCC1)C(=O)N(CC(=O)NCCCNC(=O)c1ccc(-c2c3nc(c(-c4c(F)c(F)c(F)c(F)c4F)c4ccc([nH]4)c(-c4c(F)c(F)c(F)c(F)c4F)c4nc(c(-c5c(F)c(F)c(F)c(F)c5F)c5ccc2[nH]5)C=C4)C=C3)cc1)C(C)(C)C
REMARK SMILES IDX 12 1 13 2 14 3 11 5 10 6 8 7 9 8 2 9 1 10 3 11 4 12 5 13
REMARK SMILES IDX 7 14 6 15 84 16 85 17 86 18 87 19 15 20 16 21 17 22 18 23
REMARK SMILES IDX 19 24 20 26 21 27 22 28 83 29 23 30 82 31 24 32 25 33 26 34
REMARK SMILES IDX 76 35 27 36 81 37 75 38 77 39 28 40 80 41 74 42 73 43 29 45
REMARK SMILES IDX 61 46 41 47 60 48 42 49 45 50 59 51 78 52 43 53 44 54 58 56
REMARK SMILES IDX 79 57 46 58 30 59 31 60 39 61 32 62 33 63 37 64 40 65 34 66
REMARK SMILES IDX 35 67 38 68 36 69 62 70 63 71 71 72 64 73 65 74 69 75 72 76
REMARK SMILES IDX 66 77 67 78 70 79 68 80 47 81 48 82 56 83 49 84 50 85 54 86
REMARK SMILES IDX 57 87 51 88 52 89 55 90 53 91
REMARK H PARENT 14 4 18 25 77 44 45 55
REMARK Flexibility Score: inf
ROOT
ATOM      1  C   UNL A   1      34.270  28.842  26.916  1.00  0.00     0.239 C 
ATOM      2  O   UNL A   1      35.407  28.886  27.401  1.00  0.00    -0.273 OA
ATOM      3  N   UNL A   1      33.312  29.557  27.566  1.00  0.00    -0.354 N 
ATOM      4  H   UNL A   1      33.537  29.796  28.494  1.00  0.00     0.163 HD
ENDROOT
BRANCH   1   5
ATOM      5  C   UNL A   1      34.045  28.158  25.558  1.00  0.00     0.221 C 
BRANCH   5   6
ATOM      6  N   UNL A   1      32.830  27.364  25.325  1.00  0.00    -0.311 N 
BRANCH   6   7
ATOM      7  C   UNL A   1      32.384  26.323  26.142  1.00  0.00     0.320 C 
ATOM      8  O   UNL A   1      31.629  26.571  27.089  1.00  0.00    -0.248 OA
BRANCH   7   9
ATOM      9  N   UNL A   1      32.689  24.985  25.897  1.00  0.00    -0.327 N 
ATOM     10  C   UNL A   1      31.507  24.135  25.731  1.00  0.00     0.148 C 
BRANCH   9  11
ATOM     11  C   UNL A   1      33.929  24.243  26.186  1.00  0.00     0.124 C 
BRANCH  11  12
ATOM     12  C   UNL A   1      34.909  24.396  25.004  1.00  0.00     0.008 C 
ATOM     13  C   UNL A   1      36.354  23.900  25.170  1.00  0.00     0.005 C 
ATOM     14  C   UNL A   1      34.755  23.394  23.831  1.00  0.00     0.005 C 
ATOM     15  C   UNL A   1      36.259  23.091  23.884  1.00  0.00     0.001 C 
ENDBRANCH  11  12
ENDBRANCH   9  11
ENDBRANCH   7   9
ENDBRANCH   6   7
BRANCH   6  16
ATOM     16  C   UNL A   1      32.135  27.565  23.974  1.00  0.00     0.037 C 
ATOM     17  C   UNL A   1      32.304  29.015  23.465  1.00  0.00     0.034 C 
ATOM     18  C   UNL A   1      32.674  26.582  22.907  1.00  0.00     0.034 C 
ATOM     19  C   UNL A   1      30.601  27.304  24.007  1.00  0.00     0.034 C 
ENDBRANCH   6  16
ENDBRANCH   5   6
ENDBRANCH   1   5
BRANCH   3  20
ATOM     20  C   UNL A   1      32.014  30.025  27.115  1.00  0.00     0.117 C 
BRANCH  20  21
ATOM     21  C   UNL A   1      31.993  31.481  26.708  1.00  0.00     0.042 C 
BRANCH  21  22
ATOM     22  C   UNL A   1      32.949  32.315  27.543  1.00  0.00     0.118 C 
BRANCH  22  23
ATOM     23  N   UNL A   1      32.550  33.715  27.659  1.00  0.00    -0.352 N 
ATOM     24  C   UNL A   1      33.027  34.717  28.479  1.00  0.00     0.251 C 
ATOM     25  H   UNL A   1      31.823  33.989  27.054  1.00  0.00     0.163 HD
ATOM     26  O   UNL A   1      32.460  35.795  28.535  1.00  0.00    -0.269 OA
BRANCH  24  27
ATOM     27  C   UNL A   1      34.204  34.448  29.332  1.00  0.00     0.039 A 
ATOM     28  C   UNL A   1      34.014  33.978  30.632  1.00  0.00     0.014 A 
ATOM     29  C   UNL A   1      35.491  34.582  28.816  1.00  0.00     0.014 A 
ATOM     30  C   UNL A   1      35.113  33.518  31.362  1.00  0.00     0.010 A 
ATOM     31  C   UNL A   1      36.554  33.989  29.478  1.00  0.00     0.010 A 
ATOM     32  C   UNL A   1      36.380  33.447  30.759  1.00  0.00    -0.014 A 
BRANCH  32  33
ATOM     33  C   UNL A   1      37.540  32.802  31.426  1.00  0.00     0.031 A 
ATOM     34  C   UNL A   1      38.218  31.628  30.774  1.00  0.00     0.074 A 
ATOM     35  C   UNL A   1      37.904  33.194  32.664  1.00  0.00     0.049 A 
ATOM     36  N   UNL A   1      39.136  30.828  31.255  1.00  0.00    -0.248 NA
ATOM     37  C   UNL A   1      37.769  31.275  29.417  1.00  0.00     0.031 C 
ATOM     38  C   UNL A   1      37.277  34.271  33.434  1.00  0.00     0.029 A 
ATOM     39  N   UNL A   1      38.880  32.716  33.503  1.00  0.00    -0.354 N 
ATOM     40  C   UNL A   1      39.343  29.865  30.277  1.00  0.00     0.074 A 
ATOM     41  C   UNL A   1      38.413  30.139  29.205  1.00  0.00     0.031 C 
ATOM     42  C   UNL A   1      37.902  34.392  34.616  1.00  0.00     0.029 A 
ATOM     43  C   UNL A   1      38.938  33.369  34.711  1.00  0.00     0.049 A 
ATOM     44  H   UNL A   1      39.481  31.975  33.263  1.00  0.00     0.167 HD
ATOM     45  C   UNL A   1      40.249  28.859  30.262  1.00  0.00     0.037 A 
ATOM     46  C   UNL A   1      39.727  33.157  35.780  1.00  0.00     0.037 A 
ATOM     47  C   UNL A   1      41.207  28.624  31.308  1.00  0.00     0.049 A 
ATOM     48  C   UNL A   1      40.738  32.044  35.732  1.00  0.00     0.074 A 
ATOM     49  C   UNL A   1      42.231  27.697  31.347  1.00  0.00     0.029 A 
ATOM     50  N   UNL A   1      41.256  29.330  32.502  1.00  0.00    -0.354 N 
ATOM     51  N   UNL A   1      40.981  31.189  34.768  1.00  0.00    -0.248 NA
ATOM     52  C   UNL A   1      41.585  31.865  36.919  1.00  0.00     0.031 C 
ATOM     53  C   UNL A   1      42.872  27.807  32.586  1.00  0.00     0.029 A 
ATOM     54  C   UNL A   1      42.277  28.837  33.299  1.00  0.00     0.049 A 
ATOM     55  H   UNL A   1      40.656  30.070  32.747  1.00  0.00     0.167 HD
ATOM     56  C   UNL A   1      42.013  30.382  35.223  1.00  0.00     0.074 A 
ATOM     57  C   UNL A   1      42.370  30.866  36.541  1.00  0.00     0.031 C 
ATOM     58  C   UNL A   1      42.610  29.331  34.610  1.00  0.00     0.037 A 
BRANCH  45  59
ATOM     59  C   UNL A   1      40.255  27.948  29.067  1.00  0.00     0.064 A 
ATOM     60  C   UNL A   1      39.534  26.744  29.053  1.00  0.00     0.173 A 
ATOM     61  C   UNL A   1      40.974  28.295  27.913  1.00  0.00     0.173 A 
ATOM     62  F   UNL A   1      38.840  26.358  30.136  1.00  0.00    -0.203 F 
ATOM     63  C   UNL A   1      39.558  25.906  27.941  1.00  0.00     0.198 A 
ATOM     64  C   UNL A   1      40.969  27.470  26.791  1.00  0.00     0.198 A 
ATOM     65  F   UNL A   1      41.678  29.435  27.871  1.00  0.00    -0.203 F 
ATOM     66  F   UNL A   1      38.908  24.735  27.974  1.00  0.00    -0.200 F 
ATOM     67  C   UNL A   1      40.269  26.272  26.809  1.00  0.00     0.200 A 
ATOM     68  F   UNL A   1      41.646  27.831  25.693  1.00  0.00    -0.200 F 
ATOM     69  F   UNL A   1      40.287  25.467  25.738  1.00  0.00    -0.200 F 
ENDBRANCH  45  59
BRANCH  46  70
ATOM     70  C   UNL A   1      39.604  34.026  36.982  1.00  0.00     0.064 A 
ATOM     71  C   UNL A   1      40.271  35.257  37.047  1.00  0.00     0.173 A 
ATOM     72  C   UNL A   1      38.821  33.648  38.082  1.00  0.00     0.173 A 
ATOM     73  F   UNL A   1      41.049  35.652  36.029  1.00  0.00    -0.203 F 
ATOM     74  C   UNL A   1      40.174  36.070  38.175  1.00  0.00     0.198 A 
ATOM     75  C   UNL A   1      38.702  34.476  39.198  1.00  0.00     0.198 A 
ATOM     76  F   UNL A   1      38.160  32.483  38.069  1.00  0.00    -0.203 F 
ATOM     77  F   UNL A   1      40.858  37.221  38.229  1.00  0.00    -0.200 F 
ATOM     78  C   UNL A   1      39.386  35.682  39.247  1.00  0.00     0.200 A 
ATOM     79  F   UNL A   1      37.928  34.103  40.227  1.00  0.00    -0.200 F 
ATOM     80  F   UNL A   1      39.289  36.466  40.329  1.00  0.00    -0.200 F 
ENDBRANCH  46  70
BRANCH  58  81
ATOM     81  C   UNL A   1      43.715  28.641  35.354  1.00  0.00     0.064 A 
ATOM     82  C   UNL A   1      43.453  27.573  36.225  1.00  0.00     0.173 A 
ATOM     83  C   UNL A   1      45.051  29.019  35.160  1.00  0.00     0.173 A 
ATOM     84  F   UNL A   1      42.189  27.183  36.456  1.00  0.00    -0.203 F 
ATOM     85  C   UNL A   1      44.488  26.924  36.891  1.00  0.00     0.198 A 
ATOM     86  C   UNL A   1      46.086  28.348  35.804  1.00  0.00     0.198 A 
ATOM     87  F   UNL A   1      45.354  30.030  34.331  1.00  0.00    -0.203 F 
ATOM     88  F   UNL A   1      44.212  25.935  37.754  1.00  0.00    -0.200 F 
ATOM     89  C   UNL A   1      45.804  27.306  36.674  1.00  0.00     0.200 A 
ATOM     90  F   UNL A   1      47.357  28.710  35.581  1.00  0.00    -0.200 F 
ATOM     91  F   UNL A   1      46.800  26.674  37.309  1.00  0.00    -0.200 F 
ENDBRANCH  58  81
ENDBRANCH  32  33
ENDBRANCH  24  27
ENDBRANCH  22  23
ENDBRANCH  21  22
ENDBRANCH  20  21
ENDBRANCH   3  20
TORSDOF 16
ENDMDL
MODEL 3
REMARK VINA RESULT:     -11.0      4.694     10.135
REMARK SMILES CN(CC1CCC1)C(=O)N(CC(=O)NCCCNC(=O)c1ccc(-c2c3nc(c(-c4c(F)c(F)c(F)c(F)c4F)c4ccc([nH]4)c(-c4c(F)c(F)c(F)c(F)c4F)c4nc(c(-c5c(F)c(F)c(F)c(F)c5F)c5ccc2[nH]5)C=C4)C=C3)cc1)C(C)(C)C
REMARK SMILES IDX 12 1 13 2 14 3 11 5 10 6 8 7 9 8 2 9 1 10 3 11 4 12 5 13
REMARK SMILES IDX 7 14 6 15 84 16 85 17 86 18 87 19 15 20 16 21 17 22 18 23
REMARK SMILES IDX 19 24 20 26 21 27 22 28 83 29 23 30 82 31 24 32 25 33 26 34
REMARK SMILES IDX 76 35 27 36 81 37 75 38 77 39 28 40 80 41 74 42 73 43 29 45
REMARK SMILES IDX 61 46 41 47 60 48 42 49 45 50 59 51 78 52 43 53 44 54 58 56
REMARK SMILES IDX 79 57 46 58 30 59 31 60 39 61 32 62 33 63 37 64 40 65 34 66
REMARK SMILES IDX 35 67 38 68 36 69 62 70 63 71 71 72 64 73 65 74 69 75 72 76
REMARK SMILES IDX 66 77 67 78 70 79 68 80 47 81 48 82 56 83 49 84 50 85 54 86
REMARK SMILES IDX 57 87 51 88 52 89 55 90 53 91
REMARK H PARENT 14 4 18 25 77 44 45 55
REMARK Flexibility Score: inf
ROOT
ATOM      1  C   UNL A   1      31.242  24.741  26.310  1.00  0.00     0.239 C 
ATOM      2  O   UNL A   1      31.007  23.975  27.253  1.00  0.00    -0.273 OA
ATOM      3  N   UNL A   1      31.255  26.069  26.604  1.00  0.00    -0.354 N 
ATOM      4  H   UNL A   1      30.802  26.308  27.444  1.00  0.00     0.163 HD
ENDROOT
BRANCH   1   5
ATOM      5  C   UNL A   1      31.669  24.168  24.949  1.00  0.00     0.221 C 
BRANCH   5   6
ATOM      6  N   UNL A   1      33.054  23.722  24.739  1.00  0.00    -0.311 N 
BRANCH   6   7
ATOM      7  C   UNL A   1      33.896  23.229  25.737  1.00  0.00     0.320 C 
ATOM      8  O   UNL A   1      34.660  24.001  26.328  1.00  0.00    -0.248 OA
BRANCH   7   9
ATOM      9  N   UNL A   1      33.868  21.902  26.164  1.00  0.00    -0.327 N 
ATOM     10  C   UNL A   1      33.731  21.754  27.615  1.00  0.00     0.148 C 
BRANCH   9  11
ATOM     11  C   UNL A   1      34.357  20.691  25.479  1.00  0.00     0.124 C 
BRANCH  11  12
ATOM     12  C   UNL A   1      33.158  19.826  25.040  1.00  0.00     0.008 C 
ATOM     13  C   UNL A   1      32.335  20.265  23.818  1.00  0.00     0.005 C 
ATOM     14  C   UNL A   1      33.481  18.511  24.285  1.00  0.00     0.005 C 
ATOM     15  C   UNL A   1      32.474  18.886  23.188  1.00  0.00     0.001 C 
ENDBRANCH  11  12
ENDBRANCH   9  11
ENDBRANCH   7   9
ENDBRANCH   6   7
BRANCH   6  16
ATOM     16  C   UNL A   1      33.666  24.028  23.368  1.00  0.00     0.037 C 
ATOM     17  C   UNL A   1      35.035  23.331  23.196  1.00  0.00     0.034 C 
ATOM     18  C   UNL A   1      32.725  23.598  22.217  1.00  0.00     0.034 C 
ATOM     19  C   UNL A   1      33.926  25.541  23.116  1.00  0.00     0.034 C 
ENDBRANCH   6  16
ENDBRANCH   5   6
ENDBRANCH   1   5
BRANCH   3  20
ATOM     20  C   UNL A   1      31.828  27.190  25.881  1.00  0.00     0.117 C 
BRANCH  20  21
ATOM     21  C   UNL A   1      31.808  28.492  26.651  1.00  0.00     0.042 C 
BRANCH  21  22
ATOM     22  C   UNL A   1      32.766  29.512  26.062  1.00  0.00     0.118 C 
BRANCH  22  23
ATOM     23  N   UNL A   1      32.487  30.882  26.484  1.00  0.00    -0.352 N 
ATOM     24  C   UNL A   1      33.230  31.749  27.257  1.00  0.00     0.251 C 
ATOM     25  H   UNL A   1      31.630  31.247  26.164  1.00  0.00     0.163 HD
ATOM     26  O   UNL A   1      32.758  32.811  27.627  1.00  0.00    -0.269 OA
BRANCH  24  27
ATOM     27  C   UNL A   1      34.590  31.351  27.680  1.00  0.00     0.039 A 
ATOM     28  C   UNL A   1      35.576  32.328  27.820  1.00  0.00     0.014 A 
ATOM     29  C   UNL A   1      34.862  30.027  28.015  1.00  0.00     0.014 A 
ATOM     30  C   UNL A   1      36.791  31.994  28.424  1.00  0.00     0.010 A 
ATOM     31  C   UNL A   1      36.002  29.731  28.746  1.00  0.00     0.010 A 
ATOM     32  C   UNL A   1      36.980  30.710  28.963  1.00  0.00    -0.014 A 
BRANCH  32  33
ATOM     33  C   UNL A   1      38.178  30.358  29.769  1.00  0.00     0.031 A 
ATOM     34  C   UNL A   1      39.180  29.376  29.227  1.00  0.00     0.074 A 
ATOM     35  C   UNL A   1      38.299  30.826  31.028  1.00  0.00     0.049 A 
ATOM     36  N   UNL A   1      40.200  28.816  29.825  1.00  0.00    -0.248 NA
ATOM     37  C   UNL A   1      38.980  28.926  27.839  1.00  0.00     0.031 C 
ATOM     38  C   UNL A   1      37.356  31.726  31.696  1.00  0.00     0.029 A 
ATOM     39  N   UNL A   1      39.261  30.592  31.980  1.00  0.00    -0.354 N 
ATOM     40  C   UNL A   1      40.734  27.927  28.902  1.00  0.00     0.074 A 
ATOM     41  C   UNL A   1      39.892  27.973  27.728  1.00  0.00     0.031 C 
ATOM     42  C   UNL A   1      37.800  31.991  32.935  1.00  0.00     0.029 A 
ATOM     43  C   UNL A   1      39.029  31.241  33.169  1.00  0.00     0.049 A 
ATOM     44  H   UNL A   1      40.041  30.014  31.826  1.00  0.00     0.167 HD
ATOM     45  C   UNL A   1      41.847  27.163  29.011  1.00  0.00     0.037 A 
ATOM     46  C   UNL A   1      39.722  31.222  34.323  1.00  0.00     0.037 A 
ATOM     47  C   UNL A   1      42.710  27.161  30.161  1.00  0.00     0.049 A 
ATOM     48  C   UNL A   1      40.965  30.379  34.414  1.00  0.00     0.074 A 
ATOM     49  C   UNL A   1      43.912  26.502  30.336  1.00  0.00     0.029 A 
ATOM     50  N   UNL A   1      42.460  27.860  31.334  1.00  0.00    -0.354 N 
ATOM     51  N   UNL A   1      41.506  29.604  33.505  1.00  0.00    -0.248 NA
ATOM     52  C   UNL A   1      41.692  30.405  35.690  1.00  0.00     0.031 C 
ATOM     53  C   UNL A   1      44.367  26.761  31.633  1.00  0.00     0.029 A 
ATOM     54  C   UNL A   1      43.472  27.623  32.249  1.00  0.00     0.049 A 
ATOM     55  H   UNL A   1      41.680  28.439  31.492  1.00  0.00     0.167 HD
ATOM     56  C   UNL A   1      42.642  29.064  34.091  1.00  0.00     0.074 A 
ATOM     57  C   UNL A   1      42.726  29.619  35.426  1.00  0.00     0.031 C 
ATOM     58  C   UNL A   1      43.533  28.182  33.574  1.00  0.00     0.037 A 
BRANCH  45  59
ATOM     59  C   UNL A   1      42.199  26.278  27.850  1.00  0.00     0.064 A 
ATOM     60  C   UNL A   1      41.604  25.019  27.673  1.00  0.00     0.173 A 
ATOM     61  C   UNL A   1      43.127  26.705  26.887  1.00  0.00     0.173 A 
ATOM     62  F   UNL A   1      40.721  24.557  28.572  1.00  0.00    -0.203 F 
ATOM     63  C   UNL A   1      41.949  24.207  26.597  1.00  0.00     0.198 A 
ATOM     64  C   UNL A   1      43.444  25.904  25.794  1.00  0.00     0.198 A 
ATOM     65  F   UNL A   1      43.723  27.900  27.005  1.00  0.00    -0.203 F 
ATOM     66  F   UNL A   1      41.410  22.985  26.482  1.00  0.00    -0.200 F 
ATOM     67  C   UNL A   1      42.863  24.652  25.654  1.00  0.00     0.200 A 
ATOM     68  F   UNL A   1      44.318  26.340  24.877  1.00  0.00    -0.200 F 
ATOM     69  F   UNL A   1      43.190  23.871  24.615  1.00  0.00    -0.200 F 
ENDBRANCH  45  59
BRANCH  46  70
ATOM     70  C   UNL A   1      39.266  32.038  35.480  1.00  0.00     0.064 A 
ATOM     71  C   UNL A   1      39.639  33.384  35.598  1.00  0.00     0.173 A 
ATOM     72  C   UNL A   1      38.452  31.496  36.484  1.00  0.00     0.173 A 
ATOM     73  F   UNL A   1      40.435  33.942  34.675  1.00  0.00    -0.203 F 
ATOM     74  C   UNL A   1      39.230  34.153  36.687  1.00  0.00     0.198 A 
ATOM     75  C   UNL A   1      38.019  32.273  37.558  1.00  0.00     0.198 A 
ATOM     76  F   UNL A   1      38.064  30.215  36.417  1.00  0.00    -0.203 F 
ATOM     77  F   UNL A   1      39.638  35.424  36.798  1.00  0.00    -0.200 F 
ATOM     78  C   UNL A   1      38.416  33.599  37.663  1.00  0.00     0.200 A 
ATOM     79  F   UNL A   1      37.222  31.738  38.492  1.00  0.00    -0.200 F 
ATOM     80  F   UNL A   1      38.018  34.339  38.707  1.00  0.00    -0.200 F 
ENDBRANCH  46  70
BRANCH  58  81
ATOM     81  C   UNL A   1      44.678  27.772  34.452  1.00  0.00     0.064 A 
ATOM     82  C   UNL A   1      45.869  28.512  34.492  1.00  0.00     0.173 A 
ATOM     83  C   UNL A   1      44.568  26.656  35.294  1.00  0.00     0.173 A 
ATOM     84  F   UNL A   1      46.029  29.579  33.693  1.00  0.00    -0.203 F 
ATOM     85  C   UNL A   1      46.916  28.136  35.328  1.00  0.00     0.198 A 
ATOM     86  C   UNL A   1      45.605  26.301  36.152  1.00  0.00     0.198 A 
ATOM     87  F   UNL A   1      43.446  25.921  35.298  1.00  0.00    -0.203 F 
ATOM     88  F   UNL A   1      48.063  28.831  35.318  1.00  0.00    -0.200 F 
ATOM     89  C   UNL A   1      46.781  27.037  36.163  1.00  0.00     0.200 A 
ATOM     90  F   UNL A   1      45.466  25.247  36.968  1.00  0.00    -0.200 F 
ATOM     91  F   UNL A   1      47.786  26.682  36.974  1.00  0.00    -0.200 F 
ENDBRANCH  58  81
ENDBRANCH  32  33
ENDBRANCH  24  27
ENDBRANCH  22  23
ENDBRANCH  21  22
ENDBRANCH  20  21
ENDBRANCH   3  20
TORSDOF 16
ENDMDL
