MODEL 1
REMARK VINA RESULT:     -12.2      0.000      0.000
REMARK SMILES COc1cc(C(=O)NCCCNC(=O)c2ccc(-c3c4nc(c(-c5c(F)c(F)c(F)c(F)c5F)c5ccc([nH]5)c(-c5c(F)c(F)c(F)c(F)c5F)c5nc(c(-c6c(F)c(F)c(F)c(F)c6F)c6ccc3[nH]6)C=C5)C=C4)cc2)ccc1OCC(=O)N[C@H]1CCCC[C@H]1C
REMARK SMILES IDX 9 1 8 2 6 3 7 4 5 6 3 7 4 8 80 9 79 10 78 11 2 12 1 13 81 14
REMARK SMILES IDX 82 15 83 16 84 17 85 18 86 20 87 21 91 22 88 23 90 24 92 25
REMARK SMILES IDX 89 26 10 27 11 28 12 29 13 30 14 32 15 33 16 34 77 35 17 36
REMARK SMILES IDX 76 37 18 38 19 39 20 40 70 41 21 42 75 43 69 44 71 45 22 46
REMARK SMILES IDX 74 47 68 48 67 49 23 51 55 52 35 53 54 54 36 55 39 56 53 57
REMARK SMILES IDX 72 58 37 59 38 60 52 62 73 63 40 64 24 65 25 66 33 67 26 68
REMARK SMILES IDX 27 69 31 70 34 71 28 72 29 73 32 74 30 75 56 76 57 77 65 78
REMARK SMILES IDX 58 79 59 80 63 81 66 82 60 83 61 84 64 85 62 86 41 87 42 88
REMARK SMILES IDX 50 89 43 90 44 91 48 92 51 93 45 94 46 95 49 96 47 97
REMARK H PARENT 8 5 85 19 12 31 71 50 39 61
REMARK Flexibility Score: inf
ROOT
ATOM      1  C   UNL A   1      32.001  30.446  26.041  1.00  0.00     0.118 C 
ENDROOT
BRANCH   1   2
ATOM      2  N   UNL A   1      33.340  29.993  26.409  1.00  0.00    -0.352 N 
ATOM      3  C   UNL A   1      33.978  28.774  26.337  1.00  0.00     0.251 C 
ATOM      4  O   UNL A   1      35.117  28.687  26.796  1.00  0.00    -0.269 OA
ATOM      5  H   UNL A   1      33.903  30.707  26.787  1.00  0.00     0.163 HD
BRANCH   3   6
ATOM      6  C   UNL A   1      33.336  27.561  25.765  1.00  0.00     0.043 A 
ATOM      7  C   UNL A   1      33.101  25.982  23.915  1.00  0.00     0.161 A 
ATOM      8  C   UNL A   1      33.654  27.158  24.458  1.00  0.00     0.064 A 
ATOM      9  C   UNL A   1      32.293  25.164  24.710  1.00  0.00     0.161 A 
ATOM     10  C   UNL A   1      32.013  25.569  26.014  1.00  0.00     0.051 A 
ATOM     11  C   UNL A   1      32.418  26.810  26.485  1.00  0.00     0.018 A 
BRANCH   7  12
ATOM     12  O   UNL A   1      33.474  25.574  22.664  1.00  0.00    -0.493 OA
ATOM     13  C   UNL A   1      32.531  25.962  21.662  1.00  0.00     0.278 C 
ENDBRANCH   7  12
BRANCH   9  14
ATOM     14  O   UNL A   1      31.698  23.975  24.396  1.00  0.00    -0.480 OA
BRANCH  14  15
ATOM     15  C   UNL A   1      31.443  23.037  25.426  1.00  0.00     0.329 C 
BRANCH  15  16
ATOM     16  C   UNL A   1      32.088  21.640  25.368  1.00  0.00     0.258 C 
ATOM     17  O   UNL A   1      31.403  20.620  25.245  1.00  0.00    -0.271 OA
ATOM     18  N   UNL A   1      33.443  21.479  25.394  1.00  0.00    -0.350 N 
ATOM     19  H   UNL A   1      33.762  20.583  25.648  1.00  0.00     0.163 HD
BRANCH  18  20
ATOM     20  C   UNL A   1      34.480  22.454  25.096  1.00  0.00     0.085 C 
ATOM     21  C   UNL A   1      35.050  23.123  26.348  1.00  0.00     0.025 C 
ATOM     22  C   UNL A   1      35.628  21.813  24.278  1.00  0.00     0.008 C 
ATOM     23  C   UNL A   1      36.012  24.241  25.955  1.00  0.00     0.002 C 
ATOM     24  C   UNL A   1      36.649  22.902  23.899  1.00  0.00     0.005 C 
ATOM     25  C   UNL A   1      36.316  20.639  25.000  1.00  0.00     0.010 C 
ATOM     26  C   UNL A   1      37.154  23.705  25.099  1.00  0.00     0.000 C 
ENDBRANCH  18  20
ENDBRANCH  15  16
ENDBRANCH  14  15
ENDBRANCH   9  14
ENDBRANCH   3   6
ENDBRANCH   1   2
BRANCH   1  27
ATOM     27  C   UNL A   1      31.679  31.856  26.501  1.00  0.00     0.042 C 
BRANCH  27  28
ATOM     28  C   UNL A   1      32.796  32.526  27.279  1.00  0.00     0.118 C 
BRANCH  28  29
ATOM     29  N   UNL A   1      32.512  33.923  27.597  1.00  0.00    -0.352 N 
ATOM     30  C   UNL A   1      33.046  34.756  28.549  1.00  0.00     0.251 C 
ATOM     31  H   UNL A   1      31.820  34.338  27.033  1.00  0.00     0.163 HD
ATOM     32  O   UNL A   1      32.528  35.851  28.763  1.00  0.00    -0.269 OA
BRANCH  30  33
ATOM     33  C   UNL A   1      34.222  34.336  29.342  1.00  0.00     0.039 A 
ATOM     34  C   UNL A   1      34.028  33.714  30.579  1.00  0.00     0.014 A 
ATOM     35  C   UNL A   1      35.514  34.557  28.870  1.00  0.00     0.014 A 
ATOM     36  C   UNL A   1      35.128  33.224  31.290  1.00  0.00     0.010 A 
ATOM     37  C   UNL A   1      36.595  33.975  29.520  1.00  0.00     0.010 A 
ATOM     38  C   UNL A   1      36.417  33.302  30.739  1.00  0.00    -0.014 A 
BRANCH  38  39
ATOM     39  C   UNL A   1      37.605  32.709  31.405  1.00  0.00     0.031 A 
ATOM     40  C   UNL A   1      38.317  31.551  30.761  1.00  0.00     0.074 A 
ATOM     41  C   UNL A   1      37.970  33.131  32.631  1.00  0.00     0.049 A 
ATOM     42  N   UNL A   1      39.252  30.776  31.248  1.00  0.00    -0.248 NA
ATOM     43  C   UNL A   1      37.891  31.194  29.398  1.00  0.00     0.031 C 
ATOM     44  C   UNL A   1      37.337  34.218  33.379  1.00  0.00     0.029 A 
ATOM     45  N   UNL A   1      38.951  32.675  33.478  1.00  0.00    -0.354 N 
ATOM     46  C   UNL A   1      39.501  29.825  30.266  1.00  0.00     0.074 A 
ATOM     47  C   UNL A   1      38.583  30.086  29.180  1.00  0.00     0.031 C 
ATOM     48  C   UNL A   1      37.951  34.354  34.565  1.00  0.00     0.029 A 
ATOM     49  C   UNL A   1      38.986  33.332  34.685  1.00  0.00     0.049 A 
ATOM     50  H   UNL A   1      39.571  31.948  33.243  1.00  0.00     0.167 HD
ATOM     51  C   UNL A   1      40.427  28.839  30.263  1.00  0.00     0.037 A 
ATOM     52  C   UNL A   1      39.750  33.118  35.775  1.00  0.00     0.037 A 
ATOM     53  C   UNL A   1      41.361  28.607  31.333  1.00  0.00     0.049 A 
ATOM     54  C   UNL A   1      40.763  32.003  35.752  1.00  0.00     0.074 A 
ATOM     55  C   UNL A   1      42.382  27.676  31.400  1.00  0.00     0.029 A 
ATOM     56  N   UNL A   1      41.385  29.316  32.526  1.00  0.00    -0.354 N 
ATOM     57  N   UNL A   1      41.032  31.150  34.795  1.00  0.00    -0.248 NA
ATOM     58  C   UNL A   1      41.579  31.824  36.961  1.00  0.00     0.031 C 
ATOM     59  C   UNL A   1      42.988  27.784  32.654  1.00  0.00     0.029 A 
ATOM     60  C   UNL A   1      42.388  28.825  33.344  1.00  0.00     0.049 A 
ATOM     61  H   UNL A   1      40.779  30.057  32.756  1.00  0.00     0.167 HD
ATOM     62  C   UNL A   1      42.071  30.358  35.269  1.00  0.00     0.074 A 
ATOM     63  C   UNL A   1      42.386  30.837  36.598  1.00  0.00     0.031 C 
ATOM     64  C   UNL A   1      42.706  29.330  34.657  1.00  0.00     0.037 A 
BRANCH  51  65
ATOM     65  C   UNL A   1      40.479  27.934  29.065  1.00  0.00     0.064 A 
ATOM     66  C   UNL A   1      41.311  28.206  27.968  1.00  0.00     0.173 A 
ATOM     67  C   UNL A   1      39.712  26.759  29.028  1.00  0.00     0.173 A 
ATOM     68  F   UNL A   1      42.058  29.321  27.948  1.00  0.00    -0.203 F 
ATOM     69  C   UNL A   1      41.348  27.356  26.866  1.00  0.00     0.198 A 
ATOM     70  C   UNL A   1      39.777  25.893  27.940  1.00  0.00     0.198 A 
ATOM     71  F   UNL A   1      38.904  26.445  30.051  1.00  0.00    -0.203 F 
ATOM     72  F   UNL A   1      42.109  27.668  25.808  1.00  0.00    -0.200 F 
ATOM     73  C   UNL A   1      40.588  26.196  26.856  1.00  0.00     0.200 A 
ATOM     74  F   UNL A   1      39.055  24.764  27.939  1.00  0.00    -0.200 F 
ATOM     75  F   UNL A   1      40.632  25.375  25.799  1.00  0.00    -0.200 F 
ENDBRANCH  51  65
BRANCH  52  76
ATOM     76  C   UNL A   1      39.598  33.984  36.973  1.00  0.00     0.064 A 
ATOM     77  C   UNL A   1      38.796  33.584  38.052  1.00  0.00     0.173 A 
ATOM     78  C   UNL A   1      40.241  35.227  37.067  1.00  0.00     0.173 A 
ATOM     79  F   UNL A   1      38.145  32.413  38.003  1.00  0.00    -0.203 F 
ATOM     80  C   UNL A   1      38.624  34.403  39.166  1.00  0.00     0.198 A 
ATOM     81  C   UNL A   1      40.093  36.032  38.195  1.00  0.00     0.198 A 
ATOM     82  F   UNL A   1      41.024  35.656  36.066  1.00  0.00    -0.203 F 
ATOM     83  F   UNL A   1      37.813  34.017  40.160  1.00  0.00    -0.200 F 
ATOM     84  C   UNL A   1      39.277  35.624  39.240  1.00  0.00     0.200 A 
ATOM     85  F   UNL A   1      40.739  37.204  38.268  1.00  0.00    -0.200 F 
ATOM     86  F   UNL A   1      39.115  36.409  40.313  1.00  0.00    -0.200 F 
ENDBRANCH  52  76
BRANCH  64  87
ATOM     87  C   UNL A   1      43.847  28.682  35.384  1.00  0.00     0.064 A 
ATOM     88  C   UNL A   1      43.656  27.578  36.227  1.00  0.00     0.173 A 
ATOM     89  C   UNL A   1      45.161  29.127  35.170  1.00  0.00     0.173 A 
ATOM     90  F   UNL A   1      42.418  27.125  36.476  1.00  0.00    -0.203 F 
ATOM     91  C   UNL A   1      44.739  26.952  36.841  1.00  0.00     0.198 A 
ATOM     92  C   UNL A   1      46.242  28.479  35.759  1.00  0.00     0.198 A 
ATOM     93  F   UNL A   1      45.398  30.175  34.367  1.00  0.00    -0.203 F 
ATOM     94  F   UNL A   1      44.531  25.921  37.671  1.00  0.00    -0.200 F 
ATOM     95  C   UNL A   1      46.030  27.395  36.597  1.00  0.00     0.200 A 
ATOM     96  F   UNL A   1      47.490  28.898  35.508  1.00  0.00    -0.200 F 
ATOM     97  F   UNL A   1      47.071  26.777  37.172  1.00  0.00    -0.200 F 
ENDBRANCH  64  87
ENDBRANCH  38  39
ENDBRANCH  30  33
ENDBRANCH  28  29
ENDBRANCH  27  28
ENDBRANCH   1  27
TORSDOF 15
ENDMDL
MODEL 2
REMARK VINA RESULT:     -12.2      0.837      1.815
REMARK SMILES COc1cc(C(=O)NCCCNC(=O)c2ccc(-c3c4nc(c(-c5c(F)c(F)c(F)c(F)c5F)c5ccc([nH]5)c(-c5c(F)c(F)c(F)c(F)c5F)c5nc(c(-c6c(F)c(F)c(F)c(F)c6F)c6ccc3[nH]6)C=C5)C=C4)cc2)ccc1OCC(=O)N[C@H]1CCCC[C@H]1C
REMARK SMILES IDX 9 1 8 2 6 3 7 4 5 6 3 7 4 8 80 9 79 10 78 11 2 12 1 13 81 14
REMARK SMILES IDX 82 15 83 16 84 17 85 18 86 20 87 21 91 22 88 23 90 24 92 25
REMARK SMILES IDX 89 26 10 27 11 28 12 29 13 30 14 32 15 33 16 34 77 35 17 36
REMARK SMILES IDX 76 37 18 38 19 39 20 40 70 41 21 42 75 43 69 44 71 45 22 46
REMARK SMILES IDX 74 47 68 48 67 49 23 51 55 52 35 53 54 54 36 55 39 56 53 57
REMARK SMILES IDX 72 58 37 59 38 60 52 62 73 63 40 64 24 65 25 66 33 67 26 68
REMARK SMILES IDX 27 69 31 70 34 71 28 72 29 73 32 74 30 75 56 76 57 77 65 78
REMARK SMILES IDX 58 79 59 80 63 81 66 82 60 83 61 84 64 85 62 86 41 87 42 88
REMARK SMILES IDX 50 89 43 90 44 91 48 92 51 93 45 94 46 95 49 96 47 97
REMARK H PARENT 8 5 85 19 12 31 71 50 39 61
REMARK Flexibility Score: inf
ROOT
ATOM      1  C   UNL A   1      31.774  30.538  26.885  1.00  0.00     0.118 C 
ENDROOT
BRANCH   1   2
ATOM      2  N   UNL A   1      33.125  30.120  27.250  1.00  0.00    -0.352 N 
ATOM      3  C   UNL A   1      33.885  29.011  26.946  1.00  0.00     0.251 C 
ATOM      4  O   UNL A   1      34.995  28.908  27.467  1.00  0.00    -0.269 OA
ATOM      5  H   UNL A   1      33.588  30.763  27.832  1.00  0.00     0.163 HD
BRANCH   3   6
ATOM      6  C   UNL A   1      33.404  27.926  26.051  1.00  0.00     0.043 A 
ATOM      7  C   UNL A   1      31.912  26.030  25.661  1.00  0.00     0.161 A 
ATOM      8  C   UNL A   1      32.423  27.030  26.510  1.00  0.00     0.064 A 
ATOM      9  C   UNL A   1      32.322  25.975  24.326  1.00  0.00     0.161 A 
ATOM     10  C   UNL A   1      33.274  26.892  23.884  1.00  0.00     0.051 A 
ATOM     11  C   UNL A   1      33.900  27.762  24.765  1.00  0.00     0.018 A 
BRANCH   7  12
ATOM     12  O   UNL A   1      30.913  25.210  26.108  1.00  0.00    -0.493 OA
ATOM     13  C   UNL A   1      31.411  23.964  26.601  1.00  0.00     0.278 C 
ENDBRANCH   7  12
BRANCH   9  14
ATOM     14  O   UNL A   1      31.923  25.122  23.337  1.00  0.00    -0.480 OA
BRANCH  14  15
ATOM     15  C   UNL A   1      32.725  24.983  22.179  1.00  0.00     0.329 C 
BRANCH  15  16
ATOM     16  C   UNL A   1      33.247  23.593  21.770  1.00  0.00     0.258 C 
ATOM     17  O   UNL A   1      33.316  23.254  20.585  1.00  0.00    -0.271 OA
ATOM     18  N   UNL A   1      33.708  22.703  22.698  1.00  0.00    -0.350 N 
ATOM     19  H   UNL A   1      33.742  21.763  22.408  1.00  0.00     0.163 HD
BRANCH  18  20
ATOM     20  C   UNL A   1      34.155  22.958  24.058  1.00  0.00     0.085 C 
ATOM     21  C   UNL A   1      34.285  21.684  24.894  1.00  0.00     0.025 C 
ATOM     22  C   UNL A   1      35.499  23.727  24.067  1.00  0.00     0.008 C 
ATOM     23  C   UNL A   1      34.601  22.036  26.345  1.00  0.00     0.002 C 
ATOM     24  C   UNL A   1      35.880  24.063  25.520  1.00  0.00     0.005 C 
ATOM     25  C   UNL A   1      36.642  22.978  23.356  1.00  0.00     0.010 C 
ATOM     26  C   UNL A   1      35.891  22.844  26.443  1.00  0.00     0.000 C 
ENDBRANCH  18  20
ENDBRANCH  15  16
ENDBRANCH  14  15
ENDBRANCH   9  14
ENDBRANCH   3   6
ENDBRANCH   1   2
BRANCH   1  27
ATOM     27  C   UNL A   1      31.574  32.043  26.881  1.00  0.00     0.042 C 
BRANCH  27  28
ATOM     28  C   UNL A   1      32.807  32.834  27.274  1.00  0.00     0.118 C 
BRANCH  28  29
ATOM     29  N   UNL A   1      32.503  34.207  27.669  1.00  0.00    -0.352 N 
ATOM     30  C   UNL A   1      33.025  34.993  28.667  1.00  0.00     0.251 C 
ATOM     31  H   UNL A   1      31.805  34.643  27.128  1.00  0.00     0.163 HD
ATOM     32  O   UNL A   1      32.491  36.066  28.942  1.00  0.00    -0.269 OA
BRANCH  30  33
ATOM     33  C   UNL A   1      34.206  34.547  29.436  1.00  0.00     0.039 A 
ATOM     34  C   UNL A   1      34.027  33.979  30.702  1.00  0.00     0.014 A 
ATOM     35  C   UNL A   1      35.491  34.688  28.915  1.00  0.00     0.014 A 
ATOM     36  C   UNL A   1      35.126  33.463  31.394  1.00  0.00     0.010 A 
ATOM     37  C   UNL A   1      36.565  34.080  29.551  1.00  0.00     0.010 A 
ATOM     38  C   UNL A   1      36.398  33.460  30.799  1.00  0.00    -0.014 A 
BRANCH  38  39
ATOM     39  C   UNL A   1      37.579  32.836  31.448  1.00  0.00     0.031 A 
ATOM     40  C   UNL A   1      38.246  31.655  30.798  1.00  0.00     0.074 A 
ATOM     41  C   UNL A   1      37.978  33.252  32.665  1.00  0.00     0.049 A 
ATOM     42  N   UNL A   1      39.167  30.855  31.272  1.00  0.00    -0.248 NA
ATOM     43  C   UNL A   1      37.787  31.304  29.443  1.00  0.00     0.031 C 
ATOM     44  C   UNL A   1      37.388  34.360  33.419  1.00  0.00     0.029 A 
ATOM     45  N   UNL A   1      38.959  32.772  33.498  1.00  0.00    -0.354 N 
ATOM     46  C   UNL A   1      39.371  29.893  30.291  1.00  0.00     0.074 A 
ATOM     47  C   UNL A   1      38.443  30.176  29.220  1.00  0.00     0.031 C 
ATOM     48  C   UNL A   1      38.027  34.483  34.593  1.00  0.00     0.029 A 
ATOM     49  C   UNL A   1      39.033  33.432  34.700  1.00  0.00     0.049 A 
ATOM     50  H   UNL A   1      39.553  32.025  33.256  1.00  0.00     0.167 HD
ATOM     51  C   UNL A   1      40.268  28.880  30.277  1.00  0.00     0.037 A 
ATOM     52  C   UNL A   1      39.809  33.201  35.779  1.00  0.00     0.037 A 
ATOM     53  C   UNL A   1      41.213  28.626  31.333  1.00  0.00     0.049 A 
ATOM     54  C   UNL A   1      40.789  32.058  35.744  1.00  0.00     0.074 A 
ATOM     55  C   UNL A   1      42.207  27.666  31.386  1.00  0.00     0.029 A 
ATOM     56  N   UNL A   1      41.277  29.339  32.521  1.00  0.00    -0.354 N 
ATOM     57  N   UNL A   1      41.017  31.192  34.787  1.00  0.00    -0.248 NA
ATOM     58  C   UNL A   1      41.620  31.860  36.940  1.00  0.00     0.031 C 
ATOM     59  C   UNL A   1      42.838  27.762  32.629  1.00  0.00     0.029 A 
ATOM     60  C   UNL A   1      42.280  28.822  33.325  1.00  0.00     0.049 A 
ATOM     61  H   UNL A   1      40.698  30.098  32.758  1.00  0.00     0.167 HD
ATOM     62  C   UNL A   1      42.040  30.373  35.247  1.00  0.00     0.074 A 
ATOM     63  C   UNL A   1      42.392  30.848  36.569  1.00  0.00     0.031 C 
ATOM     64  C   UNL A   1      42.634  29.324  34.629  1.00  0.00     0.037 A 
BRANCH  51  65
ATOM     65  C   UNL A   1      40.273  27.969  29.083  1.00  0.00     0.064 A 
ATOM     66  C   UNL A   1      39.520  26.784  29.054  1.00  0.00     0.173 A 
ATOM     67  C   UNL A   1      41.012  28.303  27.937  1.00  0.00     0.173 A 
ATOM     68  F   UNL A   1      38.804  26.414  30.126  1.00  0.00    -0.203 F 
ATOM     69  C   UNL A   1      39.535  25.952  27.938  1.00  0.00     0.198 A 
ATOM     70  C   UNL A   1      40.996  27.486  26.810  1.00  0.00     0.198 A 
ATOM     71  F   UNL A   1      41.744  29.426  27.906  1.00  0.00    -0.203 F 
ATOM     72  F   UNL A   1      38.852  24.799  27.957  1.00  0.00    -0.200 F 
ATOM     73  C   UNL A   1      40.265  26.307  26.814  1.00  0.00     0.200 A 
ATOM     74  F   UNL A   1      41.690  27.838  25.719  1.00  0.00    -0.200 F 
ATOM     75  F   UNL A   1      40.270  25.509  25.738  1.00  0.00    -0.200 F 
ENDBRANCH  51  65
BRANCH  52  76
ATOM     76  C   UNL A   1      39.703  34.076  36.975  1.00  0.00     0.064 A 
ATOM     77  C   UNL A   1      38.906  33.706  38.067  1.00  0.00     0.173 A 
ATOM     78  C   UNL A   1      40.386  35.300  37.053  1.00  0.00     0.173 A 
ATOM     79  F   UNL A   1      38.218  32.556  38.034  1.00  0.00    -0.203 F 
ATOM     80  C   UNL A   1      38.776  34.536  39.181  1.00  0.00     0.198 A 
ATOM     81  C   UNL A   1      40.281  36.114  38.179  1.00  0.00     0.198 A 
ATOM     82  F   UNL A   1      41.167  35.699  36.039  1.00  0.00    -0.203 F 
ATOM     83  F   UNL A   1      37.969  34.179  40.189  1.00  0.00    -0.200 F 
ATOM     84  C   UNL A   1      39.469  35.735  39.239  1.00  0.00     0.200 A 
ATOM     85  F   UNL A   1      40.964  37.264  38.238  1.00  0.00    -0.200 F 
ATOM     86  F   UNL A   1      39.348  36.530  40.310  1.00  0.00    -0.200 F 
ENDBRANCH  52  76
BRANCH  64  87
ATOM     87  C   UNL A   1      43.769  28.646  35.341  1.00  0.00     0.064 A 
ATOM     88  C   UNL A   1      43.558  27.569  36.213  1.00  0.00     0.173 A 
ATOM     89  C   UNL A   1      45.093  29.034  35.082  1.00  0.00     0.173 A 
ATOM     90  F   UNL A   1      42.310  27.171  36.504  1.00  0.00    -0.203 F 
ATOM     91  C   UNL A   1      44.631  26.913  36.811  1.00  0.00     0.198 A 
ATOM     92  C   UNL A   1      46.164  28.355  35.656  1.00  0.00     0.198 A 
ATOM     93  F   UNL A   1      45.349  30.054  34.250  1.00  0.00    -0.203 F 
ATOM     94  F   UNL A   1      44.405  25.909  37.669  1.00  0.00    -0.200 F 
ATOM     95  C   UNL A   1      45.932  27.298  36.523  1.00  0.00     0.200 A 
ATOM     96  F   UNL A   1      47.420  28.718  35.363  1.00  0.00    -0.200 F 
ATOM     97  F   UNL A   1      46.963  26.652  37.084  1.00  0.00    -0.200 F 
ENDBRANCH  64  87
ENDBRANCH  38  39
ENDBRANCH  30  33
ENDBRANCH  28  29
ENDBRANCH  27  28
ENDBRANCH   1  27
TORSDOF 15
ENDMDL
MODEL 3
REMARK VINA RESULT:     -12.2      5.364     10.622
REMARK SMILES COc1cc(C(=O)NCCCNC(=O)c2ccc(-c3c4nc(c(-c5c(F)c(F)c(F)c(F)c5F)c5ccc([nH]5)c(-c5c(F)c(F)c(F)c(F)c5F)c5nc(c(-c6c(F)c(F)c(F)c(F)c6F)c6ccc3[nH]6)C=C5)C=C4)cc2)ccc1OCC(=O)N[C@H]1CCCC[C@H]1C
REMARK SMILES IDX 9 1 8 2 6 3 7 4 5 6 3 7 4 8 80 9 79 10 78 11 2 12 1 13 81 14
REMARK SMILES IDX 82 15 83 16 84 17 85 18 86 20 87 21 91 22 88 23 90 24 92 25
REMARK SMILES IDX 89 26 10 27 11 28 12 29 13 30 14 32 15 33 16 34 77 35 17 36
REMARK SMILES IDX 76 37 18 38 19 39 20 40 70 41 21 42 75 43 69 44 71 45 22 46
REMARK SMILES IDX 74 47 68 48 67 49 23 51 55 52 35 53 54 54 36 55 39 56 53 57
REMARK SMILES IDX 72 58 37 59 38 60 52 62 73 63 40 64 24 65 25 66 33 67 26 68
REMARK SMILES IDX 27 69 31 70 34 71 28 72 29 73 32 74 30 75 56 76 57 77 65 78
REMARK SMILES IDX 58 79 59 80 63 81 66 82 60 83 61 84 64 85 62 86 41 87 42 88
REMARK SMILES IDX 50 89 43 90 44 91 48 92 51 93 45 94 46 95 49 96 47 97
REMARK H PARENT 8 5 85 19 12 31 71 50 39 61
REMARK Flexibility Score: inf
ROOT
ATOM      1  C   UNL A   1      36.382  20.599  25.070  1.00  0.00     0.118 C 
ENDROOT
BRANCH   1   2
ATOM      2  N   UNL A   1      35.463  19.465  25.009  1.00  0.00    -0.352 N 
ATOM      3  C   UNL A   1      34.111  19.357  24.769  1.00  0.00     0.251 C 
ATOM      4  O   UNL A   1      33.595  18.242  24.847  1.00  0.00    -0.269 OA
ATOM      5  H   UNL A   1      35.902  18.599  25.173  1.00  0.00     0.163 HD
BRANCH   3   6
ATOM      6  C   UNL A   1      33.252  20.530  24.458  1.00  0.00     0.043 A 
ATOM      7  C   UNL A   1      32.331  22.694  25.124  1.00  0.00     0.161 A 
ATOM      8  C   UNL A   1      33.094  21.547  25.415  1.00  0.00     0.064 A 
ATOM      9  C   UNL A   1      31.793  22.863  23.845  1.00  0.00     0.161 A 
ATOM     10  C   UNL A   1      31.986  21.855  22.902  1.00  0.00     0.051 A 
ATOM     11  C   UNL A   1      32.589  20.653  23.246  1.00  0.00     0.018 A 
BRANCH   7  12
ATOM     12  O   UNL A   1      32.244  23.700  26.046  1.00  0.00    -0.493 OA
ATOM     13  C   UNL A   1      31.075  23.589  26.862  1.00  0.00     0.278 C 
ENDBRANCH   7  12
BRANCH   9  14
ATOM     14  O   UNL A   1      31.067  23.908  23.347  1.00  0.00    -0.480 OA
BRANCH  14  15
ATOM     15  C   UNL A   1      31.738  24.957  22.673  1.00  0.00     0.329 C 
BRANCH  15  16
ATOM     16  C   UNL A   1      33.197  25.290  23.033  1.00  0.00     0.258 C 
ATOM     17  O   UNL A   1      34.134  24.940  22.310  1.00  0.00    -0.271 OA
ATOM     18  N   UNL A   1      33.508  26.035  24.135  1.00  0.00    -0.350 N 
ATOM     19  H   UNL A   1      34.435  25.956  24.456  1.00  0.00     0.163 HD
BRANCH  18  20
ATOM     20  C   UNL A   1      32.652  26.928  24.898  1.00  0.00     0.085 C 
ATOM     21  C   UNL A   1      33.247  27.315  26.253  1.00  0.00     0.025 C 
ATOM     22  C   UNL A   1      32.320  28.207  24.090  1.00  0.00     0.008 C 
ATOM     23  C   UNL A   1      32.234  28.119  27.063  1.00  0.00     0.002 C 
ATOM     24  C   UNL A   1      31.332  29.072  24.894  1.00  0.00     0.005 C 
ATOM     25  C   UNL A   1      33.564  29.020  23.687  1.00  0.00     0.010 C 
ATOM     26  C   UNL A   1      31.810  29.378  26.315  1.00  0.00     0.000 C 
ENDBRANCH  18  20
ENDBRANCH  15  16
ENDBRANCH  14  15
ENDBRANCH   9  14
ENDBRANCH   3   6
ENDBRANCH   1   2
BRANCH   1  27
ATOM     27  C   UNL A   1      37.804  20.263  24.658  1.00  0.00     0.042 C 
BRANCH  27  28
ATOM     28  C   UNL A   1      38.832  20.468  25.755  1.00  0.00     0.118 C 
BRANCH  28  29
ATOM     29  N   UNL A   1      39.815  19.389  25.825  1.00  0.00    -0.352 N 
ATOM     30  C   UNL A   1      41.167  19.417  26.065  1.00  0.00     0.251 C 
ATOM     31  H   UNL A   1      39.446  18.489  25.673  1.00  0.00     0.163 HD
ATOM     32  O   UNL A   1      41.839  18.401  25.897  1.00  0.00    -0.269 OA
BRANCH  30  33
ATOM     33  C   UNL A   1      41.828  20.667  26.497  1.00  0.00     0.039 A 
ATOM     34  C   UNL A   1      42.259  21.585  25.532  1.00  0.00     0.014 A 
ATOM     35  C   UNL A   1      42.028  20.937  27.849  1.00  0.00     0.014 A 
ATOM     36  C   UNL A   1      42.794  22.813  25.931  1.00  0.00     0.010 A 
ATOM     37  C   UNL A   1      42.456  22.198  28.246  1.00  0.00     0.010 A 
ATOM     38  C   UNL A   1      42.846  23.151  27.293  1.00  0.00    -0.014 A 
BRANCH  38  39
ATOM     39  C   UNL A   1      43.312  24.481  27.765  1.00  0.00     0.031 A 
ATOM     40  C   UNL A   1      42.303  25.543  28.107  1.00  0.00     0.074 A 
ATOM     41  C   UNL A   1      44.628  24.768  27.776  1.00  0.00     0.049 A 
ATOM     42  N   UNL A   1      42.488  26.812  28.363  1.00  0.00    -0.248 NA
ATOM     43  C   UNL A   1      40.891  25.126  28.126  1.00  0.00     0.031 C 
ATOM     44  C   UNL A   1      45.703  23.839  27.428  1.00  0.00     0.029 A 
ATOM     45  N   UNL A   1      45.285  25.939  28.067  1.00  0.00    -0.354 N 
ATOM     46  C   UNL A   1      41.219  27.349  28.541  1.00  0.00     0.074 A 
ATOM     47  C   UNL A   1      40.271  26.282  28.310  1.00  0.00     0.031 C 
ATOM     48  C   UNL A   1      46.884  24.469  27.539  1.00  0.00     0.029 A 
ATOM     49  C   UNL A   1      46.648  25.859  27.912  1.00  0.00     0.049 A 
ATOM     50  H   UNL A   1      44.823  26.758  28.359  1.00  0.00     0.167 HD
ATOM     51  C   UNL A   1      40.878  28.612  28.887  1.00  0.00     0.037 A 
ATOM     52  C   UNL A   1      47.599  26.808  28.034  1.00  0.00     0.037 A 
ATOM     53  C   UNL A   1      41.829  29.660  29.149  1.00  0.00     0.049 A 
ATOM     54  C   UNL A   1      47.192  28.210  28.406  1.00  0.00     0.074 A 
ATOM     55  C   UNL A   1      41.589  30.956  29.570  1.00  0.00     0.029 A 
ATOM     56  N   UNL A   1      43.204  29.529  29.013  1.00  0.00    -0.354 N 
ATOM     57  N   UNL A   1      45.994  28.691  28.631  1.00  0.00    -0.248 NA
ATOM     58  C   UNL A   1      48.269  29.200  28.540  1.00  0.00     0.031 C 
ATOM     59  C   UNL A   1      42.813  31.625  29.636  1.00  0.00     0.029 A 
ATOM     60  C   UNL A   1      43.822  30.730  29.318  1.00  0.00     0.049 A 
ATOM     61  H   UNL A   1      43.670  28.707  28.739  1.00  0.00     0.167 HD
ATOM     62  C   UNL A   1      46.175  30.026  28.970  1.00  0.00     0.074 A 
ATOM     63  C   UNL A   1      47.600  30.277  28.925  1.00  0.00     0.031 C 
ATOM     64  C   UNL A   1      45.246  30.957  29.292  1.00  0.00     0.037 A 
BRANCH  51  65
ATOM     65  C   UNL A   1      39.415  28.932  29.005  1.00  0.00     0.064 A 
ATOM     66  C   UNL A   1      38.738  28.859  30.232  1.00  0.00     0.173 A 
ATOM     67  C   UNL A   1      38.688  29.353  27.881  1.00  0.00     0.173 A 
ATOM     68  F   UNL A   1      39.385  28.452  31.336  1.00  0.00    -0.203 F 
ATOM     69  C   UNL A   1      37.382  29.160  30.323  1.00  0.00     0.198 A 
ATOM     70  C   UNL A   1      37.340  29.688  27.982  1.00  0.00     0.198 A 
ATOM     71  F   UNL A   1      39.284  29.448  26.684  1.00  0.00    -0.203 F 
ATOM     72  F   UNL A   1      36.747  29.029  31.496  1.00  0.00    -0.200 F 
ATOM     73  C   UNL A   1      36.686  29.583  29.201  1.00  0.00     0.200 A 
ATOM     74  F   UNL A   1      36.672  30.112  26.900  1.00  0.00    -0.200 F 
ATOM     75  F   UNL A   1      35.384  29.881  29.293  1.00  0.00    -0.200 F 
ENDBRANCH  51  65
BRANCH  52  76
ATOM     76  C   UNL A   1      49.028  26.462  27.817  1.00  0.00     0.064 A 
ATOM     77  C   UNL A   1      49.884  26.231  28.903  1.00  0.00     0.173 A 
ATOM     78  C   UNL A   1      49.571  26.362  26.528  1.00  0.00     0.173 A 
ATOM     79  F   UNL A   1      49.418  26.334  30.156  1.00  0.00    -0.203 F 
ATOM     80  C   UNL A   1      51.233  25.936  28.709  1.00  0.00     0.198 A 
ATOM     81  C   UNL A   1      50.913  26.037  26.334  1.00  0.00     0.198 A 
ATOM     82  F   UNL A   1      48.796  26.567  25.453  1.00  0.00    -0.203 F 
ATOM     83  F   UNL A   1      52.038  25.769  29.767  1.00  0.00    -0.200 F 
ATOM     84  C   UNL A   1      51.745  25.833  27.425  1.00  0.00     0.200 A 
ATOM     85  F   UNL A   1      51.399  25.922  25.091  1.00  0.00    -0.200 F 
ATOM     86  F   UNL A   1      53.040  25.546  27.239  1.00  0.00    -0.200 F 
ENDBRANCH  52  76
BRANCH  64  87
ATOM     87  C   UNL A   1      45.731  32.323  29.679  1.00  0.00     0.064 A 
ATOM     88  C   UNL A   1      45.826  33.366  28.747  1.00  0.00     0.173 A 
ATOM     89  C   UNL A   1      46.029  32.610  31.021  1.00  0.00     0.173 A 
ATOM     90  F   UNL A   1      45.567  33.139  27.451  1.00  0.00    -0.203 F 
ATOM     91  C   UNL A   1      46.216  34.644  29.142  1.00  0.00     0.198 A 
ATOM     92  C   UNL A   1      46.387  33.894  31.417  1.00  0.00     0.198 A 
ATOM     93  F   UNL A   1      45.947  31.648  31.952  1.00  0.00    -0.203 F 
ATOM     94  F   UNL A   1      46.335  35.617  28.230  1.00  0.00    -0.200 F 
ATOM     95  C   UNL A   1      46.484  34.909  30.477  1.00  0.00     0.200 A 
ATOM     96  F   UNL A   1      46.628  34.153  32.709  1.00  0.00    -0.200 F 
ATOM     97  F   UNL A   1      46.839  36.144  30.858  1.00  0.00    -0.200 F 
ENDBRANCH  64  87
ENDBRANCH  38  39
ENDBRANCH  30  33
ENDBRANCH  28  29
ENDBRANCH  27  28
ENDBRANCH   1  27
TORSDOF 15
ENDMDL
