MODEL 1
REMARK VINA RESULT:     -12.8      0.000      0.000
REMARK SMILES CCCCN(c1ccccc1C(=O)NCCCNC(=O)c1ccc(-c2c3nc(c(-c4c(F)c(F)c(F)c(F)c4F)c4ccc([nH]4)c(-c4c(F)c(F)c(F)c(F)c4F)c4nc(c(-c5c(F)c(F)c(F)c(F)c5F)c5ccc2[nH]5)C=C4)C=C3)cc1)S(=O)(=O)c1ccc2c(c1)oc(=O)n2C
REMARK SMILES IDX 15 1 14 2 12 3 13 4 11 6 6 7 7 8 8 9 10 10 9 11 5 12 4 13
REMARK SMILES IDX 3 14 2 15 1 16 84 17 85 18 86 19 87 20 88 21 92 22 89 23
REMARK SMILES IDX 91 24 90 25 93 26 96 27 94 28 97 29 95 30 16 31 17 32 18 33
REMARK SMILES IDX 19 34 20 36 21 37 22 38 83 39 23 40 82 41 24 42 25 43 26 44
REMARK SMILES IDX 76 45 27 46 81 47 75 48 77 49 28 50 80 51 74 52 73 53 29 55
REMARK SMILES IDX 61 56 41 57 60 58 42 59 45 60 59 61 78 62 43 63 44 64 58 66
REMARK SMILES IDX 79 67 46 68 30 69 31 70 39 71 32 72 33 73 37 74 40 75 34 76
REMARK SMILES IDX 35 77 38 78 36 79 62 80 63 81 71 82 64 83 65 84 69 85 72 86
REMARK SMILES IDX 66 87 67 88 70 89 68 90 47 91 48 92 56 93 49 94 50 95 54 96
REMARK SMILES IDX 57 97 51 98 52 99 55 100 53 101
REMARK H PARENT 14 5 18 35 77 54 45 65
REMARK Flexibility Score: inf
ROOT
ATOM      1  C   UNL A   1      31.806  30.137  26.569  1.00  0.00     0.118 C 
ENDROOT
BRANCH   1   2
ATOM      2  N   UNL A   1      32.714  29.845  25.490  1.00  0.00    -0.352 N 
ATOM      3  C   UNL A   1      32.479  29.315  24.255  1.00  0.00     0.253 C 
ATOM      4  O   UNL A   1      33.440  29.269  23.483  1.00  0.00    -0.269 OA
ATOM      5  H   UNL A   1      33.657  30.064  25.672  1.00  0.00     0.163 HD
BRANCH   3   6
ATOM      6  C   UNL A   1      31.184  28.739  23.802  1.00  0.00     0.064 A 
ATOM      7  C   UNL A   1      30.781  27.385  23.795  1.00  0.00     0.065 A 
ATOM      8  C   UNL A   1      29.413  27.107  23.615  1.00  0.00     0.028 A 
ATOM      9  C   UNL A   1      28.498  28.103  23.268  1.00  0.00     0.002 A 
ATOM     10  C   UNL A   1      30.238  29.737  23.469  1.00  0.00     0.016 A 
ATOM     11  C   UNL A   1      28.915  29.420  23.172  1.00  0.00     0.001 A 
BRANCH   7  12
ATOM     12  N   UNL A   1      31.671  26.271  24.066  1.00  0.00    -0.266 N 
BRANCH  12  13
ATOM     13  C   UNL A   1      32.674  25.961  22.981  1.00  0.00     0.136 C 
BRANCH  13  14
ATOM     14  C   UNL A   1      32.475  24.811  21.982  1.00  0.00     0.022 C 
BRANCH  14  15
ATOM     15  C   UNL A   1      33.272  23.502  21.999  1.00  0.00    -0.002 C 
ATOM     16  C   UNL A   1      32.480  22.215  22.112  1.00  0.00     0.004 C 
ENDBRANCH  14  15
ENDBRANCH  13  14
ENDBRANCH  12  13
BRANCH  12  17
ATOM     17  S   UNL A   1      31.972  25.839  25.689  1.00  0.00     0.264 S 
ATOM     18  O   UNL A   1      33.065  26.662  26.167  1.00  0.00    -0.201 OA
ATOM     19  O   UNL A   1      30.701  25.809  26.385  1.00  0.00    -0.201 OA
BRANCH  17  20
ATOM     20  C   UNL A   1      32.629  24.169  25.758  1.00  0.00     0.091 A 
ATOM     21  C   UNL A   1      34.024  23.977  25.620  1.00  0.00     0.025 A 
ATOM     22  C   UNL A   1      31.752  23.076  25.677  1.00  0.00     0.071 A 
ATOM     23  C   UNL A   1      34.567  22.696  25.474  1.00  0.00     0.032 A 
ATOM     24  C   UNL A   1      32.315  21.827  25.505  1.00  0.00     0.157 A 
ATOM     25  C   UNL A   1      33.683  21.643  25.415  1.00  0.00     0.090 A 
ATOM     26  O   UNL A   1      31.608  20.642  25.359  1.00  0.00    -0.408 OA
ATOM     27  N   UNL A   1      33.872  20.297  25.222  1.00  0.00    -0.277 N 
ATOM     28  C   UNL A   1      32.629  19.693  25.176  1.00  0.00     0.419 A 
ATOM     29  C   UNL A   1      35.122  19.607  25.100  1.00  0.00     0.157 C 
ATOM     30  O   UNL A   1      32.413  18.506  25.004  1.00  0.00    -0.223 OA
ENDBRANCH  17  20
ENDBRANCH  12  17
ENDBRANCH   7  12
ENDBRANCH   3   6
ENDBRANCH   1   2
BRANCH   1  31
ATOM     31  C   UNL A   1      31.426  31.593  26.718  1.00  0.00     0.042 C 
BRANCH  31  32
ATOM     32  C   UNL A   1      32.613  32.532  26.892  1.00  0.00     0.118 C 
BRANCH  32  33
ATOM     33  N   UNL A   1      32.324  33.822  27.516  1.00  0.00    -0.352 N 
ATOM     34  C   UNL A   1      32.993  34.574  28.456  1.00  0.00     0.251 C 
ATOM     35  H   UNL A   1      31.486  34.233  27.203  1.00  0.00     0.163 HD
ATOM     36  O   UNL A   1      32.554  35.672  28.787  1.00  0.00    -0.269 OA
BRANCH  34  37
ATOM     37  C   UNL A   1      34.216  34.065  29.106  1.00  0.00     0.039 A 
ATOM     38  C   UNL A   1      35.465  34.602  28.773  1.00  0.00     0.014 A 
ATOM     39  C   UNL A   1      34.141  33.037  30.034  1.00  0.00     0.014 A 
ATOM     40  C   UNL A   1      36.616  34.142  29.427  1.00  0.00     0.010 A 
ATOM     41  C   UNL A   1      35.240  32.720  30.809  1.00  0.00     0.010 A 
ATOM     42  C   UNL A   1      36.504  33.218  30.477  1.00  0.00    -0.014 A 
BRANCH  42  43
ATOM     43  C   UNL A   1      37.674  32.640  31.185  1.00  0.00     0.031 A 
ATOM     44  C   UNL A   1      38.438  31.514  30.528  1.00  0.00     0.074 A 
ATOM     45  C   UNL A   1      37.983  33.030  32.436  1.00  0.00     0.049 A 
ATOM     46  N   UNL A   1      39.340  30.711  31.031  1.00  0.00    -0.248 NA
ATOM     47  C   UNL A   1      38.084  31.205  29.130  1.00  0.00     0.031 C 
ATOM     48  C   UNL A   1      37.293  34.070  33.201  1.00  0.00     0.029 A 
ATOM     49  N   UNL A   1      38.954  32.576  33.293  1.00  0.00    -0.354 N 
ATOM     50  C   UNL A   1      39.614  29.784  30.032  1.00  0.00     0.074 A 
ATOM     51  C   UNL A   1      38.721  30.063  28.932  1.00  0.00     0.031 C 
ATOM     52  C   UNL A   1      37.882  34.195  34.402  1.00  0.00     0.029 A 
ATOM     53  C   UNL A   1      38.956  33.214  34.509  1.00  0.00     0.049 A 
ATOM     54  H   UNL A   1      39.588  31.862  33.057  1.00  0.00     0.167 HD
ATOM     55  C   UNL A   1      40.558  28.814  30.009  1.00  0.00     0.037 A 
ATOM     56  C   UNL A   1      39.736  33.015  35.589  1.00  0.00     0.037 A 
ATOM     57  C   UNL A   1      41.491  28.589  31.079  1.00  0.00     0.049 A 
ATOM     58  C   UNL A   1      40.797  31.945  35.532  1.00  0.00     0.074 A 
ATOM     59  C   UNL A   1      42.536  27.686  31.139  1.00  0.00     0.029 A 
ATOM     60  N   UNL A   1      41.498  29.294  32.274  1.00  0.00    -0.354 N 
ATOM     61  N   UNL A   1      41.087  31.111  34.562  1.00  0.00    -0.248 NA
ATOM     62  C   UNL A   1      41.648  31.800  36.720  1.00  0.00     0.031 C 
ATOM     63  C   UNL A   1      43.149  27.813  32.390  1.00  0.00     0.029 A 
ATOM     64  C   UNL A   1      42.524  28.838  33.084  1.00  0.00     0.049 A 
ATOM     65  H   UNL A   1      40.868  30.013  32.509  1.00  0.00     0.167 HD
ATOM     66  C   UNL A   1      42.175  30.370  35.007  1.00  0.00     0.074 A 
ATOM     67  C   UNL A   1      42.504  30.870  36.325  1.00  0.00     0.031 C 
ATOM     68  C   UNL A   1      42.841  29.364  34.386  1.00  0.00     0.037 A 
BRANCH  55  69
ATOM     69  C   UNL A   1      40.640  27.948  28.782  1.00  0.00     0.064 A 
ATOM     70  C   UNL A   1      41.445  28.294  27.684  1.00  0.00     0.173 A 
ATOM     71  C   UNL A   1      39.920  26.746  28.708  1.00  0.00     0.173 A 
ATOM     72  F   UNL A   1      42.144  29.439  27.693  1.00  0.00    -0.203 F 
ATOM     73  C   UNL A   1      41.491  27.494  26.545  1.00  0.00     0.198 A 
ATOM     74  C   UNL A   1      40.000  25.928  27.584  1.00  0.00     0.198 A 
ATOM     75  F   UNL A   1      39.138  26.361  29.729  1.00  0.00    -0.203 F 
ATOM     76  F   UNL A   1      42.212  27.884  25.485  1.00  0.00    -0.200 F 
ATOM     77  C   UNL A   1      40.777  26.308  26.500  1.00  0.00     0.200 A 
ATOM     78  F   UNL A   1      39.321  24.773  27.548  1.00  0.00    -0.200 F 
ATOM     79  F   UNL A   1      40.828  25.534  25.406  1.00  0.00    -0.200 F 
ENDBRANCH  55  69
BRANCH  56  80
ATOM     80  C   UNL A   1      39.577  33.866  36.798  1.00  0.00     0.064 A 
ATOM     81  C   UNL A   1      40.231  35.103  36.892  1.00  0.00     0.173 A 
ATOM     82  C   UNL A   1      38.797  33.459  37.890  1.00  0.00     0.173 A 
ATOM     83  F   UNL A   1      41.004  35.530  35.883  1.00  0.00    -0.203 F 
ATOM     84  C   UNL A   1      40.139  35.883  38.043  1.00  0.00     0.198 A 
ATOM     85  C   UNL A   1      38.679  34.255  39.028  1.00  0.00     0.198 A 
ATOM     86  F   UNL A   1      38.145  32.287  37.849  1.00  0.00    -0.203 F 
ATOM     87  F   UNL A   1      40.825  37.031  38.129  1.00  0.00    -0.200 F 
ATOM     88  C   UNL A   1      39.360  35.460  39.109  1.00  0.00     0.200 A 
ATOM     89  F   UNL A   1      37.911  33.851  40.050  1.00  0.00    -0.200 F 
ATOM     90  F   UNL A   1      39.274  36.208  40.217  1.00  0.00    -0.200 F 
ENDBRANCH  56  80
BRANCH  68  91
ATOM     91  C   UNL A   1      44.024  28.782  35.105  1.00  0.00     0.064 A 
ATOM     92  C   UNL A   1      43.901  27.677  35.960  1.00  0.00     0.173 A 
ATOM     93  C   UNL A   1      45.304  29.327  34.916  1.00  0.00     0.173 A 
ATOM     94  F   UNL A   1      42.699  27.125  36.182  1.00  0.00    -0.203 F 
ATOM     95  C   UNL A   1      45.009  27.168  36.633  1.00  0.00     0.198 A 
ATOM     96  C   UNL A   1      46.414  28.791  35.559  1.00  0.00     0.198 A 
ATOM     97  F   UNL A   1      45.479  30.377  34.098  1.00  0.00    -0.203 F 
ATOM     98  F   UNL A   1      44.856  26.155  37.498  1.00  0.00    -0.200 F 
ATOM     99  C   UNL A   1      46.264  27.720  36.428  1.00  0.00     0.200 A 
ATOM    100  F   UNL A   1      47.629  29.314  35.344  1.00  0.00    -0.200 F 
ATOM    101  F   UNL A   1      47.328  27.227  37.075  1.00  0.00    -0.200 F 
ENDBRANCH  68  91
ENDBRANCH  42  43
ENDBRANCH  34  37
ENDBRANCH  32  33
ENDBRANCH  31  32
ENDBRANCH   1  31
TORSDOF 16
ENDMDL
MODEL 2
REMARK VINA RESULT:     -12.7      2.966      8.832
REMARK SMILES CCCCN(c1ccccc1C(=O)NCCCNC(=O)c1ccc(-c2c3nc(c(-c4c(F)c(F)c(F)c(F)c4F)c4ccc([nH]4)c(-c4c(F)c(F)c(F)c(F)c4F)c4nc(c(-c5c(F)c(F)c(F)c(F)c5F)c5ccc2[nH]5)C=C4)C=C3)cc1)S(=O)(=O)c1ccc2c(c1)oc(=O)n2C
REMARK SMILES IDX 15 1 14 2 12 3 13 4 11 6 6 7 7 8 8 9 10 10 9 11 5 12 4 13
REMARK SMILES IDX 3 14 2 15 1 16 84 17 85 18 86 19 87 20 88 21 92 22 89 23
REMARK SMILES IDX 91 24 90 25 93 26 96 27 94 28 97 29 95 30 16 31 17 32 18 33
REMARK SMILES IDX 19 34 20 36 21 37 22 38 83 39 23 40 82 41 24 42 25 43 26 44
REMARK SMILES IDX 76 45 27 46 81 47 75 48 77 49 28 50 80 51 74 52 73 53 29 55
REMARK SMILES IDX 61 56 41 57 60 58 42 59 45 60 59 61 78 62 43 63 44 64 58 66
REMARK SMILES IDX 79 67 46 68 30 69 31 70 39 71 32 72 33 73 37 74 40 75 34 76
REMARK SMILES IDX 35 77 38 78 36 79 62 80 63 81 71 82 64 83 65 84 69 85 72 86
REMARK SMILES IDX 66 87 67 88 70 89 68 90 47 91 48 92 56 93 49 94 50 95 54 96
REMARK SMILES IDX 57 97 51 98 52 99 55 100 53 101
REMARK H PARENT 14 5 18 35 77 54 45 65
REMARK Flexibility Score: inf
ROOT
ATOM      1  C   UNL A   1      37.863  22.670  25.610  1.00  0.00     0.118 C 
ENDROOT
BRANCH   1   2
ATOM      2  N   UNL A   1      37.401  22.933  24.271  1.00  0.00    -0.352 N 
ATOM      3  C   UNL A   1      36.144  22.890  23.745  1.00  0.00     0.253 C 
ATOM      4  O   UNL A   1      36.023  23.266  22.576  1.00  0.00    -0.269 OA
ATOM      5  H   UNL A   1      38.107  23.184  23.632  1.00  0.00     0.163 HD
BRANCH   3   6
ATOM      6  C   UNL A   1      34.938  22.370  24.446  1.00  0.00     0.064 A 
ATOM      7  C   UNL A   1      33.715  23.031  24.695  1.00  0.00     0.065 A 
ATOM      8  C   UNL A   1      32.616  22.251  25.097  1.00  0.00     0.028 A 
ATOM      9  C   UNL A   1      32.751  20.899  25.425  1.00  0.00     0.002 A 
ATOM     10  C   UNL A   1      35.051  20.997  24.765  1.00  0.00     0.016 A 
ATOM     11  C   UNL A   1      33.979  20.275  25.281  1.00  0.00     0.001 A 
BRANCH   7  12
ATOM     12  N   UNL A   1      33.494  24.447  24.461  1.00  0.00    -0.266 N 
BRANCH  12  13
ATOM     13  C   UNL A   1      34.302  25.383  25.327  1.00  0.00     0.136 C 
BRANCH  13  14
ATOM     14  C   UNL A   1      33.653  26.499  26.160  1.00  0.00     0.022 C 
BRANCH  14  15
ATOM     15  C   UNL A   1      33.910  27.996  25.952  1.00  0.00    -0.002 C 
ATOM     16  C   UNL A   1      32.752  28.829  25.440  1.00  0.00     0.004 C 
ENDBRANCH  14  15
ENDBRANCH  13  14
ENDBRANCH  12  13
BRANCH  12  17
ATOM     17  S   UNL A   1      32.913  24.944  22.936  1.00  0.00     0.264 S 
ATOM     18  O   UNL A   1      33.944  25.750  22.314  1.00  0.00    -0.201 OA
ATOM     19  O   UNL A   1      32.370  23.780  22.266  1.00  0.00    -0.201 OA
BRANCH  17  20
ATOM     20  C   UNL A   1      31.545  26.088  23.155  1.00  0.00     0.091 A 
ATOM     21  C   UNL A   1      30.391  25.649  23.846  1.00  0.00     0.025 A 
ATOM     22  C   UNL A   1      31.520  27.285  22.423  1.00  0.00     0.071 A 
ATOM     23  C   UNL A   1      29.228  26.427  23.879  1.00  0.00     0.032 A 
ATOM     24  C   UNL A   1      30.350  28.019  22.452  1.00  0.00     0.157 A 
ATOM     25  C   UNL A   1      29.241  27.604  23.166  1.00  0.00     0.090 A 
ATOM     26  O   UNL A   1      30.127  29.198  21.758  1.00  0.00    -0.408 OA
ATOM     27  N   UNL A   1      28.273  28.551  22.944  1.00  0.00    -0.277 N 
ATOM     28  C   UNL A   1      28.795  29.505  22.089  1.00  0.00     0.419 A 
ATOM     29  C   UNL A   1      26.949  28.583  23.494  1.00  0.00     0.157 C 
ATOM     30  O   UNL A   1      28.211  30.486  21.665  1.00  0.00    -0.223 OA
ENDBRANCH  17  20
ENDBRANCH  12  17
ENDBRANCH   7  12
ENDBRANCH   3   6
ENDBRANCH   1   2
BRANCH   1  31
ATOM     31  C   UNL A   1      38.725  21.438  25.766  1.00  0.00     0.042 C 
BRANCH  31  32
ATOM     32  C   UNL A   1      40.044  21.687  26.487  1.00  0.00     0.118 C 
BRANCH  32  33
ATOM     33  N   UNL A   1      41.200  21.953  25.633  1.00  0.00    -0.352 N 
ATOM     34  C   UNL A   1      42.106  22.989  25.586  1.00  0.00     0.251 C 
ATOM     35  H   UNL A   1      41.363  21.253  24.959  1.00  0.00     0.163 HD
ATOM     36  O   UNL A   1      43.038  22.951  24.786  1.00  0.00    -0.269 OA
BRANCH  34  37
ATOM     37  C   UNL A   1      41.957  24.170  26.457  1.00  0.00     0.039 A 
ATOM     38  C   UNL A   1      42.471  25.409  26.057  1.00  0.00     0.014 A 
ATOM     39  C   UNL A   1      41.328  24.057  27.688  1.00  0.00     0.014 A 
ATOM     40  C   UNL A   1      42.287  26.533  26.873  1.00  0.00     0.010 A 
ATOM     41  C   UNL A   1      40.981  25.192  28.397  1.00  0.00     0.010 A 
ATOM     42  C   UNL A   1      41.508  26.437  28.036  1.00  0.00    -0.014 A 
BRANCH  42  43
ATOM     43  C   UNL A   1      41.307  27.564  28.981  1.00  0.00     0.031 A 
ATOM     44  C   UNL A   1      42.247  27.703  30.156  1.00  0.00     0.074 A 
ATOM     45  C   UNL A   1      40.242  28.379  28.863  1.00  0.00     0.049 A 
ATOM     46  N   UNL A   1      42.148  28.456  31.221  1.00  0.00    -0.248 NA
ATOM     47  C   UNL A   1      43.428  26.819  30.164  1.00  0.00     0.031 C 
ATOM     48  C   UNL A   1      39.233  28.319  27.806  1.00  0.00     0.029 A 
ATOM     49  N   UNL A   1      39.825  29.415  29.662  1.00  0.00    -0.354 N 
ATOM     50  C   UNL A   1      43.217  28.096  32.034  1.00  0.00     0.074 A 
ATOM     51  C   UNL A   1      43.896  26.998  31.387  1.00  0.00     0.031 C 
ATOM     52  C   UNL A   1      38.330  29.294  28.004  1.00  0.00     0.029 A 
ATOM     53  C   UNL A   1      38.669  30.014  29.226  1.00  0.00     0.049 A 
ATOM     54  H   UNL A   1      40.309  29.699  30.471  1.00  0.00     0.167 HD
ATOM     55  C   UNL A   1      43.628  28.659  33.195  1.00  0.00     0.037 A 
ATOM     56  C   UNL A   1      37.964  31.026  29.765  1.00  0.00     0.037 A 
ATOM     57  C   UNL A   1      42.990  29.798  33.795  1.00  0.00     0.049 A 
ATOM     58  C   UNL A   1      38.454  31.654  31.045  1.00  0.00     0.074 A 
ATOM     59  C   UNL A   1      43.358  30.499  34.928  1.00  0.00     0.029 A 
ATOM     60  N   UNL A   1      41.852  30.414  33.292  1.00  0.00    -0.354 N 
ATOM     61  N   UNL A   1      39.498  31.345  31.777  1.00  0.00    -0.248 NA
ATOM     62  C   UNL A   1      37.671  32.783  31.566  1.00  0.00     0.031 C 
ATOM     63  C   UNL A   1      42.417  31.512  35.137  1.00  0.00     0.029 A 
ATOM     64  C   UNL A   1      41.498  31.481  34.100  1.00  0.00     0.049 A 
ATOM     65  H   UNL A   1      41.370  30.133  32.481  1.00  0.00     0.167 HD
ATOM     66  C   UNL A   1      39.518  32.262  32.821  1.00  0.00     0.074 A 
ATOM     67  C   UNL A   1      38.394  33.150  32.612  1.00  0.00     0.031 C 
ATOM     68  C   UNL A   1      40.384  32.361  33.861  1.00  0.00     0.037 A 
BRANCH  55  69
ATOM     69  C   UNL A   1      44.835  28.067  33.869  1.00  0.00     0.064 A 
ATOM     70  C   UNL A   1      44.724  27.028  34.807  1.00  0.00     0.173 A 
ATOM     71  C   UNL A   1      46.123  28.531  33.560  1.00  0.00     0.173 A 
ATOM     72  F   UNL A   1      43.517  26.555  35.152  1.00  0.00    -0.203 F 
ATOM     73  C   UNL A   1      45.850  26.507  35.441  1.00  0.00     0.198 A 
ATOM     74  C   UNL A   1      47.250  27.979  34.165  1.00  0.00     0.198 A 
ATOM     75  F   UNL A   1      46.292  29.519  32.668  1.00  0.00    -0.203 F 
ATOM     76  F   UNL A   1      45.709  25.564  36.383  1.00  0.00    -0.200 F 
ATOM     77  C   UNL A   1      47.112  26.976  35.112  1.00  0.00     0.200 A 
ATOM     78  F   UNL A   1      48.471  28.423  33.835  1.00  0.00    -0.200 F 
ATOM     79  F   UNL A   1      48.195  26.468  35.716  1.00  0.00    -0.200 F 
ENDBRANCH  55  69
BRANCH  56  80
ATOM     80  C   UNL A   1      36.746  31.540  29.084  1.00  0.00     0.064 A 
ATOM     81  C   UNL A   1      36.707  32.847  28.577  1.00  0.00     0.173 A 
ATOM     82  C   UNL A   1      35.591  30.755  28.944  1.00  0.00     0.173 A 
ATOM     83  F   UNL A   1      37.779  33.645  28.702  1.00  0.00    -0.203 F 
ATOM     84  C   UNL A   1      35.553  33.362  27.990  1.00  0.00     0.198 A 
ATOM     85  C   UNL A   1      34.448  31.259  28.326  1.00  0.00     0.198 A 
ATOM     86  F   UNL A   1      35.576  29.495  29.404  1.00  0.00    -0.203 F 
ATOM     87  F   UNL A   1      35.526  34.634  27.573  1.00  0.00    -0.200 F 
ATOM     88  C   UNL A   1      34.425  32.565  27.861  1.00  0.00     0.200 A 
ATOM     89  F   UNL A   1      33.365  30.482  28.188  1.00  0.00    -0.200 F 
ATOM     90  F   UNL A   1      33.314  33.060  27.299  1.00  0.00    -0.200 F 
ENDBRANCH  56  80
BRANCH  68  91
ATOM     91  C   UNL A   1      40.178  33.502  34.816  1.00  0.00     0.064 A 
ATOM     92  C   UNL A   1      40.722  34.773  34.579  1.00  0.00     0.173 A 
ATOM     93  C   UNL A   1      39.408  33.322  35.976  1.00  0.00     0.173 A 
ATOM     94  F   UNL A   1      41.474  34.994  33.491  1.00  0.00    -0.203 F 
ATOM     95  C   UNL A   1      40.537  35.810  35.490  1.00  0.00     0.198 A 
ATOM     96  C   UNL A   1      39.193  34.371  36.863  1.00  0.00     0.198 A 
ATOM     97  F   UNL A   1      38.855  32.129  36.243  1.00  0.00    -0.203 F 
ATOM     98  F   UNL A   1      41.122  36.996  35.277  1.00  0.00    -0.200 F 
ATOM     99  C   UNL A   1      39.769  35.610  36.627  1.00  0.00     0.200 A 
ATOM    100  F   UNL A   1      38.433  34.181  37.951  1.00  0.00    -0.200 F 
ATOM    101  F   UNL A   1      39.591  36.610  37.500  1.00  0.00    -0.200 F 
ENDBRANCH  68  91
ENDBRANCH  42  43
ENDBRANCH  34  37
ENDBRANCH  32  33
ENDBRANCH  31  32
ENDBRANCH   1  31
TORSDOF 16
ENDMDL
MODEL 3
REMARK VINA RESULT:     -12.7      5.241     11.018
REMARK SMILES CCCCN(c1ccccc1C(=O)NCCCNC(=O)c1ccc(-c2c3nc(c(-c4c(F)c(F)c(F)c(F)c4F)c4ccc([nH]4)c(-c4c(F)c(F)c(F)c(F)c4F)c4nc(c(-c5c(F)c(F)c(F)c(F)c5F)c5ccc2[nH]5)C=C4)C=C3)cc1)S(=O)(=O)c1ccc2c(c1)oc(=O)n2C
REMARK SMILES IDX 15 1 14 2 12 3 13 4 11 6 6 7 7 8 8 9 10 10 9 11 5 12 4 13
REMARK SMILES IDX 3 14 2 15 1 16 84 17 85 18 86 19 87 20 88 21 92 22 89 23
REMARK SMILES IDX 91 24 90 25 93 26 96 27 94 28 97 29 95 30 16 31 17 32 18 33
REMARK SMILES IDX 19 34 20 36 21 37 22 38 83 39 23 40 82 41 24 42 25 43 26 44
REMARK SMILES IDX 76 45 27 46 81 47 75 48 77 49 28 50 80 51 74 52 73 53 29 55
REMARK SMILES IDX 61 56 41 57 60 58 42 59 45 60 59 61 78 62 43 63 44 64 58 66
REMARK SMILES IDX 79 67 46 68 30 69 31 70 39 71 32 72 33 73 37 74 40 75 34 76
REMARK SMILES IDX 35 77 38 78 36 79 62 80 63 81 71 82 64 83 65 84 69 85 72 86
REMARK SMILES IDX 66 87 67 88 70 89 68 90 47 91 48 92 56 93 49 94 50 95 54 96
REMARK SMILES IDX 57 97 51 98 52 99 55 100 53 101
REMARK H PARENT 14 5 18 35 77 54 45 65
REMARK Flexibility Score: inf
ROOT
ATOM      1  C   UNL A   1      36.985  20.853  24.701  1.00  0.00     0.118 C 
ENDROOT
BRANCH   1   2
ATOM      2  N   UNL A   1      36.172  21.247  25.823  1.00  0.00    -0.352 N 
ATOM      3  C   UNL A   1      34.838  21.077  26.051  1.00  0.00     0.253 C 
ATOM      4  O   UNL A   1      34.419  21.427  27.157  1.00  0.00    -0.269 OA
ATOM      5  H   UNL A   1      36.656  21.713  26.541  1.00  0.00     0.163 HD
BRANCH   3   6
ATOM      6  C   UNL A   1      33.856  20.568  25.054  1.00  0.00     0.064 A 
ATOM      7  C   UNL A   1      33.008  21.308  24.202  1.00  0.00     0.065 A 
ATOM      8  C   UNL A   1      32.392  20.629  23.135  1.00  0.00     0.028 A 
ATOM      9  C   UNL A   1      32.453  19.238  23.012  1.00  0.00     0.002 A 
ATOM     10  C   UNL A   1      33.922  19.163  24.903  1.00  0.00     0.016 A 
ATOM     11  C   UNL A   1      33.202  18.499  23.913  1.00  0.00     0.001 A 
BRANCH   7  12
ATOM     12  N   UNL A   1      32.814  22.744  24.294  1.00  0.00    -0.266 N 
BRANCH  12  13
ATOM     13  C   UNL A   1      32.055  23.221  25.509  1.00  0.00     0.136 C 
BRANCH  13  14
ATOM     14  C   UNL A   1      30.634  23.799  25.415  1.00  0.00     0.022 C 
BRANCH  14  15
ATOM     15  C   UNL A   1      30.242  25.211  25.864  1.00  0.00    -0.002 C 
ATOM     16  C   UNL A   1      29.238  25.953  25.005  1.00  0.00     0.004 C 
ENDBRANCH  14  15
ENDBRANCH  13  14
ENDBRANCH  12  13
BRANCH  12  17
ATOM     17  S   UNL A   1      33.910  23.772  23.486  1.00  0.00     0.264 S 
ATOM     18  O   UNL A   1      35.095  23.889  24.312  1.00  0.00    -0.201 OA
ATOM     19  O   UNL A   1      34.001  23.329  22.109  1.00  0.00    -0.201 OA
BRANCH  17  20
ATOM     20  C   UNL A   1      33.250  25.442  23.440  1.00  0.00     0.091 A 
ATOM     21  C   UNL A   1      33.493  26.303  24.537  1.00  0.00     0.025 A 
ATOM     22  C   UNL A   1      32.296  25.783  22.470  1.00  0.00     0.071 A 
ATOM     23  C   UNL A   1      32.848  27.539  24.642  1.00  0.00     0.032 A 
ATOM     24  C   UNL A   1      31.655  26.998  22.614  1.00  0.00     0.157 A 
ATOM     25  C   UNL A   1      31.930  27.853  23.665  1.00  0.00     0.090 A 
ATOM     26  O   UNL A   1      30.655  27.481  21.782  1.00  0.00    -0.408 OA
ATOM     27  N   UNL A   1      31.098  28.932  23.503  1.00  0.00    -0.277 N 
ATOM     28  C   UNL A   1      30.321  28.708  22.380  1.00  0.00     0.419 A 
ATOM     29  C   UNL A   1      31.028  30.105  24.325  1.00  0.00     0.157 C 
ATOM     30  O   UNL A   1      29.461  29.452  21.942  1.00  0.00    -0.223 OA
ENDBRANCH  17  20
ENDBRANCH  12  17
ENDBRANCH   7  12
ENDBRANCH   3   6
ENDBRANCH   1   2
BRANCH   1  31
ATOM     31  C   UNL A   1      37.916  19.689  24.956  1.00  0.00     0.042 C 
BRANCH  31  32
ATOM     32  C   UNL A   1      39.087  20.017  25.875  1.00  0.00     0.118 C 
BRANCH  32  33
ATOM     33  N   UNL A   1      40.260  19.155  25.751  1.00  0.00    -0.352 N 
ATOM     34  C   UNL A   1      41.602  19.367  25.979  1.00  0.00     0.251 C 
ATOM     35  H   UNL A   1      40.050  18.243  25.445  1.00  0.00     0.163 HD
ATOM     36  O   UNL A   1      42.399  18.442  25.843  1.00  0.00    -0.269 OA
BRANCH  34  37
ATOM     37  C   UNL A   1      42.108  20.702  26.349  1.00  0.00     0.039 A 
ATOM     38  C   UNL A   1      42.417  20.993  27.683  1.00  0.00     0.014 A 
ATOM     39  C   UNL A   1      42.261  21.686  25.383  1.00  0.00     0.014 A 
ATOM     40  C   UNL A   1      42.937  22.250  28.017  1.00  0.00     0.010 A 
ATOM     41  C   UNL A   1      42.947  22.848  25.678  1.00  0.00     0.010 A 
ATOM     42  C   UNL A   1      43.238  23.176  27.008  1.00  0.00    -0.014 A 
BRANCH  42  43
ATOM     43  C   UNL A   1      43.741  24.547  27.278  1.00  0.00     0.031 A 
ATOM     44  C   UNL A   1      42.775  25.585  27.801  1.00  0.00     0.074 A 
ATOM     45  C   UNL A   1      45.002  24.893  26.958  1.00  0.00     0.049 A 
ATOM     46  N   UNL A   1      42.916  26.881  27.904  1.00  0.00    -0.248 NA
ATOM     47  C   UNL A   1      41.439  25.102  28.199  1.00  0.00     0.031 C 
ATOM     48  C   UNL A   1      46.017  24.000  26.399  1.00  0.00     0.029 A 
ATOM     49  N   UNL A   1      45.637  26.106  27.044  1.00  0.00    -0.354 N 
ATOM     50  C   UNL A   1      41.680  27.361  28.323  1.00  0.00     0.074 A 
ATOM     51  C   UNL A   1      40.777  26.234  28.367  1.00  0.00     0.031 C 
ATOM     52  C   UNL A   1      47.156  24.688  26.220  1.00  0.00     0.029 A 
ATOM     53  C   UNL A   1      46.938  26.078  26.605  1.00  0.00     0.049 A 
ATOM     54  H   UNL A   1      45.201  26.919  27.387  1.00  0.00     0.167 HD
ATOM     55  C   UNL A   1      41.336  28.619  28.687  1.00  0.00     0.037 A 
ATOM     56  C   UNL A   1      47.843  27.071  26.517  1.00  0.00     0.037 A 
ATOM     57  C   UNL A   1      42.259  29.719  28.710  1.00  0.00     0.049 A 
ATOM     58  C   UNL A   1      47.445  28.458  26.951  1.00  0.00     0.074 A 
ATOM     59  C   UNL A   1      42.044  31.019  29.127  1.00  0.00     0.029 A 
ATOM     60  N   UNL A   1      43.585  29.638  28.311  1.00  0.00    -0.354 N 
ATOM     61  N   UNL A   1      46.291  28.891  27.400  1.00  0.00    -0.248 NA
ATOM     62  C   UNL A   1      48.484  29.494  26.876  1.00  0.00     0.031 C 
ATOM     63  C   UNL A   1      43.230  31.738  28.939  1.00  0.00     0.029 A 
ATOM     64  C   UNL A   1      44.199  30.869  28.461  1.00  0.00     0.049 A 
ATOM     65  H   UNL A   1      44.024  28.824  27.972  1.00  0.00     0.167 HD
ATOM     66  C   UNL A   1      46.475  30.236  27.696  1.00  0.00     0.074 A 
ATOM     67  C   UNL A   1      47.858  30.539  27.395  1.00  0.00     0.031 C 
ATOM     68  C   UNL A   1      45.583  31.141  28.170  1.00  0.00     0.037 A 
BRANCH  55  69
ATOM     69  C   UNL A   1      39.913  28.857  29.112  1.00  0.00     0.064 A 
ATOM     70  C   UNL A   1      39.504  28.710  30.447  1.00  0.00     0.173 A 
ATOM     71  C   UNL A   1      38.947  29.256  28.175  1.00  0.00     0.173 A 
ATOM     72  F   UNL A   1      40.380  28.316  31.383  1.00  0.00    -0.203 F 
ATOM     73  C   UNL A   1      38.177  28.911  30.820  1.00  0.00     0.198 A 
ATOM     74  C   UNL A   1      37.630  29.496  28.559  1.00  0.00     0.198 A 
ATOM     75  F   UNL A   1      39.280  29.417  26.885  1.00  0.00    -0.203 F 
ATOM     76  F   UNL A   1      37.800  28.696  32.088  1.00  0.00    -0.200 F 
ATOM     77  C   UNL A   1      37.244  29.313  29.878  1.00  0.00     0.200 A 
ATOM     78  F   UNL A   1      36.731  29.900  27.650  1.00  0.00    -0.200 F 
ATOM     79  F   UNL A   1      35.969  29.514  30.240  1.00  0.00    -0.200 F 
ENDBRANCH  55  69
BRANCH  56  80
ATOM     80  C   UNL A   1      49.224  26.789  26.040  1.00  0.00     0.064 A 
ATOM     81  C   UNL A   1      49.577  27.014  24.702  1.00  0.00     0.173 A 
ATOM     82  C   UNL A   1      50.208  26.271  26.894  1.00  0.00     0.173 A 
ATOM     83  F   UNL A   1      48.667  27.492  23.840  1.00  0.00    -0.203 F 
ATOM     84  C   UNL A   1      50.849  26.699  24.227  1.00  0.00     0.198 A 
ATOM     85  C   UNL A   1      51.491  25.987  26.426  1.00  0.00     0.198 A 
ATOM     86  F   UNL A   1      49.926  26.044  28.185  1.00  0.00    -0.203 F 
ATOM     87  F   UNL A   1      51.138  26.866  22.930  1.00  0.00    -0.200 F 
ATOM     88  C   UNL A   1      51.806  26.190  25.092  1.00  0.00     0.200 A 
ATOM     89  F   UNL A   1      52.419  25.511  27.267  1.00  0.00    -0.200 F 
ATOM     90  F   UNL A   1      53.029  25.884  24.635  1.00  0.00    -0.200 F 
ENDBRANCH  56  80
BRANCH  68  91
ATOM     91  C   UNL A   1      46.094  32.527  28.444  1.00  0.00     0.064 A 
ATOM     92  C   UNL A   1      46.623  32.888  29.692  1.00  0.00     0.173 A 
ATOM     93  C   UNL A   1      46.071  33.500  27.432  1.00  0.00     0.173 A 
ATOM     94  F   UNL A   1      46.657  31.999  30.694  1.00  0.00    -0.203 F 
ATOM     95  C   UNL A   1      47.070  34.186  29.929  1.00  0.00     0.198 A 
ATOM     96  C   UNL A   1      46.556  34.783  27.662  1.00  0.00     0.198 A 
ATOM     97  F   UNL A   1      45.588  33.202  26.216  1.00  0.00    -0.203 F 
ATOM     98  F   UNL A   1      47.507  34.527  31.149  1.00  0.00    -0.200 F 
ATOM     99  C   UNL A   1      47.042  35.129  28.913  1.00  0.00     0.200 A 
ATOM    100  F   UNL A   1      46.547  35.688  26.673  1.00  0.00    -0.200 F 
ATOM    101  F   UNL A   1      47.475  36.376  29.144  1.00  0.00    -0.200 F 
ENDBRANCH  68  91
ENDBRANCH  42  43
ENDBRANCH  34  37
ENDBRANCH  32  33
ENDBRANCH  31  32
ENDBRANCH   1  31
TORSDOF 16
ENDMDL
