MODEL 1
REMARK VINA RESULT:     -12.5      0.000      0.000
REMARK SMILES CCC1(CC)[C@H](NC(=O)[C@@H]2CC=CC[C@@H]2C(=O)NCCCNC(=O)c2ccc(-c3c4nc(c(-c5c(F)c(F)c(F)c(F)c5F)c5ccc([nH]5)c(-c5c(F)c(F)c(F)c(F)c5F)c5nc(c(-c6c(F)c(F)c(F)c(F)c6F)c6ccc3[nH]6)C=C5)C=C4)cc2)[C@@H](C)[C@@H]1OC
REMARK SMILES IDX 19 1 18 2 16 3 17 4 15 6 10 7 11 8 12 9 14 10 13 11 8 12
REMARK SMILES IDX 7 13 9 15 6 16 3 17 90 18 88 19 89 20 2 21 1 22 4 23 5 24
REMARK SMILES IDX 91 25 92 26 20 27 21 28 22 29 23 30 24 32 25 33 26 34 87 35
REMARK SMILES IDX 27 36 86 37 28 38 29 39 30 40 80 41 31 42 85 43 79 44 81 45
REMARK SMILES IDX 32 46 84 47 78 48 77 49 33 51 65 52 45 53 64 54 46 55 49 56
REMARK SMILES IDX 63 57 82 58 47 59 48 60 62 62 83 63 50 64 34 65 35 66 43 67
REMARK SMILES IDX 36 68 37 69 41 70 44 71 38 72 39 73 42 74 40 75 66 76 67 77
REMARK SMILES IDX 75 78 68 79 69 80 73 81 76 82 70 83 71 84 74 85 72 86 51 87
REMARK SMILES IDX 52 88 60 89 53 90 54 91 58 92 61 93 55 94 56 95 59 96 57 97
REMARK H PARENT 18 5 7 14 22 31 81 50 49 61
REMARK Flexibility Score: inf
ROOT
ATOM      1  C   UNL A   1      31.552  30.645  26.514  1.00  0.00     0.117 C 
ENDROOT
BRANCH   1   2
ATOM      2  N   UNL A   1      32.409  30.345  25.381  1.00  0.00    -0.356 N 
ATOM      3  C   UNL A   1      32.414  29.252  24.557  1.00  0.00     0.224 C 
ATOM      4  O   UNL A   1      33.242  29.224  23.651  1.00  0.00    -0.275 OA
ATOM      5  H   UNL A   1      33.087  31.027  25.175  1.00  0.00     0.163 HD
BRANCH   3   6
ATOM      6  C   UNL A   1      31.339  28.191  24.772  1.00  0.00     0.095 C 
ATOM      7  C   UNL A   1      31.821  26.735  24.731  1.00  0.00     0.095 C 
ATOM      8  C   UNL A   1      32.410  26.328  23.379  1.00  0.00     0.041 C 
ATOM      9  C   UNL A   1      31.565  26.827  22.235  1.00  0.00    -0.030 C 
ATOM     10  C   UNL A   1      30.245  28.378  23.699  1.00  0.00     0.041 C 
ATOM     11  C   UNL A   1      30.577  27.723  22.385  1.00  0.00    -0.030 C 
BRANCH   7  12
ATOM     12  C   UNL A   1      32.741  26.388  25.891  1.00  0.00     0.224 C 
ATOM     13  N   UNL A   1      33.165  25.092  26.043  1.00  0.00    -0.352 N 
ATOM     14  H   UNL A   1      33.850  24.954  26.738  1.00  0.00     0.163 HD
ATOM     15  O   UNL A   1      33.122  27.216  26.716  1.00  0.00    -0.275 OA
BRANCH  13  16
ATOM     16  C   UNL A   1      32.748  23.880  25.324  1.00  0.00     0.096 C 
ATOM     17  C   UNL A   1      33.872  22.850  24.938  1.00  0.00     0.017 C 
ATOM     18  C   UNL A   1      32.820  21.732  25.334  1.00  0.00     0.131 C 
ATOM     19  C   UNL A   1      32.116  22.796  26.229  1.00  0.00     0.039 C 
ATOM     20  C   UNL A   1      30.597  22.787  26.242  1.00  0.00     0.012 C 
BRANCH  17  21
ATOM     21  C   UNL A   1      35.123  22.917  25.864  1.00  0.00     0.008 C 
ATOM     22  C   UNL A   1      36.287  23.709  25.283  1.00  0.00     0.004 C 
ENDBRANCH  17  21
BRANCH  17  23
ATOM     23  C   UNL A   1      34.302  22.930  23.452  1.00  0.00     0.008 C 
ATOM     24  C   UNL A   1      33.186  22.892  22.417  1.00  0.00     0.004 C 
ENDBRANCH  17  23
BRANCH  18  25
ATOM     25  O   UNL A   1      33.325  20.578  26.036  1.00  0.00    -0.380 OA
ATOM     26  C   UNL A   1      32.962  19.312  25.507  1.00  0.00     0.195 C 
ENDBRANCH  18  25
ENDBRANCH  13  16
ENDBRANCH   7  12
ENDBRANCH   3   6
ENDBRANCH   1   2
BRANCH   1  27
ATOM     27  C   UNL A   1      31.383  32.142  26.718  1.00  0.00     0.042 C 
BRANCH  27  28
ATOM     28  C   UNL A   1      32.647  32.842  27.204  1.00  0.00     0.118 C 
BRANCH  28  29
ATOM     29  N   UNL A   1      32.407  34.221  27.613  1.00  0.00    -0.352 N 
ATOM     30  C   UNL A   1      32.987  34.964  28.608  1.00  0.00     0.251 C 
ATOM     31  H   UNL A   1      31.718  34.693  27.091  1.00  0.00     0.163 HD
ATOM     32  O   UNL A   1      32.514  36.058  28.908  1.00  0.00    -0.269 OA
BRANCH  30  33
ATOM     33  C   UNL A   1      34.163  34.447  29.338  1.00  0.00     0.039 A 
ATOM     34  C   UNL A   1      33.965  33.806  30.563  1.00  0.00     0.014 A 
ATOM     35  C   UNL A   1      35.454  34.601  28.828  1.00  0.00     0.014 A 
ATOM     36  C   UNL A   1      35.056  33.257  31.240  1.00  0.00     0.010 A 
ATOM     37  C   UNL A   1      36.526  33.977  29.458  1.00  0.00     0.010 A 
ATOM     38  C   UNL A   1      36.339  33.302  30.672  1.00  0.00    -0.014 A 
BRANCH  38  39
ATOM     39  C   UNL A   1      37.496  32.642  31.332  1.00  0.00     0.031 A 
ATOM     40  C   UNL A   1      38.200  31.497  30.658  1.00  0.00     0.074 A 
ATOM     41  C   UNL A   1      37.869  33.035  32.565  1.00  0.00     0.049 A 
ATOM     42  N   UNL A   1      39.185  30.757  31.099  1.00  0.00    -0.248 NA
ATOM     43  C   UNL A   1      37.716  31.116  29.322  1.00  0.00     0.031 C 
ATOM     44  C   UNL A   1      37.236  34.102  33.342  1.00  0.00     0.029 A 
ATOM     45  N   UNL A   1      38.869  32.576  33.387  1.00  0.00    -0.354 N 
ATOM     46  C   UNL A   1      39.428  29.819  30.105  1.00  0.00     0.074 A 
ATOM     47  C   UNL A   1      38.450  30.045  29.063  1.00  0.00     0.031 C 
ATOM     48  C   UNL A   1      37.876  34.234  34.513  1.00  0.00     0.029 A 
ATOM     49  C   UNL A   1      38.935  33.233  34.592  1.00  0.00     0.049 A 
ATOM     50  H   UNL A   1      39.479  31.846  33.137  1.00  0.00     0.167 HD
ATOM     51  C   UNL A   1      40.394  28.871  30.054  1.00  0.00     0.037 A 
ATOM     52  C   UNL A   1      39.751  33.040  35.646  1.00  0.00     0.037 A 
ATOM     53  C   UNL A   1      41.376  28.662  31.087  1.00  0.00     0.049 A 
ATOM     54  C   UNL A   1      40.802  31.965  35.573  1.00  0.00     0.074 A 
ATOM     55  C   UNL A   1      42.432  27.767  31.104  1.00  0.00     0.029 A 
ATOM     56  N   UNL A   1      41.415  29.350  32.290  1.00  0.00    -0.354 N 
ATOM     57  N   UNL A   1      41.071  31.133  34.595  1.00  0.00    -0.248 NA
ATOM     58  C   UNL A   1      41.666  31.804  36.749  1.00  0.00     0.031 C 
ATOM     59  C   UNL A   1      43.073  27.872  32.343  1.00  0.00     0.029 A 
ATOM     60  C   UNL A   1      42.460  28.879  33.071  1.00  0.00     0.049 A 
ATOM     61  H   UNL A   1      40.793  30.067  32.553  1.00  0.00     0.167 HD
ATOM     62  C   UNL A   1      42.154  30.378  35.023  1.00  0.00     0.074 A 
ATOM     63  C   UNL A   1      42.502  30.859  36.344  1.00  0.00     0.031 C 
ATOM     64  C   UNL A   1      42.801  29.374  34.380  1.00  0.00     0.037 A 
BRANCH  51  65
ATOM     65  C   UNL A   1      40.437  27.984  28.843  1.00  0.00     0.064 A 
ATOM     66  C   UNL A   1      41.195  28.316  27.709  1.00  0.00     0.173 A 
ATOM     67  C   UNL A   1      39.741  26.765  28.829  1.00  0.00     0.173 A 
ATOM     68  F   UNL A   1      41.872  29.473  27.665  1.00  0.00    -0.203 F 
ATOM     69  C   UNL A   1      41.228  27.478  26.597  1.00  0.00     0.198 A 
ATOM     70  C   UNL A   1      39.805  25.914  27.729  1.00  0.00     0.198 A 
ATOM     71  F   UNL A   1      39.006  26.393  29.887  1.00  0.00    -0.203 F 
ATOM     72  F   UNL A   1      41.916  27.844  25.506  1.00  0.00    -0.200 F 
ATOM     73  C   UNL A   1      40.541  26.275  26.611  1.00  0.00     0.200 A 
ATOM     74  F   UNL A   1      39.153  24.742  27.750  1.00  0.00    -0.200 F 
ATOM     75  F   UNL A   1      40.582  25.465  25.543  1.00  0.00    -0.200 F 
ENDBRANCH  51  65
BRANCH  52  76
ATOM     76  C   UNL A   1      39.622  33.897  36.854  1.00  0.00     0.064 A 
ATOM     77  C   UNL A   1      38.867  33.477  37.959  1.00  0.00     0.173 A 
ATOM     78  C   UNL A   1      40.239  35.155  36.928  1.00  0.00     0.173 A 
ATOM     79  F   UNL A   1      38.243  32.290  37.930  1.00  0.00    -0.203 F 
ATOM     80  C   UNL A   1      38.712  34.292  39.077  1.00  0.00     0.198 A 
ATOM     81  C   UNL A   1      40.109  35.955  38.062  1.00  0.00     0.198 A 
ATOM     82  F   UNL A   1      40.978  35.603  35.903  1.00  0.00    -0.203 F 
ATOM     83  F   UNL A   1      37.939  33.887  40.095  1.00  0.00    -0.200 F 
ATOM     84  C   UNL A   1      39.337  35.528  39.131  1.00  0.00     0.200 A 
ATOM     85  F   UNL A   1      40.731  37.141  38.116  1.00  0.00    -0.200 F 
ATOM     86  F   UNL A   1      39.191  36.310  40.208  1.00  0.00    -0.200 F 
ENDBRANCH  52  76
BRANCH  64  87
ATOM     87  C   UNL A   1      43.982  28.757  35.076  1.00  0.00     0.064 A 
ATOM     88  C   UNL A   1      43.843  27.660  35.940  1.00  0.00     0.173 A 
ATOM     89  C   UNL A   1      45.276  29.249  34.844  1.00  0.00     0.173 A 
ATOM     90  F   UNL A   1      42.628  27.161  36.207  1.00  0.00    -0.203 F 
ATOM     91  C   UNL A   1      44.953  27.099  36.568  1.00  0.00     0.198 A 
ATOM     92  C   UNL A   1      46.386  28.664  35.446  1.00  0.00     0.198 A 
ATOM     93  F   UNL A   1      45.465  30.292  34.021  1.00  0.00    -0.203 F 
ATOM     94  F   UNL A   1      44.790  26.088  37.433  1.00  0.00    -0.200 F 
ATOM     95  C   UNL A   1      46.223  27.596  36.314  1.00  0.00     0.200 A 
ATOM     96  F   UNL A   1      47.613  29.134  35.185  1.00  0.00    -0.200 F 
ATOM     97  F   UNL A   1      47.289  27.049  36.914  1.00  0.00    -0.200 F 
ENDBRANCH  64  87
ENDBRANCH  38  39
ENDBRANCH  30  33
ENDBRANCH  28  29
ENDBRANCH  27  28
ENDBRANCH   1  27
TORSDOF 15
ENDMDL
MODEL 2
REMARK VINA RESULT:     -12.4      5.106      9.789
REMARK SMILES CCC1(CC)[C@H](NC(=O)[C@@H]2CC=CC[C@@H]2C(=O)NCCCNC(=O)c2ccc(-c3c4nc(c(-c5c(F)c(F)c(F)c(F)c5F)c5ccc([nH]5)c(-c5c(F)c(F)c(F)c(F)c5F)c5nc(c(-c6c(F)c(F)c(F)c(F)c6F)c6ccc3[nH]6)C=C5)C=C4)cc2)[C@@H](C)[C@@H]1OC
REMARK SMILES IDX 19 1 18 2 16 3 17 4 15 6 10 7 11 8 12 9 14 10 13 11 8 12
REMARK SMILES IDX 7 13 9 15 6 16 3 17 90 18 88 19 89 20 2 21 1 22 4 23 5 24
REMARK SMILES IDX 91 25 92 26 20 27 21 28 22 29 23 30 24 32 25 33 26 34 87 35
REMARK SMILES IDX 27 36 86 37 28 38 29 39 30 40 80 41 31 42 85 43 79 44 81 45
REMARK SMILES IDX 32 46 84 47 78 48 77 49 33 51 65 52 45 53 64 54 46 55 49 56
REMARK SMILES IDX 63 57 82 58 47 59 48 60 62 62 83 63 50 64 34 65 35 66 43 67
REMARK SMILES IDX 36 68 37 69 41 70 44 71 38 72 39 73 42 74 40 75 66 76 67 77
REMARK SMILES IDX 75 78 68 79 69 80 73 81 76 82 70 83 71 84 74 85 72 86 51 87
REMARK SMILES IDX 52 88 60 89 53 90 54 91 58 92 61 93 55 94 56 95 59 96 57 97
REMARK H PARENT 18 5 7 14 22 31 81 50 49 61
REMARK Flexibility Score: inf
ROOT
ATOM      1  C   UNL A   1      37.208  21.025  24.825  1.00  0.00     0.117 C 
ENDROOT
BRANCH   1   2
ATOM      2  N   UNL A   1      36.326  21.038  25.977  1.00  0.00    -0.356 N 
ATOM      3  C   UNL A   1      35.047  21.510  26.090  1.00  0.00     0.224 C 
ATOM      4  O   UNL A   1      34.494  21.405  27.182  1.00  0.00    -0.275 OA
ATOM      5  H   UNL A   1      36.703  20.651  26.799  1.00  0.00     0.163 HD
BRANCH   3   6
ATOM      6  C   UNL A   1      34.372  22.053  24.834  1.00  0.00     0.095 C 
ATOM      7  C   UNL A   1      33.635  23.389  24.997  1.00  0.00     0.095 C 
ATOM      8  C   UNL A   1      32.469  23.323  25.986  1.00  0.00     0.041 C 
ATOM      9  C   UNL A   1      31.644  22.078  25.784  1.00  0.00    -0.030 C 
ATOM     10  C   UNL A   1      33.370  20.997  24.320  1.00  0.00     0.041 C 
ATOM     11  C   UNL A   1      32.036  21.050  25.015  1.00  0.00    -0.030 C 
BRANCH   7  12
ATOM     12  C   UNL A   1      34.576  24.548  25.290  1.00  0.00     0.224 C 
ATOM     13  N   UNL A   1      34.147  25.831  25.064  1.00  0.00    -0.352 N 
ATOM     14  H   UNL A   1      34.754  26.538  25.383  1.00  0.00     0.163 HD
ATOM     15  O   UNL A   1      35.720  24.392  25.713  1.00  0.00    -0.275 OA
BRANCH  13  16
ATOM     16  C   UNL A   1      32.915  26.306  24.417  1.00  0.00     0.096 C 
ATOM     17  C   UNL A   1      31.902  27.117  25.306  1.00  0.00     0.017 C 
ATOM     18  C   UNL A   1      31.703  28.037  24.030  1.00  0.00     0.131 C 
ATOM     19  C   UNL A   1      33.109  27.570  23.547  1.00  0.00     0.039 C 
ATOM     20  C   UNL A   1      33.269  27.300  22.060  1.00  0.00     0.012 C 
BRANCH  17  21
ATOM     21  C   UNL A   1      32.570  27.830  26.518  1.00  0.00     0.008 C 
ATOM     22  C   UNL A   1      31.610  28.158  27.655  1.00  0.00     0.004 C 
ENDBRANCH  17  21
BRANCH  17  23
ATOM     23  C   UNL A   1      30.687  26.281  25.779  1.00  0.00     0.008 C 
ATOM     24  C   UNL A   1      29.596  26.021  24.750  1.00  0.00     0.004 C 
ENDBRANCH  17  23
BRANCH  18  25
ATOM     25  O   UNL A   1      31.573  29.454  24.261  1.00  0.00    -0.380 OA
ATOM     26  C   UNL A   1      30.321  30.034  23.930  1.00  0.00     0.195 C 
ENDBRANCH  18  25
ENDBRANCH  13  16
ENDBRANCH   7  12
ENDBRANCH   3   6
ENDBRANCH   1   2
BRANCH   1  27
ATOM     27  C   UNL A   1      38.242  19.914  24.911  1.00  0.00     0.042 C 
BRANCH  27  28
ATOM     28  C   UNL A   1      39.233  20.086  26.057  1.00  0.00     0.118 C 
BRANCH  28  29
ATOM     29  N   UNL A   1      40.364  19.170  25.967  1.00  0.00    -0.352 N 
ATOM     30  C   UNL A   1      41.711  19.416  26.034  1.00  0.00     0.251 C 
ATOM     31  H   UNL A   1      40.122  18.224  25.838  1.00  0.00     0.163 HD
ATOM     32  O   UNL A   1      42.509  18.523  25.754  1.00  0.00    -0.269 OA
BRANCH  30  33
ATOM     33  C   UNL A   1      42.209  20.753  26.415  1.00  0.00     0.039 A 
ATOM     34  C   UNL A   1      42.599  21.639  25.406  1.00  0.00     0.014 A 
ATOM     35  C   UNL A   1      42.304  21.133  27.756  1.00  0.00     0.014 A 
ATOM     36  C   UNL A   1      43.015  22.928  25.742  1.00  0.00     0.010 A 
ATOM     37  C   UNL A   1      42.633  22.445  28.082  1.00  0.00     0.010 A 
ATOM     38  C   UNL A   1      42.995  23.355  27.079  1.00  0.00    -0.014 A 
BRANCH  38  39
ATOM     39  C   UNL A   1      43.345  24.752  27.446  1.00  0.00     0.031 A 
ATOM     40  C   UNL A   1      44.784  25.181  27.506  1.00  0.00     0.074 A 
ATOM     41  C   UNL A   1      42.367  25.613  27.787  1.00  0.00     0.049 A 
ATOM     42  N   UNL A   1      45.289  26.335  27.864  1.00  0.00    -0.248 NA
ATOM     43  C   UNL A   1      45.792  24.174  27.140  1.00  0.00     0.031 C 
ATOM     44  C   UNL A   1      40.937  25.302  27.814  1.00  0.00     0.029 A 
ATOM     45  N   UNL A   1      42.427  26.926  28.185  1.00  0.00    -0.354 N 
ATOM     46  C   UNL A   1      46.667  26.187  27.779  1.00  0.00     0.074 A 
ATOM     47  C   UNL A   1      46.922  24.816  27.392  1.00  0.00     0.031 C 
ATOM     48  C   UNL A   1      40.255  26.398  28.180  1.00  0.00     0.029 A 
ATOM     49  C   UNL A   1      41.198  27.475  28.459  1.00  0.00     0.049 A 
ATOM     50  H   UNL A   1      43.272  27.426  28.266  1.00  0.00     0.167 HD
ATOM     51  C   UNL A   1      47.631  27.117  27.981  1.00  0.00     0.037 A 
ATOM     52  C   UNL A   1      40.872  28.706  28.898  1.00  0.00     0.037 A 
ATOM     53  C   UNL A   1      47.371  28.484  28.349  1.00  0.00     0.049 A 
ATOM     54  C   UNL A   1      41.965  29.713  29.136  1.00  0.00     0.074 A 
ATOM     55  C   UNL A   1      48.275  29.518  28.520  1.00  0.00     0.029 A 
ATOM     56  N   UNL A   1      46.113  29.006  28.612  1.00  0.00    -0.354 N 
ATOM     57  N   UNL A   1      43.261  29.584  28.979  1.00  0.00    -0.248 NA
ATOM     58  C   UNL A   1      41.549  31.040  29.609  1.00  0.00     0.031 C 
ATOM     59  C   UNL A   1      47.571  30.648  28.946  1.00  0.00     0.029 A 
ATOM     60  C   UNL A   1      46.220  30.340  28.974  1.00  0.00     0.049 A 
ATOM     61  H   UNL A   1      45.268  28.503  28.552  1.00  0.00     0.167 HD
ATOM     62  C   UNL A   1      43.809  30.818  29.300  1.00  0.00     0.074 A 
ATOM     63  C   UNL A   1      42.704  31.688  29.645  1.00  0.00     0.031 C 
ATOM     64  C   UNL A   1      45.111  31.197  29.307  1.00  0.00     0.037 A 
BRANCH  51  65
ATOM     65  C   UNL A   1      49.061  26.685  27.812  1.00  0.00     0.064 A 
ATOM     66  C   UNL A   1      49.875  26.378  28.914  1.00  0.00     0.173 A 
ATOM     67  C   UNL A   1      49.614  26.540  26.530  1.00  0.00     0.173 A 
ATOM     68  F   UNL A   1      49.400  26.508  30.162  1.00  0.00    -0.203 F 
ATOM     69  C   UNL A   1      51.196  25.973  28.739  1.00  0.00     0.198 A 
ATOM     70  C   UNL A   1      50.924  26.102  26.359  1.00  0.00     0.198 A 
ATOM     71  F   UNL A   1      48.880  26.813  25.442  1.00  0.00    -0.203 F 
ATOM     72  F   UNL A   1      51.969  25.737  29.808  1.00  0.00    -0.200 F 
ATOM     73  C   UNL A   1      51.717  25.827  27.463  1.00  0.00     0.200 A 
ATOM     74  F   UNL A   1      51.421  25.945  25.123  1.00  0.00    -0.200 F 
ATOM     75  F   UNL A   1      52.986  25.428  27.297  1.00  0.00    -0.200 F 
ENDBRANCH  51  65
BRANCH  52  76
ATOM     76  C   UNL A   1      39.446  29.063  29.121  1.00  0.00     0.064 A 
ATOM     77  C   UNL A   1      38.874  28.982  30.399  1.00  0.00     0.173 A 
ATOM     78  C   UNL A   1      38.622  29.481  28.065  1.00  0.00     0.173 A 
ATOM     79  F   UNL A   1      39.614  28.569  31.438  1.00  0.00    -0.203 F 
ATOM     80  C   UNL A   1      37.529  29.278  30.607  1.00  0.00     0.198 A 
ATOM     81  C   UNL A   1      37.286  29.810  28.281  1.00  0.00     0.198 A 
ATOM     82  F   UNL A   1      39.120  29.584  26.824  1.00  0.00    -0.203 F 
ATOM     83  F   UNL A   1      36.996  29.139  31.829  1.00  0.00    -0.200 F 
ATOM     84  C   UNL A   1      36.737  29.698  29.549  1.00  0.00     0.200 A 
ATOM     85  F   UNL A   1      36.528  30.232  27.259  1.00  0.00    -0.200 F 
ATOM     86  F   UNL A   1      35.444  29.986  29.750  1.00  0.00    -0.200 F 
ENDBRANCH  52  76
BRANCH  64  87
ATOM     87  C   UNL A   1      45.412  32.627  29.658  1.00  0.00     0.064 A 
ATOM     88  C   UNL A   1      45.708  33.021  30.971  1.00  0.00     0.173 A 
ATOM     89  C   UNL A   1      45.442  33.610  28.656  1.00  0.00     0.173 A 
ATOM     90  F   UNL A   1      45.678  32.125  31.968  1.00  0.00    -0.203 F 
ATOM     91  C   UNL A   1      45.992  34.351  31.272  1.00  0.00     0.198 A 
ATOM     92  C   UNL A   1      45.761  34.931  28.955  1.00  0.00     0.198 A 
ATOM     93  F   UNL A   1      45.174  33.285  27.382  1.00  0.00    -0.203 F 
ATOM     94  F   UNL A   1      46.216  34.715  32.543  1.00  0.00    -0.200 F 
ATOM     95  C   UNL A   1      46.026  35.303  30.264  1.00  0.00     0.200 A 
ATOM     96  F   UNL A   1      45.811  35.844  27.976  1.00  0.00    -0.200 F 
ATOM     97  F   UNL A   1      46.308  36.580  30.555  1.00  0.00    -0.200 F 
ENDBRANCH  64  87
ENDBRANCH  38  39
ENDBRANCH  30  33
ENDBRANCH  28  29
ENDBRANCH  27  28
ENDBRANCH   1  27
TORSDOF 15
ENDMDL
MODEL 3
REMARK VINA RESULT:     -12.2      0.603      7.215
REMARK SMILES CCC1(CC)[C@H](NC(=O)[C@@H]2CC=CC[C@@H]2C(=O)NCCCNC(=O)c2ccc(-c3c4nc(c(-c5c(F)c(F)c(F)c(F)c5F)c5ccc([nH]5)c(-c5c(F)c(F)c(F)c(F)c5F)c5nc(c(-c6c(F)c(F)c(F)c(F)c6F)c6ccc3[nH]6)C=C5)C=C4)cc2)[C@@H](C)[C@@H]1OC
REMARK SMILES IDX 19 1 18 2 16 3 17 4 15 6 10 7 11 8 12 9 14 10 13 11 8 12
REMARK SMILES IDX 7 13 9 15 6 16 3 17 90 18 88 19 89 20 2 21 1 22 4 23 5 24
REMARK SMILES IDX 91 25 92 26 20 27 21 28 22 29 23 30 24 32 25 33 26 34 87 35
REMARK SMILES IDX 27 36 86 37 28 38 29 39 30 40 80 41 31 42 85 43 79 44 81 45
REMARK SMILES IDX 32 46 84 47 78 48 77 49 33 51 65 52 45 53 64 54 46 55 49 56
REMARK SMILES IDX 63 57 82 58 47 59 48 60 62 62 83 63 50 64 34 65 35 66 43 67
REMARK SMILES IDX 36 68 37 69 41 70 44 71 38 72 39 73 42 74 40 75 66 76 67 77
REMARK SMILES IDX 75 78 68 79 69 80 73 81 76 82 70 83 71 84 74 85 72 86 51 87
REMARK SMILES IDX 52 88 60 89 53 90 54 91 58 92 61 93 55 94 56 95 59 96 57 97
REMARK H PARENT 18 5 7 14 22 31 81 50 49 61
REMARK Flexibility Score: inf
ROOT
ATOM      1  C   UNL A   1      31.533  30.657  26.510  1.00  0.00     0.117 C 
ENDROOT
BRANCH   1   2
ATOM      2  N   UNL A   1      32.423  30.368  25.400  1.00  0.00    -0.356 N 
ATOM      3  C   UNL A   1      32.482  29.264  24.593  1.00  0.00     0.224 C 
ATOM      4  O   UNL A   1      33.329  29.250  23.705  1.00  0.00    -0.275 OA
ATOM      5  H   UNL A   1      33.083  31.069  25.197  1.00  0.00     0.163 HD
BRANCH   3   6
ATOM      6  C   UNL A   1      31.438  28.172  24.803  1.00  0.00     0.095 C 
ATOM      7  C   UNL A   1      31.950  26.729  24.696  1.00  0.00     0.095 C 
ATOM      8  C   UNL A   1      32.507  26.383  23.313  1.00  0.00     0.041 C 
ATOM      9  C   UNL A   1      31.617  26.901  22.214  1.00  0.00    -0.030 C 
ATOM     10  C   UNL A   1      30.307  28.370  23.769  1.00  0.00     0.041 C 
ATOM     11  C   UNL A   1      30.614  27.769  22.424  1.00  0.00    -0.030 C 
BRANCH   7  12
ATOM     12  C   UNL A   1      32.913  26.364  25.815  1.00  0.00     0.224 C 
ATOM     13  N   UNL A   1      33.232  25.046  26.018  1.00  0.00    -0.352 N 
ATOM     14  H   UNL A   1      33.948  24.884  26.676  1.00  0.00     0.163 HD
ATOM     15  O   UNL A   1      33.419  27.198  26.563  1.00  0.00    -0.275 OA
BRANCH  13  16
ATOM     16  C   UNL A   1      32.664  23.839  25.401  1.00  0.00     0.096 C 
ATOM     17  C   UNL A   1      33.676  22.774  24.838  1.00  0.00     0.017 C 
ATOM     18  C   UNL A   1      32.682  21.690  25.428  1.00  0.00     0.131 C 
ATOM     19  C   UNL A   1      32.174  22.782  26.419  1.00  0.00     0.039 C 
ATOM     20  C   UNL A   1      30.681  22.814  26.699  1.00  0.00     0.012 C 
BRANCH  17  21
ATOM     21  C   UNL A   1      35.071  22.815  25.528  1.00  0.00     0.008 C 
ATOM     22  C   UNL A   1      36.237  23.021  24.568  1.00  0.00     0.004 C 
ENDBRANCH  17  21
BRANCH  17  23
ATOM     23  C   UNL A   1      33.839  22.829  23.298  1.00  0.00     0.008 C 
ATOM     24  C   UNL A   1      32.645  22.375  22.470  1.00  0.00     0.004 C 
ENDBRANCH  17  23
BRANCH  18  25
ATOM     25  O   UNL A   1      33.273  20.529  26.047  1.00  0.00    -0.380 OA
ATOM     26  C   UNL A   1      32.896  19.271  25.510  1.00  0.00     0.195 C 
ENDBRANCH  18  25
ENDBRANCH  13  16
ENDBRANCH   7  12
ENDBRANCH   3   6
ENDBRANCH   1   2
BRANCH   1  27
ATOM     27  C   UNL A   1      31.390  32.151  26.751  1.00  0.00     0.042 C 
BRANCH  27  28
ATOM     28  C   UNL A   1      32.701  32.845  27.104  1.00  0.00     0.118 C 
BRANCH  28  29
ATOM     29  N   UNL A   1      32.504  34.194  27.619  1.00  0.00    -0.352 N 
ATOM     30  C   UNL A   1      33.107  34.839  28.668  1.00  0.00     0.251 C 
ATOM     31  H   UNL A   1      31.831  34.728  27.137  1.00  0.00     0.163 HD
ATOM     32  O   UNL A   1      32.668  35.920  29.054  1.00  0.00    -0.269 OA
BRANCH  30  33
ATOM     33  C   UNL A   1      34.264  34.229  29.354  1.00  0.00     0.039 A 
ATOM     34  C   UNL A   1      34.031  33.357  30.422  1.00  0.00     0.014 A 
ATOM     35  C   UNL A   1      35.572  34.519  28.960  1.00  0.00     0.014 A 
ATOM     36  C   UNL A   1      35.108  32.724  31.045  1.00  0.00     0.010 A 
ATOM     37  C   UNL A   1      36.636  33.820  29.521  1.00  0.00     0.010 A 
ATOM     38  C   UNL A   1      36.416  32.918  30.572  1.00  0.00    -0.014 A 
BRANCH  38  39
ATOM     39  C   UNL A   1      37.564  32.182  31.161  1.00  0.00     0.031 A 
ATOM     40  C   UNL A   1      38.067  32.535  32.533  1.00  0.00     0.074 A 
ATOM     41  C   UNL A   1      38.192  31.239  30.431  1.00  0.00     0.049 A 
ATOM     42  N   UNL A   1      39.091  32.049  33.189  1.00  0.00    -0.248 NA
ATOM     43  C   UNL A   1      37.339  33.590  33.254  1.00  0.00     0.031 C 
ATOM     44  C   UNL A   1      37.829  30.840  29.071  1.00  0.00     0.029 A 
ATOM     45  N   UNL A   1      39.276  30.450  30.729  1.00  0.00    -0.354 N 
ATOM     46  C   UNL A   1      39.137  32.747  34.388  1.00  0.00     0.074 A 
ATOM     47  C   UNL A   1      38.074  33.729  34.346  1.00  0.00     0.031 C 
ATOM     48  C   UNL A   1      38.655  29.865  28.662  1.00  0.00     0.029 A 
ATOM     49  C   UNL A   1      39.635  29.600  29.711  1.00  0.00     0.049 A 
ATOM     50  H   UNL A   1      39.750  30.489  31.591  1.00  0.00     0.167 HD
ATOM     51  C   UNL A   1      39.972  32.570  35.439  1.00  0.00     0.037 A 
ATOM     52  C   UNL A   1      40.648  28.717  29.629  1.00  0.00     0.037 A 
ATOM     53  C   UNL A   1      41.017  31.579  35.482  1.00  0.00     0.049 A 
ATOM     54  C   UNL A   1      41.576  28.555  30.802  1.00  0.00     0.074 A 
ATOM     55  C   UNL A   1      41.879  31.280  36.523  1.00  0.00     0.029 A 
ATOM     56  N   UNL A   1      41.347  30.733  34.434  1.00  0.00    -0.354 N 
ATOM     57  N   UNL A   1      41.563  29.169  31.961  1.00  0.00    -0.248 NA
ATOM     58  C   UNL A   1      42.659  27.573  30.658  1.00  0.00     0.031 C 
ATOM     59  C   UNL A   1      42.769  30.296  36.083  1.00  0.00     0.029 A 
ATOM     60  C   UNL A   1      42.420  29.932  34.793  1.00  0.00     0.049 A 
ATOM     61  H   UNL A   1      40.888  30.705  33.563  1.00  0.00     0.167 HD
ATOM     62  C   UNL A   1      42.609  28.624  32.694  1.00  0.00     0.074 A 
ATOM     63  C   UNL A   1      43.227  27.620  31.854  1.00  0.00     0.031 C 
ATOM     64  C   UNL A   1      43.020  28.930  33.949  1.00  0.00     0.037 A 
BRANCH  51  65
ATOM     65  C   UNL A   1      39.795  33.469  36.630  1.00  0.00     0.064 A 
ATOM     66  C   UNL A   1      38.920  33.143  37.678  1.00  0.00     0.173 A 
ATOM     67  C   UNL A   1      40.539  34.654  36.744  1.00  0.00     0.173 A 
ATOM     68  F   UNL A   1      38.178  32.026  37.617  1.00  0.00    -0.203 F 
ATOM     69  C   UNL A   1      38.773  33.984  38.778  1.00  0.00     0.198 A 
ATOM     70  C   UNL A   1      40.414  35.474  37.862  1.00  0.00     0.198 A 
ATOM     71  F   UNL A   1      41.395  35.011  35.776  1.00  0.00    -0.203 F 
ATOM     72  F   UNL A   1      37.891  33.677  39.740  1.00  0.00    -0.200 F 
ATOM     73  C   UNL A   1      39.526  35.144  38.874  1.00  0.00     0.200 A 
ATOM     74  F   UNL A   1      41.155  36.588  37.960  1.00  0.00    -0.200 F 
ATOM     75  F   UNL A   1      39.390  35.947  39.938  1.00  0.00    -0.200 F 
ENDBRANCH  51  65
BRANCH  52  76
ATOM     76  C   UNL A   1      40.827  27.901  28.398  1.00  0.00     0.064 A 
ATOM     77  C   UNL A   1      40.227  26.640  28.276  1.00  0.00     0.173 A 
ATOM     78  C   UNL A   1      41.607  28.358  27.326  1.00  0.00     0.173 A 
ATOM     79  F   UNL A   1      39.487  26.151  29.282  1.00  0.00    -0.203 F 
ATOM     80  C   UNL A   1      40.423  25.856  27.142  1.00  0.00     0.198 A 
ATOM     81  C   UNL A   1      41.774  27.586  26.178  1.00  0.00     0.198 A 
ATOM     82  F   UNL A   1      42.198  29.560  27.387  1.00  0.00    -0.203 F 
ATOM     83  F   UNL A   1      39.882  24.631  27.076  1.00  0.00    -0.200 F 
ATOM     84  C   UNL A   1      41.192  26.331  26.091  1.00  0.00     0.200 A 
ATOM     85  F   UNL A   1      42.504  28.057  25.156  1.00  0.00    -0.200 F 
ATOM     86  F   UNL A   1      41.377  25.578  24.998  1.00  0.00    -0.200 F 
ENDBRANCH  52  76
BRANCH  64  87
ATOM     87  C   UNL A   1      44.167  28.138  34.511  1.00  0.00     0.064 A 
ATOM     88  C   UNL A   1      43.969  26.918  35.178  1.00  0.00     0.173 A 
ATOM     89  C   UNL A   1      45.486  28.588  34.347  1.00  0.00     0.173 A 
ATOM     90  F   UNL A   1      42.728  26.450  35.375  1.00  0.00    -0.203 F 
ATOM     91  C   UNL A   1      45.048  26.197  35.684  1.00  0.00     0.198 A 
ATOM     92  C   UNL A   1      46.564  27.846  34.823  1.00  0.00     0.198 A 
ATOM     93  F   UNL A   1      45.732  29.744  33.711  1.00  0.00    -0.203 F 
ATOM     94  F   UNL A   1      44.831  25.063  36.366  1.00  0.00    -0.200 F 
ATOM     95  C   UNL A   1      46.343  26.656  35.499  1.00  0.00     0.200 A 
ATOM     96  F   UNL A   1      47.815  28.284  34.628  1.00  0.00    -0.200 F 
ATOM     97  F   UNL A   1      47.379  25.956  35.980  1.00  0.00    -0.200 F 
ENDBRANCH  64  87
ENDBRANCH  38  39
ENDBRANCH  30  33
ENDBRANCH  28  29
ENDBRANCH  27  28
ENDBRANCH   1  27
TORSDOF 15
ENDMDL
