MODEL 1
REMARK VINA RESULT:     -12.5      0.000      0.000
REMARK SMILES O=C(CCN1C(=O)/C(=C/c2cc(Br)cc(Br)c2O)SC1=S)NCCCNC(=O)c1ccc(-c2c3nc(c(-c4c(F)c(F)c(F)c(F)c4F)c4ccc([nH]4)c(-c4c(F)c(F)c(F)c(F)c4F)c4nc(c(-c5c(F)c(F)c(F)c(F)c5F)c5ccc2[nH]5)C=C4)C=C3)cc1
REMARK SMILES IDX 23 1 22 2 1 3 2 4 3 6 4 7 5 8 6 9 20 10 7 11 8 12 19 13
REMARK SMILES IDX 21 14 9 15 10 16 11 17 17 18 12 19 15 20 13 21 14 22 16 23
REMARK SMILES IDX 18 24 24 26 25 27 26 28 27 29 28 31 29 32 30 33 91 34 31 35
REMARK SMILES IDX 90 36 32 37 33 38 34 39 84 40 35 41 89 42 83 43 85 44 36 45
REMARK SMILES IDX 88 46 82 47 81 48 37 50 69 51 49 52 68 53 50 54 53 55 67 56
REMARK SMILES IDX 86 57 51 58 52 59 66 61 87 62 54 63 38 64 39 65 47 66 40 67
REMARK SMILES IDX 41 68 45 69 48 70 42 71 43 72 46 73 44 74 70 75 71 76 79 77
REMARK SMILES IDX 72 78 73 79 77 80 80 81 74 82 75 83 78 84 76 85 55 86 56 87
REMARK SMILES IDX 64 88 57 89 58 90 62 91 65 92 59 93 60 94 63 95 61 96
REMARK H PARENT 22 5 18 25 26 30 85 49 53 60
REMARK Flexibility Score: inf
ROOT
ATOM      1  C   UNL A   1      30.654  31.608  25.375  1.00  0.00     0.117 C 
ENDROOT
BRANCH   1   2
ATOM      2  N   UNL A   1      31.068  30.406  24.683  1.00  0.00    -0.356 N 
ATOM      3  O   UNL A   1      29.118  30.159  23.498  1.00  0.00    -0.275 OA
ATOM      4  C   UNL A   1      30.259  29.792  23.755  1.00  0.00     0.221 C 
ATOM      5  H   UNL A   1      31.951  30.019  24.881  1.00  0.00     0.163 HD
BRANCH   4   6
ATOM      6  C   UNL A   1      30.914  28.646  23.017  1.00  0.00     0.122 C 
BRANCH   6   7
ATOM      7  C   UNL A   1      32.422  28.622  23.266  1.00  0.00     0.137 C 
BRANCH   7   8
ATOM      8  N   UNL A   1      33.057  27.385  23.766  1.00  0.00    -0.292 N 
ATOM      9  C   UNL A   1      33.517  26.390  22.926  1.00  0.00     0.266 C 
ATOM     10  C   UNL A   1      33.329  27.192  25.113  1.00  0.00     0.148 C 
ATOM     11  O   UNL A   1      33.531  26.397  21.704  1.00  0.00    -0.268 OA
ATOM     12  C   UNL A   1      33.999  25.219  23.708  1.00  0.00     0.081 C 
ATOM     13  S   UNL A   1      34.055  25.607  25.369  1.00  0.00    -0.054 SA
ATOM     14  S   UNL A   1      33.066  28.246  26.382  1.00  0.00    -0.052 S 
ATOM     15  C   UNL A   1      34.283  24.065  23.090  1.00  0.00     0.033 C 
BRANCH  15  16
ATOM     16  C   UNL A   1      34.678  22.770  23.671  1.00  0.00     0.020 A 
ATOM     17  C   UNL A   1      35.998  22.567  24.100  1.00  0.00     0.027 A 
ATOM     18  C   UNL A   1      33.720  21.779  23.953  1.00  0.00     0.137 A 
ATOM     19  C   UNL A   1      36.352  21.397  24.777  1.00  0.00     0.019 A 
ATOM     20  C   UNL A   1      34.089  20.605  24.625  1.00  0.00     0.061 A 
ATOM     21  Br  UNL A   1      38.135  21.159  25.361  1.00  0.00    -0.051 Br
ATOM     22  C   UNL A   1      35.405  20.414  25.042  1.00  0.00     0.035 A 
ATOM     23  Br  UNL A   1      32.838  19.222  24.971  1.00  0.00    -0.047 Br
BRANCH  18  24
ATOM     24  O   UNL A   1      32.403  21.945  23.601  1.00  0.00    -0.506 OA
ATOM     25  H   UNL A   1      32.069  21.532  22.830  1.00  0.00     0.293 HD
ENDBRANCH  18  24
ENDBRANCH  15  16
ENDBRANCH   7   8
ENDBRANCH   6   7
ENDBRANCH   4   6
ENDBRANCH   1   2
BRANCH   1  26
ATOM     26  C   UNL A   1      31.247  31.741  26.775  1.00  0.00     0.042 C 
BRANCH  26  27
ATOM     27  C   UNL A   1      32.545  32.540  26.868  1.00  0.00     0.118 C 
BRANCH  27  28
ATOM     28  N   UNL A   1      32.362  33.881  27.397  1.00  0.00    -0.352 N 
ATOM     29  C   UNL A   1      33.027  34.548  28.397  1.00  0.00     0.251 C 
ATOM     30  H   UNL A   1      31.643  34.398  26.967  1.00  0.00     0.163 HD
ATOM     31  O   UNL A   1      32.590  35.638  28.757  1.00  0.00    -0.269 OA
BRANCH  29  32
ATOM     32  C   UNL A   1      34.229  33.988  29.067  1.00  0.00     0.039 A 
ATOM     33  C   UNL A   1      34.033  32.976  30.017  1.00  0.00     0.014 A 
ATOM     34  C   UNL A   1      35.525  34.455  28.830  1.00  0.00     0.014 A 
ATOM     35  C   UNL A   1      35.124  32.401  30.676  1.00  0.00     0.010 A 
ATOM     36  C   UNL A   1      36.620  33.845  29.450  1.00  0.00     0.010 A 
ATOM     37  C   UNL A   1      36.431  32.810  30.376  1.00  0.00    -0.014 A 
BRANCH  37  38
ATOM     38  C   UNL A   1      37.597  32.130  30.995  1.00  0.00     0.031 A 
ATOM     39  C   UNL A   1      38.089  32.517  32.359  1.00  0.00     0.074 A 
ATOM     40  C   UNL A   1      38.244  31.175  30.299  1.00  0.00     0.049 A 
ATOM     41  N   UNL A   1      39.047  31.985  33.078  1.00  0.00    -0.248 NA
ATOM     42  C   UNL A   1      37.426  33.660  32.998  1.00  0.00     0.031 C 
ATOM     43  C   UNL A   1      37.905  30.747  28.941  1.00  0.00     0.029 A 
ATOM     44  N   UNL A   1      39.327  30.400  30.633  1.00  0.00    -0.354 N 
ATOM     45  C   UNL A   1      39.080  32.711  34.262  1.00  0.00     0.074 A 
ATOM     46  C   UNL A   1      38.087  33.757  34.143  1.00  0.00     0.031 C 
ATOM     47  C   UNL A   1      38.754  29.780  28.562  1.00  0.00     0.029 A 
ATOM     48  C   UNL A   1      39.708  29.533  29.639  1.00  0.00     0.049 A 
ATOM     49  H   UNL A   1      39.786  30.461  31.501  1.00  0.00     0.167 HD
ATOM     50  C   UNL A   1      39.857  32.513  35.355  1.00  0.00     0.037 A 
ATOM     51  C   UNL A   1      40.711  28.635  29.603  1.00  0.00     0.037 A 
ATOM     52  C   UNL A   1      40.872  31.496  35.457  1.00  0.00     0.049 A 
ATOM     53  C   UNL A   1      41.581  28.454  30.817  1.00  0.00     0.074 A 
ATOM     54  C   UNL A   1      41.694  31.198  36.531  1.00  0.00     0.029 A 
ATOM     55  N   UNL A   1      41.221  30.627  34.435  1.00  0.00    -0.354 N 
ATOM     56  N   UNL A   1      41.533  29.073  31.971  1.00  0.00    -0.248 NA
ATOM     57  C   UNL A   1      42.633  27.432  30.727  1.00  0.00     0.031 C 
ATOM     58  C   UNL A   1      42.574  30.182  36.140  1.00  0.00     0.029 A 
ATOM     59  C   UNL A   1      42.264  29.809  34.843  1.00  0.00     0.049 A 
ATOM     60  H   UNL A   1      40.792  30.593  33.549  1.00  0.00     0.167 HD
ATOM     61  C   UNL A   1      42.520  28.493  32.756  1.00  0.00     0.074 A 
ATOM     62  C   UNL A   1      43.144  27.465  31.951  1.00  0.00     0.031 C 
ATOM     63  C   UNL A   1      42.872  28.783  34.033  1.00  0.00     0.037 A 
BRANCH  50  64
ATOM     64  C   UNL A   1      39.639  33.421  36.531  1.00  0.00     0.064 A 
ATOM     65  C   UNL A   1      38.725  33.096  37.545  1.00  0.00     0.173 A 
ATOM     66  C   UNL A   1      40.379  34.605  36.669  1.00  0.00     0.173 A 
ATOM     67  F   UNL A   1      37.990  31.978  37.458  1.00  0.00    -0.203 F 
ATOM     68  C   UNL A   1      38.543  33.935  38.643  1.00  0.00     0.198 A 
ATOM     69  C   UNL A   1      40.213  35.428  37.781  1.00  0.00     0.198 A 
ATOM     70  F   UNL A   1      41.272  34.960  35.732  1.00  0.00    -0.203 F 
ATOM     71  F   UNL A   1      37.637  33.623  39.580  1.00  0.00    -0.200 F 
ATOM     72  C   UNL A   1      39.291  35.096  38.762  1.00  0.00     0.200 A 
ATOM     73  F   UNL A   1      40.946  36.543  37.903  1.00  0.00    -0.200 F 
ATOM     74  F   UNL A   1      39.122  35.899  39.823  1.00  0.00    -0.200 F 
ENDBRANCH  50  64
BRANCH  51  75
ATOM     75  C   UNL A   1      40.918  27.812  28.385  1.00  0.00     0.064 A 
ATOM     76  C   UNL A   1      41.810  28.219  27.383  1.00  0.00     0.173 A 
ATOM     77  C   UNL A   1      40.235  26.601  28.199  1.00  0.00     0.173 A 
ATOM     78  F   UNL A   1      42.471  29.379  27.508  1.00  0.00    -0.203 F 
ATOM     79  C   UNL A   1      41.995  27.457  26.232  1.00  0.00     0.198 A 
ATOM     80  C   UNL A   1      40.442  25.826  27.061  1.00  0.00     0.198 A 
ATOM     81  F   UNL A   1      39.376  26.165  29.132  1.00  0.00    -0.203 F 
ATOM     82  F   UNL A   1      42.822  27.890  25.270  1.00  0.00    -0.200 F 
ATOM     83  C   UNL A   1      41.317  26.257  26.075  1.00  0.00     0.200 A 
ATOM     84  F   UNL A   1      39.795  24.661  26.918  1.00  0.00    -0.200 F 
ATOM     85  F   UNL A   1      41.500  25.523  24.970  1.00  0.00    -0.200 F 
ENDBRANCH  51  75
BRANCH  63  86
ATOM     86  C   UNL A   1      43.955  27.949  34.653  1.00  0.00     0.064 A 
ATOM     87  C   UNL A   1      43.673  26.750  35.322  1.00  0.00     0.173 A 
ATOM     88  C   UNL A   1      45.298  28.346  34.553  1.00  0.00     0.173 A 
ATOM     89  F   UNL A   1      42.404  26.334  35.458  1.00  0.00    -0.203 F 
ATOM     90  C   UNL A   1      44.692  25.993  35.897  1.00  0.00     0.198 A 
ATOM     91  C   UNL A   1      46.317  27.572  35.101  1.00  0.00     0.198 A 
ATOM     92  F   UNL A   1      45.622  29.481  33.917  1.00  0.00    -0.203 F 
ATOM     93  F   UNL A   1      44.394  24.879  36.578  1.00  0.00    -0.200 F 
ATOM     94  C   UNL A   1      46.012  26.402  35.781  1.00  0.00     0.200 A 
ATOM     95  F   UNL A   1      47.593  27.961  34.977  1.00  0.00    -0.200 F 
ATOM     96  F   UNL A   1      46.992  25.672  36.331  1.00  0.00    -0.200 F 
ENDBRANCH  63  86
ENDBRANCH  37  38
ENDBRANCH  29  32
ENDBRANCH  27  28
ENDBRANCH  26  27
ENDBRANCH   1  26
TORSDOF 14
ENDMDL
MODEL 2
REMARK VINA RESULT:     -12.4      0.976      2.395
REMARK SMILES O=C(CCN1C(=O)/C(=C/c2cc(Br)cc(Br)c2O)SC1=S)NCCCNC(=O)c1ccc(-c2c3nc(c(-c4c(F)c(F)c(F)c(F)c4F)c4ccc([nH]4)c(-c4c(F)c(F)c(F)c(F)c4F)c4nc(c(-c5c(F)c(F)c(F)c(F)c5F)c5ccc2[nH]5)C=C4)C=C3)cc1
REMARK SMILES IDX 23 1 22 2 1 3 2 4 3 6 4 7 5 8 6 9 20 10 7 11 8 12 19 13
REMARK SMILES IDX 21 14 9 15 10 16 11 17 17 18 12 19 15 20 13 21 14 22 16 23
REMARK SMILES IDX 18 24 24 26 25 27 26 28 27 29 28 31 29 32 30 33 91 34 31 35
REMARK SMILES IDX 90 36 32 37 33 38 34 39 84 40 35 41 89 42 83 43 85 44 36 45
REMARK SMILES IDX 88 46 82 47 81 48 37 50 69 51 49 52 68 53 50 54 53 55 67 56
REMARK SMILES IDX 86 57 51 58 52 59 66 61 87 62 54 63 38 64 39 65 47 66 40 67
REMARK SMILES IDX 41 68 45 69 48 70 42 71 43 72 46 73 44 74 70 75 71 76 79 77
REMARK SMILES IDX 72 78 73 79 77 80 80 81 74 82 75 83 78 84 76 85 55 86 56 87
REMARK SMILES IDX 64 88 57 89 58 90 62 91 65 92 59 93 60 94 63 95 61 96
REMARK H PARENT 22 5 18 25 26 30 85 49 53 60
REMARK Flexibility Score: inf
ROOT
ATOM      1  C   UNL A   1      31.506  30.626  26.399  1.00  0.00     0.117 C 
ENDROOT
BRANCH   1   2
ATOM      2  N   UNL A   1      31.424  30.152  25.034  1.00  0.00    -0.356 N 
ATOM      3  O   UNL A   1      33.555  29.300  24.976  1.00  0.00    -0.275 OA
ATOM      4  C   UNL A   1      32.468  29.481  24.439  1.00  0.00     0.221 C 
ATOM      5  H   UNL A   1      30.601  30.312  24.519  1.00  0.00     0.163 HD
BRANCH   4   6
ATOM      6  C   UNL A   1      32.150  28.919  23.072  1.00  0.00     0.122 C 
BRANCH   6   7
ATOM      7  C   UNL A   1      31.564  27.511  23.179  1.00  0.00     0.137 C 
BRANCH   7   8
ATOM      8  N   UNL A   1      32.342  26.448  23.850  1.00  0.00    -0.292 N 
ATOM      9  C   UNL A   1      33.464  25.874  23.284  1.00  0.00     0.266 C 
ATOM     10  C   UNL A   1      32.055  26.032  25.142  1.00  0.00     0.148 C 
ATOM     11  O   UNL A   1      34.001  26.177  22.229  1.00  0.00    -0.268 OA
ATOM     12  C   UNL A   1      33.969  24.758  24.129  1.00  0.00     0.081 C 
ATOM     13  S   UNL A   1      33.147  24.736  25.624  1.00  0.00    -0.054 SA
ATOM     14  S   UNL A   1      30.887  26.619  26.181  1.00  0.00    -0.052 S 
ATOM     15  C   UNL A   1      34.913  23.930  23.659  1.00  0.00     0.033 C 
BRANCH  15  16
ATOM     16  C   UNL A   1      35.482  22.721  24.279  1.00  0.00     0.020 A 
ATOM     17  C   UNL A   1      34.755  21.521  24.274  1.00  0.00     0.027 A 
ATOM     18  C   UNL A   1      36.811  22.699  24.740  1.00  0.00     0.137 A 
ATOM     19  C   UNL A   1      35.337  20.337  24.733  1.00  0.00     0.019 A 
ATOM     20  C   UNL A   1      37.382  21.506  25.207  1.00  0.00     0.061 A 
ATOM     21  Br  UNL A   1      34.339  18.731  24.697  1.00  0.00    -0.051 Br
ATOM     22  C   UNL A   1      36.646  20.322  25.200  1.00  0.00     0.035 A 
ATOM     23  Br  UNL A   1      39.150  21.450  25.890  1.00  0.00    -0.047 Br
BRANCH  18  24
ATOM     24  O   UNL A   1      37.587  23.832  24.721  1.00  0.00    -0.506 OA
ATOM     25  H   UNL A   1      37.587  24.411  25.458  1.00  0.00     0.293 HD
ENDBRANCH  18  24
ENDBRANCH  15  16
ENDBRANCH   7   8
ENDBRANCH   6   7
ENDBRANCH   4   6
ENDBRANCH   1   2
BRANCH   1  26
ATOM     26  C   UNL A   1      31.375  32.141  26.527  1.00  0.00     0.042 C 
BRANCH  26  27
ATOM     27  C   UNL A   1      32.654  32.882  26.913  1.00  0.00     0.118 C 
BRANCH  27  28
ATOM     28  N   UNL A   1      32.410  34.155  27.568  1.00  0.00    -0.352 N 
ATOM     29  C   UNL A   1      33.042  34.751  28.633  1.00  0.00     0.251 C 
ATOM     30  H   UNL A   1      31.668  34.679  27.186  1.00  0.00     0.163 HD
ATOM     31  O   UNL A   1      32.555  35.780  29.095  1.00  0.00    -0.269 OA
BRANCH  29  32
ATOM     32  C   UNL A   1      34.267  34.183  29.253  1.00  0.00     0.039 A 
ATOM     33  C   UNL A   1      34.104  33.332  30.354  1.00  0.00     0.014 A 
ATOM     34  C   UNL A   1      35.558  34.496  28.822  1.00  0.00     0.014 A 
ATOM     35  C   UNL A   1      35.216  32.757  30.977  1.00  0.00     0.010 A 
ATOM     36  C   UNL A   1      36.668  33.881  29.410  1.00  0.00     0.010 A 
ATOM     37  C   UNL A   1      36.508  33.003  30.491  1.00  0.00    -0.014 A 
BRANCH  37  38
ATOM     38  C   UNL A   1      37.683  32.313  31.082  1.00  0.00     0.031 A 
ATOM     39  C   UNL A   1      38.225  32.711  32.424  1.00  0.00     0.074 A 
ATOM     40  C   UNL A   1      38.292  31.338  30.380  1.00  0.00     0.049 A 
ATOM     41  N   UNL A   1      39.197  32.173  33.120  1.00  0.00    -0.248 NA
ATOM     42  C   UNL A   1      37.601  33.874  33.067  1.00  0.00     0.031 C 
ATOM     43  C   UNL A   1      37.901  30.896  29.040  1.00  0.00     0.029 A 
ATOM     44  N   UNL A   1      39.372  30.550  30.690  1.00  0.00    -0.354 N 
ATOM     45  C   UNL A   1      39.280  32.915  34.291  1.00  0.00     0.074 A 
ATOM     46  C   UNL A   1      38.300  33.976  34.189  1.00  0.00     0.031 C 
ATOM     47  C   UNL A   1      38.723  29.910  28.648  1.00  0.00     0.029 A 
ATOM     48  C   UNL A   1      39.707  29.663  29.697  1.00  0.00     0.049 A 
ATOM     49  H   UNL A   1      39.860  30.616  31.542  1.00  0.00     0.167 HD
ATOM     50  C   UNL A   1      40.089  32.720  35.361  1.00  0.00     0.037 A 
ATOM     51  C   UNL A   1      40.694  28.748  29.642  1.00  0.00     0.037 A 
ATOM     52  C   UNL A   1      41.091  31.689  35.445  1.00  0.00     0.049 A 
ATOM     53  C   UNL A   1      41.600  28.570  30.829  1.00  0.00     0.074 A 
ATOM     54  C   UNL A   1      41.941  31.392  36.496  1.00  0.00     0.029 A 
ATOM     55  N   UNL A   1      41.392  30.799  34.425  1.00  0.00    -0.354 N 
ATOM     56  N   UNL A   1      41.599  29.206  31.975  1.00  0.00    -0.248 NA
ATOM     57  C   UNL A   1      42.632  27.529  30.721  1.00  0.00     0.031 C 
ATOM     58  C   UNL A   1      42.792  30.357  36.092  1.00  0.00     0.029 A 
ATOM     59  C   UNL A   1      42.435  29.970  34.811  1.00  0.00     0.049 A 
ATOM     60  H   UNL A   1      40.934  30.760  33.555  1.00  0.00     0.167 HD
ATOM     61  C   UNL A   1      42.601  28.621  32.737  1.00  0.00     0.074 A 
ATOM     62  C   UNL A   1      43.183  27.572  31.927  1.00  0.00     0.031 C 
ATOM     63  C   UNL A   1      42.999  28.924  33.998  1.00  0.00     0.037 A 
BRANCH  50  64
ATOM     64  C   UNL A   1      39.924  33.648  36.530  1.00  0.00     0.064 A 
ATOM     65  C   UNL A   1      40.626  34.861  36.605  1.00  0.00     0.173 A 
ATOM     66  C   UNL A   1      39.025  33.346  37.564  1.00  0.00     0.173 A 
ATOM     67  F   UNL A   1      41.501  35.195  35.645  1.00  0.00    -0.203 F 
ATOM     68  C   UNL A   1      40.453  35.725  37.684  1.00  0.00     0.198 A 
ATOM     69  C   UNL A   1      38.835  34.225  38.628  1.00  0.00     0.198 A 
ATOM     70  F   UNL A   1      38.322  32.203  37.538  1.00  0.00    -0.203 F 
ATOM     71  F   UNL A   1      41.163  36.860  37.753  1.00  0.00    -0.200 F 
ATOM     72  C   UNL A   1      39.553  35.409  38.691  1.00  0.00     0.200 A 
ATOM     73  F   UNL A   1      37.956  33.925  39.594  1.00  0.00    -0.200 F 
ATOM     74  F   UNL A   1      39.381  36.245  39.724  1.00  0.00    -0.200 F 
ENDBRANCH  50  64
BRANCH  51  75
ATOM     75  C   UNL A   1      40.848  27.904  28.430  1.00  0.00     0.064 A 
ATOM     76  C   UNL A   1      40.200  26.665  28.328  1.00  0.00     0.173 A 
ATOM     77  C   UNL A   1      41.638  28.319  27.349  1.00  0.00     0.173 A 
ATOM     78  F   UNL A   1      39.449  26.217  29.345  1.00  0.00    -0.203 F 
ATOM     79  C   UNL A   1      40.355  25.864  27.199  1.00  0.00     0.198 A 
ATOM     80  C   UNL A   1      41.769  27.530  26.209  1.00  0.00     0.198 A 
ATOM     81  F   UNL A   1      42.272  29.500  27.395  1.00  0.00    -0.203 F 
ATOM     82  F   UNL A   1      39.759  24.665  27.145  1.00  0.00    -0.200 F 
ATOM     83  C   UNL A   1      41.133  26.300  26.137  1.00  0.00     0.200 A 
ATOM     84  F   UNL A   1      42.511  27.961  25.179  1.00  0.00    -0.200 F 
ATOM     85  F   UNL A   1      41.276  25.531  25.050  1.00  0.00    -0.200 F 
ENDBRANCH  51  75
BRANCH  63  86
ATOM     86  C   UNL A   1      44.088  28.081  34.595  1.00  0.00     0.064 A 
ATOM     87  C   UNL A   1      45.439  28.450  34.512  1.00  0.00     0.173 A 
ATOM     88  C   UNL A   1      43.772  26.898  35.282  1.00  0.00     0.173 A 
ATOM     89  F   UNL A   1      45.796  29.563  33.853  1.00  0.00    -0.203 F 
ATOM     90  C   UNL A   1      46.435  27.650  35.066  1.00  0.00     0.198 A 
ATOM     91  C   UNL A   1      44.767  26.117  35.862  1.00  0.00     0.198 A 
ATOM     92  F   UNL A   1      42.494  26.504  35.396  1.00  0.00    -0.203 F 
ATOM     93  F   UNL A   1      47.723  27.994  34.928  1.00  0.00    -0.200 F 
ATOM     94  C   UNL A   1      46.098  26.488  35.746  1.00  0.00     0.200 A 
ATOM     95  F   UNL A   1      44.438  25.002  36.530  1.00  0.00    -0.200 F 
ATOM     96  F   UNL A   1      47.057  25.721  36.282  1.00  0.00    -0.200 F 
ENDBRANCH  63  86
ENDBRANCH  37  38
ENDBRANCH  29  32
ENDBRANCH  27  28
ENDBRANCH  26  27
ENDBRANCH   1  26
TORSDOF 14
ENDMDL
MODEL 3
REMARK VINA RESULT:     -12.1      1.442      2.289
REMARK SMILES O=C(CCN1C(=O)/C(=C/c2cc(Br)cc(Br)c2O)SC1=S)NCCCNC(=O)c1ccc(-c2c3nc(c(-c4c(F)c(F)c(F)c(F)c4F)c4ccc([nH]4)c(-c4c(F)c(F)c(F)c(F)c4F)c4nc(c(-c5c(F)c(F)c(F)c(F)c5F)c5ccc2[nH]5)C=C4)C=C3)cc1
REMARK SMILES IDX 23 1 22 2 1 3 2 4 3 6 4 7 5 8 6 9 20 10 7 11 8 12 19 13
REMARK SMILES IDX 21 14 9 15 10 16 11 17 17 18 12 19 15 20 13 21 14 22 16 23
REMARK SMILES IDX 18 24 24 26 25 27 26 28 27 29 28 31 29 32 30 33 91 34 31 35
REMARK SMILES IDX 90 36 32 37 33 38 34 39 84 40 35 41 89 42 83 43 85 44 36 45
REMARK SMILES IDX 88 46 82 47 81 48 37 50 69 51 49 52 68 53 50 54 53 55 67 56
REMARK SMILES IDX 86 57 51 58 52 59 66 61 87 62 54 63 38 64 39 65 47 66 40 67
REMARK SMILES IDX 41 68 45 69 48 70 42 71 43 72 46 73 44 74 70 75 71 76 79 77
REMARK SMILES IDX 72 78 73 79 77 80 80 81 74 82 75 83 78 84 76 85 55 86 56 87
REMARK SMILES IDX 64 88 57 89 58 90 62 91 65 92 59 93 60 94 63 95 61 96
REMARK H PARENT 22 5 18 25 26 30 85 49 53 60
REMARK Flexibility Score: inf
ROOT
ATOM      1  C   UNL A   1      33.805  30.796  27.243  1.00  0.00     0.117 C 
ENDROOT
BRANCH   1   2
ATOM      2  N   UNL A   1      33.168  29.561  27.646  1.00  0.00    -0.356 N 
ATOM      3  O   UNL A   1      31.625  29.552  25.946  1.00  0.00    -0.275 OA
ATOM      4  C   UNL A   1      32.132  29.013  26.925  1.00  0.00     0.221 C 
ATOM      5  H   UNL A   1      33.484  29.101  28.457  1.00  0.00     0.163 HD
BRANCH   4   6
ATOM      6  C   UNL A   1      31.697  27.645  27.397  1.00  0.00     0.122 C 
BRANCH   6   7
ATOM      7  C   UNL A   1      30.984  26.880  26.282  1.00  0.00     0.137 C 
BRANCH   7   8
ATOM      8  N   UNL A   1      31.637  25.703  25.674  1.00  0.00    -0.292 N 
ATOM      9  C   UNL A   1      31.666  24.464  26.286  1.00  0.00     0.266 C 
ATOM     10  C   UNL A   1      32.174  25.740  24.395  1.00  0.00     0.148 C 
ATOM     11  O   UNL A   1      31.132  24.144  27.338  1.00  0.00    -0.268 OA
ATOM     12  C   UNL A   1      32.488  23.505  25.501  1.00  0.00     0.081 C 
ATOM     13  S   UNL A   1      32.901  24.186  23.992  1.00  0.00    -0.054 SA
ATOM     14  S   UNL A   1      32.169  27.008  23.309  1.00  0.00    -0.052 S 
ATOM     15  C   UNL A   1      32.824  22.318  26.024  1.00  0.00     0.033 C 
BRANCH  15  16
ATOM     16  C   UNL A   1      33.698  21.270  25.468  1.00  0.00     0.020 A 
ATOM     17  C   UNL A   1      35.084  21.473  25.402  1.00  0.00     0.027 A 
ATOM     18  C   UNL A   1      33.189  19.998  25.146  1.00  0.00     0.137 A 
ATOM     19  C   UNL A   1      35.935  20.438  25.008  1.00  0.00     0.019 A 
ATOM     20  C   UNL A   1      34.052  18.969  24.742  1.00  0.00     0.061 A 
ATOM     21  Br  UNL A   1      37.802  20.736  24.946  1.00  0.00    -0.051 Br
ATOM     22  C   UNL A   1      35.427  19.187  24.676  1.00  0.00     0.035 A 
ATOM     23  Br  UNL A   1      33.398  17.261  24.243  1.00  0.00    -0.047 Br
BRANCH  18  24
ATOM     24  O   UNL A   1      31.846  19.727  25.240  1.00  0.00    -0.506 OA
ATOM     25  H   UNL A   1      31.226  20.428  25.234  1.00  0.00     0.293 HD
ENDBRANCH  18  24
ENDBRANCH  15  16
ENDBRANCH   7   8
ENDBRANCH   6   7
ENDBRANCH   4   6
ENDBRANCH   1   2
BRANCH   1  26
ATOM     26  C   UNL A   1      33.240  32.030  27.940  1.00  0.00     0.042 C 
BRANCH  26  27
ATOM     27  C   UNL A   1      32.546  33.042  27.029  1.00  0.00     0.118 C 
BRANCH  27  28
ATOM     28  N   UNL A   1      32.360  34.344  27.646  1.00  0.00    -0.352 N 
ATOM     29  C   UNL A   1      33.040  34.955  28.671  1.00  0.00     0.251 C 
ATOM     30  H   UNL A   1      31.624  34.877  27.267  1.00  0.00     0.163 HD
ATOM     31  O   UNL A   1      32.599  36.014  29.110  1.00  0.00    -0.269 OA
BRANCH  29  32
ATOM     32  C   UNL A   1      34.265  34.369  29.276  1.00  0.00     0.039 A 
ATOM     33  C   UNL A   1      34.122  33.660  30.476  1.00  0.00     0.014 A 
ATOM     34  C   UNL A   1      35.541  34.537  28.735  1.00  0.00     0.014 A 
ATOM     35  C   UNL A   1      35.234  33.076  31.092  1.00  0.00     0.010 A 
ATOM     36  C   UNL A   1      36.646  33.911  29.321  1.00  0.00     0.010 A 
ATOM     37  C   UNL A   1      36.503  33.172  30.503  1.00  0.00    -0.014 A 
BRANCH  37  38
ATOM     38  C   UNL A   1      37.667  32.465  31.096  1.00  0.00     0.031 A 
ATOM     39  C   UNL A   1      38.214  32.860  32.437  1.00  0.00     0.074 A 
ATOM     40  C   UNL A   1      38.261  31.480  30.397  1.00  0.00     0.049 A 
ATOM     41  N   UNL A   1      39.179  32.310  33.135  1.00  0.00    -0.248 NA
ATOM     42  C   UNL A   1      37.608  34.034  33.076  1.00  0.00     0.031 C 
ATOM     43  C   UNL A   1      37.865  31.039  29.059  1.00  0.00     0.029 A 
ATOM     44  N   UNL A   1      39.330  30.676  30.710  1.00  0.00    -0.354 N 
ATOM     45  C   UNL A   1      39.273  33.054  34.303  1.00  0.00     0.074 A 
ATOM     46  C   UNL A   1      38.309  34.129  34.197  1.00  0.00     0.031 C 
ATOM     47  C   UNL A   1      38.671  30.040  28.670  1.00  0.00     0.029 A 
ATOM     48  C   UNL A   1      39.651  29.781  29.720  1.00  0.00     0.049 A 
ATOM     49  H   UNL A   1      39.819  30.738  31.562  1.00  0.00     0.167 HD
ATOM     50  C   UNL A   1      40.078  32.851  35.374  1.00  0.00     0.037 A 
ATOM     51  C   UNL A   1      40.624  28.852  29.669  1.00  0.00     0.037 A 
ATOM     52  C   UNL A   1      41.064  31.805  35.462  1.00  0.00     0.049 A 
ATOM     53  C   UNL A   1      41.528  28.664  30.857  1.00  0.00     0.074 A 
ATOM     54  C   UNL A   1      41.911  31.499  36.514  1.00  0.00     0.029 A 
ATOM     55  N   UNL A   1      41.353  30.908  34.445  1.00  0.00    -0.354 N 
ATOM     56  N   UNL A   1      41.536  29.304  32.001  1.00  0.00    -0.248 NA
ATOM     57  C   UNL A   1      42.544  27.608  30.752  1.00  0.00     0.031 C 
ATOM     58  C   UNL A   1      42.746  30.450  36.114  1.00  0.00     0.029 A 
ATOM     59  C   UNL A   1      42.383  30.065  34.834  1.00  0.00     0.049 A 
ATOM     60  H   UNL A   1      40.894  30.873  33.575  1.00  0.00     0.167 HD
ATOM     61  C   UNL A   1      42.530  28.707  32.764  1.00  0.00     0.074 A 
ATOM     62  C   UNL A   1      43.096  27.646  31.958  1.00  0.00     0.031 C 
ATOM     63  C   UNL A   1      42.932  29.007  34.024  1.00  0.00     0.037 A 
BRANCH  50  64
ATOM     64  C   UNL A   1      39.927  33.785  36.540  1.00  0.00     0.064 A 
ATOM     65  C   UNL A   1      40.632  34.997  36.602  1.00  0.00     0.173 A 
ATOM     66  C   UNL A   1      39.039  33.490  37.585  1.00  0.00     0.173 A 
ATOM     67  F   UNL A   1      41.497  35.325  35.630  1.00  0.00    -0.203 F 
ATOM     68  C   UNL A   1      40.472  35.868  37.678  1.00  0.00     0.198 A 
ATOM     69  C   UNL A   1      38.861  34.374  38.647  1.00  0.00     0.198 A 
ATOM     70  F   UNL A   1      38.334  32.348  37.573  1.00  0.00    -0.203 F 
ATOM     71  F   UNL A   1      41.184  37.001  37.733  1.00  0.00    -0.200 F 
ATOM     72  C   UNL A   1      39.582  35.558  38.696  1.00  0.00     0.200 A 
ATOM     73  F   UNL A   1      37.991  34.081  39.623  1.00  0.00    -0.200 F 
ATOM     74  F   UNL A   1      39.421  36.400  39.727  1.00  0.00    -0.200 F 
ENDBRANCH  50  64
BRANCH  51  75
ATOM     75  C   UNL A   1      40.766  28.002  28.459  1.00  0.00     0.064 A 
ATOM     76  C   UNL A   1      41.555  28.415  27.376  1.00  0.00     0.173 A 
ATOM     77  C   UNL A   1      40.123  26.760  28.362  1.00  0.00     0.173 A 
ATOM     78  F   UNL A   1      42.174  29.604  27.416  1.00  0.00    -0.203 F 
ATOM     79  C   UNL A   1      41.678  27.628  26.234  1.00  0.00     0.198 A 
ATOM     80  C   UNL A   1      40.270  25.960  27.232  1.00  0.00     0.198 A 
ATOM     81  F   UNL A   1      39.364  26.316  29.374  1.00  0.00    -0.203 F 
ATOM     82  F   UNL A   1      42.404  28.066  25.196  1.00  0.00    -0.200 F 
ATOM     83  C   UNL A   1      41.041  26.397  26.165  1.00  0.00     0.200 A 
ATOM     84  F   UNL A   1      39.664  24.766  27.174  1.00  0.00    -0.200 F 
ATOM     85  F   UNL A   1      41.165  25.639  25.068  1.00  0.00    -0.200 F 
ENDBRANCH  51  75
BRANCH  63  86
ATOM     86  C   UNL A   1      44.008  28.150  34.624  1.00  0.00     0.064 A 
ATOM     87  C   UNL A   1      45.363  28.507  34.554  1.00  0.00     0.173 A 
ATOM     88  C   UNL A   1      43.675  26.966  35.300  1.00  0.00     0.173 A 
ATOM     89  F   UNL A   1      45.735  29.621  33.906  1.00  0.00    -0.203 F 
ATOM     90  C   UNL A   1      46.347  27.694  35.111  1.00  0.00     0.198 A 
ATOM     91  C   UNL A   1      44.658  26.172  35.883  1.00  0.00     0.198 A 
ATOM     92  F   UNL A   1      42.393  26.583  35.402  1.00  0.00    -0.203 F 
ATOM     93  F   UNL A   1      47.638  28.027  34.987  1.00  0.00    -0.200 F 
ATOM     94  C   UNL A   1      45.993  26.531  35.780  1.00  0.00     0.200 A 
ATOM     95  F   UNL A   1      44.314  25.055  36.540  1.00  0.00    -0.200 F 
ATOM     96  F   UNL A   1      46.941  25.752  36.319  1.00  0.00    -0.200 F 
ENDBRANCH  63  86
ENDBRANCH  37  38
ENDBRANCH  29  32
ENDBRANCH  27  28
ENDBRANCH  26  27
ENDBRANCH   1  26
TORSDOF 14
ENDMDL
