MODEL 1
REMARK VINA RESULT:     -12.6      0.000      0.000
REMARK SMILES CC(C)(C)OC(=O)N1CCN(c2nc3ccccc3s2)[C@H](C(=O)NCCCNC(=O)c2ccc(-c3c4nc(c(-c5c(F)c(F)c(F)c(F)c5F)c5ccc([nH]5)c(-c5c(F)c(F)c(F)c(F)c5F)c5nc(c(-c6c(F)c(F)c(F)c(F)c6F)c6ccc3[nH]6)C=C5)C=C4)cc2)C1
REMARK SMILES IDX 25 1 24 2 22 3 23 4 21 6 8 7 9 8 94 9 10 10 11 11 6 12 7 13
REMARK SMILES IDX 5 14 2 15 1 16 3 17 4 18 12 19 13 20 20 21 14 22 19 23 15 24
REMARK SMILES IDX 18 25 16 26 17 27 26 28 27 29 28 30 29 31 30 33 31 34 32 35
REMARK SMILES IDX 93 36 33 37 92 38 34 39 35 40 36 41 86 42 37 43 91 44 85 45
REMARK SMILES IDX 87 46 38 47 90 48 84 49 83 50 39 52 71 53 51 54 70 55 52 56
REMARK SMILES IDX 55 57 69 58 88 59 53 60 54 61 68 63 89 64 56 65 40 66 41 67
REMARK SMILES IDX 49 68 42 69 43 70 47 71 50 72 44 73 45 74 48 75 46 76 72 77
REMARK SMILES IDX 73 78 81 79 74 80 75 81 79 82 82 83 76 84 77 85 80 86 78 87
REMARK SMILES IDX 57 88 58 89 66 90 59 91 60 92 64 93 67 94 61 95 62 96 65 97
REMARK SMILES IDX 63 98
REMARK H PARENT 24 5 28 32 87 51 55 62
REMARK Flexibility Score: inf
ROOT
ATOM      1  C   UNL A   1      31.802  30.658  27.024  1.00  0.00     0.117 C 
ENDROOT
BRANCH   1   2
ATOM      2  N   UNL A   1      32.800  30.135  26.110  1.00  0.00    -0.354 N 
ATOM      3  C   UNL A   1      32.962  28.959  25.450  1.00  0.00     0.244 C 
ATOM      4  O   UNL A   1      33.907  28.954  24.646  1.00  0.00    -0.273 OA
ATOM      5  H   UNL A   1      33.522  30.778  25.926  1.00  0.00     0.163 HD
BRANCH   3   6
ATOM      6  C   UNL A   1      32.118  27.673  25.645  1.00  0.00     0.193 C 
ATOM      7  N   UNL A   1      32.076  25.186  26.075  1.00  0.00    -0.304 N 
ATOM      8  C   UNL A   1      30.891  25.044  25.227  1.00  0.00     0.144 C 
ATOM      9  C   UNL A   1      32.906  26.374  25.844  1.00  0.00     0.158 C 
ATOM     10  C   UNL A   1      30.130  26.365  25.026  1.00  0.00     0.141 C 
ATOM     11  N   UNL A   1      31.066  27.429  24.611  1.00  0.00    -0.332 N 
BRANCH   7  12
ATOM     12  C   UNL A   1      32.591  24.060  26.694  1.00  0.00     0.410 C 
ATOM     13  O   UNL A   1      31.900  23.229  27.265  1.00  0.00    -0.224 OA
BRANCH  12  14
ATOM     14  O   UNL A   1      33.941  23.996  26.575  1.00  0.00    -0.444 OA
BRANCH  14  15
ATOM     15  C   UNL A   1      34.609  22.928  25.857  1.00  0.00     0.106 C 
ATOM     16  C   UNL A   1      36.053  23.423  25.689  1.00  0.00     0.056 C 
ATOM     17  C   UNL A   1      33.968  22.768  24.477  1.00  0.00     0.056 C 
ATOM     18  C   UNL A   1      34.641  21.601  26.625  1.00  0.00     0.056 C 
ENDBRANCH  14  15
ENDBRANCH  12  14
ENDBRANCH   7  12
BRANCH  11  19
ATOM     19  C   UNL A   1      30.519  28.467  23.923  1.00  0.00     0.187 A 
ATOM     20  N   UNL A   1      30.139  29.595  24.475  1.00  0.00    -0.220 NA
ATOM     21  S   UNL A   1      30.097  28.299  22.256  1.00  0.00    -0.097 S 
ATOM     22  C   UNL A   1      29.537  30.418  23.538  1.00  0.00     0.084 A 
ATOM     23  C   UNL A   1      29.400  29.869  22.263  1.00  0.00     0.056 A 
ATOM     24  C   UNL A   1      29.045  31.719  23.769  1.00  0.00     0.030 A 
ATOM     25  C   UNL A   1      28.771  30.563  21.216  1.00  0.00     0.021 A 
ATOM     26  C   UNL A   1      28.424  32.425  22.731  1.00  0.00     0.002 A 
ATOM     27  C   UNL A   1      28.285  31.849  21.473  1.00  0.00     0.002 A 
ENDBRANCH  11  19
ENDBRANCH   3   6
ENDBRANCH   1   2
BRANCH   1  28
ATOM     28  C   UNL A   1      31.568  32.155  26.857  1.00  0.00     0.042 C 
BRANCH  28  29
ATOM     29  C   UNL A   1      32.846  32.976  27.023  1.00  0.00     0.118 C 
BRANCH  29  30
ATOM     30  N   UNL A   1      32.575  34.289  27.601  1.00  0.00    -0.352 N 
ATOM     31  C   UNL A   1      33.069  34.883  28.735  1.00  0.00     0.251 C 
ATOM     32  H   UNL A   1      31.933  34.838  27.095  1.00  0.00     0.163 HD
ATOM     33  O   UNL A   1      32.535  35.898  29.171  1.00  0.00    -0.269 OA
BRANCH  31  34
ATOM     34  C   UNL A   1      34.241  34.314  29.430  1.00  0.00     0.039 A 
ATOM     35  C   UNL A   1      34.037  33.536  30.574  1.00  0.00     0.014 A 
ATOM     36  C   UNL A   1      35.538  34.598  28.996  1.00  0.00     0.014 A 
ATOM     37  C   UNL A   1      35.133  32.998  31.254  1.00  0.00     0.010 A 
ATOM     38  C   UNL A   1      36.625  34.011  29.634  1.00  0.00     0.010 A 
ATOM     39  C   UNL A   1      36.433  33.212  30.773  1.00  0.00    -0.014 A 
BRANCH  39  40
ATOM     40  C   UNL A   1      37.618  32.629  31.445  1.00  0.00     0.031 A 
ATOM     41  C   UNL A   1      38.347  31.480  30.812  1.00  0.00     0.074 A 
ATOM     42  C   UNL A   1      37.969  33.067  32.668  1.00  0.00     0.049 A 
ATOM     43  N   UNL A   1      39.305  30.734  31.299  1.00  0.00    -0.248 NA
ATOM     44  C   UNL A   1      37.913  31.094  29.459  1.00  0.00     0.031 C 
ATOM     45  C   UNL A   1      37.306  34.144  33.402  1.00  0.00     0.029 A 
ATOM     46  N   UNL A   1      38.956  32.639  33.519  1.00  0.00    -0.354 N 
ATOM     47  C   UNL A   1      39.563  29.772  30.332  1.00  0.00     0.074 A 
ATOM     48  C   UNL A   1      38.638  30.006  29.244  1.00  0.00     0.031 C 
ATOM     49  C   UNL A   1      37.908  34.297  34.593  1.00  0.00     0.029 A 
ATOM     50  C   UNL A   1      38.972  33.307  34.718  1.00  0.00     0.049 A 
ATOM     51  H   UNL A   1      39.592  31.922  33.292  1.00  0.00     0.167 HD
ATOM     52  C   UNL A   1      40.498  28.792  30.346  1.00  0.00     0.037 A 
ATOM     53  C   UNL A   1      39.751  33.129  35.802  1.00  0.00     0.037 A 
ATOM     54  C   UNL A   1      41.442  28.593  31.414  1.00  0.00     0.049 A 
ATOM     55  C   UNL A   1      40.806  32.059  35.780  1.00  0.00     0.074 A 
ATOM     56  C   UNL A   1      42.478  27.680  31.493  1.00  0.00     0.029 A 
ATOM     57  N   UNL A   1      41.463  29.325  32.592  1.00  0.00    -0.354 N 
ATOM     58  N   UNL A   1      41.081  31.190  34.838  1.00  0.00    -0.248 NA
ATOM     59  C   UNL A   1      41.662  31.949  36.968  1.00  0.00     0.031 C 
ATOM     60  C   UNL A   1      43.107  27.838  32.733  1.00  0.00     0.029 A 
ATOM     61  C   UNL A   1      42.486  28.876  33.411  1.00  0.00     0.049 A 
ATOM     62  H   UNL A   1      40.842  30.057  32.814  1.00  0.00     0.167 HD
ATOM     63  C   UNL A   1      42.152  30.445  35.307  1.00  0.00     0.074 A 
ATOM     64  C   UNL A   1      42.486  30.972  36.615  1.00  0.00     0.031 C 
ATOM     65  C   UNL A   1      42.803  29.417  34.708  1.00  0.00     0.037 A 
BRANCH  52  66
ATOM     66  C   UNL A   1      40.537  27.860  29.171  1.00  0.00     0.064 A 
ATOM     67  C   UNL A   1      41.419  28.061  28.098  1.00  0.00     0.173 A 
ATOM     68  C   UNL A   1      39.690  26.742  29.121  1.00  0.00     0.173 A 
ATOM     69  F   UNL A   1      42.241  29.122  28.090  1.00  0.00    -0.203 F 
ATOM     70  C   UNL A   1      41.424  27.202  27.003  1.00  0.00     0.198 A 
ATOM     71  C   UNL A   1      39.719  25.869  28.038  1.00  0.00     0.198 A 
ATOM     72  F   UNL A   1      38.831  26.499  30.122  1.00  0.00    -0.203 F 
ATOM     73  F   UNL A   1      42.234  27.448  25.964  1.00  0.00    -0.200 F 
ATOM     74  C   UNL A   1      40.578  26.104  26.975  1.00  0.00     0.200 A 
ATOM     75  F   UNL A   1      38.907  24.802  28.017  1.00  0.00    -0.200 F 
ATOM     76  F   UNL A   1      40.583  25.279  25.919  1.00  0.00    -0.200 F 
ENDBRANCH  52  66
BRANCH  53  77
ATOM     77  C   UNL A   1      39.571  34.009  36.983  1.00  0.00     0.064 A 
ATOM     78  C   UNL A   1      38.785  33.597  38.067  1.00  0.00     0.173 A 
ATOM     79  C   UNL A   1      40.203  35.257  37.068  1.00  0.00     0.173 A 
ATOM     80  F   UNL A   1      38.146  32.419  38.021  1.00  0.00    -0.203 F 
ATOM     81  C   UNL A   1      38.633  34.405  39.192  1.00  0.00     0.198 A 
ATOM     82  C   UNL A   1      40.069  36.054  38.203  1.00  0.00     0.198 A 
ATOM     83  F   UNL A   1      40.972  35.690  36.058  1.00  0.00    -0.203 F 
ATOM     84  F   UNL A   1      37.855  34.000  40.204  1.00  0.00    -0.200 F 
ATOM     85  C   UNL A   1      39.281  35.629  39.262  1.00  0.00     0.200 A 
ATOM     86  F   UNL A   1      40.707  37.230  38.273  1.00  0.00    -0.200 F 
ATOM     87  F   UNL A   1      39.145  36.400  40.349  1.00  0.00    -0.200 F 
ENDBRANCH  53  77
BRANCH  65  88
ATOM     88  C   UNL A   1      43.958  28.813  35.450  1.00  0.00     0.064 A 
ATOM     89  C   UNL A   1      45.270  29.265  35.254  1.00  0.00     0.173 A 
ATOM     90  C   UNL A   1      43.741  27.802  36.397  1.00  0.00     0.173 A 
ATOM     91  F   UNL A   1      45.528  30.219  34.348  1.00  0.00    -0.203 F 
ATOM     92  C   UNL A   1      46.328  28.712  35.970  1.00  0.00     0.198 A 
ATOM     93  C   UNL A   1      44.798  27.268  37.127  1.00  0.00     0.198 A 
ATOM     94  F   UNL A   1      42.502  27.340  36.622  1.00  0.00    -0.203 F 
ATOM     95  F   UNL A   1      47.581  29.132  35.741  1.00  0.00    -0.200 F 
ATOM     96  C   UNL A   1      46.092  27.720  36.909  1.00  0.00     0.200 A 
ATOM     97  F   UNL A   1      44.566  26.317  38.043  1.00  0.00    -0.200 F 
ATOM     98  F   UNL A   1      47.111  27.193  37.602  1.00  0.00    -0.200 F 
ENDBRANCH  65  88
ENDBRANCH  39  40
ENDBRANCH  31  34
ENDBRANCH  29  30
ENDBRANCH  28  29
ENDBRANCH   1  28
TORSDOF 14
ENDMDL
MODEL 2
REMARK VINA RESULT:     -12.6      0.682      1.759
REMARK SMILES CC(C)(C)OC(=O)N1CCN(c2nc3ccccc3s2)[C@H](C(=O)NCCCNC(=O)c2ccc(-c3c4nc(c(-c5c(F)c(F)c(F)c(F)c5F)c5ccc([nH]5)c(-c5c(F)c(F)c(F)c(F)c5F)c5nc(c(-c6c(F)c(F)c(F)c(F)c6F)c6ccc3[nH]6)C=C5)C=C4)cc2)C1
REMARK SMILES IDX 25 1 24 2 22 3 23 4 21 6 8 7 9 8 94 9 10 10 11 11 6 12 7 13
REMARK SMILES IDX 5 14 2 15 1 16 3 17 4 18 12 19 13 20 20 21 14 22 19 23 15 24
REMARK SMILES IDX 18 25 16 26 17 27 26 28 27 29 28 30 29 31 30 33 31 34 32 35
REMARK SMILES IDX 93 36 33 37 92 38 34 39 35 40 36 41 86 42 37 43 91 44 85 45
REMARK SMILES IDX 87 46 38 47 90 48 84 49 83 50 39 52 71 53 51 54 70 55 52 56
REMARK SMILES IDX 55 57 69 58 88 59 53 60 54 61 68 63 89 64 56 65 40 66 41 67
REMARK SMILES IDX 49 68 42 69 43 70 47 71 50 72 44 73 45 74 48 75 46 76 72 77
REMARK SMILES IDX 73 78 81 79 74 80 75 81 79 82 82 83 76 84 77 85 80 86 78 87
REMARK SMILES IDX 57 88 58 89 66 90 59 91 60 92 64 93 67 94 61 95 62 96 65 97
REMARK SMILES IDX 63 98
REMARK H PARENT 24 5 28 32 87 51 55 62
REMARK Flexibility Score: inf
ROOT
ATOM      1  C   UNL A   1      32.273  30.503  27.213  1.00  0.00     0.117 C 
ENDROOT
BRANCH   1   2
ATOM      2  N   UNL A   1      33.111  30.053  26.117  1.00  0.00    -0.354 N 
ATOM      3  C   UNL A   1      33.139  28.942  25.335  1.00  0.00     0.244 C 
ATOM      4  O   UNL A   1      33.957  28.998  24.404  1.00  0.00    -0.273 OA
ATOM      5  H   UNL A   1      33.819  30.697  25.889  1.00  0.00     0.163 HD
BRANCH   3   6
ATOM      6  C   UNL A   1      32.292  27.659  25.533  1.00  0.00     0.193 C 
ATOM      7  N   UNL A   1      32.244  25.164  25.918  1.00  0.00    -0.304 N 
ATOM      8  C   UNL A   1      31.033  25.047  25.105  1.00  0.00     0.144 C 
ATOM      9  C   UNL A   1      33.076  26.351  25.683  1.00  0.00     0.158 C 
ATOM     10  C   UNL A   1      30.276  26.376  24.953  1.00  0.00     0.141 C 
ATOM     11  N   UNL A   1      31.206  27.442  24.528  1.00  0.00    -0.332 N 
BRANCH   7  12
ATOM     12  C   UNL A   1      32.770  24.024  26.500  1.00  0.00     0.410 C 
ATOM     13  O   UNL A   1      32.084  23.115  26.944  1.00  0.00    -0.224 OA
BRANCH  12  14
ATOM     14  O   UNL A   1      34.127  24.042  26.501  1.00  0.00    -0.444 OA
BRANCH  14  15
ATOM     15  C   UNL A   1      34.918  23.085  25.752  1.00  0.00     0.106 C 
ATOM     16  C   UNL A   1      36.326  23.698  25.714  1.00  0.00     0.056 C 
ATOM     17  C   UNL A   1      34.374  22.986  24.326  1.00  0.00     0.056 C 
ATOM     18  C   UNL A   1      35.011  21.709  26.422  1.00  0.00     0.056 C 
ENDBRANCH  14  15
ENDBRANCH  12  14
ENDBRANCH   7  12
BRANCH  11  19
ATOM     19  C   UNL A   1      30.645  28.496  23.876  1.00  0.00     0.187 A 
ATOM     20  N   UNL A   1      30.267  29.605  24.466  1.00  0.00    -0.220 NA
ATOM     21  S   UNL A   1      30.205  28.374  22.211  1.00  0.00    -0.097 S 
ATOM     22  C   UNL A   1      29.649  30.451  23.559  1.00  0.00     0.084 A 
ATOM     23  C   UNL A   1      29.500  29.938  22.271  1.00  0.00     0.056 A 
ATOM     24  C   UNL A   1      29.153  31.743  23.834  1.00  0.00     0.030 A 
ATOM     25  C   UNL A   1      28.855  30.659  21.252  1.00  0.00     0.021 A 
ATOM     26  C   UNL A   1      28.516  32.475  22.824  1.00  0.00     0.002 A 
ATOM     27  C   UNL A   1      28.365  31.934  21.551  1.00  0.00     0.002 A 
ENDBRANCH  11  19
ENDBRANCH   3   6
ENDBRANCH   1   2
BRANCH   1  28
ATOM     28  C   UNL A   1      31.751  31.921  27.018  1.00  0.00     0.042 C 
BRANCH  28  29
ATOM     29  C   UNL A   1      32.871  32.951  26.876  1.00  0.00     0.118 C 
BRANCH  29  30
ATOM     30  N   UNL A   1      32.580  34.175  27.617  1.00  0.00    -0.352 N 
ATOM     31  C   UNL A   1      33.078  34.635  28.809  1.00  0.00     0.251 C 
ATOM     32  H   UNL A   1      31.918  34.767  27.191  1.00  0.00     0.163 HD
ATOM     33  O   UNL A   1      32.527  35.574  29.376  1.00  0.00    -0.269 OA
BRANCH  31  34
ATOM     34  C   UNL A   1      34.274  34.014  29.413  1.00  0.00     0.039 A 
ATOM     35  C   UNL A   1      35.537  34.513  29.080  1.00  0.00     0.014 A 
ATOM     36  C   UNL A   1      34.156  32.904  30.253  1.00  0.00     0.014 A 
ATOM     37  C   UNL A   1      36.682  33.932  29.631  1.00  0.00     0.010 A 
ATOM     38  C   UNL A   1      35.291  32.367  30.851  1.00  0.00     0.010 A 
ATOM     39  C   UNL A   1      36.564  32.871  30.540  1.00  0.00    -0.014 A 
BRANCH  39  40
ATOM     40  C   UNL A   1      37.753  32.253  31.174  1.00  0.00     0.031 A 
ATOM     41  C   UNL A   1      38.522  31.191  30.444  1.00  0.00     0.074 A 
ATOM     42  C   UNL A   1      38.072  32.576  32.441  1.00  0.00     0.049 A 
ATOM     43  N   UNL A   1      39.491  30.425  30.874  1.00  0.00    -0.248 NA
ATOM     44  C   UNL A   1      38.121  30.932  29.052  1.00  0.00     0.031 C 
ATOM     45  C   UNL A   1      37.367  33.557  33.266  1.00  0.00     0.029 A 
ATOM     46  N   UNL A   1      39.055  32.090  33.264  1.00  0.00    -0.354 N 
ATOM     47  C   UNL A   1      39.792  29.571  29.821  1.00  0.00     0.074 A 
ATOM     48  C   UNL A   1      38.879  29.889  28.743  1.00  0.00     0.031 C 
ATOM     49  C   UNL A   1      37.945  33.606  34.477  1.00  0.00     0.029 A 
ATOM     50  C   UNL A   1      39.033  32.635  34.524  1.00  0.00     0.049 A 
ATOM     51  H   UNL A   1      39.713  31.415  32.980  1.00  0.00     0.167 HD
ATOM     52  C   UNL A   1      40.752  28.618  29.755  1.00  0.00     0.037 A 
ATOM     53  C   UNL A   1      39.798  32.369  35.599  1.00  0.00     0.037 A 
ATOM     54  C   UNL A   1      41.682  28.336  30.816  1.00  0.00     0.049 A 
ATOM     55  C   UNL A   1      40.881  31.333  35.492  1.00  0.00     0.074 A 
ATOM     56  C   UNL A   1      42.741  27.446  30.824  1.00  0.00     0.029 A 
ATOM     57  N   UNL A   1      41.664  28.948  32.062  1.00  0.00    -0.354 N 
ATOM     58  N   UNL A   1      41.195  30.569  34.473  1.00  0.00    -0.248 NA
ATOM     59  C   UNL A   1      41.720  31.126  36.679  1.00  0.00     0.031 C 
ATOM     60  C   UNL A   1      43.345  27.495  32.086  1.00  0.00     0.029 A 
ATOM     61  C   UNL A   1      42.685  28.445  32.851  1.00  0.00     0.049 A 
ATOM     62  H   UNL A   1      41.020  29.638  32.343  1.00  0.00     0.167 HD
ATOM     63  C   UNL A   1      42.278  29.808  34.887  1.00  0.00     0.074 A 
ATOM     64  C   UNL A   1      42.575  30.210  36.247  1.00  0.00     0.031 C 
ATOM     65  C   UNL A   1      42.965  28.862  34.202  1.00  0.00     0.037 A 
BRANCH  52  66
ATOM     66  C   UNL A   1      40.836  27.809  28.494  1.00  0.00     0.064 A 
ATOM     67  C   UNL A   1      40.127  26.607  28.340  1.00  0.00     0.173 A 
ATOM     68  C   UNL A   1      41.626  28.245  27.420  1.00  0.00     0.173 A 
ATOM     69  F   UNL A   1      39.366  26.139  29.342  1.00  0.00    -0.203 F 
ATOM     70  C   UNL A   1      40.237  25.854  27.174  1.00  0.00     0.198 A 
ATOM     71  C   UNL A   1      41.710  27.504  26.245  1.00  0.00     0.198 A 
ATOM     72  F   UNL A   1      42.320  29.389  27.512  1.00  0.00    -0.203 F 
ATOM     73  F   UNL A   1      39.596  24.681  27.073  1.00  0.00    -0.200 F 
ATOM     74  C   UNL A   1      41.024  26.305  26.126  1.00  0.00     0.200 A 
ATOM     75  F   UNL A   1      42.464  27.947  25.228  1.00  0.00    -0.200 F 
ATOM     76  F   UNL A   1      41.130  25.579  25.005  1.00  0.00    -0.200 F 
ENDBRANCH  52  66
BRANCH  53  77
ATOM     77  C   UNL A   1      39.575  33.122  36.858  1.00  0.00     0.064 A 
ATOM     78  C   UNL A   1      40.295  34.295  37.126  1.00  0.00     0.173 A 
ATOM     79  C   UNL A   1      38.620  32.710  37.798  1.00  0.00     0.173 A 
ATOM     80  F   UNL A   1      41.231  34.716  36.263  1.00  0.00    -0.203 F 
ATOM     81  C   UNL A   1      40.072  35.024  38.292  1.00  0.00     0.198 A 
ATOM     82  C   UNL A   1      38.381  33.453  38.952  1.00  0.00     0.198 A 
ATOM     83  F   UNL A   1      37.900  31.600  37.581  1.00  0.00    -0.203 F 
ATOM     84  F   UNL A   1      40.792  36.126  38.537  1.00  0.00    -0.200 F 
ATOM     85  C   UNL A   1      39.111  34.607  39.200  1.00  0.00     0.200 A 
ATOM     86  F   UNL A   1      37.443  33.055  39.822  1.00  0.00    -0.200 F 
ATOM     87  F   UNL A   1      38.889  35.315  40.315  1.00  0.00    -0.200 F 
ENDBRANCH  53  77
BRANCH  65  88
ATOM     88  C   UNL A   1      44.123  28.215  34.902  1.00  0.00     0.064 A 
ATOM     89  C   UNL A   1      45.407  28.779  34.867  1.00  0.00     0.173 A 
ATOM     90  C   UNL A   1      43.935  27.044  35.650  1.00  0.00     0.173 A 
ATOM     91  F   UNL A   1      45.638  29.889  34.152  1.00  0.00    -0.203 F 
ATOM     92  C   UNL A   1      46.466  28.181  35.544  1.00  0.00     0.198 A 
ATOM     93  C   UNL A   1      44.991  26.462  36.345  1.00  0.00     0.198 A 
ATOM     94  F   UNL A   1      42.724  26.471  35.716  1.00  0.00    -0.203 F 
ATOM     95  F   UNL A   1      47.694  28.714  35.468  1.00  0.00    -0.200 F 
ATOM     96  C   UNL A   1      46.257  27.028  36.288  1.00  0.00     0.200 A 
ATOM     97  F   UNL A   1      44.785  25.355  37.071  1.00  0.00    -0.200 F 
ATOM     98  F   UNL A   1      47.276  26.458  36.944  1.00  0.00    -0.200 F 
ENDBRANCH  65  88
ENDBRANCH  39  40
ENDBRANCH  31  34
ENDBRANCH  29  30
ENDBRANCH  28  29
ENDBRANCH   1  28
TORSDOF 14
ENDMDL
MODEL 3
REMARK VINA RESULT:     -12.5      0.350      1.664
REMARK SMILES CC(C)(C)OC(=O)N1CCN(c2nc3ccccc3s2)[C@H](C(=O)NCCCNC(=O)c2ccc(-c3c4nc(c(-c5c(F)c(F)c(F)c(F)c5F)c5ccc([nH]5)c(-c5c(F)c(F)c(F)c(F)c5F)c5nc(c(-c6c(F)c(F)c(F)c(F)c6F)c6ccc3[nH]6)C=C5)C=C4)cc2)C1
REMARK SMILES IDX 25 1 24 2 22 3 23 4 21 6 8 7 9 8 94 9 10 10 11 11 6 12 7 13
REMARK SMILES IDX 5 14 2 15 1 16 3 17 4 18 12 19 13 20 20 21 14 22 19 23 15 24
REMARK SMILES IDX 18 25 16 26 17 27 26 28 27 29 28 30 29 31 30 33 31 34 32 35
REMARK SMILES IDX 93 36 33 37 92 38 34 39 35 40 36 41 86 42 37 43 91 44 85 45
REMARK SMILES IDX 87 46 38 47 90 48 84 49 83 50 39 52 71 53 51 54 70 55 52 56
REMARK SMILES IDX 55 57 69 58 88 59 53 60 54 61 68 63 89 64 56 65 40 66 41 67
REMARK SMILES IDX 49 68 42 69 43 70 47 71 50 72 44 73 45 74 48 75 46 76 72 77
REMARK SMILES IDX 73 78 81 79 74 80 75 81 79 82 82 83 76 84 77 85 80 86 78 87
REMARK SMILES IDX 57 88 58 89 66 90 59 91 60 92 64 93 67 94 61 95 62 96 65 97
REMARK SMILES IDX 63 98
REMARK H PARENT 24 5 28 32 87 51 55 62
REMARK Flexibility Score: inf
ROOT
ATOM      1  C   UNL A   1      31.783  30.562  26.939  1.00  0.00     0.117 C 
ENDROOT
BRANCH   1   2
ATOM      2  N   UNL A   1      32.831  30.149  26.023  1.00  0.00    -0.354 N 
ATOM      3  C   UNL A   1      33.088  29.014  25.322  1.00  0.00     0.244 C 
ATOM      4  O   UNL A   1      34.043  29.108  24.536  1.00  0.00    -0.273 OA
ATOM      5  H   UNL A   1      33.508  30.848  25.878  1.00  0.00     0.163 HD
BRANCH   3   6
ATOM      6  C   UNL A   1      32.335  27.665  25.451  1.00  0.00     0.193 C 
ATOM      7  N   UNL A   1      32.467  25.159  25.732  1.00  0.00    -0.304 N 
ATOM      8  C   UNL A   1      31.279  24.987  24.893  1.00  0.00     0.144 C 
ATOM      9  C   UNL A   1      33.211  26.413  25.561  1.00  0.00     0.158 C 
ATOM     10  C   UNL A   1      30.428  26.263  24.783  1.00  0.00     0.141 C 
ATOM     11  N   UNL A   1      31.283  27.411  24.419  1.00  0.00    -0.332 N 
BRANCH   7  12
ATOM     12  C   UNL A   1      33.067  24.036  26.275  1.00  0.00     0.410 C 
ATOM     13  O   UNL A   1      32.444  23.131  26.810  1.00  0.00    -0.224 OA
BRANCH  12  14
ATOM     14  O   UNL A   1      34.415  24.068  26.128  1.00  0.00    -0.444 OA
BRANCH  14  15
ATOM     15  C   UNL A   1      35.124  23.152  25.255  1.00  0.00     0.106 C 
ATOM     16  C   UNL A   1      36.603  23.535  25.417  1.00  0.00     0.056 C 
ATOM     17  C   UNL A   1      34.696  23.400  23.807  1.00  0.00     0.056 C 
ATOM     18  C   UNL A   1      34.962  21.679  25.651  1.00  0.00     0.056 C 
ENDBRANCH  14  15
ENDBRANCH  12  14
ENDBRANCH   7  12
BRANCH  11  19
ATOM     19  C   UNL A   1      30.655  28.448  23.802  1.00  0.00     0.187 A 
ATOM     20  N   UNL A   1      30.192  29.504  24.429  1.00  0.00    -0.220 NA
ATOM     21  S   UNL A   1      30.243  28.362  22.127  1.00  0.00    -0.097 S 
ATOM     22  C   UNL A   1      29.525  30.339  23.548  1.00  0.00     0.084 A 
ATOM     23  C   UNL A   1      29.427  29.869  22.239  1.00  0.00     0.056 A 
ATOM     24  C   UNL A   1      28.936  31.580  23.866  1.00  0.00     0.030 A 
ATOM     25  C   UNL A   1      28.743  30.582  21.241  1.00  0.00     0.021 A 
ATOM     26  C   UNL A   1      28.259  32.305  22.878  1.00  0.00     0.002 A 
ATOM     27  C   UNL A   1      28.161  31.806  21.583  1.00  0.00     0.002 A 
ENDBRANCH  11  19
ENDBRANCH   3   6
ENDBRANCH   1   2
BRANCH   1  28
ATOM     28  C   UNL A   1      31.496  32.057  26.877  1.00  0.00     0.042 C 
BRANCH  28  29
ATOM     29  C   UNL A   1      32.765  32.907  26.932  1.00  0.00     0.118 C 
BRANCH  29  30
ATOM     30  N   UNL A   1      32.520  34.206  27.553  1.00  0.00    -0.352 N 
ATOM     31  C   UNL A   1      33.042  34.760  28.694  1.00  0.00     0.251 C 
ATOM     32  H   UNL A   1      31.877  34.777  27.075  1.00  0.00     0.163 HD
ATOM     33  O   UNL A   1      32.528  35.768  29.170  1.00  0.00    -0.269 OA
BRANCH  31  34
ATOM     34  C   UNL A   1      34.219  34.157  29.351  1.00  0.00     0.039 A 
ATOM     35  C   UNL A   1      35.498  34.528  28.921  1.00  0.00     0.014 A 
ATOM     36  C   UNL A   1      34.066  33.185  30.342  1.00  0.00     0.014 A 
ATOM     37  C   UNL A   1      36.625  33.961  29.521  1.00  0.00     0.010 A 
ATOM     38  C   UNL A   1      35.187  32.668  30.982  1.00  0.00     0.010 A 
ATOM     39  C   UNL A   1      36.476  33.046  30.573  1.00  0.00    -0.014 A 
BRANCH  39  40
ATOM     40  C   UNL A   1      37.647  32.451  31.259  1.00  0.00     0.031 A 
ATOM     41  C   UNL A   1      38.376  31.299  30.632  1.00  0.00     0.074 A 
ATOM     42  C   UNL A   1      37.985  32.882  32.489  1.00  0.00     0.049 A 
ATOM     43  N   UNL A   1      39.321  30.544  31.130  1.00  0.00    -0.248 NA
ATOM     44  C   UNL A   1      37.958  30.922  29.272  1.00  0.00     0.031 C 
ATOM     45  C   UNL A   1      37.320  33.962  33.218  1.00  0.00     0.029 A 
ATOM     46  N   UNL A   1      38.957  32.444  33.351  1.00  0.00    -0.354 N 
ATOM     47  C   UNL A   1      39.586  29.584  30.162  1.00  0.00     0.074 A 
ATOM     48  C   UNL A   1      38.678  29.829  29.063  1.00  0.00     0.031 C 
ATOM     49  C   UNL A   1      37.907  34.106  34.417  1.00  0.00     0.029 A 
ATOM     50  C   UNL A   1      38.962  33.107  34.553  1.00  0.00     0.049 A 
ATOM     51  H   UNL A   1      39.591  31.723  33.130  1.00  0.00     0.167 HD
ATOM     52  C   UNL A   1      40.513  28.597  30.185  1.00  0.00     0.037 A 
ATOM     53  C   UNL A   1      39.724  32.919  35.646  1.00  0.00     0.037 A 
ATOM     54  C   UNL A   1      41.441  28.386  31.266  1.00  0.00     0.049 A 
ATOM     55  C   UNL A   1      40.771  31.842  35.635  1.00  0.00     0.074 A 
ATOM     56  C   UNL A   1      42.469  27.465  31.355  1.00  0.00     0.029 A 
ATOM     57  N   UNL A   1      41.451  29.114  32.447  1.00  0.00    -0.354 N 
ATOM     58  N   UNL A   1      41.052  30.974  34.694  1.00  0.00    -0.248 NA
ATOM     59  C   UNL A   1      41.611  31.721  36.834  1.00  0.00     0.031 C 
ATOM     60  C   UNL A   1      43.082  27.614  32.605  1.00  0.00     0.029 A 
ATOM     61  C   UNL A   1      42.460  28.655  33.277  1.00  0.00     0.049 A 
ATOM     62  H   UNL A   1      40.833  29.850  32.663  1.00  0.00     0.167 HD
ATOM     63  C   UNL A   1      42.112  30.219  35.175  1.00  0.00     0.074 A 
ATOM     64  C   UNL A   1      42.432  30.739  36.489  1.00  0.00     0.031 C 
ATOM     65  C   UNL A   1      42.763  29.189  34.581  1.00  0.00     0.037 A 
BRANCH  52  66
ATOM     66  C   UNL A   1      40.561  27.668  29.008  1.00  0.00     0.064 A 
ATOM     67  C   UNL A   1      39.738  26.534  28.928  1.00  0.00     0.173 A 
ATOM     68  C   UNL A   1      41.434  27.921  27.938  1.00  0.00     0.173 A 
ATOM     69  F   UNL A   1      38.895  26.240  29.929  1.00  0.00    -0.203 F 
ATOM     70  C   UNL A   1      39.815  25.668  27.840  1.00  0.00     0.198 A 
ATOM     71  C   UNL A   1      41.486  27.068  26.839  1.00  0.00     0.198 A 
ATOM     72  F   UNL A   1      42.239  28.993  27.961  1.00  0.00    -0.203 F 
ATOM     73  F   UNL A   1      39.060  24.560  27.814  1.00  0.00    -0.200 F 
ATOM     74  C   UNL A   1      40.684  25.938  26.795  1.00  0.00     0.200 A 
ATOM     75  F   UNL A   1      42.320  27.336  25.825  1.00  0.00    -0.200 F 
ATOM     76  F   UNL A   1      40.758  25.102  25.750  1.00  0.00    -0.200 F 
ENDBRANCH  52  66
BRANCH  53  77
ATOM     77  C   UNL A   1      39.535  33.797  36.828  1.00  0.00     0.064 A 
ATOM     78  C   UNL A   1      38.704  33.402  37.885  1.00  0.00     0.173 A 
ATOM     79  C   UNL A   1      40.202  35.024  36.942  1.00  0.00     0.173 A 
ATOM     80  F   UNL A   1      38.031  32.244  37.811  1.00  0.00    -0.203 F 
ATOM     81  C   UNL A   1      38.542  34.207  39.011  1.00  0.00     0.198 A 
ATOM     82  C   UNL A   1      40.057  35.818  38.078  1.00  0.00     0.198 A 
ATOM     83  F   UNL A   1      41.014  35.441  35.959  1.00  0.00    -0.203 F 
ATOM     84  F   UNL A   1      37.721  33.819  39.996  1.00  0.00    -0.200 F 
ATOM     85  C   UNL A   1      39.224  35.410  39.110  1.00  0.00     0.200 A 
ATOM     86  F   UNL A   1      40.728  36.973  38.177  1.00  0.00    -0.200 F 
ATOM     87  F   UNL A   1      39.078  36.177  40.198  1.00  0.00    -0.200 F 
ENDBRANCH  53  77
BRANCH  65  88
ATOM     88  C   UNL A   1      43.903  28.573  35.336  1.00  0.00     0.064 A 
ATOM     89  C   UNL A   1      43.708  27.483  36.195  1.00  0.00     0.173 A 
ATOM     90  C   UNL A   1      45.209  29.054  35.163  1.00  0.00     0.173 A 
ATOM     91  F   UNL A   1      42.475  26.999  36.404  1.00  0.00    -0.203 F 
ATOM     92  C   UNL A   1      44.781  26.906  36.868  1.00  0.00     0.198 A 
ATOM     93  C   UNL A   1      46.283  28.459  35.819  1.00  0.00     0.198 A 
ATOM     94  F   UNL A   1      45.445  30.093  34.348  1.00  0.00    -0.203 F 
ATOM     95  F   UNL A   1      44.569  25.887  37.714  1.00  0.00    -0.200 F 
ATOM     96  C   UNL A   1      46.067  27.389  36.675  1.00  0.00     0.200 A 
ATOM     97  F   UNL A   1      47.525  28.921  35.623  1.00  0.00    -0.200 F 
ATOM     98  F   UNL A   1      47.099  26.828  37.319  1.00  0.00    -0.200 F 
ENDBRANCH  65  88
ENDBRANCH  39  40
ENDBRANCH  31  34
ENDBRANCH  29  30
ENDBRANCH  28  29
ENDBRANCH   1  28
TORSDOF 14
ENDMDL
