MODEL 1
REMARK VINA RESULT:     -13.3      0.000      0.000
REMARK SMILES O=C(NCCCNC(=O)c1sccc1S(=O)(=O)N1CCO[C@@H]2CCCC[C@@H]21)c1ccc(-c2c3nc(c(-c4c(F)c(F)c(F)c(F)c4F)c4ccc([nH]4)c(-c4c(F)c(F)c(F)c(F)c4F)c4nc(c(-c5c(F)c(F)c(F)c(F)c5F)c5ccc2[nH]5)C=C4)C=C3)cc1
REMARK SMILES IDX 5 1 4 2 3 3 1 4 2 5 28 7 29 8 90 9 30 10 89 11 31 12 32 13
REMARK SMILES IDX 33 14 83 15 34 16 88 17 82 18 84 19 35 20 87 21 81 22 80 23
REMARK SMILES IDX 36 25 68 26 48 27 67 28 49 29 52 30 66 31 85 32 50 33 51 34
REMARK SMILES IDX 65 36 86 37 53 38 37 39 38 40 46 41 39 42 40 43 44 44 47 45
REMARK SMILES IDX 41 46 42 47 45 48 43 49 69 50 70 51 78 52 71 53 72 54 76 55
REMARK SMILES IDX 79 56 73 57 74 58 77 59 75 60 54 61 55 62 63 63 56 64 57 65
REMARK SMILES IDX 61 66 64 67 58 68 59 69 62 70 60 71 6 72 7 73 8 74 9 76
REMARK SMILES IDX 10 77 11 78 14 79 12 80 13 81 15 82 16 83 17 84 18 85 19 86
REMARK SMILES IDX 27 87 20 88 22 89 26 90 21 91 23 92 25 93 24 94
REMARK H PARENT 3 6 84 24 52 35 7 75
REMARK Flexibility Score: inf
ROOT
ATOM      1  C   UNL A   1      32.297  31.203  26.838  1.00  0.00     0.042 C 
ENDROOT
BRANCH   1   2
ATOM      2  C   UNL A   1      33.220  32.299  27.372  1.00  0.00     0.118 C 
BRANCH   2   3
ATOM      3  N   UNL A   1      32.586  33.581  27.632  1.00  0.00    -0.352 N 
ATOM      4  O   UNL A   1      32.483  35.653  28.570  1.00  0.00    -0.269 OA
ATOM      5  C   UNL A   1      33.057  34.576  28.464  1.00  0.00     0.251 C 
ATOM      6  H   UNL A   1      31.735  33.758  27.169  1.00  0.00     0.163 HD
BRANCH   5   7
ATOM      7  C   UNL A   1      34.268  34.308  29.271  1.00  0.00     0.039 A 
ATOM      8  C   UNL A   1      35.541  34.572  28.756  1.00  0.00     0.014 A 
ATOM      9  C   UNL A   1      34.118  33.711  30.524  1.00  0.00     0.014 A 
ATOM     10  C   UNL A   1      36.674  34.145  29.459  1.00  0.00     0.010 A 
ATOM     11  C   UNL A   1      35.251  33.304  31.232  1.00  0.00     0.010 A 
ATOM     12  C   UNL A   1      36.536  33.475  30.684  1.00  0.00    -0.014 A 
BRANCH  12  13
ATOM     13  C   UNL A   1      37.703  32.844  31.355  1.00  0.00     0.031 A 
ATOM     14  C   UNL A   1      38.387  31.675  30.701  1.00  0.00     0.074 A 
ATOM     15  C   UNL A   1      38.132  33.271  32.556  1.00  0.00     0.049 A 
ATOM     16  N   UNL A   1      39.331  30.893  31.164  1.00  0.00    -0.248 NA
ATOM     17  C   UNL A   1      37.938  31.333  29.342  1.00  0.00     0.031 C 
ATOM     18  C   UNL A   1      37.578  34.400  33.299  1.00  0.00     0.029 A 
ATOM     19  N   UNL A   1      39.122  32.780  33.373  1.00  0.00    -0.354 N 
ATOM     20  C   UNL A   1      39.568  29.954  30.169  1.00  0.00     0.074 A 
ATOM     21  C   UNL A   1      38.660  30.253  29.082  1.00  0.00     0.031 C 
ATOM     22  C   UNL A   1      38.221  34.502  34.475  1.00  0.00     0.029 A 
ATOM     23  C   UNL A   1      39.204  33.425  34.581  1.00  0.00     0.049 A 
ATOM     24  H   UNL A   1      39.715  32.038  33.116  1.00  0.00     0.167 HD
ATOM     25  C   UNL A   1      40.462  28.937  30.158  1.00  0.00     0.037 A 
ATOM     26  C   UNL A   1      39.961  33.160  35.665  1.00  0.00     0.037 A 
ATOM     27  C   UNL A   1      41.385  28.646  31.224  1.00  0.00     0.049 A 
ATOM     28  C   UNL A   1      40.925  32.004  35.648  1.00  0.00     0.074 A 
ATOM     29  C   UNL A   1      42.361  27.666  31.275  1.00  0.00     0.029 A 
ATOM     30  N   UNL A   1      41.440  29.329  32.429  1.00  0.00    -0.354 N 
ATOM     31  N   UNL A   1      41.162  31.139  34.693  1.00  0.00    -0.248 NA
ATOM     32  C   UNL A   1      41.726  31.786  36.863  1.00  0.00     0.031 C 
ATOM     33  C   UNL A   1      42.981  27.730  32.528  1.00  0.00     0.029 A 
ATOM     34  C   UNL A   1      42.419  28.776  33.240  1.00  0.00     0.049 A 
ATOM     35  H   UNL A   1      40.869  30.093  32.671  1.00  0.00     0.167 HD
ATOM     36  C   UNL A   1      42.152  30.293  35.179  1.00  0.00     0.074 A 
ATOM     37  C   UNL A   1      42.473  30.747  36.515  1.00  0.00     0.031 C 
ATOM     38  C   UNL A   1      42.741  29.239  34.565  1.00  0.00     0.037 A 
BRANCH  25  39
ATOM     39  C   UNL A   1      40.471  28.041  28.956  1.00  0.00     0.064 A 
ATOM     40  C   UNL A   1      41.241  28.334  27.822  1.00  0.00     0.173 A 
ATOM     41  C   UNL A   1      39.716  26.857  28.951  1.00  0.00     0.173 A 
ATOM     42  F   UNL A   1      41.969  29.462  27.774  1.00  0.00    -0.203 F 
ATOM     43  C   UNL A   1      41.234  27.491  26.715  1.00  0.00     0.198 A 
ATOM     44  C   UNL A   1      39.731  26.004  27.853  1.00  0.00     0.198 A 
ATOM     45  F   UNL A   1      38.967  26.529  30.015  1.00  0.00    -0.203 F 
ATOM     46  F   UNL A   1      41.939  27.815  25.623  1.00  0.00    -0.200 F 
ATOM     47  C   UNL A   1      40.482  26.324  26.733  1.00  0.00     0.200 A 
ATOM     48  F   UNL A   1      39.013  24.873  27.876  1.00  0.00    -0.200 F 
ATOM     49  F   UNL A   1      40.477  25.514  25.666  1.00  0.00    -0.200 F 
ENDBRANCH  25  39
BRANCH  26  50
ATOM     50  C   UNL A   1      39.817  34.009  36.873  1.00  0.00     0.064 A 
ATOM     51  C   UNL A   1      40.501  35.226  36.986  1.00  0.00     0.173 A 
ATOM     52  C   UNL A   1      38.975  33.628  37.928  1.00  0.00     0.173 A 
ATOM     53  F   UNL A   1      41.338  35.616  36.014  1.00  0.00    -0.203 F 
ATOM     54  C   UNL A   1      40.346  36.033  38.111  1.00  0.00     0.198 A 
ATOM     55  C   UNL A   1      38.804  34.446  39.042  1.00  0.00     0.198 A 
ATOM     56  F   UNL A   1      38.303  32.469  37.866  1.00  0.00    -0.203 F 
ATOM     57  F   UNL A   1      41.028  37.183  38.207  1.00  0.00    -0.200 F 
ATOM     58  C   UNL A   1      39.491  35.647  39.133  1.00  0.00     0.200 A 
ATOM     59  F   UNL A   1      37.971  34.074  40.023  1.00  0.00    -0.200 F 
ATOM     60  F   UNL A   1      39.333  36.431  40.208  1.00  0.00    -0.200 F 
ENDBRANCH  26  50
BRANCH  38  61
ATOM     61  C   UNL A   1      43.823  28.513  35.308  1.00  0.00     0.064 A 
ATOM     62  C   UNL A   1      43.539  27.422  36.139  1.00  0.00     0.173 A 
ATOM     63  C   UNL A   1      45.169  28.869  35.125  1.00  0.00     0.173 A 
ATOM     64  F   UNL A   1      42.268  27.050  36.355  1.00  0.00    -0.203 F 
ATOM     65  C   UNL A   1      44.562  26.716  36.768  1.00  0.00     0.198 A 
ATOM     66  C   UNL A   1      46.190  28.150  35.739  1.00  0.00     0.198 A 
ATOM     67  F   UNL A   1      45.491  29.903  34.334  1.00  0.00    -0.203 F 
ATOM     68  F   UNL A   1      44.269  25.690  37.578  1.00  0.00    -0.200 F 
ATOM     69  C   UNL A   1      45.887  27.076  36.561  1.00  0.00     0.200 A 
ATOM     70  F   UNL A   1      47.469  28.494  35.530  1.00  0.00    -0.200 F 
ATOM     71  F   UNL A   1      46.870  26.388  37.157  1.00  0.00    -0.200 F 
ENDBRANCH  38  61
ENDBRANCH  12  13
ENDBRANCH   5   7
ENDBRANCH   2   3
ENDBRANCH   1   2
BRANCH   1  72
ATOM     72  C   UNL A   1      32.942  29.861  26.538  1.00  0.00     0.118 C 
BRANCH  72  73
ATOM     73  N   UNL A   1      33.159  29.660  25.122  1.00  0.00    -0.351 N 
ATOM     74  C   UNL A   1      32.960  28.428  24.556  1.00  0.00     0.262 C 
ATOM     75  H   UNL A   1      33.450  30.414  24.561  1.00  0.00     0.163 HD
ATOM     76  O   UNL A   1      33.908  27.673  24.369  1.00  0.00    -0.268 OA
BRANCH  74  77
ATOM     77  C   UNL A   1      31.574  28.096  24.290  1.00  0.00     0.112 A 
ATOM     78  S   UNL A   1      30.821  29.034  23.054  1.00  0.00    -0.137 S 
ATOM     79  C   UNL A   1      30.729  27.093  24.757  1.00  0.00     0.106 A 
ATOM     80  C   UNL A   1      29.487  27.984  22.968  1.00  0.00     0.067 A 
ATOM     81  C   UNL A   1      29.539  27.016  23.947  1.00  0.00     0.034 A 
BRANCH  79  82
ATOM     82  S   UNL A   1      31.070  25.902  26.012  1.00  0.00     0.245 S 
ATOM     83  O   UNL A   1      31.766  26.659  27.010  1.00  0.00    -0.207 OA
ATOM     84  O   UNL A   1      29.763  25.335  26.273  1.00  0.00    -0.207 OA
BRANCH  82  85
ATOM     85  N   UNL A   1      32.082  24.645  25.464  1.00  0.00    -0.190 NA
ATOM     86  C   UNL A   1      33.481  24.616  25.985  1.00  0.00     0.131 C 
ATOM     87  C   UNL A   1      31.491  23.305  25.069  1.00  0.00     0.102 C 
ATOM     88  C   UNL A   1      33.742  23.364  26.817  1.00  0.00     0.177 C 
ATOM     89  C   UNL A   1      32.155  22.053  25.713  1.00  0.00     0.136 C 
ATOM     90  C   UNL A   1      31.392  23.194  23.541  1.00  0.00     0.023 C 
ATOM     91  O   UNL A   1      33.547  22.215  25.997  1.00  0.00    -0.375 OA
ATOM     92  C   UNL A   1      32.013  20.817  24.819  1.00  0.00     0.034 C 
ATOM     93  C   UNL A   1      32.512  22.411  22.885  1.00  0.00     0.002 C 
ATOM     94  C   UNL A   1      32.665  21.004  23.448  1.00  0.00     0.003 C 
ENDBRANCH  82  85
ENDBRANCH  79  82
ENDBRANCH  74  77
ENDBRANCH  72  73
ENDBRANCH   1  72
TORSDOF 12
ENDMDL
MODEL 2
REMARK VINA RESULT:     -13.2      0.731      1.990
REMARK SMILES O=C(NCCCNC(=O)c1sccc1S(=O)(=O)N1CCO[C@@H]2CCCC[C@@H]21)c1ccc(-c2c3nc(c(-c4c(F)c(F)c(F)c(F)c4F)c4ccc([nH]4)c(-c4c(F)c(F)c(F)c(F)c4F)c4nc(c(-c5c(F)c(F)c(F)c(F)c5F)c5ccc2[nH]5)C=C4)C=C3)cc1
REMARK SMILES IDX 5 1 4 2 3 3 1 4 2 5 28 7 29 8 90 9 30 10 89 11 31 12 32 13
REMARK SMILES IDX 33 14 83 15 34 16 88 17 82 18 84 19 35 20 87 21 81 22 80 23
REMARK SMILES IDX 36 25 68 26 48 27 67 28 49 29 52 30 66 31 85 32 50 33 51 34
REMARK SMILES IDX 65 36 86 37 53 38 37 39 38 40 46 41 39 42 40 43 44 44 47 45
REMARK SMILES IDX 41 46 42 47 45 48 43 49 69 50 70 51 78 52 71 53 72 54 76 55
REMARK SMILES IDX 79 56 73 57 74 58 77 59 75 60 54 61 55 62 63 63 56 64 57 65
REMARK SMILES IDX 61 66 64 67 58 68 59 69 62 70 60 71 6 72 7 73 8 74 9 76
REMARK SMILES IDX 10 77 11 78 14 79 12 80 13 81 15 82 16 83 17 84 18 85 19 86
REMARK SMILES IDX 27 87 20 88 22 89 26 90 21 91 23 92 25 93 24 94
REMARK H PARENT 3 6 84 24 52 35 7 75
REMARK Flexibility Score: inf
ROOT
ATOM      1  C   UNL A   1      32.255  31.249  26.871  1.00  0.00     0.042 C 
ENDROOT
BRANCH   1   2
ATOM      2  C   UNL A   1      33.191  32.322  27.425  1.00  0.00     0.118 C 
BRANCH   2   3
ATOM      3  N   UNL A   1      32.584  33.622  27.665  1.00  0.00    -0.352 N 
ATOM      4  O   UNL A   1      32.528  35.712  28.563  1.00  0.00    -0.269 OA
ATOM      5  C   UNL A   1      33.079  34.623  28.475  1.00  0.00     0.251 C 
ATOM      6  H   UNL A   1      31.734  33.807  27.203  1.00  0.00     0.163 HD
BRANCH   5   7
ATOM      7  C   UNL A   1      34.290  34.346  29.279  1.00  0.00     0.039 A 
ATOM      8  C   UNL A   1      35.565  34.581  28.754  1.00  0.00     0.014 A 
ATOM      9  C   UNL A   1      34.137  33.771  30.542  1.00  0.00     0.014 A 
ATOM     10  C   UNL A   1      36.694  34.146  29.457  1.00  0.00     0.010 A 
ATOM     11  C   UNL A   1      35.267  33.356  31.250  1.00  0.00     0.010 A 
ATOM     12  C   UNL A   1      36.551  33.497  30.693  1.00  0.00    -0.014 A 
BRANCH  12  13
ATOM     13  C   UNL A   1      37.712  32.856  31.368  1.00  0.00     0.031 A 
ATOM     14  C   UNL A   1      38.380  31.673  30.721  1.00  0.00     0.074 A 
ATOM     15  C   UNL A   1      38.146  33.287  32.566  1.00  0.00     0.049 A 
ATOM     16  N   UNL A   1      39.314  30.884  31.190  1.00  0.00    -0.248 NA
ATOM     17  C   UNL A   1      37.925  31.328  29.366  1.00  0.00     0.031 C 
ATOM     18  C   UNL A   1      37.607  34.427  33.300  1.00  0.00     0.029 A 
ATOM     19  N   UNL A   1      39.131  32.790  33.385  1.00  0.00    -0.354 N 
ATOM     20  C   UNL A   1      39.539  29.934  30.201  1.00  0.00     0.074 A 
ATOM     21  C   UNL A   1      38.633  30.237  29.113  1.00  0.00     0.031 C 
ATOM     22  C   UNL A   1      38.253  34.531  34.475  1.00  0.00     0.029 A 
ATOM     23  C   UNL A   1      39.223  33.442  34.588  1.00  0.00     0.049 A 
ATOM     24  H   UNL A   1      39.715  32.038  33.133  1.00  0.00     0.167 HD
ATOM     25  C   UNL A   1      40.420  28.906  30.197  1.00  0.00     0.037 A 
ATOM     26  C   UNL A   1      39.977  33.175  35.673  1.00  0.00     0.037 A 
ATOM     27  C   UNL A   1      41.340  28.612  31.264  1.00  0.00     0.049 A 
ATOM     28  C   UNL A   1      40.927  32.008  35.664  1.00  0.00     0.074 A 
ATOM     29  C   UNL A   1      42.305  27.620  31.322  1.00  0.00     0.029 A 
ATOM     30  N   UNL A   1      41.406  29.303  32.464  1.00  0.00    -0.354 N 
ATOM     31  N   UNL A   1      41.152  31.133  34.715  1.00  0.00    -0.248 NA
ATOM     32  C   UNL A   1      41.726  31.789  36.880  1.00  0.00     0.031 C 
ATOM     33  C   UNL A   1      42.926  27.686  32.574  1.00  0.00     0.029 A 
ATOM     34  C   UNL A   1      42.378  28.744  33.278  1.00  0.00     0.049 A 
ATOM     35  H   UNL A   1      40.844  30.075  32.702  1.00  0.00     0.167 HD
ATOM     36  C   UNL A   1      42.132  30.278  35.207  1.00  0.00     0.074 A 
ATOM     37  C   UNL A   1      42.459  30.738  36.539  1.00  0.00     0.031 C 
ATOM     38  C   UNL A   1      42.707  29.212  34.599  1.00  0.00     0.037 A 
BRANCH  25  39
ATOM     39  C   UNL A   1      40.417  28.001  29.002  1.00  0.00     0.064 A 
ATOM     40  C   UNL A   1      39.644  26.833  28.962  1.00  0.00     0.173 A 
ATOM     41  C   UNL A   1      41.180  28.325  27.868  1.00  0.00     0.173 A 
ATOM     42  F   UNL A   1      38.908  26.475  30.027  1.00  0.00    -0.203 F 
ATOM     43  C   UNL A   1      39.656  26.005  27.844  1.00  0.00     0.198 A 
ATOM     44  C   UNL A   1      41.170  27.508  26.743  1.00  0.00     0.198 A 
ATOM     45  F   UNL A   1      41.932  29.436  27.855  1.00  0.00    -0.203 F 
ATOM     46  F   UNL A   1      38.947  24.868  27.846  1.00  0.00    -0.200 F 
ATOM     47  C   UNL A   1      40.416  26.345  26.733  1.00  0.00     0.200 A 
ATOM     48  F   UNL A   1      41.897  27.843  25.668  1.00  0.00    -0.200 F 
ATOM     49  F   UNL A   1      40.426  25.547  25.658  1.00  0.00    -0.200 F 
ENDBRANCH  25  39
BRANCH  26  50
ATOM     50  C   UNL A   1      39.845  34.035  36.875  1.00  0.00     0.064 A 
ATOM     51  C   UNL A   1      40.554  35.238  36.985  1.00  0.00     0.173 A 
ATOM     52  C   UNL A   1      38.989  33.680  37.928  1.00  0.00     0.173 A 
ATOM     53  F   UNL A   1      41.405  35.603  36.015  1.00  0.00    -0.203 F 
ATOM     54  C   UNL A   1      40.411  36.056  38.103  1.00  0.00     0.198 A 
ATOM     55  C   UNL A   1      38.829  34.509  39.035  1.00  0.00     0.198 A 
ATOM     56  F   UNL A   1      38.292  32.535  37.869  1.00  0.00    -0.203 F 
ATOM     57  F   UNL A   1      41.118  37.191  38.196  1.00  0.00    -0.200 F 
ATOM     58  C   UNL A   1      39.542  35.695  39.122  1.00  0.00     0.200 A 
ATOM     59  F   UNL A   1      37.983  34.161  40.014  1.00  0.00    -0.200 F 
ATOM     60  F   UNL A   1      39.395  36.489  40.192  1.00  0.00    -0.200 F 
ENDBRANCH  26  50
BRANCH  38  61
ATOM     61  C   UNL A   1      43.781  28.479  35.347  1.00  0.00     0.064 A 
ATOM     62  C   UNL A   1      45.134  28.817  35.209  1.00  0.00     0.173 A 
ATOM     63  C   UNL A   1      43.444  27.476  36.269  1.00  0.00     0.173 A 
ATOM     64  F   UNL A   1      45.508  29.761  34.332  1.00  0.00    -0.203 F 
ATOM     65  C   UNL A   1      46.113  28.172  35.962  1.00  0.00     0.198 A 
ATOM     66  C   UNL A   1      44.422  26.847  37.034  1.00  0.00     0.198 A 
ATOM     67  F   UNL A   1      42.162  27.121  36.441  1.00  0.00    -0.203 F 
ATOM     68  F   UNL A   1      47.403  28.494  35.798  1.00  0.00    -0.200 F 
ATOM     69  C   UNL A   1      45.755  27.194  36.879  1.00  0.00     0.200 A 
ATOM     70  F   UNL A   1      44.073  25.910  37.927  1.00  0.00    -0.200 F 
ATOM     71  F   UNL A   1      46.697  26.584  37.612  1.00  0.00    -0.200 F 
ENDBRANCH  38  61
ENDBRANCH  12  13
ENDBRANCH   5   7
ENDBRANCH   2   3
ENDBRANCH   1   2
BRANCH   1  72
ATOM     72  C   UNL A   1      32.890  29.918  26.507  1.00  0.00     0.118 C 
BRANCH  72  73
ATOM     73  N   UNL A   1      33.064  29.766  25.079  1.00  0.00    -0.351 N 
ATOM     74  C   UNL A   1      32.919  28.537  24.488  1.00  0.00     0.262 C 
ATOM     75  H   UNL A   1      33.286  30.550  24.527  1.00  0.00     0.163 HD
ATOM     76  O   UNL A   1      33.904  27.848  24.246  1.00  0.00    -0.268 OA
BRANCH  74  77
ATOM     77  C   UNL A   1      31.547  28.126  24.265  1.00  0.00     0.112 A 
ATOM     78  S   UNL A   1      30.694  29.039  23.075  1.00  0.00    -0.137 S 
ATOM     79  C   UNL A   1      30.782  27.065  24.741  1.00  0.00     0.106 A 
ATOM     80  C   UNL A   1      29.423  27.910  23.016  1.00  0.00     0.067 A 
ATOM     81  C   UNL A   1      29.570  26.930  23.973  1.00  0.00     0.034 A 
BRANCH  79  82
ATOM     82  S   UNL A   1      31.240  25.875  25.959  1.00  0.00     0.245 S 
ATOM     83  O   UNL A   1      31.886  26.662  26.968  1.00  0.00    -0.207 OA
ATOM     84  O   UNL A   1      29.989  25.194  26.222  1.00  0.00    -0.207 OA
BRANCH  82  85
ATOM     85  N   UNL A   1      32.345  24.722  25.364  1.00  0.00    -0.190 NA
ATOM     86  C   UNL A   1      32.249  24.365  23.917  1.00  0.00     0.131 C 
ATOM     87  C   UNL A   1      33.718  24.581  25.995  1.00  0.00     0.102 C 
ATOM     88  C   UNL A   1      33.510  24.766  23.158  1.00  0.00     0.177 C 
ATOM     89  C   UNL A   1      34.924  24.603  25.010  1.00  0.00     0.136 C 
ATOM     90  C   UNL A   1      33.751  23.369  26.936  1.00  0.00     0.023 C 
ATOM     91  O   UNL A   1      34.625  24.076  23.715  1.00  0.00    -0.375 OA
ATOM     92  C   UNL A   1      36.115  23.812  25.562  1.00  0.00     0.034 C 
ATOM     93  C   UNL A   1      34.368  22.118  26.341  1.00  0.00     0.002 C 
ATOM     94  C   UNL A   1      35.779  22.341  25.814  1.00  0.00     0.003 C 
ENDBRANCH  82  85
ENDBRANCH  79  82
ENDBRANCH  74  77
ENDBRANCH  72  73
ENDBRANCH   1  72
TORSDOF 12
ENDMDL
MODEL 3
REMARK VINA RESULT:     -13.2      0.784      7.315
REMARK SMILES O=C(NCCCNC(=O)c1sccc1S(=O)(=O)N1CCO[C@@H]2CCCC[C@@H]21)c1ccc(-c2c3nc(c(-c4c(F)c(F)c(F)c(F)c4F)c4ccc([nH]4)c(-c4c(F)c(F)c(F)c(F)c4F)c4nc(c(-c5c(F)c(F)c(F)c(F)c5F)c5ccc2[nH]5)C=C4)C=C3)cc1
REMARK SMILES IDX 5 1 4 2 3 3 1 4 2 5 28 7 29 8 90 9 30 10 89 11 31 12 32 13
REMARK SMILES IDX 33 14 83 15 34 16 88 17 82 18 84 19 35 20 87 21 81 22 80 23
REMARK SMILES IDX 36 25 68 26 48 27 67 28 49 29 52 30 66 31 85 32 50 33 51 34
REMARK SMILES IDX 65 36 86 37 53 38 37 39 38 40 46 41 39 42 40 43 44 44 47 45
REMARK SMILES IDX 41 46 42 47 45 48 43 49 69 50 70 51 78 52 71 53 72 54 76 55
REMARK SMILES IDX 79 56 73 57 74 58 77 59 75 60 54 61 55 62 63 63 56 64 57 65
REMARK SMILES IDX 61 66 64 67 58 68 59 69 62 70 60 71 6 72 7 73 8 74 9 76
REMARK SMILES IDX 10 77 11 78 14 79 12 80 13 81 15 82 16 83 17 84 18 85 19 86
REMARK SMILES IDX 27 87 20 88 22 89 26 90 21 91 23 92 25 93 24 94
REMARK H PARENT 3 6 84 24 52 35 7 75
REMARK Flexibility Score: inf
ROOT
ATOM      1  C   UNL A   1      31.692  31.898  26.845  1.00  0.00     0.042 C 
ENDROOT
BRANCH   1   2
ATOM      2  C   UNL A   1      32.797  32.872  27.251  1.00  0.00     0.118 C 
BRANCH   2   3
ATOM      3  N   UNL A   1      32.350  34.203  27.634  1.00  0.00    -0.352 N 
ATOM      4  O   UNL A   1      32.544  36.176  28.751  1.00  0.00    -0.269 OA
ATOM      5  C   UNL A   1      32.960  35.043  28.542  1.00  0.00     0.251 C 
ATOM      6  H   UNL A   1      31.531  34.537  27.202  1.00  0.00     0.163 HD
BRANCH   5   7
ATOM      7  C   UNL A   1      34.124  34.538  29.301  1.00  0.00     0.039 A 
ATOM      8  C   UNL A   1      35.410  34.583  28.751  1.00  0.00     0.014 A 
ATOM      9  C   UNL A   1      33.904  33.941  30.544  1.00  0.00     0.014 A 
ATOM     10  C   UNL A   1      36.466  33.939  29.405  1.00  0.00     0.010 A 
ATOM     11  C   UNL A   1      34.965  33.316  31.204  1.00  0.00     0.010 A 
ATOM     12  C   UNL A   1      36.243  33.269  30.619  1.00  0.00    -0.014 A 
BRANCH  12  13
ATOM     13  C   UNL A   1      37.296  32.418  31.236  1.00  0.00     0.031 A 
ATOM     14  C   UNL A   1      37.794  32.747  32.617  1.00  0.00     0.074 A 
ATOM     15  C   UNL A   1      37.840  31.388  30.565  1.00  0.00     0.049 A 
ATOM     16  N   UNL A   1      38.791  32.227  33.289  1.00  0.00    -0.248 NA
ATOM     17  C   UNL A   1      37.079  33.814  33.332  1.00  0.00     0.031 C 
ATOM     18  C   UNL A   1      37.446  30.945  29.231  1.00  0.00     0.029 A 
ATOM     19  N   UNL A   1      38.867  30.543  30.914  1.00  0.00    -0.354 N 
ATOM     20  C   UNL A   1      38.839  32.921  34.492  1.00  0.00     0.074 A 
ATOM     21  C   UNL A   1      37.781  33.909  34.451  1.00  0.00     0.031 C 
ATOM     22  C   UNL A   1      38.238  29.922  28.862  1.00  0.00     0.029 A 
ATOM     23  C   UNL A   1      39.216  29.665  29.919  1.00  0.00     0.049 A 
ATOM     24  H   UNL A   1      39.309  30.565  31.793  1.00  0.00     0.167 HD
ATOM     25  C   UNL A   1      39.683  32.749  35.537  1.00  0.00     0.037 A 
ATOM     26  C   UNL A   1      40.228  28.778  29.850  1.00  0.00     0.037 A 
ATOM     27  C   UNL A   1      40.722  31.755  35.596  1.00  0.00     0.049 A 
ATOM     28  C   UNL A   1      41.178  28.625  31.007  1.00  0.00     0.074 A 
ATOM     29  C   UNL A   1      41.591  31.477  36.637  1.00  0.00     0.029 A 
ATOM     30  N   UNL A   1      41.037  30.880  34.568  1.00  0.00    -0.354 N 
ATOM     31  N   UNL A   1      41.199  29.265  32.150  1.00  0.00    -0.248 NA
ATOM     32  C   UNL A   1      42.249  27.626  30.863  1.00  0.00     0.031 C 
ATOM     33  C   UNL A   1      42.459  30.461  36.224  1.00  0.00     0.029 A 
ATOM     34  C   UNL A   1      42.104  30.078  34.942  1.00  0.00     0.049 A 
ATOM     35  H   UNL A   1      40.573  30.836  33.702  1.00  0.00     0.167 HD
ATOM     36  C   UNL A   1      42.263  28.733  32.869  1.00  0.00     0.074 A 
ATOM     37  C   UNL A   1      42.866  27.717  32.034  1.00  0.00     0.031 C 
ATOM     38  C   UNL A   1      42.693  29.060  34.111  1.00  0.00     0.037 A 
BRANCH  25  39
ATOM     39  C   UNL A   1      39.533  33.680  36.703  1.00  0.00     0.064 A 
ATOM     40  C   UNL A   1      40.163  34.931  36.734  1.00  0.00     0.173 A 
ATOM     41  C   UNL A   1      38.724  33.323  37.793  1.00  0.00     0.173 A 
ATOM     42  F   UNL A   1      40.958  35.312  35.721  1.00  0.00    -0.203 F 
ATOM     43  C   UNL A   1      40.013  35.780  37.827  1.00  0.00     0.198 A 
ATOM     44  C   UNL A   1      38.556  34.184  38.871  1.00  0.00     0.198 A 
ATOM     45  F   UNL A   1      38.094  32.138  37.808  1.00  0.00    -0.203 F 
ATOM     46  F   UNL A   1      40.664  36.952  37.857  1.00  0.00    -0.200 F 
ATOM     47  C   UNL A   1      39.207  35.409  38.893  1.00  0.00     0.200 A 
ATOM     48  F   UNL A   1      37.769  33.828  39.896  1.00  0.00    -0.200 F 
ATOM     49  F   UNL A   1      39.064  36.227  39.943  1.00  0.00    -0.200 F 
ENDBRANCH  25  39
BRANCH  26  50
ATOM     50  C   UNL A   1      40.400  27.971  28.617  1.00  0.00     0.064 A 
ATOM     51  C   UNL A   1      41.165  28.444  27.544  1.00  0.00     0.173 A 
ATOM     52  C   UNL A   1      39.818  26.699  28.498  1.00  0.00     0.173 A 
ATOM     53  F   UNL A   1      41.716  29.665  27.603  1.00  0.00    -0.203 F 
ATOM     54  C   UNL A   1      41.345  27.674  26.397  1.00  0.00     0.198 A 
ATOM     55  C   UNL A   1      40.016  25.922  27.360  1.00  0.00     0.198 A 
ATOM     56  F   UNL A   1      39.072  26.206  29.499  1.00  0.00    -0.203 F 
ATOM     57  F   UNL A   1      42.062  28.158  25.374  1.00  0.00    -0.200 F 
ATOM     58  C   UNL A   1      40.778  26.412  26.310  1.00  0.00     0.200 A 
ATOM     59  F   UNL A   1      39.475  24.699  27.283  1.00  0.00    -0.200 F 
ATOM     60  F   UNL A   1      40.962  25.667  25.211  1.00  0.00    -0.200 F 
ENDBRANCH  26  50
BRANCH  38  61
ATOM     61  C   UNL A   1      43.853  28.292  34.673  1.00  0.00     0.064 A 
ATOM     62  C   UNL A   1      45.167  28.764  34.566  1.00  0.00     0.173 A 
ATOM     63  C   UNL A   1      43.635  27.107  35.393  1.00  0.00     0.173 A 
ATOM     64  F   UNL A   1      45.428  29.886  33.878  1.00  0.00    -0.203 F 
ATOM     65  C   UNL A   1      46.226  28.074  35.153  1.00  0.00     0.198 A 
ATOM     66  C   UNL A   1      44.692  26.430  35.995  1.00  0.00     0.198 A 
ATOM     67  F   UNL A   1      42.393  26.618  35.528  1.00  0.00    -0.203 F 
ATOM     68  F   UNL A   1      47.478  28.529  35.018  1.00  0.00    -0.200 F 
ATOM     69  C   UNL A   1      45.986  26.912  35.873  1.00  0.00     0.200 A 
ATOM     70  F   UNL A   1      44.456  25.313  36.698  1.00  0.00    -0.200 F 
ATOM     71  F   UNL A   1      47.003  26.256  36.447  1.00  0.00    -0.200 F 
ENDBRANCH  38  61
ENDBRANCH  12  13
ENDBRANCH   5   7
ENDBRANCH   2   3
ENDBRANCH   1   2
BRANCH   1  72
ATOM     72  C   UNL A   1      32.081  30.432  26.751  1.00  0.00     0.118 C 
BRANCH  72  73
ATOM     73  N   UNL A   1      32.781  30.128  25.522  1.00  0.00    -0.351 N 
ATOM     74  C   UNL A   1      32.947  28.828  25.121  1.00  0.00     0.262 C 
ATOM     75  H   UNL A   1      33.138  30.860  24.969  1.00  0.00     0.163 HD
ATOM     76  O   UNL A   1      33.996  28.238  25.358  1.00  0.00    -0.268 OA
BRANCH  74  77
ATOM     77  C   UNL A   1      31.786  28.230  24.491  1.00  0.00     0.112 A 
ATOM     78  S   UNL A   1      31.343  28.916  22.972  1.00  0.00    -0.137 S 
ATOM     79  C   UNL A   1      30.994  27.131  24.807  1.00  0.00     0.106 A 
ATOM     80  C   UNL A   1      30.278  27.638  22.624  1.00  0.00     0.067 A 
ATOM     81  C   UNL A   1      30.153  26.775  23.691  1.00  0.00     0.034 A 
BRANCH  79  82
ATOM     82  S   UNL A   1      31.082  26.125  26.252  1.00  0.00     0.245 S 
ATOM     83  O   UNL A   1      31.589  27.018  27.251  1.00  0.00    -0.207 OA
ATOM     84  O   UNL A   1      29.743  25.579  26.340  1.00  0.00    -0.207 OA
BRANCH  82  85
ATOM     85  N   UNL A   1      32.165  24.820  26.075  1.00  0.00    -0.190 NA
ATOM     86  C   UNL A   1      31.846  23.561  26.812  1.00  0.00     0.131 C 
ATOM     87  C   UNL A   1      32.964  24.658  24.796  1.00  0.00     0.102 C 
ATOM     88  C   UNL A   1      31.573  22.405  25.853  1.00  0.00     0.177 C 
ATOM     89  C   UNL A   1      32.908  23.250  24.133  1.00  0.00     0.136 C 
ATOM     90  C   UNL A   1      34.403  25.152  24.999  1.00  0.00     0.023 C 
ATOM     91  O   UNL A   1      32.736  22.177  25.062  1.00  0.00    -0.375 OA
ATOM     92  C   UNL A   1      34.178  22.957  23.326  1.00  0.00     0.034 C 
ATOM     93  C   UNL A   1      35.420  24.061  25.267  1.00  0.00     0.002 C 
ATOM     94  C   UNL A   1      35.442  22.987  24.187  1.00  0.00     0.003 C 
ENDBRANCH  82  85
ENDBRANCH  79  82
ENDBRANCH  74  77
ENDBRANCH  72  73
ENDBRANCH   1  72
TORSDOF 12
ENDMDL
