MODEL 1
REMARK VINA RESULT:     -13.4      0.000      0.000
REMARK SMILES C=C(C)COc1ccc2nc(C)n(-c3cccc(C(=O)NCCCNC(=O)c4ccc(-c5c6nc(c(-c7c(F)c(F)c(F)c(F)c7F)c7ccc([nH]7)c(-c7c(F)c(F)c(F)c(F)c7F)c7nc(c(-c8c(F)c(F)c(F)c(F)c8F)c8ccc5[nH]8)C=C7)C=C6)cc4)c3)c(=O)c2c1
REMARK SMILES IDX 22 1 21 2 19 3 20 4 18 6 14 7 15 8 91 9 16 10 17 11 13 12
REMARK SMILES IDX 6 13 7 14 95 15 8 16 94 17 9 18 92 19 10 20 93 21 11 22
REMARK SMILES IDX 12 23 5 24 4 25 2 26 1 27 3 28 23 29 24 30 25 31 26 32 27 34
REMARK SMILES IDX 28 35 29 36 90 37 30 38 89 39 31 40 32 41 33 42 83 43 34 44
REMARK SMILES IDX 88 45 82 46 84 47 35 48 87 49 81 50 80 51 36 53 68 54 48 55
REMARK SMILES IDX 67 56 49 57 52 58 66 59 85 60 50 61 51 62 65 64 86 65 53 66
REMARK SMILES IDX 37 67 38 68 46 69 39 70 40 71 44 72 47 73 41 74 42 75 45 76
REMARK SMILES IDX 43 77 69 78 70 79 78 80 71 81 72 82 76 83 79 84 73 85 74 86
REMARK SMILES IDX 77 87 75 88 54 89 55 90 63 91 56 92 57 93 61 94 64 95 58 96
REMARK SMILES IDX 59 97 62 98 60 99
REMARK H PARENT 21 5 25 33 84 52 52 63
REMARK Flexibility Score: inf
ROOT
ATOM      1  C   UNL A   1      36.645  20.737  24.925  1.00  0.00     0.118 C 
ENDROOT
BRANCH   1   2
ATOM      2  N   UNL A   1      35.394  20.163  25.415  1.00  0.00    -0.352 N 
ATOM      3  C   UNL A   1      34.061  20.446  25.217  1.00  0.00     0.251 C 
ATOM      4  O   UNL A   1      33.240  19.746  25.810  1.00  0.00    -0.269 OA
ATOM      5  H   UNL A   1      35.536  19.402  26.023  1.00  0.00     0.163 HD
BRANCH   3   6
ATOM      6  C   UNL A   1      33.571  21.591  24.402  1.00  0.00     0.041 A 
ATOM      7  C   UNL A   1      32.813  23.888  24.241  1.00  0.00     0.051 A 
ATOM      8  C   UNL A   1      32.270  23.618  22.981  1.00  0.00     0.027 A 
ATOM      9  C   UNL A   1      33.605  22.907  24.848  1.00  0.00     0.040 A 
ATOM     10  C   UNL A   1      32.394  22.347  22.419  1.00  0.00     0.003 A 
ATOM     11  C   UNL A   1      32.994  21.322  23.153  1.00  0.00     0.014 A 
BRANCH   7  12
ATOM     12  N   UNL A   1      32.424  25.034  25.018  1.00  0.00    -0.264 N 
ATOM     13  C   UNL A   1      33.231  29.506  26.753  1.00  0.00     0.120 A 
ATOM     14  C   UNL A   1      32.121  29.341  27.582  1.00  0.00     0.049 A 
ATOM     15  C   UNL A   1      33.588  28.504  25.854  1.00  0.00     0.062 A 
ATOM     16  C   UNL A   1      31.409  28.145  27.561  1.00  0.00     0.033 A 
ATOM     17  C   UNL A   1      32.853  27.311  25.831  1.00  0.00     0.070 A 
ATOM     18  C   UNL A   1      31.777  27.121  26.688  1.00  0.00     0.078 A 
ATOM     19  C   UNL A   1      33.198  26.204  24.917  1.00  0.00     0.266 A 
ATOM     20  N   UNL A   1      31.074  25.923  26.752  1.00  0.00    -0.234 NA
ATOM     21  O   UNL A   1      34.139  26.376  24.143  1.00  0.00    -0.268 OA
ATOM     22  C   UNL A   1      31.422  24.944  25.979  1.00  0.00     0.113 A 
ATOM     23  C   UNL A   1      30.701  23.637  26.257  1.00  0.00     0.088 C 
BRANCH  13  24
ATOM     24  O   UNL A   1      33.935  30.680  26.745  1.00  0.00    -0.489 OA
BRANCH  24  25
ATOM     25  C   UNL A   1      34.006  31.284  28.050  1.00  0.00     0.260 C 
BRANCH  25  26
ATOM     26  C   UNL A   1      34.402  32.746  27.992  1.00  0.00    -0.043 C 
ATOM     27  C   UNL A   1      35.683  33.149  27.952  1.00  0.00     0.011 C 
ATOM     28  C   UNL A   1      33.266  33.726  27.934  1.00  0.00     0.042 C 
ENDBRANCH  25  26
ENDBRANCH  24  25
ENDBRANCH  13  24
ENDBRANCH   7  12
ENDBRANCH   3   6
ENDBRANCH   1   2
BRANCH   1  29
ATOM     29  C   UNL A   1      37.807  19.759  24.884  1.00  0.00     0.042 C 
BRANCH  29  30
ATOM     30  C   UNL A   1      38.991  20.145  25.753  1.00  0.00     0.118 C 
BRANCH  30  31
ATOM     31  N   UNL A   1      40.023  19.117  25.815  1.00  0.00    -0.352 N 
ATOM     32  C   UNL A   1      41.382  19.184  26.030  1.00  0.00     0.251 C 
ATOM     33  H   UNL A   1      39.685  18.202  25.678  1.00  0.00     0.163 HD
ATOM     34  O   UNL A   1      42.062  18.175  25.884  1.00  0.00    -0.269 OA
BRANCH  32  35
ATOM     35  C   UNL A   1      42.045  20.462  26.385  1.00  0.00     0.039 A 
ATOM     36  C   UNL A   1      42.186  20.866  27.708  1.00  0.00     0.014 A 
ATOM     37  C   UNL A   1      42.559  21.271  25.364  1.00  0.00     0.014 A 
ATOM     38  C   UNL A   1      42.610  22.158  27.998  1.00  0.00     0.010 A 
ATOM     39  C   UNL A   1      43.107  22.524  25.667  1.00  0.00     0.010 A 
ATOM     40  C   UNL A   1      43.078  23.007  26.983  1.00  0.00    -0.014 A 
BRANCH  40  41
ATOM     41  C   UNL A   1      43.511  24.389  27.333  1.00  0.00     0.031 A 
ATOM     42  C   UNL A   1      44.914  24.855  27.033  1.00  0.00     0.074 A 
ATOM     43  C   UNL A   1      42.608  25.258  27.832  1.00  0.00     0.049 A 
ATOM     44  N   UNL A   1      45.453  26.032  27.235  1.00  0.00    -0.248 NA
ATOM     45  C   UNL A   1      45.835  23.878  26.431  1.00  0.00     0.031 C 
ATOM     46  C   UNL A   1      41.214  24.937  28.143  1.00  0.00     0.029 A 
ATOM     47  N   UNL A   1      42.711  26.596  28.123  1.00  0.00    -0.354 N 
ATOM     48  C   UNL A   1      46.768  25.932  26.799  1.00  0.00     0.074 A 
ATOM     49  C   UNL A   1      46.963  24.571  26.352  1.00  0.00     0.031 C 
ATOM     50  C   UNL A   1      40.572  26.059  28.500  1.00  0.00     0.029 A 
ATOM     51  C   UNL A   1      41.525  27.163  28.522  1.00  0.00     0.049 A 
ATOM     52  H   UNL A   1      43.554  27.100  28.055  1.00  0.00     0.167 HD
ATOM     53  C   UNL A   1      47.720  26.894  26.756  1.00  0.00     0.037 A 
ATOM     54  C   UNL A   1      41.234  28.430  28.877  1.00  0.00     0.037 A 
ATOM     55  C   UNL A   1      47.521  28.257  27.172  1.00  0.00     0.049 A 
ATOM     56  C   UNL A   1      42.330  29.458  28.877  1.00  0.00     0.074 A 
ATOM     57  C   UNL A   1      48.432  29.299  27.177  1.00  0.00     0.029 A 
ATOM     58  N   UNL A   1      46.322  28.772  27.643  1.00  0.00    -0.354 N 
ATOM     59  N   UNL A   1      43.574  29.338  28.484  1.00  0.00    -0.248 NA
ATOM     60  C   UNL A   1      41.985  30.792  29.387  1.00  0.00     0.031 C 
ATOM     61  C   UNL A   1      47.795  30.436  27.681  1.00  0.00     0.029 A 
ATOM     62  C   UNL A   1      46.475  30.114  27.950  1.00  0.00     0.049 A 
ATOM     63  H   UNL A   1      45.487  28.260  27.744  1.00  0.00     0.167 HD
ATOM     64  C   UNL A   1      44.156  30.582  28.683  1.00  0.00     0.074 A 
ATOM     65  C   UNL A   1      43.123  31.450  29.211  1.00  0.00     0.031 C 
ATOM     66  C   UNL A   1      45.434  30.968  28.457  1.00  0.00     0.037 A 
BRANCH  53  67
ATOM     67  C   UNL A   1      49.077  26.524  26.231  1.00  0.00     0.064 A 
ATOM     68  C   UNL A   1      49.461  26.835  24.919  1.00  0.00     0.173 A 
ATOM     69  C   UNL A   1      50.036  25.945  27.077  1.00  0.00     0.173 A 
ATOM     70  F   UNL A   1      48.578  27.378  24.069  1.00  0.00    -0.203 F 
ATOM     71  C   UNL A   1      50.755  26.579  24.472  1.00  0.00     0.198 A 
ATOM     72  C   UNL A   1      51.336  25.712  26.634  1.00  0.00     0.198 A 
ATOM     73  F   UNL A   1      49.720  25.633  28.343  1.00  0.00    -0.203 F 
ATOM     74  F   UNL A   1      51.094  26.867  23.208  1.00  0.00    -0.200 F 
ATOM     75  C   UNL A   1      51.693  26.029  25.333  1.00  0.00     0.200 A 
ATOM     76  F   UNL A   1      52.244  25.192  27.470  1.00  0.00    -0.200 F 
ATOM     77  F   UNL A   1      52.944  25.805  24.907  1.00  0.00    -0.200 F 
ENDBRANCH  53  67
BRANCH  54  78
ATOM     78  C   UNL A   1      39.846  28.796  29.265  1.00  0.00     0.064 A 
ATOM     79  C   UNL A   1      39.423  28.697  30.598  1.00  0.00     0.173 A 
ATOM     80  C   UNL A   1      38.916  29.248  28.318  1.00  0.00     0.173 A 
ATOM     81  F   UNL A   1      40.269  28.250  31.538  1.00  0.00    -0.203 F 
ATOM     82  C   UNL A   1      38.120  29.025  30.965  1.00  0.00     0.198 A 
ATOM     83  C   UNL A   1      37.622  29.605  28.691  1.00  0.00     0.198 A 
ATOM     84  F   UNL A   1      39.269  29.360  27.029  1.00  0.00    -0.203 F 
ATOM     85  F   UNL A   1      37.728  28.881  32.239  1.00  0.00    -0.200 F 
ATOM     86  C   UNL A   1      37.223  29.486  30.013  1.00  0.00     0.200 A 
ATOM     87  F   UNL A   1      36.765  30.065  27.770  1.00  0.00    -0.200 F 
ATOM     88  F   UNL A   1      35.971  29.807  30.368  1.00  0.00    -0.200 F 
ENDBRANCH  54  78
BRANCH  66  89
ATOM     89  C   UNL A   1      45.789  32.394  28.751  1.00  0.00     0.064 A 
ATOM     90  C   UNL A   1      46.323  32.773  29.991  1.00  0.00     0.173 A 
ATOM     91  C   UNL A   1      45.659  33.378  27.759  1.00  0.00     0.173 A 
ATOM     92  F   UNL A   1      46.453  31.869  30.975  1.00  0.00    -0.203 F 
ATOM     93  C   UNL A   1      46.703  34.091  30.232  1.00  0.00     0.198 A 
ATOM     94  C   UNL A   1      46.065  34.687  27.995  1.00  0.00     0.198 A 
ATOM     95  F   UNL A   1      45.160  33.062  26.555  1.00  0.00    -0.203 F 
ATOM     96  F   UNL A   1      47.181  34.437  31.435  1.00  0.00    -0.200 F 
ATOM     97  C   UNL A   1      46.582  35.044  29.232  1.00  0.00     0.200 A 
ATOM     98  F   UNL A   1      45.960  35.605  27.024  1.00  0.00    -0.200 F 
ATOM     99  F   UNL A   1      46.963  36.308  29.461  1.00  0.00    -0.200 F 
ENDBRANCH  66  89
ENDBRANCH  40  41
ENDBRANCH  32  35
ENDBRANCH  30  31
ENDBRANCH  29  30
ENDBRANCH   1  29
TORSDOF 14
ENDMDL
MODEL 2
REMARK VINA RESULT:     -13.2      4.913     11.098
REMARK SMILES C=C(C)COc1ccc2nc(C)n(-c3cccc(C(=O)NCCCNC(=O)c4ccc(-c5c6nc(c(-c7c(F)c(F)c(F)c(F)c7F)c7ccc([nH]7)c(-c7c(F)c(F)c(F)c(F)c7F)c7nc(c(-c8c(F)c(F)c(F)c(F)c8F)c8ccc5[nH]8)C=C7)C=C6)cc4)c3)c(=O)c2c1
REMARK SMILES IDX 22 1 21 2 19 3 20 4 18 6 14 7 15 8 91 9 16 10 17 11 13 12
REMARK SMILES IDX 6 13 7 14 95 15 8 16 94 17 9 18 92 19 10 20 93 21 11 22
REMARK SMILES IDX 12 23 5 24 4 25 2 26 1 27 3 28 23 29 24 30 25 31 26 32 27 34
REMARK SMILES IDX 28 35 29 36 90 37 30 38 89 39 31 40 32 41 33 42 83 43 34 44
REMARK SMILES IDX 88 45 82 46 84 47 35 48 87 49 81 50 80 51 36 53 68 54 48 55
REMARK SMILES IDX 67 56 49 57 52 58 66 59 85 60 50 61 51 62 65 64 86 65 53 66
REMARK SMILES IDX 37 67 38 68 46 69 39 70 40 71 44 72 47 73 41 74 42 75 45 76
REMARK SMILES IDX 43 77 69 78 70 79 78 80 71 81 72 82 76 83 79 84 73 85 74 86
REMARK SMILES IDX 77 87 75 88 54 89 55 90 63 91 56 92 57 93 61 94 64 95 58 96
REMARK SMILES IDX 59 97 62 98 60 99
REMARK H PARENT 21 5 25 33 84 52 52 63
REMARK Flexibility Score: inf
ROOT
ATOM      1  C   UNL A   1      31.622  30.400  25.999  1.00  0.00     0.118 C 
ENDROOT
BRANCH   1   2
ATOM      2  N   UNL A   1      31.382  30.225  24.569  1.00  0.00    -0.352 N 
ATOM      3  C   UNL A   1      31.069  29.148  23.769  1.00  0.00     0.251 C 
ATOM      4  O   UNL A   1      30.941  29.358  22.563  1.00  0.00    -0.269 OA
ATOM      5  H   UNL A   1      31.461  31.065  24.062  1.00  0.00     0.163 HD
BRANCH   3   6
ATOM      6  C   UNL A   1      30.961  27.751  24.269  1.00  0.00     0.041 A 
ATOM      7  C   UNL A   1      31.930  25.553  24.599  1.00  0.00     0.051 A 
ATOM      8  C   UNL A   1      30.653  25.026  24.820  1.00  0.00     0.027 A 
ATOM      9  C   UNL A   1      32.068  26.942  24.499  1.00  0.00     0.040 A 
ATOM     10  C   UNL A   1      29.533  25.858  24.789  1.00  0.00     0.003 A 
ATOM     11  C   UNL A   1      29.683  27.206  24.459  1.00  0.00     0.014 A 
BRANCH   7  12
ATOM     12  N   UNL A   1      33.058  24.725  24.267  1.00  0.00    -0.264 N 
ATOM     13  C   UNL A   1      37.240  22.524  25.414  1.00  0.00     0.120 A 
ATOM     14  C   UNL A   1      37.403  22.217  24.063  1.00  0.00     0.049 A 
ATOM     15  C   UNL A   1      36.097  23.189  25.848  1.00  0.00     0.062 A 
ATOM     16  C   UNL A   1      36.454  22.638  23.135  1.00  0.00     0.033 A 
ATOM     17  C   UNL A   1      35.140  23.593  24.906  1.00  0.00     0.070 A 
ATOM     18  C   UNL A   1      35.321  23.334  23.553  1.00  0.00     0.078 A 
ATOM     19  C   UNL A   1      33.921  24.323  25.302  1.00  0.00     0.266 A 
ATOM     20  N   UNL A   1      34.437  23.789  22.581  1.00  0.00    -0.234 NA
ATOM     21  O   UNL A   1      33.748  24.537  26.501  1.00  0.00    -0.268 OA
ATOM     22  C   UNL A   1      33.397  24.471  22.941  1.00  0.00     0.113 A 
ATOM     23  C   UNL A   1      32.602  25.060  21.790  1.00  0.00     0.088 C 
BRANCH  13  24
ATOM     24  O   UNL A   1      38.152  22.104  26.346  1.00  0.00    -0.489 OA
BRANCH  24  25
ATOM     25  C   UNL A   1      39.258  21.401  25.751  1.00  0.00     0.260 C 
BRANCH  25  26
ATOM     26  C   UNL A   1      40.404  21.195  26.721  1.00  0.00    -0.043 C 
ATOM     27  C   UNL A   1      40.762  22.121  27.628  1.00  0.00     0.011 C 
ATOM     28  C   UNL A   1      41.094  19.865  26.639  1.00  0.00     0.042 C 
ENDBRANCH  25  26
ENDBRANCH  24  25
ENDBRANCH  13  24
ENDBRANCH   7  12
ENDBRANCH   3   6
ENDBRANCH   1   2
BRANCH   1  29
ATOM     29  C   UNL A   1      31.395  31.817  26.501  1.00  0.00     0.042 C 
BRANCH  29  30
ATOM     30  C   UNL A   1      32.586  32.437  27.208  1.00  0.00     0.118 C 
BRANCH  30  31
ATOM     31  N   UNL A   1      32.372  33.827  27.592  1.00  0.00    -0.352 N 
ATOM     32  C   UNL A   1      33.000  34.639  28.511  1.00  0.00     0.251 C 
ATOM     33  H   UNL A   1      31.640  34.269  27.103  1.00  0.00     0.163 HD
ATOM     34  O   UNL A   1      32.529  35.743  28.756  1.00  0.00    -0.269 OA
BRANCH  32  35
ATOM     35  C   UNL A   1      34.206  34.186  29.244  1.00  0.00     0.039 A 
ATOM     36  C   UNL A   1      35.488  34.465  28.781  1.00  0.00     0.014 A 
ATOM     37  C   UNL A   1      34.051  33.478  30.442  1.00  0.00     0.014 A 
ATOM     38  C   UNL A   1      36.587  33.844  29.365  1.00  0.00     0.010 A 
ATOM     39  C   UNL A   1      35.171  32.960  31.104  1.00  0.00     0.010 A 
ATOM     40  C   UNL A   1      36.447  33.083  30.535  1.00  0.00    -0.014 A 
BRANCH  40  41
ATOM     41  C   UNL A   1      37.647  32.424  31.123  1.00  0.00     0.031 A 
ATOM     42  C   UNL A   1      38.105  32.763  32.519  1.00  0.00     0.074 A 
ATOM     43  C   UNL A   1      38.267  31.445  30.433  1.00  0.00     0.049 A 
ATOM     44  N   UNL A   1      39.105  32.263  33.204  1.00  0.00    -0.248 NA
ATOM     45  C   UNL A   1      37.349  33.796  33.245  1.00  0.00     0.031 C 
ATOM     46  C   UNL A   1      37.905  31.007  29.083  1.00  0.00     0.029 A 
ATOM     47  N   UNL A   1      39.300  30.611  30.783  1.00  0.00    -0.354 N 
ATOM     48  C   UNL A   1      39.104  32.925  34.424  1.00  0.00     0.074 A 
ATOM     49  C   UNL A   1      38.027  33.888  34.381  1.00  0.00     0.031 C 
ATOM     50  C   UNL A   1      38.642  29.937  28.754  1.00  0.00     0.029 A 
ATOM     51  C   UNL A   1      39.585  29.661  29.832  1.00  0.00     0.049 A 
ATOM     52  H   UNL A   1      39.791  30.687  31.633  1.00  0.00     0.167 HD
ATOM     53  C   UNL A   1      39.913  32.732  35.493  1.00  0.00     0.037 A 
ATOM     54  C   UNL A   1      40.509  28.680  29.821  1.00  0.00     0.037 A 
ATOM     55  C   UNL A   1      40.967  31.753  35.549  1.00  0.00     0.049 A 
ATOM     56  C   UNL A   1      41.432  28.534  30.998  1.00  0.00     0.074 A 
ATOM     57  C   UNL A   1      41.848  31.493  36.585  1.00  0.00     0.029 A 
ATOM     58  N   UNL A   1      41.271  30.860  34.533  1.00  0.00    -0.354 N 
ATOM     59  N   UNL A   1      41.431  29.186  32.134  1.00  0.00    -0.248 NA
ATOM     60  C   UNL A   1      42.497  27.528  30.881  1.00  0.00     0.031 C 
ATOM     61  C   UNL A   1      42.706  30.467  36.184  1.00  0.00     0.029 A 
ATOM     62  C   UNL A   1      42.334  30.057  34.914  1.00  0.00     0.049 A 
ATOM     63  H   UNL A   1      40.803  30.806  33.668  1.00  0.00     0.167 HD
ATOM     64  C   UNL A   1      42.480  28.660  32.874  1.00  0.00     0.074 A 
ATOM     65  C   UNL A   1      43.083  27.619  32.068  1.00  0.00     0.031 C 
ATOM     66  C   UNL A   1      42.910  29.014  34.108  1.00  0.00     0.037 A 
BRANCH  53  67
ATOM     67  C   UNL A   1      39.698  33.587  36.708  1.00  0.00     0.064 A 
ATOM     68  C   UNL A   1      40.271  34.861  36.813  1.00  0.00     0.173 A 
ATOM     69  C   UNL A   1      38.830  33.169  37.730  1.00  0.00     0.173 A 
ATOM     70  F   UNL A   1      41.117  35.301  35.868  1.00  0.00    -0.203 F 
ATOM     71  C   UNL A   1      39.985  35.689  37.896  1.00  0.00     0.198 A 
ATOM     72  C   UNL A   1      38.528  34.007  38.799  1.00  0.00     0.198 A 
ATOM     73  F   UNL A   1      38.252  31.960  37.673  1.00  0.00    -0.203 F 
ATOM     74  F   UNL A   1      40.560  36.895  37.986  1.00  0.00    -0.200 F 
ATOM     75  C   UNL A   1      39.106  35.265  38.882  1.00  0.00     0.200 A 
ATOM     76  F   UNL A   1      37.669  33.603  39.744  1.00  0.00    -0.200 F 
ATOM     77  F   UNL A   1      38.814  36.071  39.912  1.00  0.00    -0.200 F 
ENDBRANCH  53  67
BRANCH  54  78
ATOM     78  C   UNL A   1      40.608  27.762  28.656  1.00  0.00     0.064 A 
ATOM     79  C   UNL A   1      41.523  28.010  27.622  1.00  0.00     0.173 A 
ATOM     80  C   UNL A   1      39.796  26.625  28.549  1.00  0.00     0.173 A 
ATOM     81  F   UNL A   1      42.307  29.097  27.668  1.00  0.00    -0.203 F 
ATOM     82  C   UNL A   1      41.610  27.161  26.521  1.00  0.00     0.198 A 
ATOM     83  C   UNL A   1      39.906  25.760  27.462  1.00  0.00     0.198 A 
ATOM     84  F   UNL A   1      38.904  26.342  29.510  1.00  0.00    -0.203 F 
ATOM     85  F   UNL A   1      42.463  27.445  25.526  1.00  0.00    -0.200 F 
ATOM     86  C   UNL A   1      40.808  26.033  26.445  1.00  0.00     0.200 A 
ATOM     87  F   UNL A   1      39.140  24.662  27.402  1.00  0.00    -0.200 F 
ATOM     88  F   UNL A   1      40.898  25.214  25.389  1.00  0.00    -0.200 F 
ENDBRANCH  54  78
BRANCH  66  89
ATOM     89  C   UNL A   1      44.071  28.259  34.680  1.00  0.00     0.064 A 
ATOM     90  C   UNL A   1      45.386  28.725  34.540  1.00  0.00     0.173 A 
ATOM     91  C   UNL A   1      43.860  27.094  35.434  1.00  0.00     0.173 A 
ATOM     92  F   UNL A   1      45.639  29.826  33.817  1.00  0.00    -0.203 F 
ATOM     93  C   UNL A   1      46.451  28.044  35.126  1.00  0.00     0.198 A 
ATOM     94  C   UNL A   1      44.922  26.432  36.039  1.00  0.00     0.198 A 
ATOM     95  F   UNL A   1      42.618  26.614  35.601  1.00  0.00    -0.203 F 
ATOM     96  F   UNL A   1      47.703  28.489  34.953  1.00  0.00    -0.200 F 
ATOM     97  C   UNL A   1      46.217  26.905  35.882  1.00  0.00     0.200 A 
ATOM     98  F   UNL A   1      44.695  25.339  36.781  1.00  0.00    -0.200 F 
ATOM     99  F   UNL A   1      47.241  26.260  36.457  1.00  0.00    -0.200 F 
ENDBRANCH  66  89
ENDBRANCH  40  41
ENDBRANCH  32  35
ENDBRANCH  30  31
ENDBRANCH  29  30
ENDBRANCH   1  29
TORSDOF 14
ENDMDL
MODEL 3
REMARK VINA RESULT:     -13.2      2.094      2.896
REMARK SMILES C=C(C)COc1ccc2nc(C)n(-c3cccc(C(=O)NCCCNC(=O)c4ccc(-c5c6nc(c(-c7c(F)c(F)c(F)c(F)c7F)c7ccc([nH]7)c(-c7c(F)c(F)c(F)c(F)c7F)c7nc(c(-c8c(F)c(F)c(F)c(F)c8F)c8ccc5[nH]8)C=C7)C=C6)cc4)c3)c(=O)c2c1
REMARK SMILES IDX 22 1 21 2 19 3 20 4 18 6 14 7 15 8 91 9 16 10 17 11 13 12
REMARK SMILES IDX 6 13 7 14 95 15 8 16 94 17 9 18 92 19 10 20 93 21 11 22
REMARK SMILES IDX 12 23 5 24 4 25 2 26 1 27 3 28 23 29 24 30 25 31 26 32 27 34
REMARK SMILES IDX 28 35 29 36 90 37 30 38 89 39 31 40 32 41 33 42 83 43 34 44
REMARK SMILES IDX 88 45 82 46 84 47 35 48 87 49 81 50 80 51 36 53 68 54 48 55
REMARK SMILES IDX 67 56 49 57 52 58 66 59 85 60 50 61 51 62 65 64 86 65 53 66
REMARK SMILES IDX 37 67 38 68 46 69 39 70 40 71 44 72 47 73 41 74 42 75 45 76
REMARK SMILES IDX 43 77 69 78 70 79 78 80 71 81 72 82 76 83 79 84 73 85 74 86
REMARK SMILES IDX 77 87 75 88 54 89 55 90 63 91 56 92 57 93 61 94 64 95 58 96
REMARK SMILES IDX 59 97 62 98 60 99
REMARK H PARENT 21 5 25 33 84 52 52 63
REMARK Flexibility Score: inf
ROOT
ATOM      1  C   UNL A   1      36.945  20.445  25.027  1.00  0.00     0.118 C 
ENDROOT
BRANCH   1   2
ATOM      2  N   UNL A   1      37.176  21.596  24.158  1.00  0.00    -0.352 N 
ATOM      3  C   UNL A   1      36.365  22.556  23.593  1.00  0.00     0.251 C 
ATOM      4  O   UNL A   1      36.903  23.405  22.884  1.00  0.00    -0.269 OA
ATOM      5  H   UNL A   1      38.125  21.714  23.925  1.00  0.00     0.163 HD
BRANCH   3   6
ATOM      6  C   UNL A   1      34.883  22.568  23.728  1.00  0.00     0.041 A 
ATOM      7  C   UNL A   1      32.799  23.789  23.933  1.00  0.00     0.051 A 
ATOM      8  C   UNL A   1      32.166  22.628  24.390  1.00  0.00     0.027 A 
ATOM      9  C   UNL A   1      34.106  23.686  23.447  1.00  0.00     0.040 A 
ATOM     10  C   UNL A   1      32.879  21.433  24.496  1.00  0.00     0.003 A 
ATOM     11  C   UNL A   1      34.247  21.419  24.219  1.00  0.00     0.014 A 
BRANCH   7  12
ATOM     12  N   UNL A   1      32.240  25.099  24.134  1.00  0.00    -0.264 N 
ATOM     13  C   UNL A   1      30.171  29.174  22.470  1.00  0.00     0.120 A 
ATOM     14  C   UNL A   1      30.363  29.739  23.731  1.00  0.00     0.049 A 
ATOM     15  C   UNL A   1      30.540  27.853  22.231  1.00  0.00     0.062 A 
ATOM     16  C   UNL A   1      30.987  29.003  24.735  1.00  0.00     0.033 A 
ATOM     17  C   UNL A   1      31.154  27.118  23.255  1.00  0.00     0.070 A 
ATOM     18  C   UNL A   1      31.392  27.690  24.498  1.00  0.00     0.078 A 
ATOM     19  C   UNL A   1      31.589  25.722  23.054  1.00  0.00     0.266 A 
ATOM     20  N   UNL A   1      32.069  27.021  25.511  1.00  0.00    -0.234 NA
ATOM     21  O   UNL A   1      31.362  25.205  21.961  1.00  0.00    -0.268 OA
ATOM     22  C   UNL A   1      32.489  25.814  25.302  1.00  0.00     0.113 A 
ATOM     23  C   UNL A   1      33.362  25.251  26.409  1.00  0.00     0.088 C 
BRANCH  13  24
ATOM     24  O   UNL A   1      29.544  29.873  21.474  1.00  0.00    -0.489 OA
BRANCH  24  25
ATOM     25  C   UNL A   1      28.344  30.521  21.933  1.00  0.00     0.260 C 
BRANCH  25  26
ATOM     26  C   UNL A   1      28.296  31.989  21.558  1.00  0.00    -0.043 C 
ATOM     27  C   UNL A   1      27.896  32.416  20.348  1.00  0.00     0.011 C 
ATOM     28  C   UNL A   1      28.681  32.951  22.644  1.00  0.00     0.042 C 
ENDBRANCH  25  26
ENDBRANCH  24  25
ENDBRANCH  13  24
ENDBRANCH   7  12
ENDBRANCH   3   6
ENDBRANCH   1   2
BRANCH   1  29
ATOM     29  C   UNL A   1      38.092  19.449  25.063  1.00  0.00     0.042 C 
BRANCH  29  30
ATOM     30  C   UNL A   1      39.322  19.926  25.813  1.00  0.00     0.118 C 
BRANCH  30  31
ATOM     31  N   UNL A   1      40.390  18.935  25.863  1.00  0.00    -0.352 N 
ATOM     32  C   UNL A   1      41.746  19.047  26.084  1.00  0.00     0.251 C 
ATOM     33  H   UNL A   1      40.086  18.010  25.711  1.00  0.00     0.163 HD
ATOM     34  O   UNL A   1      42.462  18.066  25.925  1.00  0.00    -0.269 OA
BRANCH  32  35
ATOM     35  C   UNL A   1      42.361  20.342  26.461  1.00  0.00     0.039 A 
ATOM     36  C   UNL A   1      42.295  20.828  27.763  1.00  0.00     0.014 A 
ATOM     37  C   UNL A   1      43.043  21.083  25.488  1.00  0.00     0.014 A 
ATOM     38  C   UNL A   1      42.686  22.134  28.037  1.00  0.00     0.010 A 
ATOM     39  C   UNL A   1      43.553  22.350  25.797  1.00  0.00     0.010 A 
ATOM     40  C   UNL A   1      43.321  22.916  27.060  1.00  0.00    -0.014 A 
BRANCH  40  41
ATOM     41  C   UNL A   1      43.713  24.315  27.389  1.00  0.00     0.031 A 
ATOM     42  C   UNL A   1      45.107  24.812  27.102  1.00  0.00     0.074 A 
ATOM     43  C   UNL A   1      42.779  25.170  27.856  1.00  0.00     0.049 A 
ATOM     44  N   UNL A   1      45.612  26.007  27.289  1.00  0.00    -0.248 NA
ATOM     45  C   UNL A   1      46.063  23.848  26.534  1.00  0.00     0.031 C 
ATOM     46  C   UNL A   1      41.388  24.818  28.152  1.00  0.00     0.029 A 
ATOM     47  N   UNL A   1      42.842  26.515  28.122  1.00  0.00    -0.354 N 
ATOM     48  C   UNL A   1      46.936  25.933  26.876  1.00  0.00     0.074 A 
ATOM     49  C   UNL A   1      47.174  24.569  26.460  1.00  0.00     0.031 C 
ATOM     50  C   UNL A   1      40.712  25.929  28.475  1.00  0.00     0.029 A 
ATOM     51  C   UNL A   1      41.635  27.059  28.491  1.00  0.00     0.049 A 
ATOM     52  H   UNL A   1      43.673  27.040  28.057  1.00  0.00     0.167 HD
ATOM     53  C   UNL A   1      47.864  26.919  26.829  1.00  0.00     0.037 A 
ATOM     54  C   UNL A   1      41.305  28.324  28.816  1.00  0.00     0.037 A 
ATOM     55  C   UNL A   1      47.622  28.284  27.215  1.00  0.00     0.049 A 
ATOM     56  C   UNL A   1      42.374  29.380  28.813  1.00  0.00     0.074 A 
ATOM     57  C   UNL A   1      48.505  29.350  27.213  1.00  0.00     0.029 A 
ATOM     58  N   UNL A   1      46.403  28.776  27.656  1.00  0.00    -0.354 N 
ATOM     59  N   UNL A   1      43.627  29.286  28.442  1.00  0.00    -0.248 NA
ATOM     60  C   UNL A   1      41.986  30.714  29.291  1.00  0.00     0.031 C 
ATOM     61  C   UNL A   1      47.831  30.479  27.684  1.00  0.00     0.029 A 
ATOM     62  C   UNL A   1      46.516  30.128  27.939  1.00  0.00     0.049 A 
ATOM     63  H   UNL A   1      45.580  28.244  27.754  1.00  0.00     0.167 HD
ATOM     64  C   UNL A   1      44.173  30.548  28.626  1.00  0.00     0.074 A 
ATOM     65  C   UNL A   1      43.110  31.398  29.120  1.00  0.00     0.031 C 
ATOM     66  C   UNL A   1      45.444  30.963  28.412  1.00  0.00     0.037 A 
BRANCH  53  67
ATOM     67  C   UNL A   1      49.239  26.574  26.333  1.00  0.00     0.064 A 
ATOM     68  C   UNL A   1      49.600  26.769  24.993  1.00  0.00     0.173 A 
ATOM     69  C   UNL A   1      50.232  26.142  27.226  1.00  0.00     0.173 A 
ATOM     70  F   UNL A   1      48.684  27.170  24.098  1.00  0.00    -0.203 F 
ATOM     71  C   UNL A   1      50.905  26.543  24.563  1.00  0.00     0.198 A 
ATOM     72  C   UNL A   1      51.541  25.939  26.798  1.00  0.00     0.198 A 
ATOM     73  F   UNL A   1      49.938  25.946  28.520  1.00  0.00    -0.203 F 
ATOM     74  F   UNL A   1      51.223  26.717  23.273  1.00  0.00    -0.200 F 
ATOM     75  C   UNL A   1      51.876  26.139  25.467  1.00  0.00     0.200 A 
ATOM     76  F   UNL A   1      52.481  25.562  27.675  1.00  0.00    -0.200 F 
ATOM     77  F   UNL A   1      53.136  25.945  25.056  1.00  0.00    -0.200 F 
ENDBRANCH  53  67
BRANCH  54  78
ATOM     78  C   UNL A   1      39.903  28.661  29.174  1.00  0.00     0.064 A 
ATOM     79  C   UNL A   1      39.023  29.186  28.216  1.00  0.00     0.173 A 
ATOM     80  C   UNL A   1      39.412  28.470  30.473  1.00  0.00     0.173 A 
ATOM     81  F   UNL A   1      39.451  29.408  26.964  1.00  0.00    -0.203 F 
ATOM     82  C   UNL A   1      37.712  29.518  28.549  1.00  0.00     0.198 A 
ATOM     83  C   UNL A   1      38.092  28.773  30.798  1.00  0.00     0.198 A 
ATOM     84  F   UNL A   1      40.212  27.971  31.427  1.00  0.00    -0.203 F 
ATOM     85  F   UNL A   1      36.905  30.059  27.625  1.00  0.00    -0.200 F 
ATOM     86  C   UNL A   1      37.245  29.305  29.837  1.00  0.00     0.200 A 
ATOM     87  F   UNL A   1      37.641  28.549  32.039  1.00  0.00    -0.200 F 
ATOM     88  F   UNL A   1      35.981  29.618  30.155  1.00  0.00    -0.200 F 
ENDBRANCH  54  78
BRANCH  66  89
ATOM     89  C   UNL A   1      45.757  32.403  28.684  1.00  0.00     0.064 A 
ATOM     90  C   UNL A   1      45.599  33.384  27.695  1.00  0.00     0.173 A 
ATOM     91  C   UNL A   1      46.154  32.815  29.966  1.00  0.00     0.173 A 
ATOM     92  F   UNL A   1      45.235  33.037  26.451  1.00  0.00    -0.203 F 
ATOM     93  C   UNL A   1      45.838  34.727  27.977  1.00  0.00     0.198 A 
ATOM     94  C   UNL A   1      46.366  34.160  30.250  1.00  0.00     0.198 A 
ATOM     95  F   UNL A   1      46.312  31.913  30.946  1.00  0.00    -0.203 F 
ATOM     96  F   UNL A   1      45.711  35.645  27.009  1.00  0.00    -0.200 F 
ATOM     97  C   UNL A   1      46.212  35.114  29.255  1.00  0.00     0.200 A 
ATOM     98  F   UNL A   1      46.714  34.534  31.489  1.00  0.00    -0.200 F 
ATOM     99  F   UNL A   1      46.426  36.408  29.528  1.00  0.00    -0.200 F 
ENDBRANCH  66  89
ENDBRANCH  40  41
ENDBRANCH  32  35
ENDBRANCH  30  31
ENDBRANCH  29  30
ENDBRANCH   1  29
TORSDOF 14
ENDMDL
