MODEL 1
REMARK VINA RESULT:     -14.8      0.000      0.000
REMARK SMILES O=C(NCCCNC(=O)c1nnn(-c2cccc(C(F)(F)F)c2)c1[C@@H]1COc2ccccc2O1)c1ccc(-c2c3nc(c(-c4c(F)c(F)c(F)c(F)c4F)c4ccc([nH]4)c(-c4c(F)c(F)c(F)c(F)c4F)c4nc(c(-c5c(F)c(F)c(F)c(F)c5F)c5ccc2[nH]5)C=C4)C=C3)cc1
REMARK SMILES IDX 5 1 4 2 3 3 1 4 2 5 35 7 36 8 97 9 37 10 96 11 38 12 39 13
REMARK SMILES IDX 40 14 90 15 41 16 95 17 89 18 91 19 42 20 94 21 88 22 87 23
REMARK SMILES IDX 43 25 75 26 55 27 74 28 56 29 59 30 73 31 92 32 57 33 58 34
REMARK SMILES IDX 72 36 93 37 60 38 44 39 45 40 53 41 46 42 47 43 51 44 54 45
REMARK SMILES IDX 48 46 49 47 52 48 50 49 76 50 77 51 85 52 78 53 79 54 83 55
REMARK SMILES IDX 86 56 80 57 81 58 84 59 82 60 61 61 62 62 70 63 63 64 64 65
REMARK SMILES IDX 68 66 71 67 65 68 66 69 69 70 67 71 6 72 7 73 8 74 9 76
REMARK SMILES IDX 10 77 11 78 24 79 12 80 13 81 25 82 26 83 34 84 27 85 33 86
REMARK SMILES IDX 28 87 32 88 29 89 31 90 30 91 14 92 15 93 23 94 16 95 18 96
REMARK SMILES IDX 17 97 19 98 20 99 21 100 22 101
REMARK H PARENT 3 6 91 24 59 35 7 75
REMARK Flexibility Score: inf
ROOT
ATOM      1  C   UNL A   1      32.850  29.633  25.651  1.00  0.00     0.042 C 
ENDROOT
BRANCH   1   2
ATOM      2  C   UNL A   1      33.112  29.863  27.141  1.00  0.00     0.118 C 
BRANCH   2   3
ATOM      3  N   UNL A   1      33.608  31.192  27.452  1.00  0.00    -0.352 N 
ATOM      4  O   UNL A   1      34.793  32.967  27.980  1.00  0.00    -0.269 OA
ATOM      5  C   UNL A   1      34.796  31.740  27.847  1.00  0.00     0.251 C 
ATOM      6  H   UNL A   1      32.906  31.876  27.351  1.00  0.00     0.163 HD
BRANCH   5   7
ATOM      7  C   UNL A   1      36.054  30.998  28.145  1.00  0.00     0.039 A 
ATOM      8  C   UNL A   1      36.273  29.636  27.947  1.00  0.00     0.014 A 
ATOM      9  C   UNL A   1      37.105  31.767  28.688  1.00  0.00     0.014 A 
ATOM     10  C   UNL A   1      37.491  29.050  28.310  1.00  0.00     0.010 A 
ATOM     11  C   UNL A   1      38.326  31.191  29.036  1.00  0.00     0.010 A 
ATOM     12  C   UNL A   1      38.517  29.822  28.864  1.00  0.00    -0.014 A 
BRANCH  12  13
ATOM     13  C   UNL A   1      39.805  29.183  29.152  1.00  0.00     0.031 A 
ATOM     14  C   UNL A   1      40.183  29.029  30.593  1.00  0.00     0.074 A 
ATOM     15  C   UNL A   1      40.556  28.560  28.221  1.00  0.00     0.049 A 
ATOM     16  N   UNL A   1      41.294  29.350  31.179  1.00  0.00    -0.248 NA
ATOM     17  C   UNL A   1      39.188  28.429  31.494  1.00  0.00     0.031 C 
ATOM     18  C   UNL A   1      40.204  28.286  26.827  1.00  0.00     0.029 A 
ATOM     19  N   UNL A   1      41.761  27.929  28.371  1.00  0.00    -0.354 N 
ATOM     20  C   UNL A   1      41.203  28.866  32.485  1.00  0.00     0.074 A 
ATOM     21  C   UNL A   1      39.858  28.378  32.646  1.00  0.00     0.031 C 
ATOM     22  C   UNL A   1      41.067  27.375  26.324  1.00  0.00     0.029 A 
ATOM     23  C   UNL A   1      42.094  27.097  27.315  1.00  0.00     0.049 A 
ATOM     24  H   UNL A   1      42.338  28.055  29.159  1.00  0.00     0.167 HD
ATOM     25  C   UNL A   1      42.291  28.749  33.299  1.00  0.00     0.037 A 
ATOM     26  C   UNL A   1      43.099  26.190  27.272  1.00  0.00     0.037 A 
ATOM     27  C   UNL A   1      43.376  29.589  32.875  1.00  0.00     0.049 A 
ATOM     28  C   UNL A   1      44.079  26.520  28.333  1.00  0.00     0.074 A 
ATOM     29  C   UNL A   1      43.545  30.946  32.676  1.00  0.00     0.029 A 
ATOM     30  N   UNL A   1      44.497  29.009  32.340  1.00  0.00    -0.354 N 
ATOM     31  N   UNL A   1      44.887  27.541  28.309  1.00  0.00    -0.248 NA
ATOM     32  C   UNL A   1      43.949  25.854  29.620  1.00  0.00     0.031 C 
ATOM     33  C   UNL A   1      44.493  31.057  31.616  1.00  0.00     0.029 A 
ATOM     34  C   UNL A   1      44.838  29.758  31.247  1.00  0.00     0.049 A 
ATOM     35  H   UNL A   1      44.964  28.210  32.675  1.00  0.00     0.167 HD
ATOM     36  C   UNL A   1      45.044  27.893  29.639  1.00  0.00     0.074 A 
ATOM     37  C   UNL A   1      44.564  26.747  30.398  1.00  0.00     0.031 C 
ATOM     38  C   UNL A   1      45.279  29.188  29.999  1.00  0.00     0.037 A 
BRANCH  25  39
ATOM     39  C   UNL A   1      42.491  27.646  34.317  1.00  0.00     0.064 A 
ATOM     40  C   UNL A   1      43.032  26.408  33.903  1.00  0.00     0.173 A 
ATOM     41  C   UNL A   1      41.890  27.645  35.593  1.00  0.00     0.173 A 
ATOM     42  F   UNL A   1      43.619  26.285  32.703  1.00  0.00    -0.203 F 
ATOM     43  C   UNL A   1      42.892  25.244  34.665  1.00  0.00     0.198 A 
ATOM     44  C   UNL A   1      41.802  26.491  36.376  1.00  0.00     0.198 A 
ATOM     45  F   UNL A   1      41.269  28.724  36.084  1.00  0.00    -0.203 F 
ATOM     46  F   UNL A   1      43.297  24.069  34.163  1.00  0.00    -0.200 F 
ATOM     47  C   UNL A   1      42.269  25.286  35.896  1.00  0.00     0.200 A 
ATOM     48  F   UNL A   1      41.184  26.548  37.564  1.00  0.00    -0.200 F 
ATOM     49  F   UNL A   1      42.073  24.162  36.597  1.00  0.00    -0.200 F 
ENDBRANCH  25  39
BRANCH  26  50
ATOM     50  C   UNL A   1      43.167  24.922  26.511  1.00  0.00     0.064 A 
ATOM     51  C   UNL A   1      44.021  24.777  25.407  1.00  0.00     0.173 A 
ATOM     52  C   UNL A   1      42.575  23.743  27.004  1.00  0.00     0.173 A 
ATOM     53  F   UNL A   1      44.667  25.841  24.908  1.00  0.00    -0.203 F 
ATOM     54  C   UNL A   1      44.277  23.526  24.838  1.00  0.00     0.198 A 
ATOM     55  C   UNL A   1      42.818  22.498  26.427  1.00  0.00     0.198 A 
ATOM     56  F   UNL A   1      41.820  23.764  28.113  1.00  0.00    -0.203 F 
ATOM     57  F   UNL A   1      45.145  23.419  23.822  1.00  0.00    -0.200 F 
ATOM     58  C   UNL A   1      43.678  22.387  25.351  1.00  0.00     0.200 A 
ATOM     59  F   UNL A   1      42.259  21.400  26.955  1.00  0.00    -0.200 F 
ATOM     60  F   UNL A   1      43.961  21.182  24.837  1.00  0.00    -0.200 F 
ENDBRANCH  26  50
BRANCH  38  61
ATOM     61  C   UNL A   1      45.721  30.144  28.934  1.00  0.00     0.064 A 
ATOM     62  C   UNL A   1      44.837  30.801  28.063  1.00  0.00     0.173 A 
ATOM     63  C   UNL A   1      47.073  30.510  28.886  1.00  0.00     0.173 A 
ATOM     64  F   UNL A   1      43.515  30.584  28.129  1.00  0.00    -0.203 F 
ATOM     65  C   UNL A   1      45.299  31.743  27.146  1.00  0.00     0.198 A 
ATOM     66  C   UNL A   1      47.526  31.478  27.995  1.00  0.00     0.198 A 
ATOM     67  F   UNL A   1      47.950  29.960  29.741  1.00  0.00    -0.203 F 
ATOM     68  F   UNL A   1      44.438  32.349  26.313  1.00  0.00    -0.200 F 
ATOM     69  C   UNL A   1      46.641  32.084  27.118  1.00  0.00     0.200 A 
ATOM     70  F   UNL A   1      48.815  31.844  28.005  1.00  0.00    -0.200 F 
ATOM     71  F   UNL A   1      47.077  33.021  26.263  1.00  0.00    -0.200 F 
ENDBRANCH  38  61
ENDBRANCH  12  13
ENDBRANCH   5   7
ENDBRANCH   2   3
ENDBRANCH   1   2
BRANCH   1  72
ATOM     72  C   UNL A   1      31.450  30.041  25.195  1.00  0.00     0.118 C 
BRANCH  72  73
ATOM     73  N   UNL A   1      31.051  29.467  23.929  1.00  0.00    -0.351 N 
ATOM     74  C   UNL A   1      30.798  28.242  23.365  1.00  0.00     0.273 C 
ATOM     75  H   UNL A   1      30.920  30.179  23.261  1.00  0.00     0.163 HD
ATOM     76  O   UNL A   1      30.372  28.360  22.206  1.00  0.00    -0.267 OA
BRANCH  74  77
ATOM     77  C   UNL A   1      30.981  26.888  23.926  1.00  0.00     0.178 A 
ATOM     78  N   UNL A   1      29.810  26.156  24.086  1.00  0.00    -0.124 NA
ATOM     79  C   UNL A   1      32.037  26.056  24.318  1.00  0.00     0.122 A 
ATOM     80  N   UNL A   1      30.097  24.939  24.499  1.00  0.00    -0.061 NA
ATOM     81  N   UNL A   1      31.412  24.893  24.752  1.00  0.00    -0.213 N 
BRANCH  79  82
ATOM     82  C   UNL A   1      33.514  26.179  24.139  1.00  0.00     0.262 C 
ATOM     83  C   UNL A   1      33.906  25.804  22.699  1.00  0.00     0.281 C 
ATOM     84  O   UNL A   1      34.287  25.522  25.150  1.00  0.00    -0.477 OA
ATOM     85  O   UNL A   1      34.031  24.386  22.544  1.00  0.00    -0.485 OA
ATOM     86  C   UNL A   1      35.149  24.571  24.674  1.00  0.00     0.162 A 
ATOM     87  C   UNL A   1      34.981  23.955  23.433  1.00  0.00     0.161 A 
ATOM     88  C   UNL A   1      36.190  24.179  25.510  1.00  0.00     0.050 A 
ATOM     89  C   UNL A   1      35.787  22.885  23.060  1.00  0.00     0.050 A 
ATOM     90  C   UNL A   1      37.041  23.148  25.113  1.00  0.00     0.004 A 
ATOM     91  C   UNL A   1      36.826  22.487  23.900  1.00  0.00     0.004 A 
ENDBRANCH  79  82
BRANCH  81  92
ATOM     92  C   UNL A   1      31.956  23.763  25.386  1.00  0.00     0.067 A 
ATOM     93  C   UNL A   1      32.183  23.794  26.763  1.00  0.00     0.028 A 
ATOM     94  C   UNL A   1      32.173  22.601  24.638  1.00  0.00     0.041 A 
ATOM     95  C   UNL A   1      32.537  22.612  27.413  1.00  0.00     0.003 A 
ATOM     96  C   UNL A   1      32.549  21.417  25.287  1.00  0.00     0.058 A 
ATOM     97  C   UNL A   1      32.705  21.430  26.683  1.00  0.00     0.013 A 
BRANCH  96  98
ATOM     98  C   UNL A   1      32.699  20.133  24.512  1.00  0.00     0.416 C 
ATOM     99  F   UNL A   1      33.999  19.793  24.296  1.00  0.00    -0.166 F 
ATOM    100  F   UNL A   1      32.136  19.070  25.150  1.00  0.00    -0.166 F 
ATOM    101  F   UNL A   1      32.117  20.173  23.279  1.00  0.00    -0.166 F 
ENDBRANCH  96  98
ENDBRANCH  81  92
ENDBRANCH  74  77
ENDBRANCH  72  73
ENDBRANCH   1  72
TORSDOF 13
ENDMDL
MODEL 2
REMARK VINA RESULT:     -14.8      3.286      8.407
REMARK SMILES O=C(NCCCNC(=O)c1nnn(-c2cccc(C(F)(F)F)c2)c1[C@@H]1COc2ccccc2O1)c1ccc(-c2c3nc(c(-c4c(F)c(F)c(F)c(F)c4F)c4ccc([nH]4)c(-c4c(F)c(F)c(F)c(F)c4F)c4nc(c(-c5c(F)c(F)c(F)c(F)c5F)c5ccc2[nH]5)C=C4)C=C3)cc1
REMARK SMILES IDX 5 1 4 2 3 3 1 4 2 5 35 7 36 8 97 9 37 10 96 11 38 12 39 13
REMARK SMILES IDX 40 14 90 15 41 16 95 17 89 18 91 19 42 20 94 21 88 22 87 23
REMARK SMILES IDX 43 25 75 26 55 27 74 28 56 29 59 30 73 31 92 32 57 33 58 34
REMARK SMILES IDX 72 36 93 37 60 38 44 39 45 40 53 41 46 42 47 43 51 44 54 45
REMARK SMILES IDX 48 46 49 47 52 48 50 49 76 50 77 51 85 52 78 53 79 54 83 55
REMARK SMILES IDX 86 56 80 57 81 58 84 59 82 60 61 61 62 62 70 63 63 64 64 65
REMARK SMILES IDX 68 66 71 67 65 68 66 69 69 70 67 71 6 72 7 73 8 74 9 76
REMARK SMILES IDX 10 77 11 78 24 79 12 80 13 81 25 82 26 83 34 84 27 85 33 86
REMARK SMILES IDX 28 87 32 88 29 89 31 90 30 91 14 92 15 93 23 94 16 95 18 96
REMARK SMILES IDX 17 97 19 98 20 99 21 100 22 101
REMARK H PARENT 3 6 91 24 59 35 7 75
REMARK Flexibility Score: inf
ROOT
ATOM      1  C   UNL A   1      36.073  21.689  25.665  1.00  0.00     0.042 C 
ENDROOT
BRANCH   1   2
ATOM      2  C   UNL A   1      37.406  22.098  25.035  1.00  0.00     0.118 C 
BRANCH   2   3
ATOM      3  N   UNL A   1      38.557  21.423  25.607  1.00  0.00    -0.352 N 
ATOM      4  O   UNL A   1      40.382  20.842  26.688  1.00  0.00    -0.269 OA
ATOM      5  C   UNL A   1      39.611  21.765  26.406  1.00  0.00     0.251 C 
ATOM      6  H   UNL A   1      38.586  20.472  25.352  1.00  0.00     0.163 HD
BRANCH   5   7
ATOM      7  C   UNL A   1      39.914  23.126  26.934  1.00  0.00     0.039 A 
ATOM      8  C   UNL A   1      39.218  24.297  26.639  1.00  0.00     0.014 A 
ATOM      9  C   UNL A   1      41.020  23.213  27.806  1.00  0.00     0.014 A 
ATOM     10  C   UNL A   1      39.632  25.524  27.168  1.00  0.00     0.010 A 
ATOM     11  C   UNL A   1      41.426  24.432  28.349  1.00  0.00     0.010 A 
ATOM     12  C   UNL A   1      40.741  25.598  28.016  1.00  0.00    -0.014 A 
BRANCH  12  13
ATOM     13  C   UNL A   1      41.089  26.891  28.614  1.00  0.00     0.031 A 
ATOM     14  C   UNL A   1      42.304  27.584  28.082  1.00  0.00     0.074 A 
ATOM     15  C   UNL A   1      40.280  27.568  29.455  1.00  0.00     0.049 A 
ATOM     16  N   UNL A   1      43.301  28.092  28.737  1.00  0.00    -0.248 NA
ATOM     17  C   UNL A   1      42.413  27.736  26.623  1.00  0.00     0.031 C 
ATOM     18  C   UNL A   1      38.902  27.240  29.826  1.00  0.00     0.029 A 
ATOM     19  N   UNL A   1      40.492  28.773  30.066  1.00  0.00    -0.354 N 
ATOM     20  C   UNL A   1      44.093  28.753  27.797  1.00  0.00     0.074 A 
ATOM     21  C   UNL A   1      43.542  28.437  26.505  1.00  0.00     0.031 C 
ATOM     22  C   UNL A   1      38.337  28.314  30.420  1.00  0.00     0.029 A 
ATOM     23  C   UNL A   1      39.342  29.353  30.578  1.00  0.00     0.049 A 
ATOM     24  H   UNL A   1      41.381  29.191  30.135  1.00  0.00     0.167 HD
ATOM     25  C   UNL A   1      45.053  29.654  28.153  1.00  0.00     0.037 A 
ATOM     26  C   UNL A   1      39.199  30.619  31.037  1.00  0.00     0.037 A 
ATOM     27  C   UNL A   1      45.477  29.481  29.515  1.00  0.00     0.049 A 
ATOM     28  C   UNL A   1      40.540  31.166  31.343  1.00  0.00     0.074 A 
ATOM     29  C   UNL A   1      46.031  28.447  30.245  1.00  0.00     0.029 A 
ATOM     30  N   UNL A   1      45.131  30.429  30.444  1.00  0.00    -0.354 N 
ATOM     31  N   UNL A   1      41.284  30.798  32.347  1.00  0.00    -0.248 NA
ATOM     32  C   UNL A   1      41.216  31.946  30.317  1.00  0.00     0.031 C 
ATOM     33  C   UNL A   1      45.540  28.619  31.574  1.00  0.00     0.029 A 
ATOM     34  C   UNL A   1      44.723  29.749  31.559  1.00  0.00     0.049 A 
ATOM     35  H   UNL A   1      45.168  31.405  30.331  1.00  0.00     0.167 HD
ATOM     36  C   UNL A   1      42.583  30.939  31.889  1.00  0.00     0.074 A 
ATOM     37  C   UNL A   1      42.482  31.773  30.700  1.00  0.00     0.031 C 
ATOM     38  C   UNL A   1      43.582  30.132  32.351  1.00  0.00     0.037 A 
BRANCH  25  39
ATOM     39  C   UNL A   1      45.407  30.896  27.362  1.00  0.00     0.064 A 
ATOM     40  C   UNL A   1      46.757  31.150  27.035  1.00  0.00     0.173 A 
ATOM     41  C   UNL A   1      44.529  31.987  27.193  1.00  0.00     0.173 A 
ATOM     42  F   UNL A   1      47.686  30.190  27.168  1.00  0.00    -0.203 F 
ATOM     43  C   UNL A   1      47.205  32.421  26.664  1.00  0.00     0.198 A 
ATOM     44  C   UNL A   1      44.973  33.241  26.767  1.00  0.00     0.198 A 
ATOM     45  F   UNL A   1      43.237  31.918  27.535  1.00  0.00    -0.203 F 
ATOM     46  F   UNL A   1      48.517  32.642  26.502  1.00  0.00    -0.200 F 
ATOM     47  C   UNL A   1      46.314  33.468  26.539  1.00  0.00     0.200 A 
ATOM     48  F   UNL A   1      44.094  34.249  26.662  1.00  0.00    -0.200 F 
ATOM     49  F   UNL A   1      46.749  34.700  26.250  1.00  0.00    -0.200 F 
ENDBRANCH  25  39
BRANCH  26  50
ATOM     50  C   UNL A   1      37.989  31.472  31.029  1.00  0.00     0.064 A 
ATOM     51  C   UNL A   1      37.439  31.951  29.830  1.00  0.00     0.173 A 
ATOM     52  C   UNL A   1      37.201  31.631  32.187  1.00  0.00     0.173 A 
ATOM     53  F   UNL A   1      38.100  31.792  28.673  1.00  0.00    -0.203 F 
ATOM     54  C   UNL A   1      36.173  32.543  29.788  1.00  0.00     0.198 A 
ATOM     55  C   UNL A   1      35.946  32.235  32.147  1.00  0.00     0.198 A 
ATOM     56  F   UNL A   1      37.597  31.120  33.362  1.00  0.00    -0.203 F 
ATOM     57  F   UNL A   1      35.657  32.935  28.616  1.00  0.00    -0.200 F 
ATOM     58  C   UNL A   1      35.426  32.681  30.947  1.00  0.00     0.200 A 
ATOM     59  F   UNL A   1      35.219  32.330  33.270  1.00  0.00    -0.200 F 
ATOM     60  F   UNL A   1      34.193  33.203  30.901  1.00  0.00    -0.200 F 
ENDBRANCH  26  50
BRANCH  38  61
ATOM     61  C   UNL A   1      43.331  29.350  33.604  1.00  0.00     0.064 A 
ATOM     62  C   UNL A   1      43.649  29.819  34.889  1.00  0.00     0.173 A 
ATOM     63  C   UNL A   1      42.619  28.147  33.508  1.00  0.00     0.173 A 
ATOM     64  F   UNL A   1      44.229  31.015  35.064  1.00  0.00    -0.203 F 
ATOM     65  C   UNL A   1      43.318  29.082  36.025  1.00  0.00     0.198 A 
ATOM     66  C   UNL A   1      42.257  27.432  34.646  1.00  0.00     0.198 A 
ATOM     67  F   UNL A   1      42.234  27.687  32.307  1.00  0.00    -0.203 F 
ATOM     68  F   UNL A   1      43.644  29.542  37.243  1.00  0.00    -0.200 F 
ATOM     69  C   UNL A   1      42.617  27.894  35.901  1.00  0.00     0.200 A 
ATOM     70  F   UNL A   1      41.533  26.310  34.527  1.00  0.00    -0.200 F 
ATOM     71  F   UNL A   1      42.261  27.208  36.998  1.00  0.00    -0.200 F 
ENDBRANCH  38  61
ENDBRANCH  12  13
ENDBRANCH   5   7
ENDBRANCH   2   3
ENDBRANCH   1   2
BRANCH   1  72
ATOM     72  C   UNL A   1      35.422  20.472  25.009  1.00  0.00     0.118 C 
BRANCH  72  73
ATOM     73  N   UNL A   1      34.000  20.362  25.249  1.00  0.00    -0.351 N 
ATOM     74  C   UNL A   1      32.834  21.030  24.972  1.00  0.00     0.273 C 
ATOM     75  H   UNL A   1      33.808  19.554  25.778  1.00  0.00     0.163 HD
ATOM     76  O   UNL A   1      31.846  20.391  25.364  1.00  0.00    -0.267 OA
BRANCH  74  77
ATOM     77  C   UNL A   1      32.628  22.342  24.325  1.00  0.00     0.178 A 
ATOM     78  N   UNL A   1      32.015  22.292  23.079  1.00  0.00    -0.124 NA
ATOM     79  C   UNL A   1      32.827  23.695  24.627  1.00  0.00     0.122 A 
ATOM     80  N   UNL A   1      31.794  23.515  22.641  1.00  0.00    -0.061 NA
ATOM     81  N   UNL A   1      32.373  24.366  23.498  1.00  0.00    -0.213 N 
BRANCH  79  82
ATOM     82  C   UNL A   1      33.200  24.383  25.898  1.00  0.00     0.262 C 
ATOM     83  C   UNL A   1      31.983  24.461  26.836  1.00  0.00     0.281 C 
ATOM     84  O   UNL A   1      33.885  25.628  25.716  1.00  0.00    -0.477 OA
ATOM     85  O   UNL A   1      31.144  25.575  26.509  1.00  0.00    -0.485 OA
ATOM     86  C   UNL A   1      33.265  26.703  26.293  1.00  0.00     0.162 A 
ATOM     87  C   UNL A   1      31.905  26.710  26.609  1.00  0.00     0.161 A 
ATOM     88  C   UNL A   1      34.034  27.843  26.504  1.00  0.00     0.050 A 
ATOM     89  C   UNL A   1      31.287  27.875  27.046  1.00  0.00     0.050 A 
ATOM     90  C   UNL A   1      33.430  28.998  27.003  1.00  0.00     0.004 A 
ATOM     91  C   UNL A   1      32.055  29.021  27.251  1.00  0.00     0.004 A 
ENDBRANCH  79  82
BRANCH  81  92
ATOM     92  C   UNL A   1      32.452  25.731  23.171  1.00  0.00     0.067 A 
ATOM     93  C   UNL A   1      33.643  26.241  22.651  1.00  0.00     0.028 A 
ATOM     94  C   UNL A   1      31.308  26.527  23.287  1.00  0.00     0.041 A 
ATOM     95  C   UNL A   1      33.655  27.542  22.150  1.00  0.00     0.003 A 
ATOM     96  C   UNL A   1      31.323  27.841  22.801  1.00  0.00     0.058 A 
ATOM     97  C   UNL A   1      32.500  28.331  22.211  1.00  0.00     0.013 A 
BRANCH  96  98
ATOM     98  C   UNL A   1      30.075  28.685  22.834  1.00  0.00     0.416 C 
ATOM     99  F   UNL A   1      30.052  29.557  23.879  1.00  0.00    -0.166 F 
ATOM    100  F   UNL A   1      29.928  29.443  21.712  1.00  0.00    -0.166 F 
ATOM    101  F   UNL A   1      28.929  27.953  22.937  1.00  0.00    -0.166 F 
ENDBRANCH  96  98
ENDBRANCH  81  92
ENDBRANCH  74  77
ENDBRANCH  72  73
ENDBRANCH   1  72
TORSDOF 13
ENDMDL
MODEL 3
REMARK VINA RESULT:     -14.4      0.773      1.434
REMARK SMILES O=C(NCCCNC(=O)c1nnn(-c2cccc(C(F)(F)F)c2)c1[C@@H]1COc2ccccc2O1)c1ccc(-c2c3nc(c(-c4c(F)c(F)c(F)c(F)c4F)c4ccc([nH]4)c(-c4c(F)c(F)c(F)c(F)c4F)c4nc(c(-c5c(F)c(F)c(F)c(F)c5F)c5ccc2[nH]5)C=C4)C=C3)cc1
REMARK SMILES IDX 5 1 4 2 3 3 1 4 2 5 35 7 36 8 97 9 37 10 96 11 38 12 39 13
REMARK SMILES IDX 40 14 90 15 41 16 95 17 89 18 91 19 42 20 94 21 88 22 87 23
REMARK SMILES IDX 43 25 75 26 55 27 74 28 56 29 59 30 73 31 92 32 57 33 58 34
REMARK SMILES IDX 72 36 93 37 60 38 44 39 45 40 53 41 46 42 47 43 51 44 54 45
REMARK SMILES IDX 48 46 49 47 52 48 50 49 76 50 77 51 85 52 78 53 79 54 83 55
REMARK SMILES IDX 86 56 80 57 81 58 84 59 82 60 61 61 62 62 70 63 63 64 64 65
REMARK SMILES IDX 68 66 71 67 65 68 66 69 69 70 67 71 6 72 7 73 8 74 9 76
REMARK SMILES IDX 10 77 11 78 24 79 12 80 13 81 25 82 26 83 34 84 27 85 33 86
REMARK SMILES IDX 28 87 32 88 29 89 31 90 30 91 14 92 15 93 23 94 16 95 18 96
REMARK SMILES IDX 17 97 19 98 20 99 21 100 22 101
REMARK H PARENT 3 6 91 24 59 35 7 75
REMARK Flexibility Score: inf
ROOT
ATOM      1  C   UNL A   1      33.204  29.683  25.664  1.00  0.00     0.042 C 
ENDROOT
BRANCH   1   2
ATOM      2  C   UNL A   1      33.571  29.526  27.141  1.00  0.00     0.118 C 
BRANCH   2   3
ATOM      3  N   UNL A   1      33.715  30.787  27.847  1.00  0.00    -0.352 N 
ATOM      4  O   UNL A   1      34.413  32.560  28.944  1.00  0.00    -0.269 OA
ATOM      5  C   UNL A   1      34.723  31.460  28.479  1.00  0.00     0.251 C 
ATOM      6  H   UNL A   1      32.867  31.286  27.879  1.00  0.00     0.163 HD
BRANCH   5   7
ATOM      7  C   UNL A   1      36.122  30.980  28.669  1.00  0.00     0.039 A 
ATOM      8  C   UNL A   1      37.224  31.768  28.996  1.00  0.00     0.014 A 
ATOM      9  C   UNL A   1      36.326  29.596  28.488  1.00  0.00     0.014 A 
ATOM     10  C   UNL A   1      38.499  31.200  29.104  1.00  0.00     0.010 A 
ATOM     11  C   UNL A   1      37.591  29.023  28.611  1.00  0.00     0.010 A 
ATOM     12  C   UNL A   1      38.688  29.829  28.903  1.00  0.00    -0.014 A 
BRANCH  12  13
ATOM     13  C   UNL A   1      40.025  29.263  29.109  1.00  0.00     0.031 A 
ATOM     14  C   UNL A   1      40.492  29.113  30.523  1.00  0.00     0.074 A 
ATOM     15  C   UNL A   1      40.756  28.695  28.127  1.00  0.00     0.049 A 
ATOM     16  N   UNL A   1      41.616  29.491  31.050  1.00  0.00    -0.248 NA
ATOM     17  C   UNL A   1      39.587  28.445  31.470  1.00  0.00     0.031 C 
ATOM     18  C   UNL A   1      40.341  28.418  26.751  1.00  0.00     0.029 A 
ATOM     19  N   UNL A   1      42.001  28.134  28.199  1.00  0.00    -0.354 N 
ATOM     20  C   UNL A   1      41.627  28.987  32.352  1.00  0.00     0.074 A 
ATOM     21  C   UNL A   1      40.324  28.419  32.581  1.00  0.00     0.031 C 
ATOM     22  C   UNL A   1      41.224  27.566  26.186  1.00  0.00     0.029 A 
ATOM     23  C   UNL A   1      42.321  27.335  27.113  1.00  0.00     0.049 A 
ATOM     24  H   UNL A   1      42.615  28.284  28.954  1.00  0.00     0.167 HD
ATOM     25  C   UNL A   1      42.765  28.922  33.101  1.00  0.00     0.037 A 
ATOM     26  C   UNL A   1      43.371  26.488  27.000  1.00  0.00     0.037 A 
ATOM     27  C   UNL A   1      43.774  29.830  32.630  1.00  0.00     0.049 A 
ATOM     28  C   UNL A   1      44.390  26.862  28.008  1.00  0.00     0.074 A 
ATOM     29  C   UNL A   1      43.853  31.197  32.443  1.00  0.00     0.029 A 
ATOM     30  N   UNL A   1      44.894  29.322  32.023  1.00  0.00    -0.354 N 
ATOM     31  N   UNL A   1      45.136  27.928  27.955  1.00  0.00    -0.248 NA
ATOM     32  C   UNL A   1      44.372  26.174  29.291  1.00  0.00     0.031 C 
ATOM     33  C   UNL A   1      44.732  31.375  31.333  1.00  0.00     0.029 A 
ATOM     34  C   UNL A   1      45.129  30.102  30.924  1.00  0.00     0.049 A 
ATOM     35  H   UNL A   1      45.424  28.547  32.319  1.00  0.00     0.167 HD
ATOM     36  C   UNL A   1      45.349  28.272  29.278  1.00  0.00     0.074 A 
ATOM     37  C   UNL A   1      44.979  27.091  30.046  1.00  0.00     0.031 C 
ATOM     38  C   UNL A   1      45.529  29.574  29.645  1.00  0.00     0.037 A 
BRANCH  25  39
ATOM     39  C   UNL A   1      43.086  27.820  34.089  1.00  0.00     0.064 A 
ATOM     40  C   UNL A   1      43.257  28.140  35.454  1.00  0.00     0.173 A 
ATOM     41  C   UNL A   1      43.538  26.540  33.708  1.00  0.00     0.173 A 
ATOM     42  F   UNL A   1      42.876  29.335  35.931  1.00  0.00    -0.203 F 
ATOM     43  C   UNL A   1      43.917  27.284  36.341  1.00  0.00     0.198 A 
ATOM     44  C   UNL A   1      44.146  25.664  34.610  1.00  0.00     0.198 A 
ATOM     45  F   UNL A   1      43.511  26.129  32.434  1.00  0.00    -0.203 F 
ATOM     46  F   UNL A   1      44.179  27.694  37.590  1.00  0.00    -0.200 F 
ATOM     47  C   UNL A   1      44.369  26.050  35.915  1.00  0.00     0.200 A 
ATOM     48  F   UNL A   1      44.589  24.475  34.176  1.00  0.00    -0.200 F 
ATOM     49  F   UNL A   1      45.061  25.257  36.742  1.00  0.00    -0.200 F 
ENDBRANCH  25  39
BRANCH  26  50
ATOM     50  C   UNL A   1      43.468  25.236  26.216  1.00  0.00     0.064 A 
ATOM     51  C   UNL A   1      44.490  25.040  25.275  1.00  0.00     0.173 A 
ATOM     52  C   UNL A   1      42.702  24.103  26.555  1.00  0.00     0.173 A 
ATOM     53  F   UNL A   1      45.300  26.054  24.936  1.00  0.00    -0.203 F 
ATOM     54  C   UNL A   1      44.738  23.783  24.713  1.00  0.00     0.198 A 
ATOM     55  C   UNL A   1      42.940  22.854  25.984  1.00  0.00     0.198 A 
ATOM     56  F   UNL A   1      41.767  24.167  27.514  1.00  0.00    -0.203 F 
ATOM     57  F   UNL A   1      45.760  23.623  23.862  1.00  0.00    -0.200 F 
ATOM     58  C   UNL A   1      43.965  22.691  25.071  1.00  0.00     0.200 A 
ATOM     59  F   UNL A   1      42.207  21.799  26.366  1.00  0.00    -0.200 F 
ATOM     60  F   UNL A   1      44.233  21.477  24.572  1.00  0.00    -0.200 F 
ENDBRANCH  26  50
BRANCH  38  61
ATOM     61  C   UNL A   1      45.854  30.568  28.572  1.00  0.00     0.064 A 
ATOM     62  C   UNL A   1      44.888  31.161  27.743  1.00  0.00     0.173 A 
ATOM     63  C   UNL A   1      47.172  31.035  28.473  1.00  0.00     0.173 A 
ATOM     64  F   UNL A   1      43.590  30.845  27.860  1.00  0.00    -0.203 F 
ATOM     65  C   UNL A   1      45.240  32.140  26.816  1.00  0.00     0.198 A 
ATOM     66  C   UNL A   1      47.513  32.040  27.573  1.00  0.00     0.198 A 
ATOM     67  F   UNL A   1      48.122  30.548  29.287  1.00  0.00    -0.203 F 
ATOM     68  F   UNL A   1      44.303  32.684  26.024  1.00  0.00    -0.200 F 
ATOM     69  C   UNL A   1      46.550  32.582  26.737  1.00  0.00     0.200 A 
ATOM     70  F   UNL A   1      48.771  32.502  27.534  1.00  0.00    -0.200 F 
ATOM     71  F   UNL A   1      46.879  33.555  25.874  1.00  0.00    -0.200 F 
ENDBRANCH  38  61
ENDBRANCH  12  13
ENDBRANCH   5   7
ENDBRANCH   2   3
ENDBRANCH   1   2
BRANCH   1  72
ATOM     72  C   UNL A   1      31.744  30.062  25.422  1.00  0.00     0.118 C 
BRANCH  72  73
ATOM     73  N   UNL A   1      31.192  29.530  24.196  1.00  0.00    -0.351 N 
ATOM     74  C   UNL A   1      30.829  28.329  23.641  1.00  0.00     0.273 C 
ATOM     75  H   UNL A   1      31.024  30.261  23.557  1.00  0.00     0.163 HD
ATOM     76  O   UNL A   1      30.291  28.489  22.534  1.00  0.00    -0.267 OA
BRANCH  74  77
ATOM     77  C   UNL A   1      31.008  26.957  24.159  1.00  0.00     0.178 A 
ATOM     78  N   UNL A   1      29.834  26.233  24.322  1.00  0.00    -0.124 NA
ATOM     79  C   UNL A   1      32.064  26.105  24.504  1.00  0.00     0.122 A 
ATOM     80  N   UNL A   1      30.117  25.001  24.693  1.00  0.00    -0.061 NA
ATOM     81  N   UNL A   1      31.436  24.935  24.917  1.00  0.00    -0.213 N 
BRANCH  79  82
ATOM     82  C   UNL A   1      33.538  26.217  24.299  1.00  0.00     0.262 C 
ATOM     83  C   UNL A   1      33.897  25.886  22.840  1.00  0.00     0.281 C 
ATOM     84  O   UNL A   1      34.324  25.521  25.272  1.00  0.00    -0.477 OA
ATOM     85  O   UNL A   1      34.003  24.472  22.637  1.00  0.00    -0.485 OA
ATOM     86  C   UNL A   1      35.167  24.577  24.748  1.00  0.00     0.162 A 
ATOM     87  C   UNL A   1      34.966  24.003  23.492  1.00  0.00     0.161 A 
ATOM     88  C   UNL A   1      36.220  24.149  25.549  1.00  0.00     0.050 A 
ATOM     89  C   UNL A   1      35.753  22.938  23.068  1.00  0.00     0.050 A 
ATOM     90  C   UNL A   1      37.052  23.122  25.101  1.00  0.00     0.004 A 
ATOM     91  C   UNL A   1      36.805  22.503  23.873  1.00  0.00     0.004 A 
ENDBRANCH  79  82
BRANCH  81  92
ATOM     92  C   UNL A   1      31.981  23.782  25.506  1.00  0.00     0.067 A 
ATOM     93  C   UNL A   1      32.208  23.759  26.884  1.00  0.00     0.028 A 
ATOM     94  C   UNL A   1      32.199  22.650  24.714  1.00  0.00     0.041 A 
ATOM     95  C   UNL A   1      32.563  22.553  27.487  1.00  0.00     0.003 A 
ATOM     96  C   UNL A   1      32.576  21.442  25.316  1.00  0.00     0.058 A 
ATOM     97  C   UNL A   1      32.732  21.401  26.711  1.00  0.00     0.013 A 
BRANCH  96  98
ATOM     98  C   UNL A   1      32.727  20.189  24.492  1.00  0.00     0.416 C 
ATOM     99  F   UNL A   1      32.168  19.096  25.080  1.00  0.00    -0.166 F 
ATOM    100  F   UNL A   1      32.140  20.296  23.268  1.00  0.00    -0.166 F 
ATOM    101  F   UNL A   1      34.027  19.855  24.248  1.00  0.00    -0.166 F 
ENDBRANCH  96  98
ENDBRANCH  81  92
ENDBRANCH  74  77
ENDBRANCH  72  73
ENDBRANCH   1  72
TORSDOF 13
ENDMDL
