MODEL 1
REMARK VINA RESULT:     -11.3      0.000      0.000
REMARK SMILES CC(C)[C@H](Nc1cc(C#N)ccn1)C(=O)NCCCNC(=O)c1ccc(-c2c3nc(c(-c4c(F)c(F)c(F)c(F)c4F)c4ccc([nH]4)c(-c4c(F)c(F)c(F)c(F)c4F)c4nc(c(-c5c(F)c(F)c(F)c(F)c5F)c5ccc2[nH]5)C=C4)C=C3)cc1
REMARK SMILES IDX 17 1 16 2 14 3 15 4 4 6 2 7 1 8 3 9 5 10 6 12 7 13 13 14
REMARK SMILES IDX 8 15 12 16 11 17 9 18 10 19 18 20 19 21 20 22 21 23 22 25
REMARK SMILES IDX 23 26 24 27 85 28 25 29 84 30 26 31 27 32 28 33 78 34 29 35
REMARK SMILES IDX 83 36 77 37 79 38 30 39 82 40 76 41 75 42 31 44 63 45 43 46
REMARK SMILES IDX 62 47 44 48 47 49 61 50 80 51 45 52 46 53 60 55 81 56 48 57
REMARK SMILES IDX 32 58 33 59 41 60 34 61 35 62 39 63 42 64 36 65 37 66 40 67
REMARK SMILES IDX 38 68 64 69 65 70 73 71 66 72 67 73 71 74 74 75 68 76 69 77
REMARK SMILES IDX 72 78 70 79 49 80 50 81 58 82 51 83 52 84 56 85 59 86 53 87
REMARK SMILES IDX 54 88 57 89 55 90
REMARK H PARENT 16 5 5 11 20 24 79 43 47 54
REMARK Flexibility Score: inf
ROOT
ATOM      1  C   UNL A   1      35.902  20.791  24.878  1.00  0.00     0.117 C 
ENDROOT
BRANCH   1   2
ATOM      2  N   UNL A   1      35.398  21.047  26.210  1.00  0.00    -0.354 N 
ATOM      3  C   UNL A   1      34.188  21.505  26.644  1.00  0.00     0.242 C 
ATOM      4  O   UNL A   1      34.105  21.733  27.858  1.00  0.00    -0.273 OA
ATOM      5  H   UNL A   1      36.040  20.857  26.931  1.00  0.00     0.163 HD
BRANCH   3   6
ATOM      6  C   UNL A   1      32.940  21.717  25.727  1.00  0.00     0.172 C 
BRANCH   6   7
ATOM      7  C   UNL A   1      32.110  22.974  26.077  1.00  0.00     0.015 C 
ATOM      8  C   UNL A   1      32.940  24.236  25.746  1.00  0.00     0.010 C 
ATOM      9  C   UNL A   1      30.758  23.136  25.370  1.00  0.00     0.010 C 
ENDBRANCH   6   7
BRANCH   6  10
ATOM     10  N   UNL A   1      32.257  20.456  25.411  1.00  0.00    -0.358 N 
ATOM     11  H   UNL A   1      31.343  20.427  25.775  1.00  0.00     0.162 HD
BRANCH  10  12
ATOM     12  C   UNL A   1      32.578  19.324  24.740  1.00  0.00     0.127 A 
ATOM     13  C   UNL A   1      33.278  18.244  25.239  1.00  0.00     0.066 A 
ATOM     14  N   UNL A   1      32.159  19.334  23.458  1.00  0.00    -0.239 NA
ATOM     15  C   UNL A   1      33.611  17.185  24.388  1.00  0.00     0.057 A 
ATOM     16  C   UNL A   1      32.485  18.305  22.644  1.00  0.00     0.115 A 
ATOM     17  C   UNL A   1      33.218  17.216  23.056  1.00  0.00     0.040 A 
BRANCH  15  18
ATOM     18  C   UNL A   1      34.455  16.131  24.870  1.00  0.00     0.099 C 
ATOM     19  N   UNL A   1      35.127  15.259  25.225  1.00  0.00    -0.192 NA
ENDBRANCH  15  18
ENDBRANCH  10  12
ENDBRANCH   6  10
ENDBRANCH   3   6
ENDBRANCH   1   2
BRANCH   1  20
ATOM     20  C   UNL A   1      37.126  19.880  24.909  1.00  0.00     0.042 C 
BRANCH  20  21
ATOM     21  C   UNL A   1      38.444  20.570  25.198  1.00  0.00     0.118 C 
BRANCH  21  22
ATOM     22  N   UNL A   1      39.465  19.608  25.592  1.00  0.00    -0.352 N 
ATOM     23  C   UNL A   1      40.744  19.773  26.067  1.00  0.00     0.251 C 
ATOM     24  H   UNL A   1      39.188  18.668  25.501  1.00  0.00     0.163 HD
ATOM     25  O   UNL A   1      41.504  18.806  26.044  1.00  0.00    -0.269 OA
BRANCH  23  26
ATOM     26  C   UNL A   1      41.236  21.067  26.604  1.00  0.00     0.039 A 
ATOM     27  C   UNL A   1      41.695  22.037  25.704  1.00  0.00     0.014 A 
ATOM     28  C   UNL A   1      41.343  21.313  27.974  1.00  0.00     0.014 A 
ATOM     29  C   UNL A   1      42.215  23.249  26.175  1.00  0.00     0.010 A 
ATOM     30  C   UNL A   1      41.751  22.563  28.438  1.00  0.00     0.010 A 
ATOM     31  C   UNL A   1      42.215  23.539  27.547  1.00  0.00    -0.014 A 
BRANCH  31  32
ATOM     32  C   UNL A   1      42.708  24.843  28.070  1.00  0.00     0.031 A 
ATOM     33  C   UNL A   1      41.734  25.935  28.437  1.00  0.00     0.074 A 
ATOM     34  C   UNL A   1      44.034  25.068  28.156  1.00  0.00     0.049 A 
ATOM     35  N   UNL A   1      41.975  27.162  28.827  1.00  0.00    -0.248 NA
ATOM     36  C   UNL A   1      40.300  25.619  28.326  1.00  0.00     0.031 C 
ATOM     37  C   UNL A   1      45.079  24.109  27.793  1.00  0.00     0.029 A 
ATOM     38  N   UNL A   1      44.734  26.179  28.561  1.00  0.00    -0.354 N 
ATOM     39  C   UNL A   1      40.732  27.763  28.987  1.00  0.00     0.074 A 
ATOM     40  C   UNL A   1      39.737  26.786  28.606  1.00  0.00     0.031 C 
ATOM     41  C   UNL A   1      46.282  24.663  28.010  1.00  0.00     0.029 A 
ATOM     42  C   UNL A   1      46.098  26.034  28.472  1.00  0.00     0.049 A 
ATOM     43  H   UNL A   1      44.300  27.001  28.884  1.00  0.00     0.167 HD
ATOM     44  C   UNL A   1      40.447  29.011  29.429  1.00  0.00     0.037 A 
ATOM     45  C   UNL A   1      47.090  26.914  28.713  1.00  0.00     0.037 A 
ATOM     46  C   UNL A   1      41.439  29.970  29.838  1.00  0.00     0.049 A 
ATOM     47  C   UNL A   1      46.738  28.300  29.187  1.00  0.00     0.074 A 
ATOM     48  C   UNL A   1      41.246  31.232  30.375  1.00  0.00     0.029 A 
ATOM     49  N   UNL A   1      42.809  29.780  29.747  1.00  0.00    -0.354 N 
ATOM     50  N   UNL A   1      45.557  28.825  29.414  1.00  0.00    -0.248 NA
ATOM     51  C   UNL A   1      47.857  29.217  29.446  1.00  0.00     0.031 C 
ATOM     52  C   UNL A   1      42.495  31.835  30.533  1.00  0.00     0.029 A 
ATOM     53  C   UNL A   1      43.471  30.919  30.177  1.00  0.00     0.049 A 
ATOM     54  H   UNL A   1      43.247  28.959  29.425  1.00  0.00     0.167 HD
ATOM     55  C   UNL A   1      45.793  30.114  29.873  1.00  0.00     0.074 A 
ATOM     56  C   UNL A   1      47.229  30.286  29.915  1.00  0.00     0.031 C 
ATOM     57  C   UNL A   1      44.902  31.072  30.226  1.00  0.00     0.037 A 
BRANCH  44  58
ATOM     58  C   UNL A   1      39.006  29.433  29.494  1.00  0.00     0.064 A 
ATOM     59  C   UNL A   1      38.309  29.510  30.708  1.00  0.00     0.173 A 
ATOM     60  C   UNL A   1      38.344  29.862  28.333  1.00  0.00     0.173 A 
ATOM     61  F   UNL A   1      38.890  29.106  31.848  1.00  0.00    -0.203 F 
ATOM     62  C   UNL A   1      37.001  29.987  30.756  1.00  0.00     0.198 A 
ATOM     63  C   UNL A   1      37.049  30.370  28.388  1.00  0.00     0.198 A 
ATOM     64  F   UNL A   1      38.966  29.816  27.144  1.00  0.00    -0.203 F 
ATOM     65  F   UNL A   1      36.343  30.020  31.924  1.00  0.00    -0.200 F 
ATOM     66  C   UNL A   1      36.377  30.429  29.599  1.00  0.00     0.200 A 
ATOM     67  F   UNL A   1      36.456  30.814  27.271  1.00  0.00    -0.200 F 
ATOM     68  F   UNL A   1      35.128  30.912  29.651  1.00  0.00    -0.200 F 
ENDBRANCH  44  58
BRANCH  45  69
ATOM     69  C   UNL A   1      48.511  26.529  28.491  1.00  0.00     0.064 A 
ATOM     70  C   UNL A   1      49.310  26.052  29.541  1.00  0.00     0.173 A 
ATOM     71  C   UNL A   1      49.118  26.679  27.234  1.00  0.00     0.173 A 
ATOM     72  F   UNL A   1      48.785  25.903  30.766  1.00  0.00    -0.203 F 
ATOM     73  C   UNL A   1      50.666  25.789  29.355  1.00  0.00     0.198 A 
ATOM     74  C   UNL A   1      50.463  26.377  27.039  1.00  0.00     0.198 A 
ATOM     75  F   UNL A   1      48.400  27.121  26.190  1.00  0.00    -0.203 F 
ATOM     76  F   UNL A   1      51.422  25.413  30.395  1.00  0.00    -0.200 F 
ATOM     77  C   UNL A   1      51.241  25.950  28.103  1.00  0.00     0.200 A 
ATOM     78  F   UNL A   1      51.008  26.511  25.822  1.00  0.00    -0.200 F 
ATOM     79  F   UNL A   1      52.546  25.704  27.926  1.00  0.00    -0.200 F 
ENDBRANCH  45  69
BRANCH  57  80
ATOM     80  C   UNL A   1      45.450  32.376  30.736  1.00  0.00     0.064 A 
ATOM     81  C   UNL A   1      45.743  32.577  32.093  1.00  0.00     0.173 A 
ATOM     82  C   UNL A   1      45.722  33.425  29.844  1.00  0.00     0.173 A 
ATOM     83  F   UNL A   1      45.492  31.612  32.990  1.00  0.00    -0.203 F 
ATOM     84  C   UNL A   1      46.255  33.792  32.542  1.00  0.00     0.198 A 
ATOM     85  C   UNL A   1      46.272  34.623  30.291  1.00  0.00     0.198 A 
ATOM     86  F   UNL A   1      45.469  33.283  28.534  1.00  0.00    -0.203 F 
ATOM     87  F   UNL A   1      46.470  33.983  33.850  1.00  0.00    -0.200 F 
ATOM     88  C   UNL A   1      46.528  34.810  31.640  1.00  0.00     0.200 A 
ATOM     89  F   UNL A   1      46.555  35.596  29.413  1.00  0.00    -0.200 F 
ATOM     90  F   UNL A   1      47.030  35.974  32.072  1.00  0.00    -0.200 F 
ENDBRANCH  57  80
ENDBRANCH  31  32
ENDBRANCH  23  26
ENDBRANCH  21  22
ENDBRANCH  20  21
ENDBRANCH   1  20
TORSDOF 14
ENDMDL
MODEL 2
REMARK VINA RESULT:     -11.3      5.710     10.563
REMARK SMILES CC(C)[C@H](Nc1cc(C#N)ccn1)C(=O)NCCCNC(=O)c1ccc(-c2c3nc(c(-c4c(F)c(F)c(F)c(F)c4F)c4ccc([nH]4)c(-c4c(F)c(F)c(F)c(F)c4F)c4nc(c(-c5c(F)c(F)c(F)c(F)c5F)c5ccc2[nH]5)C=C4)C=C3)cc1
REMARK SMILES IDX 17 1 16 2 14 3 15 4 4 6 2 7 1 8 3 9 5 10 6 12 7 13 13 14
REMARK SMILES IDX 8 15 12 16 11 17 9 18 10 19 18 20 19 21 20 22 21 23 22 25
REMARK SMILES IDX 23 26 24 27 85 28 25 29 84 30 26 31 27 32 28 33 78 34 29 35
REMARK SMILES IDX 83 36 77 37 79 38 30 39 82 40 76 41 75 42 31 44 63 45 43 46
REMARK SMILES IDX 62 47 44 48 47 49 61 50 80 51 45 52 46 53 60 55 81 56 48 57
REMARK SMILES IDX 32 58 33 59 41 60 34 61 35 62 39 63 42 64 36 65 37 66 40 67
REMARK SMILES IDX 38 68 64 69 65 70 73 71 66 72 67 73 71 74 74 75 68 76 69 77
REMARK SMILES IDX 72 78 70 79 49 80 50 81 58 82 51 83 52 84 56 85 59 86 53 87
REMARK SMILES IDX 54 88 57 89 55 90
REMARK H PARENT 16 5 5 11 20 24 79 43 47 54
REMARK Flexibility Score: inf
ROOT
ATOM      1  C   UNL A   1      33.382  29.079  25.439  1.00  0.00     0.117 C 
ENDROOT
BRANCH   1   2
ATOM      2  N   UNL A   1      33.948  29.076  24.107  1.00  0.00    -0.354 N 
ATOM      3  C   UNL A   1      33.594  28.397  22.977  1.00  0.00     0.242 C 
ATOM      4  O   UNL A   1      34.361  28.523  22.014  1.00  0.00    -0.273 OA
ATOM      5  H   UNL A   1      34.725  29.670  23.995  1.00  0.00     0.163 HD
BRANCH   3   6
ATOM      6  C   UNL A   1      32.303  27.528  22.834  1.00  0.00     0.172 C 
BRANCH   6   7
ATOM      7  C   UNL A   1      32.579  26.015  22.677  1.00  0.00     0.015 C 
ATOM      8  C   UNL A   1      33.587  25.570  23.762  1.00  0.00     0.010 C 
ATOM      9  C   UNL A   1      31.373  25.071  22.782  1.00  0.00     0.010 C 
ENDBRANCH   6   7
BRANCH   6  10
ATOM     10  N   UNL A   1      31.283  28.175  21.998  1.00  0.00    -0.358 N 
ATOM     11  H   UNL A   1      31.523  28.161  21.043  1.00  0.00     0.162 HD
BRANCH  10  12
ATOM     12  C   UNL A   1      30.095  28.784  22.220  1.00  0.00     0.127 A 
ATOM     13  C   UNL A   1      29.762  30.081  21.884  1.00  0.00     0.066 A 
ATOM     14  N   UNL A   1      29.206  27.993  22.856  1.00  0.00    -0.239 NA
ATOM     15  C   UNL A   1      28.518  30.595  22.267  1.00  0.00     0.057 A 
ATOM     16  C   UNL A   1      28.007  28.499  23.219  1.00  0.00     0.115 A 
ATOM     17  C   UNL A   1      27.620  29.794  22.960  1.00  0.00     0.040 A 
BRANCH  15  18
ATOM     18  C   UNL A   1      28.227  31.981  22.040  1.00  0.00     0.099 C 
ATOM     19  N   UNL A   1      28.026  33.108  21.881  1.00  0.00    -0.192 NA
ENDBRANCH  15  18
ENDBRANCH  10  12
ENDBRANCH   6  10
ENDBRANCH   3   6
ENDBRANCH   1   2
BRANCH   1  20
ATOM     20  C   UNL A   1      32.236  30.078  25.558  1.00  0.00     0.042 C 
BRANCH  20  21
ATOM     21  C   UNL A   1      32.072  30.722  26.920  1.00  0.00     0.118 C 
BRANCH  21  22
ATOM     22  N   UNL A   1      32.306  32.159  26.854  1.00  0.00    -0.352 N 
ATOM     23  C   UNL A   1      33.187  32.976  27.521  1.00  0.00     0.251 C 
ATOM     24  H   UNL A   1      31.725  32.631  26.214  1.00  0.00     0.163 HD
ATOM     25  O   UNL A   1      32.985  34.188  27.504  1.00  0.00    -0.269 OA
BRANCH  23  26
ATOM     26  C   UNL A   1      34.367  32.448  28.252  1.00  0.00     0.039 A 
ATOM     27  C   UNL A   1      35.518  33.243  28.332  1.00  0.00     0.014 A 
ATOM     28  C   UNL A   1      34.402  31.156  28.779  1.00  0.00     0.014 A 
ATOM     29  C   UNL A   1      36.668  32.760  28.968  1.00  0.00     0.010 A 
ATOM     30  C   UNL A   1      35.505  30.720  29.512  1.00  0.00     0.010 A 
ATOM     31  C   UNL A   1      36.662  31.507  29.597  1.00  0.00    -0.014 A 
BRANCH  31  32
ATOM     32  C   UNL A   1      37.852  30.994  30.329  1.00  0.00     0.031 A 
ATOM     33  C   UNL A   1      38.780  30.000  29.674  1.00  0.00     0.074 A 
ATOM     34  C   UNL A   1      38.064  31.373  31.605  1.00  0.00     0.049 A 
ATOM     35  N   UNL A   1      39.816  29.377  30.180  1.00  0.00    -0.248 NA
ATOM     36  C   UNL A   1      38.493  29.635  28.277  1.00  0.00     0.031 C 
ATOM     37  C   UNL A   1      37.219  32.295  32.364  1.00  0.00     0.029 A 
ATOM     38  N   UNL A   1      39.048  31.019  32.496  1.00  0.00    -0.354 N 
ATOM     39  C   UNL A   1      40.285  28.540  29.175  1.00  0.00     0.074 A 
ATOM     40  C   UNL A   1      39.397  28.694  28.046  1.00  0.00     0.031 C 
ATOM     41  C   UNL A   1      37.728  32.450  33.596  1.00  0.00     0.029 A 
ATOM     42  C   UNL A   1      38.903  31.597  33.735  1.00  0.00     0.049 A 
ATOM     43  H   UNL A   1      39.788  30.410  32.270  1.00  0.00     0.167 HD
ATOM     44  C   UNL A   1      41.371  27.730  29.189  1.00  0.00     0.037 A 
ATOM     45  C   UNL A   1      39.621  31.439  34.865  1.00  0.00     0.037 A 
ATOM     46  C   UNL A   1      42.272  27.604  30.303  1.00  0.00     0.049 A 
ATOM     47  C   UNL A   1      40.813  30.517  34.850  1.00  0.00     0.074 A 
ATOM     48  C   UNL A   1      43.443  26.870  30.384  1.00  0.00     0.029 A 
ATOM     49  N   UNL A   1      42.098  28.217  31.535  1.00  0.00    -0.354 N 
ATOM     50  N   UNL A   1      41.294  29.797  33.865  1.00  0.00    -0.248 NA
ATOM     51  C   UNL A   1      41.569  30.390  36.105  1.00  0.00     0.031 C 
ATOM     52  C   UNL A   1      43.935  26.974  31.687  1.00  0.00     0.029 A 
ATOM     53  C   UNL A   1      43.119  27.842  32.394  1.00  0.00     0.049 A 
ATOM     54  H   UNL A   1      41.362  28.827  31.765  1.00  0.00     0.167 HD
ATOM     55  C   UNL A   1      42.421  29.164  34.369  1.00  0.00     0.074 A 
ATOM     56  C   UNL A   1      42.569  29.600  35.741  1.00  0.00     0.031 C 
ATOM     57  C   UNL A   1      43.260  28.295  33.754  1.00  0.00     0.037 A 
BRANCH  44  58
ATOM     58  C   UNL A   1      41.658  26.902  27.967  1.00  0.00     0.064 A 
ATOM     59  C   UNL A   1      42.562  27.322  26.981  1.00  0.00     0.173 A 
ATOM     60  C   UNL A   1      41.094  25.623  27.834  1.00  0.00     0.173 A 
ATOM     61  F   UNL A   1      43.125  28.537  27.054  1.00  0.00    -0.203 F 
ATOM     62  C   UNL A   1      42.879  26.500  25.902  1.00  0.00     0.198 A 
ATOM     63  C   UNL A   1      41.439  24.791  26.773  1.00  0.00     0.198 A 
ATOM     64  F   UNL A   1      40.228  25.168  28.753  1.00  0.00    -0.203 F 
ATOM     65  F   UNL A   1      43.721  26.936  24.954  1.00  0.00    -0.200 F 
ATOM     66  C   UNL A   1      42.329  25.231  25.806  1.00  0.00     0.200 A 
ATOM     67  F   UNL A   1      40.919  23.558  26.694  1.00  0.00    -0.200 F 
ATOM     68  F   UNL A   1      42.655  24.432  24.781  1.00  0.00    -0.200 F 
ENDBRANCH  44  58
BRANCH  45  69
ATOM     69  C   UNL A   1      39.229  32.148  36.114  1.00  0.00     0.064 A 
ATOM     70  C   UNL A   1      38.306  31.589  37.011  1.00  0.00     0.173 A 
ATOM     71  C   UNL A   1      39.729  33.425  36.413  1.00  0.00     0.173 A 
ATOM     72  F   UNL A   1      37.785  30.377  36.765  1.00  0.00    -0.203 F 
ATOM     73  C   UNL A   1      37.863  32.298  38.127  1.00  0.00     0.198 A 
ATOM     74  C   UNL A   1      39.318  34.114  37.551  1.00  0.00     0.198 A 
ATOM     75  F   UNL A   1      40.623  34.005  35.598  1.00  0.00    -0.203 F 
ATOM     76  F   UNL A   1      36.920  31.771  38.920  1.00  0.00    -0.200 F 
ATOM     77  C   UNL A   1      38.371  33.559  38.397  1.00  0.00     0.200 A 
ATOM     78  F   UNL A   1      39.830  35.323  37.821  1.00  0.00    -0.200 F 
ATOM     79  F   UNL A   1      37.940  34.242  39.465  1.00  0.00    -0.200 F 
ENDBRANCH  45  69
BRANCH  57  80
ATOM     80  C   UNL A   1      44.441  27.795  34.539  1.00  0.00     0.064 A 
ATOM     81  C   UNL A   1      45.657  28.492  34.574  1.00  0.00     0.173 A 
ATOM     82  C   UNL A   1      44.337  26.620  35.300  1.00  0.00     0.173 A 
ATOM     83  F   UNL A   1      45.815  29.615  33.856  1.00  0.00    -0.203 F 
ATOM     84  C   UNL A   1      46.736  28.013  35.313  1.00  0.00     0.198 A 
ATOM     85  C   UNL A   1      45.403  26.166  36.070  1.00  0.00     0.198 A 
ATOM     86  F   UNL A   1      43.193  25.919  35.311  1.00  0.00    -0.203 F 
ATOM     87  F   UNL A   1      47.907  28.662  35.282  1.00  0.00    -0.200 F 
ATOM     88  C   UNL A   1      46.605  26.856  36.068  1.00  0.00     0.200 A 
ATOM     89  F   UNL A   1      45.266  25.061  36.816  1.00  0.00    -0.200 F 
ATOM     90  F   UNL A   1      47.641  26.403  36.787  1.00  0.00    -0.200 F 
ENDBRANCH  57  80
ENDBRANCH  31  32
ENDBRANCH  23  26
ENDBRANCH  21  22
ENDBRANCH  20  21
ENDBRANCH   1  20
TORSDOF 14
ENDMDL
MODEL 3
REMARK VINA RESULT:     -11.3      4.522      8.530
REMARK SMILES CC(C)[C@H](Nc1cc(C#N)ccn1)C(=O)NCCCNC(=O)c1ccc(-c2c3nc(c(-c4c(F)c(F)c(F)c(F)c4F)c4ccc([nH]4)c(-c4c(F)c(F)c(F)c(F)c4F)c4nc(c(-c5c(F)c(F)c(F)c(F)c5F)c5ccc2[nH]5)C=C4)C=C3)cc1
REMARK SMILES IDX 17 1 16 2 14 3 15 4 4 6 2 7 1 8 3 9 5 10 6 12 7 13 13 14
REMARK SMILES IDX 8 15 12 16 11 17 9 18 10 19 18 20 19 21 20 22 21 23 22 25
REMARK SMILES IDX 23 26 24 27 85 28 25 29 84 30 26 31 27 32 28 33 78 34 29 35
REMARK SMILES IDX 83 36 77 37 79 38 30 39 82 40 76 41 75 42 31 44 63 45 43 46
REMARK SMILES IDX 62 47 44 48 47 49 61 50 80 51 45 52 46 53 60 55 81 56 48 57
REMARK SMILES IDX 32 58 33 59 41 60 34 61 35 62 39 63 42 64 36 65 37 66 40 67
REMARK SMILES IDX 38 68 64 69 65 70 73 71 66 72 67 73 71 74 74 75 68 76 69 77
REMARK SMILES IDX 72 78 70 79 49 80 50 81 58 82 51 83 52 84 56 85 59 86 53 87
REMARK SMILES IDX 54 88 57 89 55 90
REMARK H PARENT 16 5 5 11 20 24 79 43 47 54
REMARK Flexibility Score: inf
ROOT
ATOM      1  C   UNL A   1      31.889  28.007  27.072  1.00  0.00     0.117 C 
ENDROOT
BRANCH   1   2
ATOM      2  N   UNL A   1      31.038  26.854  26.873  1.00  0.00    -0.354 N 
ATOM      3  C   UNL A   1      30.523  26.299  25.739  1.00  0.00     0.242 C 
ATOM      4  O   UNL A   1      29.721  25.371  25.913  1.00  0.00    -0.273 OA
ATOM      5  H   UNL A   1      30.788  26.386  27.702  1.00  0.00     0.163 HD
BRANCH   3   6
ATOM      6  C   UNL A   1      30.900  26.736  24.287  1.00  0.00     0.172 C 
BRANCH   6   7
ATOM      7  C   UNL A   1      32.145  26.016  23.717  1.00  0.00     0.015 C 
ATOM      8  C   UNL A   1      31.685  24.818  22.856  1.00  0.00     0.010 C 
ATOM      9  C   UNL A   1      33.094  26.849  22.845  1.00  0.00     0.010 C 
ENDBRANCH   6   7
BRANCH   6  10
ATOM     10  N   UNL A   1      30.731  28.179  24.075  1.00  0.00    -0.358 N 
ATOM     11  H   UNL A   1      31.527  28.690  24.349  1.00  0.00     0.162 HD
BRANCH  10  12
ATOM     12  C   UNL A   1      29.748  28.978  23.596  1.00  0.00     0.127 A 
ATOM     13  C   UNL A   1      29.805  30.349  23.444  1.00  0.00     0.066 A 
ATOM     14  N   UNL A   1      28.626  28.301  23.277  1.00  0.00    -0.239 NA
ATOM     15  C   UNL A   1      28.667  31.044  23.021  1.00  0.00     0.057 A 
ATOM     16  C   UNL A   1      27.533  28.981  22.867  1.00  0.00     0.115 A 
ATOM     17  C   UNL A   1      27.498  30.351  22.735  1.00  0.00     0.040 A 
BRANCH  15  18
ATOM     18  C   UNL A   1      28.683  32.477  22.996  1.00  0.00     0.099 C 
ATOM     19  N   UNL A   1      28.656  33.633  22.969  1.00  0.00    -0.192 NA
ENDBRANCH  15  18
ENDBRANCH  10  12
ENDBRANCH   6  10
ENDBRANCH   3   6
ENDBRANCH   1   2
BRANCH   1  20
ATOM     20  C   UNL A   1      33.338  27.705  26.703  1.00  0.00     0.042 C 
BRANCH  20  21
ATOM     21  C   UNL A   1      34.047  28.786  25.911  1.00  0.00     0.118 C 
BRANCH  21  22
ATOM     22  N   UNL A   1      33.887  30.090  26.542  1.00  0.00    -0.352 N 
ATOM     23  C   UNL A   1      34.568  30.701  27.566  1.00  0.00     0.251 C 
ATOM     24  H   UNL A   1      33.156  30.631  26.165  1.00  0.00     0.163 HD
ATOM     25  O   UNL A   1      34.052  31.676  28.109  1.00  0.00    -0.269 OA
BRANCH  23  26
ATOM     26  C   UNL A   1      35.896  30.231  28.034  1.00  0.00     0.039 A 
ATOM     27  C   UNL A   1      36.010  29.730  29.338  1.00  0.00     0.014 A 
ATOM     28  C   UNL A   1      37.049  30.358  27.257  1.00  0.00     0.014 A 
ATOM     29  C   UNL A   1      37.256  29.326  29.834  1.00  0.00     0.010 A 
ATOM     30  C   UNL A   1      38.266  29.848  27.708  1.00  0.00     0.010 A 
ATOM     31  C   UNL A   1      38.391  29.347  29.011  1.00  0.00    -0.014 A 
BRANCH  31  32
ATOM     32  C   UNL A   1      39.716  28.869  29.494  1.00  0.00     0.031 A 
ATOM     33  C   UNL A   1      40.529  29.710  30.447  1.00  0.00     0.074 A 
ATOM     34  C   UNL A   1      40.216  27.707  29.028  1.00  0.00     0.049 A 
ATOM     35  N   UNL A   1      41.736  29.502  30.911  1.00  0.00    -0.248 NA
ATOM     36  C   UNL A   1      39.919  30.963  30.922  1.00  0.00     0.031 C 
ATOM     37  C   UNL A   1      39.548  26.822  28.072  1.00  0.00     0.029 A 
ATOM     38  N   UNL A   1      41.410  27.076  29.281  1.00  0.00    -0.354 N 
ATOM     39  C   UNL A   1      42.033  30.601  31.709  1.00  0.00     0.074 A 
ATOM     40  C   UNL A   1      40.902  31.498  31.631  1.00  0.00     0.031 C 
ATOM     41  C   UNL A   1      40.328  25.756  27.836  1.00  0.00     0.029 A 
ATOM     42  C   UNL A   1      41.576  25.907  28.576  1.00  0.00     0.049 A 
ATOM     43  H   UNL A   1      42.083  27.426  29.908  1.00  0.00     0.167 HD
ATOM     44  C   UNL A   1      43.141  30.830  32.453  1.00  0.00     0.037 A 
ATOM     45  C   UNL A   1      42.625  25.064  28.514  1.00  0.00     0.037 A 
ATOM     46  C   UNL A   1      44.250  29.919  32.554  1.00  0.00     0.049 A 
ATOM     47  C   UNL A   1      43.849  25.357  29.342  1.00  0.00     0.074 A 
ATOM     48  C   UNL A   1      45.382  30.026  33.344  1.00  0.00     0.029 A 
ATOM     49  N   UNL A   1      44.374  28.740  31.835  1.00  0.00    -0.354 N 
ATOM     50  N   UNL A   1      44.079  26.358  30.157  1.00  0.00    -0.248 NA
ATOM     51  C   UNL A   1      44.960  24.399  29.247  1.00  0.00     0.031 C 
ATOM     52  C   UNL A   1      46.226  28.955  33.044  1.00  0.00     0.029 A 
ATOM     53  C   UNL A   1      45.584  28.133  32.133  1.00  0.00     0.049 A 
ATOM     54  H   UNL A   1      43.703  28.386  31.209  1.00  0.00     0.167 HD
ATOM     55  C   UNL A   1      45.339  26.132  30.695  1.00  0.00     0.074 A 
ATOM     56  C   UNL A   1      45.816  24.887  30.132  1.00  0.00     0.031 C 
ATOM     57  C   UNL A   1      46.041  26.887  31.574  1.00  0.00     0.037 A 
BRANCH  44  58
ATOM     58  C   UNL A   1      43.229  32.118  33.223  1.00  0.00     0.064 A 
ATOM     59  C   UNL A   1      42.737  32.237  34.530  1.00  0.00     0.173 A 
ATOM     60  C   UNL A   1      43.906  33.221  32.676  1.00  0.00     0.173 A 
ATOM     61  F   UNL A   1      42.075  31.218  35.098  1.00  0.00    -0.203 F 
ATOM     62  C   UNL A   1      42.908  33.414  35.256  1.00  0.00     0.198 A 
ATOM     63  C   UNL A   1      44.104  34.382  33.417  1.00  0.00     0.198 A 
ATOM     64  F   UNL A   1      44.403  33.159  31.431  1.00  0.00    -0.203 F 
ATOM     65  F   UNL A   1      42.400  33.516  36.493  1.00  0.00    -0.200 F 
ATOM     66  C   UNL A   1      43.603  34.480  34.705  1.00  0.00     0.200 A 
ATOM     67  F   UNL A   1      44.793  35.403  32.887  1.00  0.00    -0.200 F 
ATOM     68  F   UNL A   1      43.788  35.601  35.415  1.00  0.00    -0.200 F 
ENDBRANCH  44  58
BRANCH  45  69
ATOM     69  C   UNL A   1      42.583  23.871  27.623  1.00  0.00     0.064 A 
ATOM     70  C   UNL A   1      42.228  22.606  28.113  1.00  0.00     0.173 A 
ATOM     71  C   UNL A   1      42.948  23.961  26.270  1.00  0.00     0.173 A 
ATOM     72  F   UNL A   1      41.885  22.461  29.402  1.00  0.00    -0.203 F 
ATOM     73  C   UNL A   1      42.288  21.474  27.302  1.00  0.00     0.198 A 
ATOM     74  C   UNL A   1      42.967  22.836  25.450  1.00  0.00     0.198 A 
ATOM     75  F   UNL A   1      43.286  25.147  25.742  1.00  0.00    -0.203 F 
ATOM     76  F   UNL A   1      42.022  20.267  27.820  1.00  0.00    -0.200 F 
ATOM     77  C   UNL A   1      42.655  21.590  25.970  1.00  0.00     0.200 A 
ATOM     78  F   UNL A   1      43.299  22.958  24.157  1.00  0.00    -0.200 F 
ATOM     79  F   UNL A   1      42.720  20.501  25.193  1.00  0.00    -0.200 F 
ENDBRANCH  45  69
BRANCH  57  80
ATOM     80  C   UNL A   1      47.379  26.368  32.023  1.00  0.00     0.064 A 
ATOM     81  C   UNL A   1      47.506  25.475  33.097  1.00  0.00     0.173 A 
ATOM     82  C   UNL A   1      48.547  26.741  31.339  1.00  0.00     0.173 A 
ATOM     83  F   UNL A   1      46.424  25.094  33.793  1.00  0.00    -0.203 F 
ATOM     84  C   UNL A   1      48.755  25.003  33.491  1.00  0.00     0.198 A 
ATOM     85  C   UNL A   1      49.789  26.235  31.710  1.00  0.00     0.198 A 
ATOM     86  F   UNL A   1      48.481  27.585  30.298  1.00  0.00    -0.203 F 
ATOM     87  F   UNL A   1      48.859  24.199  34.558  1.00  0.00    -0.200 F 
ATOM     88  C   UNL A   1      49.894  25.375  32.792  1.00  0.00     0.200 A 
ATOM     89  F   UNL A   1      50.884  26.579  31.018  1.00  0.00    -0.200 F 
ATOM     90  F   UNL A   1      51.094  24.911  33.166  1.00  0.00    -0.200 F 
ENDBRANCH  57  80
ENDBRANCH  31  32
ENDBRANCH  23  26
ENDBRANCH  21  22
ENDBRANCH  20  21
ENDBRANCH   1  20
TORSDOF 14
ENDMDL
