MODEL 1
REMARK VINA RESULT:     -11.3      0.000      0.000
REMARK SMILES C[C@@H](C(=O)NCCCNC(=O)c1ccc(-c2c3nc(c(-c4c(F)c(F)c(F)c(F)c4F)c4ccc([nH]4)c(-c4c(F)c(F)c(F)c(F)c4F)c4nc(c(-c5c(F)c(F)c(F)c(F)c5F)c5ccc2[nH]5)C=C4)C=C3)cc1)[C@@H](C)C(=O)c1ccc(Br)cc1
REMARK SMILES IDX 6 1 5 2 3 3 4 4 2 6 1 7 75 8 76 9 77 10 78 11 79 12 80 13
REMARK SMILES IDX 85 14 81 15 84 16 82 17 83 18 7 19 8 20 9 21 10 22 11 24
REMARK SMILES IDX 12 25 13 26 74 27 14 28 73 29 15 30 16 31 17 32 67 33 18 34
REMARK SMILES IDX 72 35 66 36 68 37 19 38 71 39 65 40 64 41 20 43 52 44 32 45
REMARK SMILES IDX 51 46 33 47 36 48 50 49 69 50 34 51 35 52 49 54 70 55 37 56
REMARK SMILES IDX 21 57 22 58 30 59 23 60 24 61 28 62 31 63 25 64 26 65 29 66
REMARK SMILES IDX 27 67 53 68 54 69 62 70 55 71 56 72 60 73 63 74 57 75 58 76
REMARK SMILES IDX 61 77 59 78 38 79 39 80 47 81 40 82 41 83 45 84 48 85 42 86
REMARK SMILES IDX 43 87 46 88 44 89
REMARK H PARENT 5 5 9 23 68 42 36 53
REMARK Flexibility Score: inf
ROOT
ATOM      1  C   UNL A   1      33.133  34.594  28.680  1.00  0.00     0.117 C 
ENDROOT
BRANCH   1   2
ATOM      2  N   UNL A   1      33.210  35.932  29.237  1.00  0.00    -0.356 N 
ATOM      3  C   UNL A   1      32.980  36.388  30.500  1.00  0.00     0.223 C 
ATOM      4  O   UNL A   1      32.968  37.605  30.669  1.00  0.00    -0.275 OA
ATOM      5  H   UNL A   1      33.474  36.629  28.593  1.00  0.00     0.163 HD
BRANCH   3   6
ATOM      6  C   UNL A   1      32.724  35.401  31.635  1.00  0.00     0.086 C 
ATOM      7  C   UNL A   1      31.688  36.012  32.584  1.00  0.00     0.019 C 
BRANCH   6   8
ATOM      8  C   UNL A   1      34.035  35.051  32.377  1.00  0.00     0.070 C 
ATOM      9  C   UNL A   1      34.452  36.134  33.378  1.00  0.00     0.017 C 
BRANCH   8  10
ATOM     10  C   UNL A   1      34.071  33.686  33.081  1.00  0.00     0.166 C 
ATOM     11  O   UNL A   1      33.041  33.051  33.304  1.00  0.00    -0.294 OA
BRANCH  10  12
ATOM     12  C   UNL A   1      35.362  32.992  33.335  1.00  0.00     0.018 A 
ATOM     13  C   UNL A   1      36.108  33.413  34.445  1.00  0.00     0.013 A 
ATOM     14  C   UNL A   1      35.864  31.989  32.504  1.00  0.00     0.013 A 
ATOM     15  C   UNL A   1      37.331  32.806  34.745  1.00  0.00     0.016 A 
ATOM     16  C   UNL A   1      37.086  31.378  32.806  1.00  0.00     0.016 A 
ATOM     17  C   UNL A   1      37.809  31.786  33.927  1.00  0.00     0.018 A 
ATOM     18  Br  UNL A   1      39.461  30.959  34.326  1.00  0.00    -0.051 Br
ENDBRANCH  10  12
ENDBRANCH   8  10
ENDBRANCH   6   8
ENDBRANCH   3   6
ENDBRANCH   1   2
BRANCH   1  19
ATOM     19  C   UNL A   1      34.516  33.995  28.437  1.00  0.00     0.042 C 
BRANCH  19  20
ATOM     20  C   UNL A   1      34.773  32.676  29.159  1.00  0.00     0.118 C 
BRANCH  20  21
ATOM     21  N   UNL A   1      34.085  31.554  28.543  1.00  0.00    -0.352 N 
ATOM     22  C   UNL A   1      34.581  30.360  28.085  1.00  0.00     0.251 C 
ATOM     23  H   UNL A   1      33.113  31.668  28.437  1.00  0.00     0.163 HD
ATOM     24  O   UNL A   1      33.847  29.614  27.439  1.00  0.00    -0.269 OA
BRANCH  22  25
ATOM     25  C   UNL A   1      35.984  29.958  28.341  1.00  0.00     0.039 A 
ATOM     26  C   UNL A   1      36.304  29.417  29.592  1.00  0.00     0.014 A 
ATOM     27  C   UNL A   1      36.995  30.167  27.399  1.00  0.00     0.014 A 
ATOM     28  C   UNL A   1      37.623  29.058  29.884  1.00  0.00     0.010 A 
ATOM     29  C   UNL A   1      38.297  29.743  27.664  1.00  0.00     0.010 A 
ATOM     30  C   UNL A   1      38.629  29.205  28.917  1.00  0.00    -0.014 A 
BRANCH  30  31
ATOM     31  C   UNL A   1      40.040  28.857  29.222  1.00  0.00     0.031 A 
ATOM     32  C   UNL A   1      40.890  29.802  30.026  1.00  0.00     0.074 A 
ATOM     33  C   UNL A   1      40.571  27.715  28.745  1.00  0.00     0.049 A 
ATOM     34  N   UNL A   1      42.155  29.708  30.354  1.00  0.00    -0.248 NA
ATOM     35  C   UNL A   1      40.238  31.032  30.503  1.00  0.00     0.031 C 
ATOM     36  C   UNL A   1      39.868  26.736  27.916  1.00  0.00     0.029 A 
ATOM     37  N   UNL A   1      41.831  27.189  28.886  1.00  0.00    -0.354 N 
ATOM     38  C   UNL A   1      42.451  30.871  31.054  1.00  0.00     0.074 A 
ATOM     39  C   UNL A   1      41.251  31.678  31.061  1.00  0.00     0.031 C 
ATOM     40  C   UNL A   1      40.701  25.721  27.634  1.00  0.00     0.029 A 
ATOM     41  C   UNL A   1      42.001  25.987  28.244  1.00  0.00     0.049 A 
ATOM     42  H   UNL A   1      42.546  27.632  29.399  1.00  0.00     0.167 HD
ATOM     43  C   UNL A   1      43.612  31.225  31.656  1.00  0.00     0.037 A 
ATOM     44  C   UNL A   1      43.083  25.191  28.158  1.00  0.00     0.037 A 
ATOM     45  C   UNL A   1      44.796  30.408  31.680  1.00  0.00     0.049 A 
ATOM     46  C   UNL A   1      44.348  25.585  28.874  1.00  0.00     0.074 A 
ATOM     47  C   UNL A   1      46.010  30.661  32.293  1.00  0.00     0.029 A 
ATOM     48  N   UNL A   1      44.908  29.170  31.067  1.00  0.00    -0.354 N 
ATOM     49  N   UNL A   1      44.600  26.664  29.574  1.00  0.00    -0.248 NA
ATOM     50  C   UNL A   1      45.471  24.639  28.803  1.00  0.00     0.031 C 
ATOM     51  C   UNL A   1      46.866  29.586  32.031  1.00  0.00     0.029 A 
ATOM     52  C   UNL A   1      46.172  28.645  31.289  1.00  0.00     0.049 A 
ATOM     53  H   UNL A   1      44.196  28.728  30.551  1.00  0.00     0.167 HD
ATOM     54  C   UNL A   1      45.895  26.514  30.052  1.00  0.00     0.074 A 
ATOM     55  C   UNL A   1      46.373  25.234  29.570  1.00  0.00     0.031 C 
ATOM     56  C   UNL A   1      46.623  27.360  30.820  1.00  0.00     0.037 A 
BRANCH  43  57
ATOM     57  C   UNL A   1      43.650  32.556  32.349  1.00  0.00     0.064 A 
ATOM     58  C   UNL A   1      43.295  32.691  33.700  1.00  0.00     0.173 A 
ATOM     59  C   UNL A   1      44.061  33.708  31.661  1.00  0.00     0.173 A 
ATOM     60  F   UNL A   1      42.881  31.622  34.397  1.00  0.00    -0.203 F 
ATOM     61  C   UNL A   1      43.320  33.932  34.328  1.00  0.00     0.198 A 
ATOM     62  C   UNL A   1      44.113  34.944  32.301  1.00  0.00     0.198 A 
ATOM     63  F   UNL A   1      44.416  33.634  30.370  1.00  0.00    -0.203 F 
ATOM     64  F   UNL A   1      42.926  34.044  35.604  1.00  0.00    -0.200 F 
ATOM     65  C   UNL A   1      43.734  35.057  33.630  1.00  0.00     0.200 A 
ATOM     66  F   UNL A   1      44.524  36.027  31.629  1.00  0.00    -0.200 F 
ATOM     67  F   UNL A   1      43.760  36.251  34.236  1.00  0.00    -0.200 F 
ENDBRANCH  43  57
BRANCH  44  68
ATOM     68  C   UNL A   1      43.003  23.916  27.403  1.00  0.00     0.064 A 
ATOM     69  C   UNL A   1      43.395  23.851  26.059  1.00  0.00     0.173 A 
ATOM     70  C   UNL A   1      42.538  22.739  28.006  1.00  0.00     0.173 A 
ATOM     71  F   UNL A   1      43.828  24.956  25.434  1.00  0.00    -0.203 F 
ATOM     72  C   UNL A   1      43.307  22.660  25.340  1.00  0.00     0.198 A 
ATOM     73  C   UNL A   1      42.472  21.544  27.294  1.00  0.00     0.198 A 
ATOM     74  F   UNL A   1      42.157  22.749  29.292  1.00  0.00    -0.203 F 
ATOM     75  F   UNL A   1      43.650  22.635  24.046  1.00  0.00    -0.200 F 
ATOM     76  C   UNL A   1      42.851  21.507  25.960  1.00  0.00     0.200 A 
ATOM     77  F   UNL A   1      42.044  20.428  27.899  1.00  0.00    -0.200 F 
ATOM     78  F   UNL A   1      42.770  20.361  25.271  1.00  0.00    -0.200 F 
ENDBRANCH  44  68
BRANCH  56  79
ATOM     79  C   UNL A   1      47.992  26.909  31.234  1.00  0.00     0.064 A 
ATOM     80  C   UNL A   1      49.135  27.257  30.502  1.00  0.00     0.173 A 
ATOM     81  C   UNL A   1      48.162  26.143  32.398  1.00  0.00     0.173 A 
ATOM     82  F   UNL A   1      49.021  27.975  29.373  1.00  0.00    -0.203 F 
ATOM     83  C   UNL A   1      50.399  26.835  30.907  1.00  0.00     0.198 A 
ATOM     84  C   UNL A   1      49.428  25.745  32.813  1.00  0.00     0.198 A 
ATOM     85  F   UNL A   1      47.099  25.789  33.136  1.00  0.00    -0.203 F 
ATOM     86  F   UNL A   1      51.474  27.141  30.167  1.00  0.00    -0.200 F 
ATOM     87  C   UNL A   1      50.545  26.084  32.063  1.00  0.00     0.200 A 
ATOM     88  F   UNL A   1      49.569  25.028  33.936  1.00  0.00    -0.200 F 
ATOM     89  F   UNL A   1      51.762  25.681  32.452  1.00  0.00    -0.200 F 
ENDBRANCH  56  79
ENDBRANCH  30  31
ENDBRANCH  22  25
ENDBRANCH  20  21
ENDBRANCH  19  20
ENDBRANCH   1  19
TORSDOF 13
ENDMDL
MODEL 2
REMARK VINA RESULT:     -11.2      0.208      2.073
REMARK SMILES C[C@@H](C(=O)NCCCNC(=O)c1ccc(-c2c3nc(c(-c4c(F)c(F)c(F)c(F)c4F)c4ccc([nH]4)c(-c4c(F)c(F)c(F)c(F)c4F)c4nc(c(-c5c(F)c(F)c(F)c(F)c5F)c5ccc2[nH]5)C=C4)C=C3)cc1)[C@@H](C)C(=O)c1ccc(Br)cc1
REMARK SMILES IDX 6 1 5 2 3 3 4 4 2 6 1 7 75 8 76 9 77 10 78 11 79 12 80 13
REMARK SMILES IDX 85 14 81 15 84 16 82 17 83 18 7 19 8 20 9 21 10 22 11 24
REMARK SMILES IDX 12 25 13 26 74 27 14 28 73 29 15 30 16 31 17 32 67 33 18 34
REMARK SMILES IDX 72 35 66 36 68 37 19 38 71 39 65 40 64 41 20 43 52 44 32 45
REMARK SMILES IDX 51 46 33 47 36 48 50 49 69 50 34 51 35 52 49 54 70 55 37 56
REMARK SMILES IDX 21 57 22 58 30 59 23 60 24 61 28 62 31 63 25 64 26 65 29 66
REMARK SMILES IDX 27 67 53 68 54 69 62 70 55 71 56 72 60 73 63 74 57 75 58 76
REMARK SMILES IDX 61 77 59 78 38 79 39 80 47 81 40 82 41 83 45 84 48 85 42 86
REMARK SMILES IDX 43 87 46 88 44 89
REMARK H PARENT 5 5 9 23 68 42 36 53
REMARK Flexibility Score: inf
ROOT
ATOM      1  C   UNL A   1      33.237  34.647  28.785  1.00  0.00     0.117 C 
ENDROOT
BRANCH   1   2
ATOM      2  N   UNL A   1      33.296  35.989  29.335  1.00  0.00    -0.356 N 
ATOM      3  C   UNL A   1      33.019  36.455  30.584  1.00  0.00     0.223 C 
ATOM      4  O   UNL A   1      33.004  37.673  30.744  1.00  0.00    -0.275 OA
ATOM      5  H   UNL A   1      33.586  36.680  28.696  1.00  0.00     0.163 HD
BRANCH   3   6
ATOM      6  C   UNL A   1      32.718  35.476  31.717  1.00  0.00     0.086 C 
ATOM      7  C   UNL A   1      31.629  36.086  32.605  1.00  0.00     0.019 C 
BRANCH   6   8
ATOM      8  C   UNL A   1      33.994  35.150  32.527  1.00  0.00     0.070 C 
ATOM      9  C   UNL A   1      34.294  36.201  33.601  1.00  0.00     0.017 C 
BRANCH   8  10
ATOM     10  C   UNL A   1      34.049  33.755  33.170  1.00  0.00     0.166 C 
ATOM     11  O   UNL A   1      33.035  33.070  33.305  1.00  0.00    -0.294 OA
BRANCH  10  12
ATOM     12  C   UNL A   1      35.351  33.102  33.464  1.00  0.00     0.018 A 
ATOM     13  C   UNL A   1      35.780  32.100  32.582  1.00  0.00     0.013 A 
ATOM     14  C   UNL A   1      36.125  33.414  34.584  1.00  0.00     0.013 A 
ATOM     15  C   UNL A   1      36.994  31.442  32.796  1.00  0.00     0.016 A 
ATOM     16  C   UNL A   1      37.342  32.759  34.796  1.00  0.00     0.016 A 
ATOM     17  C   UNL A   1      37.773  31.782  33.899  1.00  0.00     0.018 A 
ATOM     18  Br  UNL A   1      39.417  30.898  34.195  1.00  0.00    -0.051 Br
ENDBRANCH  10  12
ENDBRANCH   8  10
ENDBRANCH   6   8
ENDBRANCH   3   6
ENDBRANCH   1   2
BRANCH   1  19
ATOM     19  C   UNL A   1      34.445  33.808  29.192  1.00  0.00     0.042 C 
BRANCH  19  20
ATOM     20  C   UNL A   1      34.984  32.895  28.096  1.00  0.00     0.118 C 
BRANCH  20  21
ATOM     21  N   UNL A   1      34.185  31.693  27.923  1.00  0.00    -0.352 N 
ATOM     22  C   UNL A   1      34.573  30.379  27.856  1.00  0.00     0.251 C 
ATOM     23  H   UNL A   1      33.216  31.845  27.842  1.00  0.00     0.163 HD
ATOM     24  O   UNL A   1      33.748  29.525  27.534  1.00  0.00    -0.269 OA
BRANCH  22  25
ATOM     25  C   UNL A   1      35.967  29.970  28.149  1.00  0.00     0.039 A 
ATOM     26  C   UNL A   1      36.260  29.470  29.423  1.00  0.00     0.014 A 
ATOM     27  C   UNL A   1      36.995  30.133  27.217  1.00  0.00     0.014 A 
ATOM     28  C   UNL A   1      37.569  29.106  29.749  1.00  0.00     0.010 A 
ATOM     29  C   UNL A   1      38.287  29.703  27.518  1.00  0.00     0.010 A 
ATOM     30  C   UNL A   1      38.592  29.207  28.795  1.00  0.00    -0.014 A 
BRANCH  30  31
ATOM     31  C   UNL A   1      39.994  28.853  29.135  1.00  0.00     0.031 A 
ATOM     32  C   UNL A   1      40.827  29.794  29.961  1.00  0.00     0.074 A 
ATOM     33  C   UNL A   1      40.533  27.709  28.671  1.00  0.00     0.049 A 
ATOM     34  N   UNL A   1      42.083  29.695  30.321  1.00  0.00    -0.248 NA
ATOM     35  C   UNL A   1      40.169  31.027  30.422  1.00  0.00     0.031 C 
ATOM     36  C   UNL A   1      39.847  26.734  27.823  1.00  0.00     0.029 A 
ATOM     37  N   UNL A   1      41.787  27.179  28.843  1.00  0.00    -0.354 N 
ATOM     38  C   UNL A   1      42.366  30.856  31.028  1.00  0.00     0.074 A 
ATOM     39  C   UNL A   1      41.169  31.668  31.006  1.00  0.00     0.031 C 
ATOM     40  C   UNL A   1      40.683  25.715  27.563  1.00  0.00     0.029 A 
ATOM     41  C   UNL A   1      41.969  25.976  28.205  1.00  0.00     0.049 A 
ATOM     42  H   UNL A   1      42.490  27.618  29.374  1.00  0.00     0.167 HD
ATOM     43  C   UNL A   1      43.513  31.206  31.659  1.00  0.00     0.037 A 
ATOM     44  C   UNL A   1      43.049  25.176  28.146  1.00  0.00     0.037 A 
ATOM     45  C   UNL A   1      44.693  30.385  31.712  1.00  0.00     0.049 A 
ATOM     46  C   UNL A   1      44.297  25.564  28.894  1.00  0.00     0.074 A 
ATOM     47  C   UNL A   1      45.892  30.633  32.356  1.00  0.00     0.029 A 
ATOM     48  N   UNL A   1      44.816  29.146  31.102  1.00  0.00    -0.354 N 
ATOM     49  N   UNL A   1      44.536  26.642  29.600  1.00  0.00    -0.248 NA
ATOM     50  C   UNL A   1      45.418  24.614  28.851  1.00  0.00     0.031 C 
ATOM     51  C   UNL A   1      46.751  29.554  32.116  1.00  0.00     0.029 A 
ATOM     52  C   UNL A   1      46.071  28.616  31.355  1.00  0.00     0.049 A 
ATOM     53  H   UNL A   1      44.115  28.707  30.568  1.00  0.00     0.167 HD
ATOM     54  C   UNL A   1      45.818  26.487  30.111  1.00  0.00     0.074 A 
ATOM     55  C   UNL A   1      46.302  25.205  29.641  1.00  0.00     0.031 C 
ATOM     56  C   UNL A   1      46.529  27.330  30.898  1.00  0.00     0.037 A 
BRANCH  43  57
ATOM     57  C   UNL A   1      43.538  32.537  32.354  1.00  0.00     0.064 A 
ATOM     58  C   UNL A   1      43.881  33.714  31.673  1.00  0.00     0.173 A 
ATOM     59  C   UNL A   1      43.199  32.640  33.712  1.00  0.00     0.173 A 
ATOM     60  F   UNL A   1      44.227  33.667  30.377  1.00  0.00    -0.203 F 
ATOM     61  C   UNL A   1      43.915  34.940  32.331  1.00  0.00     0.198 A 
ATOM     62  C   UNL A   1      43.205  33.872  34.360  1.00  0.00     0.198 A 
ATOM     63  F   UNL A   1      42.858  31.545  34.409  1.00  0.00    -0.203 F 
ATOM     64  F   UNL A   1      44.297  36.043  31.672  1.00  0.00    -0.200 F 
ATOM     65  C   UNL A   1      43.572  35.020  33.672  1.00  0.00     0.200 A 
ATOM     66  F   UNL A   1      42.863  33.949  35.653  1.00  0.00    -0.200 F 
ATOM     67  F   UNL A   1      43.603  36.200  34.304  1.00  0.00    -0.200 F 
ENDBRANCH  43  57
BRANCH  44  68
ATOM     68  C   UNL A   1      42.983  23.901  27.388  1.00  0.00     0.064 A 
ATOM     69  C   UNL A   1      42.532  22.724  28.000  1.00  0.00     0.173 A 
ATOM     70  C   UNL A   1      43.366  23.833  26.041  1.00  0.00     0.173 A 
ATOM     71  F   UNL A   1      42.173  22.736  29.293  1.00  0.00    -0.203 F 
ATOM     72  C   UNL A   1      42.483  21.521  27.298  1.00  0.00     0.198 A 
ATOM     73  C   UNL A   1      43.295  22.635  25.334  1.00  0.00     0.198 A 
ATOM     74  F   UNL A   1      43.800  24.934  25.410  1.00  0.00    -0.203 F 
ATOM     75  F   UNL A   1      42.085  20.403  27.918  1.00  0.00    -0.200 F 
ATOM     76  C   UNL A   1      42.859  21.479  25.964  1.00  0.00     0.200 A 
ATOM     77  F   UNL A   1      43.646  22.601  24.041  1.00  0.00    -0.200 F 
ATOM     78  F   UNL A   1      42.808  20.324  25.288  1.00  0.00    -0.200 F 
ENDBRANCH  44  68
BRANCH  56  79
ATOM     79  C   UNL A   1      47.885  26.873  31.345  1.00  0.00     0.064 A 
ATOM     80  C   UNL A   1      48.052  26.045  32.463  1.00  0.00     0.173 A 
ATOM     81  C   UNL A   1      49.030  27.244  30.623  1.00  0.00     0.173 A 
ATOM     82  F   UNL A   1      46.989  25.676  33.194  1.00  0.00    -0.203 F 
ATOM     83  C   UNL A   1      49.319  25.624  32.858  1.00  0.00     0.198 A 
ATOM     84  C   UNL A   1      50.292  26.801  31.005  1.00  0.00     0.198 A 
ATOM     85  F   UNL A   1      48.922  28.031  29.542  1.00  0.00    -0.203 F 
ATOM     86  F   UNL A   1      49.461  24.870  33.957  1.00  0.00    -0.200 F 
ATOM     87  C   UNL A   1      50.436  25.998  32.127  1.00  0.00     0.200 A 
ATOM     88  F   UNL A   1      51.370  27.155  30.292  1.00  0.00    -0.200 F 
ATOM     89  F   UNL A   1      51.655  25.590  32.508  1.00  0.00    -0.200 F 
ENDBRANCH  56  79
ENDBRANCH  30  31
ENDBRANCH  22  25
ENDBRANCH  20  21
ENDBRANCH  19  20
ENDBRANCH   1  19
TORSDOF 13
ENDMDL
MODEL 3
REMARK VINA RESULT:     -11.2      4.478      7.238
REMARK SMILES C[C@@H](C(=O)NCCCNC(=O)c1ccc(-c2c3nc(c(-c4c(F)c(F)c(F)c(F)c4F)c4ccc([nH]4)c(-c4c(F)c(F)c(F)c(F)c4F)c4nc(c(-c5c(F)c(F)c(F)c(F)c5F)c5ccc2[nH]5)C=C4)C=C3)cc1)[C@@H](C)C(=O)c1ccc(Br)cc1
REMARK SMILES IDX 6 1 5 2 3 3 4 4 2 6 1 7 75 8 76 9 77 10 78 11 79 12 80 13
REMARK SMILES IDX 85 14 81 15 84 16 82 17 83 18 7 19 8 20 9 21 10 22 11 24
REMARK SMILES IDX 12 25 13 26 74 27 14 28 73 29 15 30 16 31 17 32 67 33 18 34
REMARK SMILES IDX 72 35 66 36 68 37 19 38 71 39 65 40 64 41 20 43 52 44 32 45
REMARK SMILES IDX 51 46 33 47 36 48 50 49 69 50 34 51 35 52 49 54 70 55 37 56
REMARK SMILES IDX 21 57 22 58 30 59 23 60 24 61 28 62 31 63 25 64 26 65 29 66
REMARK SMILES IDX 27 67 53 68 54 69 62 70 55 71 56 72 60 73 63 74 57 75 58 76
REMARK SMILES IDX 61 77 59 78 38 79 39 80 47 81 40 82 41 83 45 84 48 85 42 86
REMARK SMILES IDX 43 87 46 88 44 89
REMARK H PARENT 5 5 9 23 68 42 36 53
REMARK Flexibility Score: inf
ROOT
ATOM      1  C   UNL A   1      31.082  30.873  25.430  1.00  0.00     0.117 C 
ENDROOT
BRANCH   1   2
ATOM      2  N   UNL A   1      32.324  30.127  25.336  1.00  0.00    -0.356 N 
ATOM      3  C   UNL A   1      32.584  28.802  25.506  1.00  0.00     0.223 C 
ATOM      4  O   UNL A   1      33.762  28.453  25.519  1.00  0.00    -0.275 OA
ATOM      5  H   UNL A   1      33.112  30.673  25.110  1.00  0.00     0.163 HD
BRANCH   3   6
ATOM      6  C   UNL A   1      31.435  27.815  25.697  1.00  0.00     0.086 C 
ATOM      7  C   UNL A   1      31.775  26.899  26.877  1.00  0.00     0.019 C 
BRANCH   6   8
ATOM      8  C   UNL A   1      31.175  27.004  24.406  1.00  0.00     0.070 C 
ATOM      9  C   UNL A   1      31.471  25.510  24.581  1.00  0.00     0.017 C 
BRANCH   8  10
ATOM     10  C   UNL A   1      29.783  27.163  23.776  1.00  0.00     0.166 C 
ATOM     11  O   UNL A   1      28.880  26.358  24.002  1.00  0.00    -0.294 OA
BRANCH  10  12
ATOM     12  C   UNL A   1      29.417  28.400  23.036  1.00  0.00     0.018 A 
ATOM     13  C   UNL A   1      28.071  28.791  23.069  1.00  0.00     0.013 A 
ATOM     14  C   UNL A   1      30.336  29.145  22.295  1.00  0.00     0.013 A 
ATOM     15  C   UNL A   1      27.654  29.942  22.396  1.00  0.00     0.016 A 
ATOM     16  C   UNL A   1      29.920  30.301  21.626  1.00  0.00     0.016 A 
ATOM     17  C   UNL A   1      28.584  30.696  21.685  1.00  0.00     0.018 A 
ATOM     18  Br  UNL A   1      28.028  32.256  20.774  1.00  0.00    -0.051 Br
ENDBRANCH  10  12
ENDBRANCH   8  10
ENDBRANCH   6   8
ENDBRANCH   3   6
ENDBRANCH   1   2
BRANCH   1  19
ATOM     19  C   UNL A   1      31.100  31.872  26.584  1.00  0.00     0.042 C 
BRANCH  19  20
ATOM     20  C   UNL A   1      32.468  32.477  26.880  1.00  0.00     0.118 C 
BRANCH  20  21
ATOM     21  N   UNL A   1      32.386  33.848  27.354  1.00  0.00    -0.352 N 
ATOM     22  C   UNL A   1      33.075  34.475  28.361  1.00  0.00     0.251 C 
ATOM     23  H   UNL A   1      31.736  34.415  26.879  1.00  0.00     0.163 HD
ATOM     24  O   UNL A   1      32.729  35.603  28.712  1.00  0.00    -0.269 OA
BRANCH  22  25
ATOM     25  C   UNL A   1      34.215  33.819  29.041  1.00  0.00     0.039 A 
ATOM     26  C   UNL A   1      35.512  34.241  28.726  1.00  0.00     0.014 A 
ATOM     27  C   UNL A   1      34.031  32.755  29.928  1.00  0.00     0.014 A 
ATOM     28  C   UNL A   1      36.614  33.623  29.321  1.00  0.00     0.010 A 
ATOM     29  C   UNL A   1      35.128  32.186  30.576  1.00  0.00     0.010 A 
ATOM     30  C   UNL A   1      36.432  32.598  30.262  1.00  0.00    -0.014 A 
BRANCH  30  31
ATOM     31  C   UNL A   1      37.594  31.911  30.880  1.00  0.00     0.031 A 
ATOM     32  C   UNL A   1      38.036  32.286  32.269  1.00  0.00     0.074 A 
ATOM     33  C   UNL A   1      38.277  30.982  30.186  1.00  0.00     0.049 A 
ATOM     34  N   UNL A   1      39.055  31.845  32.964  1.00  0.00    -0.248 NA
ATOM     35  C   UNL A   1      37.243  33.316  32.958  1.00  0.00     0.031 C 
ATOM     36  C   UNL A   1      37.979  30.561  28.817  1.00  0.00     0.029 A 
ATOM     37  N   UNL A   1      39.370  30.229  30.536  1.00  0.00    -0.354 N 
ATOM     38  C   UNL A   1      39.035  32.556  34.157  1.00  0.00     0.074 A 
ATOM     39  C   UNL A   1      37.935  33.492  34.073  1.00  0.00     0.031 C 
ATOM     40  C   UNL A   1      38.857  29.613  28.449  1.00  0.00     0.029 A 
ATOM     41  C   UNL A   1      39.791  29.376  29.546  1.00  0.00     0.049 A 
ATOM     42  H   UNL A   1      39.809  30.293  31.415  1.00  0.00     0.167 HD
ATOM     43  C   UNL A   1      39.845  32.426  35.235  1.00  0.00     0.037 A 
ATOM     44  C   UNL A   1      40.815  28.502  29.527  1.00  0.00     0.037 A 
ATOM     45  C   UNL A   1      40.917  31.471  35.334  1.00  0.00     0.049 A 
ATOM     46  C   UNL A   1      41.673  28.343  30.754  1.00  0.00     0.074 A 
ATOM     47  C   UNL A   1      41.771  31.236  36.397  1.00  0.00     0.029 A 
ATOM     48  N   UNL A   1      41.274  30.584  34.330  1.00  0.00    -0.354 N 
ATOM     49  N   UNL A   1      41.613  28.987  31.894  1.00  0.00    -0.248 NA
ATOM     50  C   UNL A   1      42.728  27.321  30.696  1.00  0.00     0.031 C 
ATOM     51  C   UNL A   1      42.662  30.222  36.027  1.00  0.00     0.029 A 
ATOM     52  C   UNL A   1      42.336  29.798  34.749  1.00  0.00     0.049 A 
ATOM     53  H   UNL A   1      40.838  30.521  33.450  1.00  0.00     0.167 HD
ATOM     54  C   UNL A   1      42.597  28.429  32.698  1.00  0.00     0.074 A 
ATOM     55  C   UNL A   1      43.234  27.387  31.919  1.00  0.00     0.031 C 
ATOM     56  C   UNL A   1      42.943  28.752  33.968  1.00  0.00     0.037 A 
BRANCH  43  57
ATOM     57  C   UNL A   1      39.591  33.337  36.401  1.00  0.00     0.064 A 
ATOM     58  C   UNL A   1      38.755  32.956  37.461  1.00  0.00     0.173 A 
ATOM     59  C   UNL A   1      40.204  34.597  36.469  1.00  0.00     0.173 A 
ATOM     60  F   UNL A   1      38.134  31.767  37.437  1.00  0.00    -0.203 F 
ATOM     61  C   UNL A   1      38.515  33.815  38.530  1.00  0.00     0.198 A 
ATOM     62  C   UNL A   1      39.986  35.442  37.554  1.00  0.00     0.198 A 
ATOM     63  F   UNL A   1      41.017  35.008  35.484  1.00  0.00    -0.203 F 
ATOM     64  F   UNL A   1      37.671  33.451  39.505  1.00  0.00    -0.200 F 
ATOM     65  C   UNL A   1      39.135  35.055  38.578  1.00  0.00     0.200 A 
ATOM     66  F   UNL A   1      40.593  36.635  37.604  1.00  0.00    -0.200 F 
ATOM     67  F   UNL A   1      38.905  35.881  39.609  1.00  0.00    -0.200 F 
ENDBRANCH  43  57
BRANCH  44  68
ATOM     68  C   UNL A   1      41.055  27.673  28.319  1.00  0.00     0.064 A 
ATOM     69  C   UNL A   1      41.892  28.128  27.290  1.00  0.00     0.173 A 
ATOM     70  C   UNL A   1      40.459  26.414  28.168  1.00  0.00     0.173 A 
ATOM     71  F   UNL A   1      42.469  29.335  27.382  1.00  0.00    -0.203 F 
ATOM     72  C   UNL A   1      42.109  27.362  26.147  1.00  0.00     0.198 A 
ATOM     73  C   UNL A   1      40.695  25.638  27.035  1.00  0.00     0.198 A 
ATOM     74  F   UNL A   1      39.655  25.933  29.127  1.00  0.00    -0.203 F 
ATOM     75  F   UNL A   1      42.881  27.837  25.162  1.00  0.00    -0.200 F 
ATOM     76  C   UNL A   1      41.515  26.115  26.023  1.00  0.00     0.200 A 
ATOM     77  F   UNL A   1      40.129  24.428  26.924  1.00  0.00    -0.200 F 
ATOM     78  F   UNL A   1      41.726  25.376  24.926  1.00  0.00    -0.200 F 
ENDBRANCH  44  68
BRANCH  56  79
ATOM     79  C   UNL A   1      44.022  27.936  34.615  1.00  0.00     0.064 A 
ATOM     80  C   UNL A   1      45.368  28.326  34.570  1.00  0.00     0.173 A 
ATOM     81  C   UNL A   1      43.698  26.765  35.318  1.00  0.00     0.173 A 
ATOM     82  F   UNL A   1      45.729  29.430  33.898  1.00  0.00    -0.203 F 
ATOM     83  C   UNL A   1      46.355  27.559  35.184  1.00  0.00     0.198 A 
ATOM     84  C   UNL A   1      44.684  26.015  35.952  1.00  0.00     0.198 A 
ATOM     85  F   UNL A   1      42.424  26.353  35.395  1.00  0.00    -0.203 F 
ATOM     86  F   UNL A   1      47.641  27.926  35.090  1.00  0.00    -0.200 F 
ATOM     87  C   UNL A   1      46.012  26.409  35.878  1.00  0.00     0.200 A 
ATOM     88  F   UNL A   1      44.350  24.909  36.630  1.00  0.00    -0.200 F 
ATOM     89  F   UNL A   1      46.963  25.673  36.470  1.00  0.00    -0.200 F 
ENDBRANCH  56  79
ENDBRANCH  30  31
ENDBRANCH  22  25
ENDBRANCH  20  21
ENDBRANCH  19  20
ENDBRANCH   1  19
TORSDOF 13
ENDMDL
