MODEL 1
REMARK VINA RESULT:     -13.4      0.000      0.000
REMARK SMILES CC1=C(CC(=O)NCCCNC(=O)c2ccc(-c3c4nc(c(-c5c(F)c(F)c(F)c(F)c5F)c5ccc([nH]5)c(-c5c(F)c(F)c(F)c(F)c5F)c5nc(c(-c6c(F)c(F)c(F)c(F)c6F)c6ccc3[nH]6)C=C5)C=C4)cc2)c2cc(F)ccc2/C1=C\c1cccc(OCc2ccccc2)c1
REMARK SMILES IDX 5 1 6 2 7 3 4 5 3 6 1 7 2 8 84 9 77 10 83 11 85 12 78 13
REMARK SMILES IDX 82 14 79 15 81 16 80 17 86 18 87 19 99 20 88 21 90 22 89 23
REMARK SMILES IDX 91 24 92 25 93 26 94 27 98 28 95 29 97 30 96 31 8 32 9 33
REMARK SMILES IDX 10 34 11 35 12 36 13 38 14 39 15 40 76 41 16 42 75 43 17 44
REMARK SMILES IDX 18 45 19 46 69 47 20 48 74 49 68 50 70 51 21 52 73 53 67 54
REMARK SMILES IDX 66 55 22 57 54 58 34 59 53 60 35 61 38 62 52 63 71 64 36 65
REMARK SMILES IDX 37 66 51 68 72 69 39 70 23 71 24 72 32 73 25 74 26 75 30 76
REMARK SMILES IDX 33 77 27 78 28 79 31 80 29 81 55 82 56 83 64 84 57 85 58 86
REMARK SMILES IDX 62 87 65 88 59 89 60 90 63 91 61 92 40 93 41 94 49 95 42 96
REMARK SMILES IDX 43 97 47 98 50 99 44 100 45 101 48 102 46 103
REMARK H PARENT 7 4 11 37 70 56 38 67
REMARK Flexibility Score: inf
ROOT
ATOM      1  C   UNL A   1      31.038  28.500  25.174  1.00  0.00     0.224 C 
ATOM      2  O   UNL A   1      30.725  28.194  24.021  1.00  0.00    -0.275 OA
ATOM      3  N   UNL A   1      31.289  29.814  25.442  1.00  0.00    -0.356 N 
ATOM      4  H   UNL A   1      31.180  30.426  24.678  1.00  0.00     0.163 HD
ENDROOT
BRANCH   1   5
ATOM      5  C   UNL A   1      31.114  27.451  26.278  1.00  0.00     0.136 C 
BRANCH   5   6
ATOM      6  C   UNL A   1      32.186  26.438  26.047  1.00  0.00    -0.027 C 
ATOM      7  C   UNL A   1      34.268  27.918  25.885  1.00  0.00     0.045 C 
ATOM      8  C   UNL A   1      33.513  26.628  25.856  1.00  0.00    -0.039 C 
ATOM      9  C   UNL A   1      34.160  25.329  25.621  1.00  0.00    -0.014 C 
ATOM     10  C   UNL A   1      31.936  24.983  26.056  1.00  0.00    -0.011 A 
ATOM     11  C   UNL A   1      33.139  24.290  25.822  1.00  0.00    -0.010 A 
ATOM     12  C   UNL A   1      35.441  25.174  25.248  1.00  0.00     0.017 C 
ATOM     13  C   UNL A   1      30.759  24.285  26.285  1.00  0.00     0.048 A 
ATOM     14  C   UNL A   1      33.177  22.901  25.834  1.00  0.00     0.012 A 
ATOM     15  C   UNL A   1      30.801  22.893  26.272  1.00  0.00     0.123 A 
ATOM     16  C   UNL A   1      31.992  22.200  26.053  1.00  0.00     0.040 A 
ATOM     17  F   UNL A   1      29.675  22.200  26.483  1.00  0.00    -0.207 F 
BRANCH  12  18
ATOM     18  C   UNL A   1      36.125  23.903  25.018  1.00  0.00    -0.021 A 
ATOM     19  C   UNL A   1      35.937  23.158  23.851  1.00  0.00     0.008 A 
ATOM     20  C   UNL A   1      37.008  23.452  26.004  1.00  0.00     0.054 A 
ATOM     21  C   UNL A   1      36.618  21.953  23.683  1.00  0.00     0.004 A 
ATOM     22  C   UNL A   1      37.755  22.295  25.797  1.00  0.00     0.120 A 
ATOM     23  C   UNL A   1      37.524  21.525  24.656  1.00  0.00     0.046 A 
BRANCH  22  24
ATOM     24  O   UNL A   1      38.788  21.870  26.584  1.00  0.00    -0.489 OA
BRANCH  24  25
ATOM     25  C   UNL A   1      40.052  21.597  25.970  1.00  0.00     0.265 C 
BRANCH  25  26
ATOM     26  C   UNL A   1      41.276  22.186  26.659  1.00  0.00    -0.011 A 
ATOM     27  C   UNL A   1      41.363  22.386  28.046  1.00  0.00     0.007 A 
ATOM     28  C   UNL A   1      42.416  22.469  25.888  1.00  0.00     0.007 A 
ATOM     29  C   UNL A   1      42.541  22.839  28.644  1.00  0.00     0.000 A 
ATOM     30  C   UNL A   1      43.590  22.940  26.484  1.00  0.00     0.000 A 
ATOM     31  C   UNL A   1      43.655  23.117  27.863  1.00  0.00     0.000 A 
ENDBRANCH  25  26
ENDBRANCH  24  25
ENDBRANCH  22  24
ENDBRANCH  12  18
ENDBRANCH   5   6
ENDBRANCH   1   5
BRANCH   3  32
ATOM     32  C   UNL A   1      31.690  30.439  26.685  1.00  0.00     0.117 C 
BRANCH  32  33
ATOM     33  C   UNL A   1      31.577  31.959  26.638  1.00  0.00     0.042 C 
BRANCH  33  34
ATOM     34  C   UNL A   1      32.785  32.691  27.213  1.00  0.00     0.118 C 
BRANCH  34  35
ATOM     35  N   UNL A   1      32.480  34.054  27.628  1.00  0.00    -0.352 N 
ATOM     36  C   UNL A   1      33.036  34.829  28.620  1.00  0.00     0.251 C 
ATOM     37  H   UNL A   1      31.760  34.489  27.118  1.00  0.00     0.163 HD
ATOM     38  O   UNL A   1      32.526  35.901  28.911  1.00  0.00    -0.269 OA
BRANCH  36  39
ATOM     39  C   UNL A   1      34.229  34.357  29.360  1.00  0.00     0.039 A 
ATOM     40  C   UNL A   1      35.516  34.554  28.858  1.00  0.00     0.014 A 
ATOM     41  C   UNL A   1      34.050  33.709  30.586  1.00  0.00     0.014 A 
ATOM     42  C   UNL A   1      36.603  33.954  29.486  1.00  0.00     0.010 A 
ATOM     43  C   UNL A   1      35.153  33.179  31.262  1.00  0.00     0.010 A 
ATOM     44  C   UNL A   1      36.433  33.252  30.691  1.00  0.00    -0.014 A 
BRANCH  44  45
ATOM     45  C   UNL A   1      37.600  32.583  31.321  1.00  0.00     0.031 A 
ATOM     46  C   UNL A   1      38.044  32.966  32.707  1.00  0.00     0.074 A 
ATOM     47  C   UNL A   1      38.225  31.586  30.667  1.00  0.00     0.049 A 
ATOM     48  N   UNL A   1      39.033  32.488  33.421  1.00  0.00    -0.248 NA
ATOM     49  C   UNL A   1      37.277  34.024  33.384  1.00  0.00     0.031 C 
ATOM     50  C   UNL A   1      37.871  31.108  29.329  1.00  0.00     0.029 A 
ATOM     51  N   UNL A   1      39.265  30.776  31.046  1.00  0.00    -0.354 N 
ATOM     52  C   UNL A   1      39.015  33.192  34.617  1.00  0.00     0.074 A 
ATOM     53  C   UNL A   1      37.938  34.154  34.526  1.00  0.00     0.031 C 
ATOM     54  C   UNL A   1      38.643  30.054  29.023  1.00  0.00     0.029 A 
ATOM     55  C   UNL A   1      39.586  29.821  30.111  1.00  0.00     0.049 A 
ATOM     56  H   UNL A   1      39.737  30.870  31.905  1.00  0.00     0.167 HD
ATOM     57  C   UNL A   1      39.817  33.039  35.699  1.00  0.00     0.037 A 
ATOM     58  C   UNL A   1      40.540  28.872  30.124  1.00  0.00     0.037 A 
ATOM     59  C   UNL A   1      40.878  32.070  35.796  1.00  0.00     0.049 A 
ATOM     60  C   UNL A   1      41.450  28.763  31.315  1.00  0.00     0.074 A 
ATOM     61  C   UNL A   1      41.742  31.841  36.851  1.00  0.00     0.029 A 
ATOM     62  N   UNL A   1      41.215  31.166  34.799  1.00  0.00    -0.354 N 
ATOM     63  N   UNL A   1      41.433  29.446  32.434  1.00  0.00    -0.248 NA
ATOM     64  C   UNL A   1      42.520  27.759  31.239  1.00  0.00     0.031 C 
ATOM     65  C   UNL A   1      42.627  30.823  36.480  1.00  0.00     0.029 A 
ATOM     66  C   UNL A   1      42.284  30.386  35.210  1.00  0.00     0.049 A 
ATOM     67  H   UNL A   1      40.761  31.089  33.928  1.00  0.00     0.167 HD
ATOM     68  C   UNL A   1      42.478  28.948  33.199  1.00  0.00     0.074 A 
ATOM     69  C   UNL A   1      43.097  27.891  32.426  1.00  0.00     0.031 C 
ATOM     70  C   UNL A   1      42.890  29.338  34.429  1.00  0.00     0.037 A 
BRANCH  57  71
ATOM     71  C   UNL A   1      39.584  33.945  36.874  1.00  0.00     0.064 A 
ATOM     72  C   UNL A   1      38.800  33.545  37.965  1.00  0.00     0.173 A 
ATOM     73  C   UNL A   1      40.205  35.202  36.937  1.00  0.00     0.173 A 
ATOM     74  F   UNL A   1      38.175  32.358  37.948  1.00  0.00    -0.203 F 
ATOM     75  C   UNL A   1      38.635  34.375  39.071  1.00  0.00     0.198 A 
ATOM     76  C   UNL A   1      40.059  36.020  38.054  1.00  0.00     0.198 A 
ATOM     77  F   UNL A   1      40.970  35.631  35.920  1.00  0.00    -0.203 F 
ATOM     78  F   UNL A   1      37.856  33.985  40.089  1.00  0.00    -0.200 F 
ATOM     79  C   UNL A   1      39.272  35.607  39.119  1.00  0.00     0.200 A 
ATOM     80  F   UNL A   1      40.685  37.203  38.104  1.00  0.00    -0.200 F 
ATOM     81  F   UNL A   1      39.124  36.400  40.189  1.00  0.00    -0.200 F 
ENDBRANCH  57  71
BRANCH  58  82
ATOM     82  C   UNL A   1      40.670  27.947  28.970  1.00  0.00     0.064 A 
ATOM     83  C   UNL A   1      39.900  26.779  28.896  1.00  0.00     0.173 A 
ATOM     84  C   UNL A   1      41.542  28.225  27.907  1.00  0.00     0.173 A 
ATOM     85  F   UNL A   1      39.068  26.460  29.899  1.00  0.00    -0.203 F 
ATOM     86  C   UNL A   1      39.998  25.923  27.802  1.00  0.00     0.198 A 
ATOM     87  C   UNL A   1      41.619  27.382  26.801  1.00  0.00     0.198 A 
ATOM     88  F   UNL A   1      42.300  29.330  27.931  1.00  0.00    -0.203 F 
ATOM     89  F   UNL A   1      39.271  24.797  27.768  1.00  0.00    -0.200 F 
ATOM     90  C   UNL A   1      40.849  26.229  26.751  1.00  0.00     0.200 A 
ATOM     91  F   UNL A   1      42.432  27.690  25.781  1.00  0.00    -0.200 F 
ATOM     92  F   UNL A   1      40.932  25.412  25.692  1.00  0.00    -0.200 F 
ENDBRANCH  58  82
BRANCH  70  93
ATOM     93  C   UNL A   1      44.057  28.612  35.028  1.00  0.00     0.064 A 
ATOM     94  C   UNL A   1      43.882  27.443  35.784  1.00  0.00     0.173 A 
ATOM     95  C   UNL A   1      45.368  29.057  34.798  1.00  0.00     0.173 A 
ATOM     96  F   UNL A   1      42.648  26.987  36.043  1.00  0.00    -0.203 F 
ATOM     97  C   UNL A   1      44.977  26.756  36.301  1.00  0.00     0.198 A 
ATOM     98  C   UNL A   1      46.461  28.352  35.294  1.00  0.00     0.198 A 
ATOM     99  F   UNL A   1      45.588  30.166  34.076  1.00  0.00    -0.203 F 
ATOM    100  F   UNL A   1      44.785  25.662  37.051  1.00  0.00    -0.200 F 
ATOM    101  C   UNL A   1      46.264  27.206  36.049  1.00  0.00     0.200 A 
ATOM    102  F   UNL A   1      47.705  28.781  35.039  1.00  0.00    -0.200 F 
ATOM    103  F   UNL A   1      47.317  26.536  36.538  1.00  0.00    -0.200 F 
ENDBRANCH  70  93
ENDBRANCH  44  45
ENDBRANCH  36  39
ENDBRANCH  34  35
ENDBRANCH  33  34
ENDBRANCH  32  33
ENDBRANCH   3  32
TORSDOF 15
ENDMDL
MODEL 2
REMARK VINA RESULT:     -13.4      3.962      9.732
REMARK SMILES CC1=C(CC(=O)NCCCNC(=O)c2ccc(-c3c4nc(c(-c5c(F)c(F)c(F)c(F)c5F)c5ccc([nH]5)c(-c5c(F)c(F)c(F)c(F)c5F)c5nc(c(-c6c(F)c(F)c(F)c(F)c6F)c6ccc3[nH]6)C=C5)C=C4)cc2)c2cc(F)ccc2/C1=C\c1cccc(OCc2ccccc2)c1
REMARK SMILES IDX 5 1 6 2 7 3 4 5 3 6 1 7 2 8 84 9 77 10 83 11 85 12 78 13
REMARK SMILES IDX 82 14 79 15 81 16 80 17 86 18 87 19 99 20 88 21 90 22 89 23
REMARK SMILES IDX 91 24 92 25 93 26 94 27 98 28 95 29 97 30 96 31 8 32 9 33
REMARK SMILES IDX 10 34 11 35 12 36 13 38 14 39 15 40 76 41 16 42 75 43 17 44
REMARK SMILES IDX 18 45 19 46 69 47 20 48 74 49 68 50 70 51 21 52 73 53 67 54
REMARK SMILES IDX 66 55 22 57 54 58 34 59 53 60 35 61 38 62 52 63 71 64 36 65
REMARK SMILES IDX 37 66 51 68 72 69 39 70 23 71 24 72 32 73 25 74 26 75 30 76
REMARK SMILES IDX 33 77 27 78 28 79 31 80 29 81 55 82 56 83 64 84 57 85 58 86
REMARK SMILES IDX 62 87 65 88 59 89 60 90 63 91 61 92 40 93 41 94 49 95 42 96
REMARK SMILES IDX 43 97 47 98 50 99 44 100 45 101 48 102 46 103
REMARK H PARENT 7 4 11 37 70 56 38 67
REMARK Flexibility Score: inf
ROOT
ATOM      1  C   UNL A   1      33.354  20.148  24.936  1.00  0.00     0.224 C 
ATOM      2  O   UNL A   1      32.582  19.317  25.421  1.00  0.00    -0.275 OA
ATOM      3  N   UNL A   1      34.624  20.206  25.428  1.00  0.00    -0.356 N 
ATOM      4  H   UNL A   1      34.831  19.553  26.136  1.00  0.00     0.163 HD
ENDROOT
BRANCH   1   5
ATOM      5  C   UNL A   1      32.915  21.064  23.799  1.00  0.00     0.136 C 
BRANCH   5   6
ATOM      6  C   UNL A   1      32.761  22.488  24.223  1.00  0.00    -0.027 C 
ATOM      7  C   UNL A   1      34.497  23.656  22.749  1.00  0.00     0.045 C 
ATOM      8  C   UNL A   1      33.440  23.581  23.804  1.00  0.00    -0.039 C 
ATOM      9  C   UNL A   1      32.968  24.760  24.546  1.00  0.00    -0.014 C 
ATOM     10  C   UNL A   1      31.733  22.937  25.182  1.00  0.00    -0.011 A 
ATOM     11  C   UNL A   1      31.830  24.328  25.371  1.00  0.00    -0.010 A 
ATOM     12  C   UNL A   1      33.535  25.976  24.482  1.00  0.00     0.017 C 
ATOM     13  C   UNL A   1      30.747  22.208  25.832  1.00  0.00     0.048 A 
ATOM     14  C   UNL A   1      30.934  25.002  26.192  1.00  0.00     0.012 A 
ATOM     15  C   UNL A   1      29.867  22.888  26.672  1.00  0.00     0.123 A 
ATOM     16  C   UNL A   1      29.950  24.269  26.854  1.00  0.00     0.040 A 
ATOM     17  F   UNL A   1      28.913  22.204  27.316  1.00  0.00    -0.207 F 
BRANCH  12  18
ATOM     18  C   UNL A   1      33.089  27.173  25.191  1.00  0.00    -0.021 A 
ATOM     19  C   UNL A   1      33.687  27.599  26.381  1.00  0.00     0.008 A 
ATOM     20  C   UNL A   1      32.045  27.911  24.628  1.00  0.00     0.054 A 
ATOM     21  C   UNL A   1      33.223  28.751  27.014  1.00  0.00     0.004 A 
ATOM     22  C   UNL A   1      31.641  29.110  25.212  1.00  0.00     0.120 A 
ATOM     23  C   UNL A   1      32.202  29.503  26.429  1.00  0.00     0.046 A 
BRANCH  22  24
ATOM     24  O   UNL A   1      30.784  30.013  24.650  1.00  0.00    -0.489 OA
BRANCH  24  25
ATOM     25  C   UNL A   1      29.932  29.581  23.583  1.00  0.00     0.265 C 
BRANCH  25  26
ATOM     26  C   UNL A   1      29.188  30.676  22.830  1.00  0.00    -0.011 A 
ATOM     27  C   UNL A   1      29.041  31.986  23.314  1.00  0.00     0.007 A 
ATOM     28  C   UNL A   1      28.693  30.398  21.545  1.00  0.00     0.007 A 
ATOM     29  C   UNL A   1      28.435  32.982  22.546  1.00  0.00     0.000 A 
ATOM     30  C   UNL A   1      28.071  31.390  20.782  1.00  0.00     0.000 A 
ATOM     31  C   UNL A   1      27.949  32.685  21.280  1.00  0.00     0.000 A 
ENDBRANCH  25  26
ENDBRANCH  24  25
ENDBRANCH  22  24
ENDBRANCH  12  18
ENDBRANCH   5   6
ENDBRANCH   1   5
BRANCH   3  32
ATOM     32  C   UNL A   1      35.714  21.088  25.062  1.00  0.00     0.117 C 
BRANCH  32  33
ATOM     33  C   UNL A   1      35.846  22.277  26.007  1.00  0.00     0.042 C 
BRANCH  33  34
ATOM     34  C   UNL A   1      37.070  23.148  25.745  1.00  0.00     0.118 C 
BRANCH  34  35
ATOM     35  N   UNL A   1      38.322  22.405  25.811  1.00  0.00    -0.352 N 
ATOM     36  C   UNL A   1      39.577  22.807  26.208  1.00  0.00     0.251 C 
ATOM     37  H   UNL A   1      38.260  21.465  25.526  1.00  0.00     0.163 HD
ATOM     38  O   UNL A   1      40.534  22.065  26.040  1.00  0.00    -0.269 OA
BRANCH  36  39
ATOM     39  C   UNL A   1      39.780  24.147  26.806  1.00  0.00     0.039 A 
ATOM     40  C   UNL A   1      40.370  25.181  26.079  1.00  0.00     0.014 A 
ATOM     41  C   UNL A   1      39.360  24.369  28.121  1.00  0.00     0.014 A 
ATOM     42  C   UNL A   1      40.702  26.373  26.717  1.00  0.00     0.010 A 
ATOM     43  C   UNL A   1      39.616  25.598  28.736  1.00  0.00     0.010 A 
ATOM     44  C   UNL A   1      40.336  26.592  28.055  1.00  0.00    -0.014 A 
BRANCH  44  45
ATOM     45  C   UNL A   1      40.737  27.854  28.728  1.00  0.00     0.031 A 
ATOM     46  C   UNL A   1      42.178  28.110  29.077  1.00  0.00     0.074 A 
ATOM     47  C   UNL A   1      39.808  28.799  28.969  1.00  0.00     0.049 A 
ATOM     48  N   UNL A   1      42.716  29.155  29.657  1.00  0.00    -0.248 NA
ATOM     49  C   UNL A   1      43.145  27.058  28.730  1.00  0.00     0.031 C 
ATOM     50  C   UNL A   1      38.384  28.678  28.654  1.00  0.00     0.029 A 
ATOM     51  N   UNL A   1      39.925  30.056  29.507  1.00  0.00    -0.354 N 
ATOM     52  C   UNL A   1      44.073  28.880  29.755  1.00  0.00     0.074 A 
ATOM     53  C   UNL A   1      44.277  27.557  29.205  1.00  0.00     0.031 C 
ATOM     54  C   UNL A   1      37.770  29.833  28.951  1.00  0.00     0.029 A 
ATOM     55  C   UNL A   1      38.740  30.752  29.536  1.00  0.00     0.049 A 
ATOM     56  H   UNL A   1      40.775  30.425  29.840  1.00  0.00     0.167 HD
ATOM     57  C   UNL A   1      45.061  29.666  30.247  1.00  0.00     0.037 A 
ATOM     58  C   UNL A   1      38.464  31.988  29.992  1.00  0.00     0.037 A 
ATOM     59  C   UNL A   1      44.859  30.989  30.779  1.00  0.00     0.049 A 
ATOM     60  C   UNL A   1      39.570  32.815  30.583  1.00  0.00     0.074 A 
ATOM     61  C   UNL A   1      45.798  31.862  31.300  1.00  0.00     0.029 A 
ATOM     62  N   UNL A   1      43.632  31.632  30.853  1.00  0.00    -0.354 N 
ATOM     63  N   UNL A   1      40.847  32.537  30.685  1.00  0.00    -0.248 NA
ATOM     64  C   UNL A   1      39.193  34.124  31.135  1.00  0.00     0.031 C 
ATOM     65  C   UNL A   1      45.135  33.018  31.723  1.00  0.00     0.029 A 
ATOM     66  C   UNL A   1      43.788  32.886  31.424  1.00  0.00     0.049 A 
ATOM     67  H   UNL A   1      42.776  31.255  30.545  1.00  0.00     0.167 HD
ATOM     68  C   UNL A   1      41.428  33.637  31.300  1.00  0.00     0.074 A 
ATOM     69  C   UNL A   1      40.368  34.597  31.529  1.00  0.00     0.031 C 
ATOM     70  C   UNL A   1      42.723  33.830  31.647  1.00  0.00     0.037 A 
BRANCH  57  71
ATOM     71  C   UNL A   1      46.458  29.118  30.240  1.00  0.00     0.064 A 
ATOM     72  C   UNL A   1      46.966  28.387  31.324  1.00  0.00     0.173 A 
ATOM     73  C   UNL A   1      47.277  29.271  29.110  1.00  0.00     0.173 A 
ATOM     74  F   UNL A   1      46.227  28.224  32.433  1.00  0.00    -0.203 F 
ATOM     75  C   UNL A   1      48.246  27.840  31.282  1.00  0.00     0.198 A 
ATOM     76  C   UNL A   1      48.546  28.702  29.061  1.00  0.00     0.198 A 
ATOM     77  F   UNL A   1      46.837  29.958  28.044  1.00  0.00    -0.203 F 
ATOM     78  F   UNL A   1      48.721  27.173  32.342  1.00  0.00    -0.200 F 
ATOM     79  C   UNL A   1      49.031  27.990  30.149  1.00  0.00     0.200 A 
ATOM     80  F   UNL A   1      49.298  28.837  27.961  1.00  0.00    -0.200 F 
ATOM     81  F   UNL A   1      50.257  27.452  30.104  1.00  0.00    -0.200 F 
ENDBRANCH  57  71
BRANCH  58  82
ATOM     82  C   UNL A   1      37.078  32.513  29.896  1.00  0.00     0.064 A 
ATOM     83  C   UNL A   1      36.183  32.377  30.966  1.00  0.00     0.173 A 
ATOM     84  C   UNL A   1      36.631  33.184  28.749  1.00  0.00     0.173 A 
ATOM     85  F   UNL A   1      36.560  31.723  32.075  1.00  0.00    -0.203 F 
ATOM     86  C   UNL A   1      34.892  32.893  30.891  1.00  0.00     0.198 A 
ATOM     87  C   UNL A   1      35.348  33.723  28.686  1.00  0.00     0.198 A 
ATOM     88  F   UNL A   1      37.450  33.340  27.699  1.00  0.00    -0.203 F 
ATOM     89  F   UNL A   1      34.045  32.724  31.916  1.00  0.00    -0.200 F 
ATOM     90  C   UNL A   1      34.477  33.573  29.756  1.00  0.00     0.200 A 
ATOM     91  F   UNL A   1      34.958  34.394  27.593  1.00  0.00    -0.200 F 
ATOM     92  F   UNL A   1      33.240  34.082  29.690  1.00  0.00    -0.200 F 
ENDBRANCH  58  82
BRANCH  70  93
ATOM     93  C   UNL A   1      43.076  35.133  32.300  1.00  0.00     0.064 A 
ATOM     94  C   UNL A   1      43.551  36.221  31.552  1.00  0.00     0.173 A 
ATOM     95  C   UNL A   1      42.884  35.314  33.678  1.00  0.00     0.173 A 
ATOM     96  F   UNL A   1      43.764  36.092  30.235  1.00  0.00    -0.203 F 
ATOM     97  C   UNL A   1      43.837  37.438  32.165  1.00  0.00     0.198 A 
ATOM     98  C   UNL A   1      43.145  36.541  34.282  1.00  0.00     0.198 A 
ATOM     99  F   UNL A   1      42.426  34.306  34.435  1.00  0.00    -0.203 F 
ATOM    100  F   UNL A   1      44.325  38.452  31.438  1.00  0.00    -0.200 F 
ATOM    101  C   UNL A   1      43.627  37.599  33.526  1.00  0.00     0.200 A 
ATOM    102  F   UNL A   1      42.929  36.699  35.595  1.00  0.00    -0.200 F 
ATOM    103  F   UNL A   1      43.891  38.775  34.111  1.00  0.00    -0.200 F 
ENDBRANCH  70  93
ENDBRANCH  44  45
ENDBRANCH  36  39
ENDBRANCH  34  35
ENDBRANCH  33  34
ENDBRANCH  32  33
ENDBRANCH   3  32
TORSDOF 15
ENDMDL
MODEL 3
REMARK VINA RESULT:     -13.4      0.319      7.033
REMARK SMILES CC1=C(CC(=O)NCCCNC(=O)c2ccc(-c3c4nc(c(-c5c(F)c(F)c(F)c(F)c5F)c5ccc([nH]5)c(-c5c(F)c(F)c(F)c(F)c5F)c5nc(c(-c6c(F)c(F)c(F)c(F)c6F)c6ccc3[nH]6)C=C5)C=C4)cc2)c2cc(F)ccc2/C1=C\c1cccc(OCc2ccccc2)c1
REMARK SMILES IDX 5 1 6 2 7 3 4 5 3 6 1 7 2 8 84 9 77 10 83 11 85 12 78 13
REMARK SMILES IDX 82 14 79 15 81 16 80 17 86 18 87 19 99 20 88 21 90 22 89 23
REMARK SMILES IDX 91 24 92 25 93 26 94 27 98 28 95 29 97 30 96 31 8 32 9 33
REMARK SMILES IDX 10 34 11 35 12 36 13 38 14 39 15 40 76 41 16 42 75 43 17 44
REMARK SMILES IDX 18 45 19 46 69 47 20 48 74 49 68 50 70 51 21 52 73 53 67 54
REMARK SMILES IDX 66 55 22 57 54 58 34 59 53 60 35 61 38 62 52 63 71 64 36 65
REMARK SMILES IDX 37 66 51 68 72 69 39 70 23 71 24 72 32 73 25 74 26 75 30 76
REMARK SMILES IDX 33 77 27 78 28 79 31 80 29 81 55 82 56 83 64 84 57 85 58 86
REMARK SMILES IDX 62 87 65 88 59 89 60 90 63 91 61 92 40 93 41 94 49 95 42 96
REMARK SMILES IDX 43 97 47 98 50 99 44 100 45 101 48 102 46 103
REMARK H PARENT 7 4 11 37 70 56 38 67
REMARK Flexibility Score: inf
ROOT
ATOM      1  C   UNL A   1      31.093  28.613  25.121  1.00  0.00     0.224 C 
ATOM      2  O   UNL A   1      30.831  28.345  23.946  1.00  0.00    -0.275 OA
ATOM      3  N   UNL A   1      31.350  29.915  25.439  1.00  0.00    -0.356 N 
ATOM      4  H   UNL A   1      31.287  30.550  24.689  1.00  0.00     0.163 HD
ENDROOT
BRANCH   1   5
ATOM      5  C   UNL A   1      31.102  27.532  26.196  1.00  0.00     0.136 C 
BRANCH   5   6
ATOM      6  C   UNL A   1      32.167  26.507  25.984  1.00  0.00    -0.027 C 
ATOM      7  C   UNL A   1      34.253  27.972  25.752  1.00  0.00     0.045 C 
ATOM      8  C   UNL A   1      33.492  26.685  25.771  1.00  0.00    -0.039 C 
ATOM      9  C   UNL A   1      34.132  25.376  25.569  1.00  0.00    -0.014 C 
ATOM     10  C   UNL A   1      31.911  25.054  26.040  1.00  0.00    -0.011 A 
ATOM     11  C   UNL A   1      33.108  24.349  25.813  1.00  0.00    -0.010 A 
ATOM     12  C   UNL A   1      35.407  25.204  25.186  1.00  0.00     0.017 C 
ATOM     13  C   UNL A   1      30.734  24.369  26.303  1.00  0.00     0.048 A 
ATOM     14  C   UNL A   1      33.140  22.960  25.867  1.00  0.00     0.012 A 
ATOM     15  C   UNL A   1      30.769  22.977  26.332  1.00  0.00     0.123 A 
ATOM     16  C   UNL A   1      31.955  22.272  26.121  1.00  0.00     0.040 A 
ATOM     17  F   UNL A   1      29.643  22.296  26.577  1.00  0.00    -0.207 F 
BRANCH  12  18
ATOM     18  C   UNL A   1      36.083  23.924  24.987  1.00  0.00    -0.021 A 
ATOM     19  C   UNL A   1      35.896  23.155  23.835  1.00  0.00     0.008 A 
ATOM     20  C   UNL A   1      36.957  23.487  25.988  1.00  0.00     0.054 A 
ATOM     21  C   UNL A   1      36.569  21.942  23.697  1.00  0.00     0.004 A 
ATOM     22  C   UNL A   1      37.696  22.321  25.810  1.00  0.00     0.120 A 
ATOM     23  C   UNL A   1      37.466  21.528  24.683  1.00  0.00     0.046 A 
BRANCH  22  24
ATOM     24  O   UNL A   1      38.721  21.904  26.612  1.00  0.00    -0.489 OA
BRANCH  24  25
ATOM     25  C   UNL A   1      39.957  21.516  26.001  1.00  0.00     0.265 C 
BRANCH  25  26
ATOM     26  C   UNL A   1      41.222  22.111  26.605  1.00  0.00    -0.011 A 
ATOM     27  C   UNL A   1      42.293  22.596  25.838  1.00  0.00     0.007 A 
ATOM     28  C   UNL A   1      41.297  22.268  27.999  1.00  0.00     0.007 A 
ATOM     29  C   UNL A   1      43.391  23.223  26.433  1.00  0.00     0.000 A 
ATOM     30  C   UNL A   1      42.404  22.878  28.597  1.00  0.00     0.000 A 
ATOM     31  C   UNL A   1      43.447  23.363  27.814  1.00  0.00     0.000 A 
ENDBRANCH  25  26
ENDBRANCH  24  25
ENDBRANCH  22  24
ENDBRANCH  12  18
ENDBRANCH   5   6
ENDBRANCH   1   5
BRANCH   3  32
ATOM     32  C   UNL A   1      31.702  30.497  26.718  1.00  0.00     0.117 C 
BRANCH  32  33
ATOM     33  C   UNL A   1      31.533  32.012  26.735  1.00  0.00     0.042 C 
BRANCH  33  34
ATOM     34  C   UNL A   1      32.773  32.771  27.197  1.00  0.00     0.118 C 
BRANCH  34  35
ATOM     35  N   UNL A   1      32.486  34.143  27.593  1.00  0.00    -0.352 N 
ATOM     36  C   UNL A   1      33.016  34.908  28.608  1.00  0.00     0.251 C 
ATOM     37  H   UNL A   1      31.803  34.596  27.048  1.00  0.00     0.163 HD
ATOM     38  O   UNL A   1      32.522  35.995  28.871  1.00  0.00    -0.269 OA
BRANCH  36  39
ATOM     39  C   UNL A   1      34.160  34.406  29.404  1.00  0.00     0.039 A 
ATOM     40  C   UNL A   1      35.469  34.509  28.933  1.00  0.00     0.014 A 
ATOM     41  C   UNL A   1      33.911  33.829  30.653  1.00  0.00     0.014 A 
ATOM     42  C   UNL A   1      36.503  33.880  29.621  1.00  0.00     0.010 A 
ATOM     43  C   UNL A   1      34.963  33.272  31.386  1.00  0.00     0.010 A 
ATOM     44  C   UNL A   1      36.260  33.247  30.850  1.00  0.00    -0.014 A 
BRANCH  44  45
ATOM     45  C   UNL A   1      37.371  32.547  31.546  1.00  0.00     0.031 A 
ATOM     46  C   UNL A   1      38.110  31.425  30.869  1.00  0.00     0.074 A 
ATOM     47  C   UNL A   1      37.753  32.963  32.768  1.00  0.00     0.049 A 
ATOM     48  N   UNL A   1      39.109  30.704  31.316  1.00  0.00    -0.248 NA
ATOM     49  C   UNL A   1      37.675  31.063  29.511  1.00  0.00     0.031 C 
ATOM     50  C   UNL A   1      37.130  34.056  33.517  1.00  0.00     0.029 A 
ATOM     51  N   UNL A   1      38.772  32.540  33.583  1.00  0.00    -0.354 N 
ATOM     52  C   UNL A   1      39.410  29.801  30.305  1.00  0.00     0.074 A 
ATOM     53  C   UNL A   1      38.469  30.040  29.231  1.00  0.00     0.031 C 
ATOM     54  C   UNL A   1      37.814  34.254  34.654  1.00  0.00     0.029 A 
ATOM     55  C   UNL A   1      38.882  33.264  34.746  1.00  0.00     0.049 A 
ATOM     56  H   UNL A   1      39.369  31.790  33.357  1.00  0.00     0.167 HD
ATOM     57  C   UNL A   1      40.391  28.867  30.271  1.00  0.00     0.037 A 
ATOM     58  C   UNL A   1      39.739  33.138  35.776  1.00  0.00     0.037 A 
ATOM     59  C   UNL A   1      41.337  28.642  31.333  1.00  0.00     0.049 A 
ATOM     60  C   UNL A   1      40.781  32.057  35.734  1.00  0.00     0.074 A 
ATOM     61  C   UNL A   1      42.367  27.719  31.389  1.00  0.00     0.029 A 
ATOM     62  N   UNL A   1      41.371  29.352  32.524  1.00  0.00    -0.354 N 
ATOM     63  N   UNL A   1      41.045  31.198  34.779  1.00  0.00    -0.248 NA
ATOM     64  C   UNL A   1      41.638  31.918  36.921  1.00  0.00     0.031 C 
ATOM     65  C   UNL A   1      43.001  27.845  32.629  1.00  0.00     0.029 A 
ATOM     66  C   UNL A   1      42.396  28.878  33.328  1.00  0.00     0.049 A 
ATOM     67  H   UNL A   1      40.759  30.085  32.764  1.00  0.00     0.167 HD
ATOM     68  C   UNL A   1      42.102  30.427  35.241  1.00  0.00     0.074 A 
ATOM     69  C   UNL A   1      42.446  30.932  36.554  1.00  0.00     0.031 C 
ATOM     70  C   UNL A   1      42.726  29.390  34.633  1.00  0.00     0.037 A 
BRANCH  57  71
ATOM     71  C   UNL A   1      40.494  28.008  29.044  1.00  0.00     0.064 A 
ATOM     72  C   UNL A   1      41.337  28.349  27.977  1.00  0.00     0.173 A 
ATOM     73  C   UNL A   1      39.791  26.795  28.964  1.00  0.00     0.173 A 
ATOM     74  F   UNL A   1      42.020  29.504  28.000  1.00  0.00    -0.203 F 
ATOM     75  C   UNL A   1      41.462  27.517  26.868  1.00  0.00     0.198 A 
ATOM     76  C   UNL A   1      39.937  25.952  27.865  1.00  0.00     0.198 A 
ATOM     77  F   UNL A   1      38.975  26.419  29.960  1.00  0.00    -0.203 F 
ATOM     78  F   UNL A   1      42.248  27.879  25.846  1.00  0.00    -0.200 F 
ATOM     79  C   UNL A   1      40.770  26.316  26.817  1.00  0.00     0.200 A 
ATOM     80  F   UNL A   1      39.278  24.787  27.824  1.00  0.00    -0.200 F 
ATOM     81  F   UNL A   1      40.901  25.508  25.756  1.00  0.00    -0.200 F 
ENDBRANCH  57  71
BRANCH  58  82
ATOM     82  C   UNL A   1      39.645  34.071  36.927  1.00  0.00     0.064 A 
ATOM     83  C   UNL A   1      38.868  33.752  38.049  1.00  0.00     0.173 A 
ATOM     84  C   UNL A   1      40.350  35.283  36.942  1.00  0.00     0.173 A 
ATOM     85  F   UNL A   1      38.159  32.614  38.070  1.00  0.00    -0.203 F 
ATOM     86  C   UNL A   1      38.800  34.612  39.142  1.00  0.00     0.198 A 
ATOM     87  C   UNL A   1      40.303  36.129  38.047  1.00  0.00     0.198 A 
ATOM     88  F   UNL A   1      41.108  35.633  35.893  1.00  0.00    -0.203 F 
ATOM     89  F   UNL A   1      38.027  34.297  40.191  1.00  0.00    -0.200 F 
ATOM     90  C   UNL A   1      39.524  35.794  39.146  1.00  0.00     0.200 A 
ATOM     91  F   UNL A   1      41.016  37.263  38.053  1.00  0.00    -0.200 F 
ATOM     92  F   UNL A   1      39.469  36.613  40.205  1.00  0.00    -0.200 F 
ENDBRANCH  58  82
BRANCH  70  93
ATOM     93  C   UNL A   1      43.856  28.737  35.371  1.00  0.00     0.064 A 
ATOM     94  C   UNL A   1      45.185  29.144  35.182  1.00  0.00     0.173 A 
ATOM     95  C   UNL A   1      43.604  27.731  36.316  1.00  0.00     0.173 A 
ATOM     96  F   UNL A   1      45.479  30.090  34.278  1.00  0.00    -0.203 F 
ATOM     97  C   UNL A   1      46.222  28.556  35.902  1.00  0.00     0.198 A 
ATOM     98  C   UNL A   1      44.639  27.166  37.054  1.00  0.00     0.198 A 
ATOM     99  F   UNL A   1      42.349  27.312  36.537  1.00  0.00    -0.203 F 
ATOM    100  F   UNL A   1      47.488  28.935  35.679  1.00  0.00    -0.200 F 
ATOM    101  C   UNL A   1      45.948  27.575  36.842  1.00  0.00     0.200 A 
ATOM    102  F   UNL A   1      44.371  26.226  37.971  1.00  0.00    -0.200 F 
ATOM    103  F   UNL A   1      46.945  27.019  37.543  1.00  0.00    -0.200 F 
ENDBRANCH  70  93
ENDBRANCH  44  45
ENDBRANCH  36  39
ENDBRANCH  34  35
ENDBRANCH  33  34
ENDBRANCH  32  33
ENDBRANCH   3  32
TORSDOF 15
ENDMDL
