MODEL 1
REMARK VINA RESULT:     -12.3      0.000      0.000
REMARK SMILES [NH3+][C@H]1C=C[C@H](C(=O)N2CC[NH+](CC(=O)NCCCNC(=O)c3ccc(-c4c5nc(c(-c6c(F)c(F)c(F)c(F)c6F)c6ccc([nH]6)c(-c6c(F)c(F)c(F)c(F)c6F)c6nc(c(-c7c(F)c(F)c(F)c(F)c7F)c7ccc4[nH]7)C=C6)C=C5)cc3)CC2)C1
REMARK SMILES IDX 16 1 15 2 13 3 14 4 12 6 11 7 6 8 7 9 8 10 9 11 86 12 10 13
REMARK SMILES IDX 85 14 5 16 2 17 3 18 87 19 4 20 1 21 17 25 18 26 19 27 20 28
REMARK SMILES IDX 21 30 22 31 23 32 84 33 24 34 83 35 25 36 26 37 27 38 77 39
REMARK SMILES IDX 28 40 82 41 76 42 78 43 29 44 81 45 75 46 74 47 30 49 62 50
REMARK SMILES IDX 42 51 61 52 43 53 46 54 60 55 79 56 44 57 45 58 59 60 80 61
REMARK SMILES IDX 47 62 31 63 32 64 40 65 33 66 34 67 38 68 41 69 35 70 36 71
REMARK SMILES IDX 39 72 37 73 63 74 64 75 72 76 65 77 66 78 70 79 73 80 67 81
REMARK SMILES IDX 68 82 71 83 69 84 48 85 49 86 57 87 50 88 51 89 55 90 58 91
REMARK SMILES IDX 52 92 53 93 56 94 54 95
REMARK H PARENT 15 5 11 15 1 22 1 23 1 24 19 29 78 48 46 59
REMARK Flexibility Score: inf
ROOT
ATOM      1  C   UNL A   1      30.995  30.348  25.337  1.00  0.00     0.118 C 
ENDROOT
BRANCH   1   2
ATOM      2  N   UNL A   1      30.590  30.294  23.942  1.00  0.00    -0.351 N 
ATOM      3  C   UNL A   1      30.569  29.284  23.029  1.00  0.00     0.275 C 
ATOM      4  O   UNL A   1      30.012  29.520  21.952  1.00  0.00    -0.269 OA
ATOM      5  H   UNL A   1      30.268  31.156  23.589  1.00  0.00     0.163 HD
BRANCH   3   6
ATOM      6  C   UNL A   1      31.192  27.919  23.310  1.00  0.00     0.363 C 
BRANCH   6   7
ATOM      7  N   UNL A   1      32.638  27.806  23.052  1.00  0.00    -0.324 N 
ATOM      8  C   UNL A   1      34.791  24.346  24.599  1.00  0.00     0.230 C 
ATOM      9  O   UNL A   1      35.187  24.323  25.766  1.00  0.00    -0.274 OA
ATOM     10  N   UNL A   1      34.120  25.451  24.071  1.00  0.00    -0.331 N 
ATOM     11  C   UNL A   1      33.866  26.589  24.961  1.00  0.00     0.181 C 
ATOM     12  C   UNL A   1      33.280  25.373  22.887  1.00  0.00     0.181 C 
ATOM     13  C   UNL A   1      33.525  27.905  24.224  1.00  0.00     0.284 C 
ATOM     14  C   UNL A   1      33.043  26.709  22.180  1.00  0.00     0.284 C 
ATOM     15  H   UNL A   1      32.782  28.667  22.525  1.00  0.00     0.348 HD
BRANCH   8  16
ATOM     16  C   UNL A   1      35.034  23.156  23.656  1.00  0.00     0.107 C 
ATOM     17  C   UNL A   1      35.815  21.280  25.007  1.00  0.00     0.205 C 
ATOM     18  C   UNL A   1      36.938  21.912  24.254  1.00  0.00     0.033 C 
ATOM     19  C   UNL A   1      34.592  21.806  24.242  1.00  0.00     0.087 C 
ATOM     20  C   UNL A   1      36.515  22.942  23.509  1.00  0.00    -0.012 C 
BRANCH  17  21
ATOM     21  N   UNL A   1      35.926  19.835  25.000  1.00  0.00    -0.352 N 
ATOM     22  H   UNL A   1      35.772  19.478  25.943  1.00  0.00     0.345 HD
ATOM     23  H   UNL A   1      36.857  19.566  24.684  1.00  0.00     0.345 HD
ATOM     24  H   UNL A   1      35.226  19.442  24.370  1.00  0.00     0.345 HD
ENDBRANCH  17  21
ENDBRANCH   8  16
ENDBRANCH   6   7
ENDBRANCH   3   6
ENDBRANCH   1   2
BRANCH   1  25
ATOM     25  C   UNL A   1      31.030  31.758  25.940  1.00  0.00     0.042 C 
BRANCH  25  26
ATOM     26  C   UNL A   1      32.214  32.070  26.864  1.00  0.00     0.118 C 
BRANCH  26  27
ATOM     27  N   UNL A   1      32.285  33.474  27.217  1.00  0.00    -0.352 N 
ATOM     28  C   UNL A   1      33.156  34.114  28.062  1.00  0.00     0.251 C 
ATOM     29  H   UNL A   1      31.612  34.051  26.788  1.00  0.00     0.163 HD
ATOM     30  O   UNL A   1      32.929  35.281  28.390  1.00  0.00    -0.269 OA
BRANCH  28  31
ATOM     31  C   UNL A   1      34.363  33.438  28.599  1.00  0.00     0.039 A 
ATOM     32  C   UNL A   1      34.206  32.193  29.218  1.00  0.00     0.014 A 
ATOM     33  C   UNL A   1      35.615  34.060  28.607  1.00  0.00     0.014 A 
ATOM     34  C   UNL A   1      35.298  31.562  29.826  1.00  0.00     0.010 A 
ATOM     35  C   UNL A   1      36.712  33.417  29.197  1.00  0.00     0.010 A 
ATOM     36  C   UNL A   1      36.565  32.165  29.820  1.00  0.00    -0.014 A 
BRANCH  36  37
ATOM     37  C   UNL A   1      37.722  31.499  30.484  1.00  0.00     0.031 A 
ATOM     38  C   UNL A   1      38.075  31.812  31.913  1.00  0.00     0.074 A 
ATOM     39  C   UNL A   1      38.470  30.608  29.802  1.00  0.00     0.049 A 
ATOM     40  N   UNL A   1      39.040  31.323  32.654  1.00  0.00    -0.248 NA
ATOM     41  C   UNL A   1      37.245  32.813  32.596  1.00  0.00     0.031 C 
ATOM     42  C   UNL A   1      38.259  30.221  28.408  1.00  0.00     0.029 A 
ATOM     43  N   UNL A   1      39.559  29.867  30.193  1.00  0.00    -0.354 N 
ATOM     44  C   UNL A   1      38.941  31.964  33.882  1.00  0.00     0.074 A 
ATOM     45  C   UNL A   1      37.842  32.903  33.776  1.00  0.00     0.031 C 
ATOM     46  C   UNL A   1      39.173  29.299  28.066  1.00  0.00     0.029 A 
ATOM     47  C   UNL A   1      40.052  29.048  29.207  1.00  0.00     0.049 A 
ATOM     48  H   UNL A   1      39.950  29.918  31.095  1.00  0.00     0.167 HD
ATOM     49  C   UNL A   1      39.683  31.777  35.001  1.00  0.00     0.037 A 
ATOM     50  C   UNL A   1      41.091  28.190  29.218  1.00  0.00     0.037 A 
ATOM     51  C   UNL A   1      40.753  30.822  35.131  1.00  0.00     0.049 A 
ATOM     52  C   UNL A   1      41.908  28.014  30.469  1.00  0.00     0.074 A 
ATOM     53  C   UNL A   1      41.504  30.516  36.255  1.00  0.00     0.029 A 
ATOM     54  N   UNL A   1      41.230  30.024  34.105  1.00  0.00    -0.354 N 
ATOM     55  N   UNL A   1      41.754  28.573  31.643  1.00  0.00    -0.248 NA
ATOM     56  C   UNL A   1      43.043  27.080  30.394  1.00  0.00     0.031 C 
ATOM     57  C   UNL A   1      42.462  29.561  35.898  1.00  0.00     0.029 A 
ATOM     58  C   UNL A   1      42.283  29.244  34.562  1.00  0.00     0.049 A 
ATOM     59  H   UNL A   1      40.874  30.010  33.188  1.00  0.00     0.167 HD
ATOM     60  C   UNL A   1      42.751  28.042  32.451  1.00  0.00     0.074 A 
ATOM     61  C   UNL A   1      43.499  27.108  31.638  1.00  0.00     0.031 C 
ATOM     62  C   UNL A   1      43.019  28.308  33.753  1.00  0.00     0.037 A 
BRANCH  49  63
ATOM     63  C   UNL A   1      39.366  32.632  36.194  1.00  0.00     0.064 A 
ATOM     64  C   UNL A   1      38.446  32.221  37.169  1.00  0.00     0.173 A 
ATOM     65  C   UNL A   1      40.032  33.851  36.389  1.00  0.00     0.173 A 
ATOM     66  F   UNL A   1      37.780  31.066  37.022  1.00  0.00    -0.203 F 
ATOM     67  C   UNL A   1      38.187  33.011  38.285  1.00  0.00     0.198 A 
ATOM     68  C   UNL A   1      39.788  34.627  37.519  1.00  0.00     0.198 A 
ATOM     69  F   UNL A   1      40.928  34.284  35.489  1.00  0.00    -0.203 F 
ATOM     70  F   UNL A   1      37.277  32.616  39.187  1.00  0.00    -0.200 F 
ATOM     71  C   UNL A   1      38.862  34.209  38.463  1.00  0.00     0.200 A 
ATOM     72  F   UNL A   1      40.450  35.779  37.696  1.00  0.00    -0.200 F 
ATOM     73  F   UNL A   1      38.617  34.965  39.543  1.00  0.00    -0.200 F 
ENDBRANCH  49  63
BRANCH  50  74
ATOM     74  C   UNL A   1      41.409  27.400  28.000  1.00  0.00     0.064 A 
ATOM     75  C   UNL A   1      40.834  26.138  27.794  1.00  0.00     0.173 A 
ATOM     76  C   UNL A   1      42.297  27.882  27.028  1.00  0.00     0.173 A 
ATOM     77  F   UNL A   1      39.999  25.626  28.710  1.00  0.00    -0.203 F 
ATOM     78  C   UNL A   1      41.148  25.382  26.668  1.00  0.00     0.198 A 
ATOM     79  C   UNL A   1      42.590  27.134  25.890  1.00  0.00     0.198 A 
ATOM     80  F   UNL A   1      42.872  29.083  27.181  1.00  0.00    -0.203 F 
ATOM     81  F   UNL A   1      40.613  24.162  26.514  1.00  0.00    -0.200 F 
ATOM     82  C   UNL A   1      42.020  25.882  25.714  1.00  0.00     0.200 A 
ATOM     83  F   UNL A   1      43.427  27.625  24.966  1.00  0.00    -0.200 F 
ATOM     84  F   UNL A   1      42.317  25.156  24.628  1.00  0.00    -0.200 F 
ENDBRANCH  50  74
BRANCH  62  85
ATOM     85  C   UNL A   1      44.148  27.555  34.394  1.00  0.00     0.064 A 
ATOM     86  C   UNL A   1      43.957  26.285  34.957  1.00  0.00     0.173 A 
ATOM     87  C   UNL A   1      45.442  28.096  34.413  1.00  0.00     0.173 A 
ATOM     88  F   UNL A   1      42.736  25.733  34.976  1.00  0.00    -0.203 F 
ATOM     89  C   UNL A   1      45.019  25.592  35.533  1.00  0.00     0.198 A 
ATOM     90  C   UNL A   1      46.505  27.390  34.970  1.00  0.00     0.198 A 
ATOM     91  F   UNL A   1      45.678  29.306  33.885  1.00  0.00    -0.203 F 
ATOM     92  F   UNL A   1      44.806  24.396  36.102  1.00  0.00    -0.200 F 
ATOM     93  C   UNL A   1      46.292  26.141  35.534  1.00  0.00     0.200 A 
ATOM     94  F   UNL A   1      47.737  27.919  34.963  1.00  0.00    -0.200 F 
ATOM     95  F   UNL A   1      47.313  25.471  36.086  1.00  0.00    -0.200 F 
ENDBRANCH  62  85
ENDBRANCH  36  37
ENDBRANCH  28  31
ENDBRANCH  26  27
ENDBRANCH  25  26
ENDBRANCH   1  25
TORSDOF 13
ENDMDL
MODEL 2
REMARK VINA RESULT:     -12.3      0.582      1.373
REMARK SMILES [NH3+][C@H]1C=C[C@H](C(=O)N2CC[NH+](CC(=O)NCCCNC(=O)c3ccc(-c4c5nc(c(-c6c(F)c(F)c(F)c(F)c6F)c6ccc([nH]6)c(-c6c(F)c(F)c(F)c(F)c6F)c6nc(c(-c7c(F)c(F)c(F)c(F)c7F)c7ccc4[nH]7)C=C6)C=C5)cc3)CC2)C1
REMARK SMILES IDX 16 1 15 2 13 3 14 4 12 6 11 7 6 8 7 9 8 10 9 11 86 12 10 13
REMARK SMILES IDX 85 14 5 16 2 17 3 18 87 19 4 20 1 21 17 25 18 26 19 27 20 28
REMARK SMILES IDX 21 30 22 31 23 32 84 33 24 34 83 35 25 36 26 37 27 38 77 39
REMARK SMILES IDX 28 40 82 41 76 42 78 43 29 44 81 45 75 46 74 47 30 49 62 50
REMARK SMILES IDX 42 51 61 52 43 53 46 54 60 55 79 56 44 57 45 58 59 60 80 61
REMARK SMILES IDX 47 62 31 63 32 64 40 65 33 66 34 67 38 68 41 69 35 70 36 71
REMARK SMILES IDX 39 72 37 73 63 74 64 75 72 76 65 77 66 78 70 79 73 80 67 81
REMARK SMILES IDX 68 82 71 83 69 84 48 85 49 86 57 87 50 88 51 89 55 90 58 91
REMARK SMILES IDX 52 92 53 93 56 94 54 95
REMARK H PARENT 15 5 11 15 1 22 1 23 1 24 19 29 78 48 46 59
REMARK Flexibility Score: inf
ROOT
ATOM      1  C   UNL A   1      31.384  30.524  25.820  1.00  0.00     0.118 C 
ENDROOT
BRANCH   1   2
ATOM      2  N   UNL A   1      30.797  30.393  24.497  1.00  0.00    -0.351 N 
ATOM      3  C   UNL A   1      30.640  29.328  23.662  1.00  0.00     0.275 C 
ATOM      4  O   UNL A   1      29.950  29.510  22.654  1.00  0.00    -0.269 OA
ATOM      5  H   UNL A   1      30.446  31.238  24.133  1.00  0.00     0.163 HD
BRANCH   3   6
ATOM      6  C   UNL A   1      31.272  27.969  23.949  1.00  0.00     0.363 C 
BRANCH   6   7
ATOM      7  N   UNL A   1      32.698  27.836  23.603  1.00  0.00    -0.324 N 
ATOM      8  C   UNL A   1      34.851  24.265  24.870  1.00  0.00     0.230 C 
ATOM      9  O   UNL A   1      35.312  24.180  26.009  1.00  0.00    -0.274 OA
ATOM     10  N   UNL A   1      34.178  25.406  24.430  1.00  0.00    -0.331 N 
ATOM     11  C   UNL A   1      34.003  26.508  25.382  1.00  0.00     0.181 C 
ATOM     12  C   UNL A   1      33.270  25.399  23.294  1.00  0.00     0.181 C 
ATOM     13  C   UNL A   1      33.652  27.863  24.724  1.00  0.00     0.284 C 
ATOM     14  C   UNL A   1      33.026  26.771  22.661  1.00  0.00     0.284 C 
ATOM     15  H   UNL A   1      32.832  28.717  23.106  1.00  0.00     0.348 HD
BRANCH   8  16
ATOM     16  C   UNL A   1      35.012  23.113  23.863  1.00  0.00     0.107 C 
ATOM     17  C   UNL A   1      35.869  21.176  25.074  1.00  0.00     0.205 C 
ATOM     18  C   UNL A   1      36.940  21.831  24.267  1.00  0.00     0.033 C 
ATOM     19  C   UNL A   1      34.599  21.743  24.424  1.00  0.00     0.087 C 
ATOM     20  C   UNL A   1      36.475  22.894  23.599  1.00  0.00    -0.012 C 
BRANCH  17  21
ATOM     21  N   UNL A   1      35.964  19.731  25.000  1.00  0.00    -0.352 N 
ATOM     22  H   UNL A   1      36.831  19.471  24.530  1.00  0.00     0.345 HD
ATOM     23  H   UNL A   1      35.170  19.364  24.475  1.00  0.00     0.345 HD
ATOM     24  H   UNL A   1      35.958  19.341  25.942  1.00  0.00     0.345 HD
ENDBRANCH  17  21
ENDBRANCH   8  16
ENDBRANCH   6   7
ENDBRANCH   3   6
ENDBRANCH   1   2
BRANCH   1  25
ATOM     25  C   UNL A   1      31.332  31.940  26.407  1.00  0.00     0.042 C 
BRANCH  25  26
ATOM     26  C   UNL A   1      32.624  32.450  27.057  1.00  0.00     0.118 C 
BRANCH  26  27
ATOM     27  N   UNL A   1      32.529  33.839  27.462  1.00  0.00    -0.352 N 
ATOM     28  C   UNL A   1      33.189  34.498  28.468  1.00  0.00     0.251 C 
ATOM     29  H   UNL A   1      31.900  34.388  26.940  1.00  0.00     0.163 HD
ATOM     30  O   UNL A   1      32.823  35.631  28.788  1.00  0.00    -0.269 OA
BRANCH  28  31
ATOM     31  C   UNL A   1      34.330  33.881  29.189  1.00  0.00     0.039 A 
ATOM     32  C   UNL A   1      35.629  34.203  28.776  1.00  0.00     0.014 A 
ATOM     33  C   UNL A   1      34.143  32.909  30.176  1.00  0.00     0.014 A 
ATOM     34  C   UNL A   1      36.734  33.573  29.359  1.00  0.00     0.010 A 
ATOM     35  C   UNL A   1      35.252  32.294  30.774  1.00  0.00     0.010 A 
ATOM     36  C   UNL A   1      36.559  32.613  30.368  1.00  0.00    -0.014 A 
BRANCH  36  37
ATOM     37  C   UNL A   1      37.738  31.931  30.974  1.00  0.00     0.031 A 
ATOM     38  C   UNL A   1      38.190  32.267  32.370  1.00  0.00     0.074 A 
ATOM     39  C   UNL A   1      38.416  31.004  30.269  1.00  0.00     0.049 A 
ATOM     40  N   UNL A   1      39.187  31.769  33.060  1.00  0.00    -0.248 NA
ATOM     41  C   UNL A   1      37.431  33.307  33.079  1.00  0.00     0.031 C 
ATOM     42  C   UNL A   1      38.107  30.590  28.902  1.00  0.00     0.029 A 
ATOM     43  N   UNL A   1      39.509  30.242  30.609  1.00  0.00    -0.354 N 
ATOM     44  C   UNL A   1      39.184  32.441  34.276  1.00  0.00     0.074 A 
ATOM     45  C   UNL A   1      38.106  33.407  34.216  1.00  0.00     0.031 C 
ATOM     46  C   UNL A   1      38.973  29.635  28.526  1.00  0.00     0.029 A 
ATOM     47  C   UNL A   1      39.916  29.386  29.615  1.00  0.00     0.049 A 
ATOM     48  H   UNL A   1      39.958  30.303  31.483  1.00  0.00     0.167 HD
ATOM     49  C   UNL A   1      39.990  32.260  35.350  1.00  0.00     0.037 A 
ATOM     50  C   UNL A   1      40.930  28.500  29.581  1.00  0.00     0.037 A 
ATOM     51  C   UNL A   1      41.041  31.279  35.436  1.00  0.00     0.049 A 
ATOM     52  C   UNL A   1      41.820  28.330  30.782  1.00  0.00     0.074 A 
ATOM     53  C   UNL A   1      41.854  30.978  36.518  1.00  0.00     0.029 A 
ATOM     54  N   UNL A   1      41.430  30.443  34.402  1.00  0.00    -0.354 N 
ATOM     55  N   UNL A   1      41.757  28.921  31.949  1.00  0.00    -0.248 NA
ATOM     56  C   UNL A   1      42.923  27.364  30.659  1.00  0.00     0.031 C 
ATOM     57  C   UNL A   1      42.761  29.988  36.124  1.00  0.00     0.029 A 
ATOM     58  C   UNL A   1      42.489  29.645  34.811  1.00  0.00     0.049 A 
ATOM     59  H   UNL A   1      41.016  30.418  33.510  1.00  0.00     0.167 HD
ATOM     60  C   UNL A   1      42.789  28.382  32.706  1.00  0.00     0.074 A 
ATOM     61  C   UNL A   1      43.459  27.408  31.871  1.00  0.00     0.031 C 
ATOM     62  C   UNL A   1      43.147  28.670  33.981  1.00  0.00     0.037 A 
BRANCH  49  63
ATOM     63  C   UNL A   1      39.773  33.151  36.538  1.00  0.00     0.064 A 
ATOM     64  C   UNL A   1      40.474  34.356  36.690  1.00  0.00     0.173 A 
ATOM     65  C   UNL A   1      38.814  32.821  37.507  1.00  0.00     0.173 A 
ATOM     66  F   UNL A   1      41.406  34.712  35.793  1.00  0.00    -0.203 F 
ATOM     67  C   UNL A   1      40.238  35.188  37.781  1.00  0.00     0.198 A 
ATOM     68  C   UNL A   1      38.564  33.667  38.584  1.00  0.00     0.198 A 
ATOM     69  F   UNL A   1      38.111  31.683  37.401  1.00  0.00    -0.203 F 
ATOM     70  F   UNL A   1      40.945  36.318  37.926  1.00  0.00    -0.200 F 
ATOM     71  C   UNL A   1      39.279  34.846  38.723  1.00  0.00     0.200 A 
ATOM     72  F   UNL A   1      37.628  33.341  39.487  1.00  0.00    -0.200 F 
ATOM     73  F   UNL A   1      39.048  35.652  39.769  1.00  0.00    -0.200 F 
ENDBRANCH  49  63
BRANCH  50  74
ATOM     74  C   UNL A   1      41.149  27.673  28.366  1.00  0.00     0.064 A 
ATOM     75  C   UNL A   1      40.492  26.445  28.207  1.00  0.00     0.173 A 
ATOM     76  C   UNL A   1      42.021  28.086  27.350  1.00  0.00     0.173 A 
ATOM     77  F   UNL A   1      39.667  25.999  29.166  1.00  0.00    -0.203 F 
ATOM     78  C   UNL A   1      40.711  25.653  27.083  1.00  0.00     0.198 A 
ATOM     79  C   UNL A   1      42.221  27.303  26.214  1.00  0.00     0.198 A 
ATOM     80  F   UNL A   1      42.672  29.252  27.456  1.00  0.00    -0.203 F 
ATOM     81  F   UNL A   1      40.100  24.466  26.974  1.00  0.00    -0.200 F 
ATOM     82  C   UNL A   1      41.571  26.086  26.084  1.00  0.00     0.200 A 
ATOM     83  F   UNL A   1      43.046  27.729  25.247  1.00  0.00    -0.200 F 
ATOM     84  F   UNL A   1      41.778  25.325  25.001  1.00  0.00    -0.200 F 
ENDBRANCH  50  74
BRANCH  62  85
ATOM     85  C   UNL A   1      44.294  27.902  34.568  1.00  0.00     0.064 A 
ATOM     86  C   UNL A   1      44.101  26.669  35.208  1.00  0.00     0.173 A 
ATOM     87  C   UNL A   1      45.606  28.387  34.457  1.00  0.00     0.173 A 
ATOM     88  F   UNL A   1      42.864  26.171  35.353  1.00  0.00    -0.203 F 
ATOM     89  C   UNL A   1      45.178  25.960  35.733  1.00  0.00     0.198 A 
ATOM     90  C   UNL A   1      46.682  27.663  34.962  1.00  0.00     0.198 A 
ATOM     91  F   UNL A   1      45.844  29.559  33.850  1.00  0.00    -0.203 F 
ATOM     92  F   UNL A   1      44.966  24.803  36.377  1.00  0.00    -0.200 F 
ATOM     93  C   UNL A   1      46.468  26.453  35.605  1.00  0.00     0.200 A 
ATOM     94  F   UNL A   1      47.930  28.138  34.830  1.00  0.00    -0.200 F 
ATOM     95  F   UNL A   1      47.504  25.767  36.108  1.00  0.00    -0.200 F 
ENDBRANCH  62  85
ENDBRANCH  36  37
ENDBRANCH  28  31
ENDBRANCH  26  27
ENDBRANCH  25  26
ENDBRANCH   1  25
TORSDOF 13
ENDMDL
MODEL 3
REMARK VINA RESULT:     -12.3      2.242      3.165
REMARK SMILES [NH3+][C@H]1C=C[C@H](C(=O)N2CC[NH+](CC(=O)NCCCNC(=O)c3ccc(-c4c5nc(c(-c6c(F)c(F)c(F)c(F)c6F)c6ccc([nH]6)c(-c6c(F)c(F)c(F)c(F)c6F)c6nc(c(-c7c(F)c(F)c(F)c(F)c7F)c7ccc4[nH]7)C=C6)C=C5)cc3)CC2)C1
REMARK SMILES IDX 16 1 15 2 13 3 14 4 12 6 11 7 6 8 7 9 8 10 9 11 86 12 10 13
REMARK SMILES IDX 85 14 5 16 2 17 3 18 87 19 4 20 1 21 17 25 18 26 19 27 20 28
REMARK SMILES IDX 21 30 22 31 23 32 84 33 24 34 83 35 25 36 26 37 27 38 77 39
REMARK SMILES IDX 28 40 82 41 76 42 78 43 29 44 81 45 75 46 74 47 30 49 62 50
REMARK SMILES IDX 42 51 61 52 43 53 46 54 60 55 79 56 44 57 45 58 59 60 80 61
REMARK SMILES IDX 47 62 31 63 32 64 40 65 33 66 34 67 38 68 41 69 35 70 36 71
REMARK SMILES IDX 39 72 37 73 63 74 64 75 72 76 65 77 66 78 70 79 73 80 67 81
REMARK SMILES IDX 68 82 71 83 69 84 48 85 49 86 57 87 50 88 51 89 55 90 58 91
REMARK SMILES IDX 52 92 53 93 56 94 54 95
REMARK H PARENT 15 5 11 15 1 22 1 23 1 24 19 29 78 48 46 59
REMARK Flexibility Score: inf
ROOT
ATOM      1  C   UNL A   1      32.282  27.115  26.393  1.00  0.00     0.118 C 
ENDROOT
BRANCH   1   2
ATOM      2  N   UNL A   1      31.173  26.183  26.511  1.00  0.00    -0.351 N 
ATOM      3  C   UNL A   1      31.120  24.827  26.635  1.00  0.00     0.275 C 
ATOM      4  O   UNL A   1      30.013  24.334  26.876  1.00  0.00    -0.269 OA
ATOM      5  H   UNL A   1      30.288  26.615  26.498  1.00  0.00     0.163 HD
BRANCH   3   6
ATOM      6  C   UNL A   1      32.359  23.948  26.493  1.00  0.00     0.363 C 
BRANCH   6   7
ATOM      7  N   UNL A   1      32.673  23.493  25.127  1.00  0.00    -0.324 N 
ATOM      8  C   UNL A   1      34.021  19.391  24.529  1.00  0.00     0.230 C 
ATOM      9  O   UNL A   1      35.203  19.087  24.700  1.00  0.00    -0.274 OA
ATOM     10  N   UNL A   1      33.566  20.701  24.691  1.00  0.00    -0.331 N 
ATOM     11  C   UNL A   1      34.539  21.718  25.106  1.00  0.00     0.181 C 
ATOM     12  C   UNL A   1      32.169  21.030  24.919  1.00  0.00     0.181 C 
ATOM     13  C   UNL A   1      34.083  23.173  24.847  1.00  0.00     0.284 C 
ATOM     14  C   UNL A   1      31.786  22.472  24.579  1.00  0.00     0.284 C 
ATOM     15  H   UNL A   1      32.479  24.354  24.615  1.00  0.00     0.348 HD
BRANCH   8  16
ATOM     16  C   UNL A   1      32.984  18.335  24.109  1.00  0.00     0.107 C 
ATOM     17  C   UNL A   1      33.521  16.257  25.268  1.00  0.00     0.205 C 
ATOM     18  C   UNL A   1      33.935  16.203  23.836  1.00  0.00     0.033 C 
ATOM     19  C   UNL A   1      32.528  17.428  25.261  1.00  0.00     0.087 C 
ATOM     20  C   UNL A   1      33.642  17.341  23.193  1.00  0.00    -0.012 C 
BRANCH  17  21
ATOM     21  N   UNL A   1      32.935  15.002  25.695  1.00  0.00    -0.352 N 
ATOM     22  H   UNL A   1      33.095  14.873  26.694  1.00  0.00     0.345 HD
ATOM     23  H   UNL A   1      33.366  14.233  25.181  1.00  0.00     0.345 HD
ATOM     24  H   UNL A   1      31.932  15.014  25.510  1.00  0.00     0.345 HD
ENDBRANCH  17  21
ENDBRANCH   8  16
ENDBRANCH   6   7
ENDBRANCH   3   6
ENDBRANCH   1   2
BRANCH   1  25
ATOM     25  C   UNL A   1      32.173  28.095  25.218  1.00  0.00     0.042 C 
BRANCH  25  26
ATOM     26  C   UNL A   1      33.228  29.208  25.166  1.00  0.00     0.118 C 
BRANCH  26  27
ATOM     27  N   UNL A   1      32.744  30.454  25.726  1.00  0.00    -0.352 N 
ATOM     28  C   UNL A   1      33.206  31.157  26.810  1.00  0.00     0.251 C 
ATOM     29  H   UNL A   1      31.973  30.854  25.261  1.00  0.00     0.163 HD
ATOM     30  O   UNL A   1      32.536  32.092  27.252  1.00  0.00    -0.269 OA
BRANCH  28  31
ATOM     31  C   UNL A   1      34.491  30.818  27.471  1.00  0.00     0.039 A 
ATOM     32  C   UNL A   1      34.644  29.534  28.005  1.00  0.00     0.014 A 
ATOM     33  C   UNL A   1      35.491  31.774  27.675  1.00  0.00     0.014 A 
ATOM     34  C   UNL A   1      35.798  29.199  28.722  1.00  0.00     0.010 A 
ATOM     35  C   UNL A   1      36.656  31.430  28.376  1.00  0.00     0.010 A 
ATOM     36  C   UNL A   1      36.820  30.142  28.913  1.00  0.00    -0.014 A 
BRANCH  36  37
ATOM     37  C   UNL A   1      38.040  29.787  29.693  1.00  0.00     0.031 A 
ATOM     38  C   UNL A   1      38.249  30.324  31.084  1.00  0.00     0.074 A 
ATOM     39  C   UNL A   1      38.975  28.981  29.153  1.00  0.00     0.049 A 
ATOM     40  N   UNL A   1      39.244  30.116  31.912  1.00  0.00    -0.248 NA
ATOM     41  C   UNL A   1      37.212  31.223  31.609  1.00  0.00     0.031 C 
ATOM     42  C   UNL A   1      38.917  28.402  27.812  1.00  0.00     0.029 A 
ATOM     43  N   UNL A   1      40.158  28.508  29.670  1.00  0.00    -0.354 N 
ATOM     44  C   UNL A   1      38.960  30.864  33.047  1.00  0.00     0.074 A 
ATOM     45  C   UNL A   1      37.716  31.560  32.788  1.00  0.00     0.031 C 
ATOM     46  C   UNL A   1      40.003  27.635  27.618  1.00  0.00     0.029 A 
ATOM     47  C   UNL A   1      40.847  27.688  28.811  1.00  0.00     0.049 A 
ATOM     48  H   UNL A   1      40.482  28.736  30.571  1.00  0.00     0.167 HD
ATOM     49  C   UNL A   1      39.659  30.951  34.205  1.00  0.00     0.037 A 
ATOM     50  C   UNL A   1      42.024  27.048  28.962  1.00  0.00     0.037 A 
ATOM     51  C   UNL A   1      40.877  30.237  34.488  1.00  0.00     0.049 A 
ATOM     52  C   UNL A   1      42.787  27.175  30.252  1.00  0.00     0.074 A 
ATOM     53  C   UNL A   1      41.607  30.210  35.666  1.00  0.00     0.029 A 
ATOM     54  N   UNL A   1      41.549  29.429  33.586  1.00  0.00    -0.354 N 
ATOM     55  N   UNL A   1      42.468  27.828  31.342  1.00  0.00    -0.248 NA
ATOM     56  C   UNL A   1      44.076  26.470  30.332  1.00  0.00     0.031 C 
ATOM     57  C   UNL A   1      42.742  29.417  35.463  1.00  0.00     0.029 A 
ATOM     58  C   UNL A   1      42.700  28.919  34.172  1.00  0.00     0.049 A 
ATOM     59  H   UNL A   1      41.254  29.242  32.666  1.00  0.00     0.167 HD
ATOM     60  C   UNL A   1      43.498  27.592  32.244  1.00  0.00     0.074 A 
ATOM     61  C   UNL A   1      44.448  26.727  31.579  1.00  0.00     0.031 C 
ATOM     62  C   UNL A   1      43.638  28.052  33.511  1.00  0.00     0.037 A 
BRANCH  49  63
ATOM     63  C   UNL A   1      39.125  31.863  35.270  1.00  0.00     0.064 A 
ATOM     64  C   UNL A   1      38.349  31.377  36.332  1.00  0.00     0.173 A 
ATOM     65  C   UNL A   1      39.440  33.230  35.257  1.00  0.00     0.173 A 
ATOM     66  F   UNL A   1      38.016  30.078  36.384  1.00  0.00    -0.203 F 
ATOM     67  C   UNL A   1      37.887  32.231  37.330  1.00  0.00     0.198 A 
ATOM     68  C   UNL A   1      38.997  34.076  36.270  1.00  0.00     0.198 A 
ATOM     69  F   UNL A   1      40.188  33.742  34.268  1.00  0.00    -0.203 F 
ATOM     70  F   UNL A   1      37.116  31.752  38.316  1.00  0.00    -0.200 F 
ATOM     71  C   UNL A   1      38.216  33.578  37.302  1.00  0.00     0.200 A 
ATOM     72  F   UNL A   1      39.327  35.375  36.249  1.00  0.00    -0.200 F 
ATOM     73  F   UNL A   1      37.778  34.397  38.268  1.00  0.00    -0.200 F 
ENDBRANCH  49  63
BRANCH  50  74
ATOM     74  C   UNL A   1      42.548  26.197  27.864  1.00  0.00     0.064 A 
ATOM     75  C   UNL A   1      43.454  26.713  26.927  1.00  0.00     0.173 A 
ATOM     76  C   UNL A   1      42.150  24.861  27.723  1.00  0.00     0.173 A 
ATOM     77  F   UNL A   1      43.844  27.994  27.008  1.00  0.00    -0.203 F 
ATOM     78  C   UNL A   1      43.930  25.928  25.880  1.00  0.00     0.198 A 
ATOM     79  C   UNL A   1      42.646  24.069  26.689  1.00  0.00     0.198 A 
ATOM     80  F   UNL A   1      41.286  24.322  28.594  1.00  0.00    -0.203 F 
ATOM     81  F   UNL A   1      44.766  26.457  24.975  1.00  0.00    -0.200 F 
ATOM     82  C   UNL A   1      43.531  24.605  25.765  1.00  0.00     0.200 A 
ATOM     83  F   UNL A   1      42.265  22.788  26.586  1.00  0.00    -0.200 F 
ATOM     84  F   UNL A   1      43.993  23.849  24.760  1.00  0.00    -0.200 F 
ENDBRANCH  50  74
BRANCH  62  85
ATOM     85  C   UNL A   1      44.849  27.605  34.278  1.00  0.00     0.064 A 
ATOM     86  C   UNL A   1      44.845  26.421  35.030  1.00  0.00     0.173 A 
ATOM     87  C   UNL A   1      46.036  28.351  34.230  1.00  0.00     0.173 A 
ATOM     88  F   UNL A   1      43.729  25.683  35.119  1.00  0.00    -0.203 F 
ATOM     89  C   UNL A   1      45.981  26.012  35.724  1.00  0.00     0.198 A 
ATOM     90  C   UNL A   1      47.177  27.925  34.905  1.00  0.00     0.198 A 
ATOM     91  F   UNL A   1      46.093  29.488  33.522  1.00  0.00    -0.203 F 
ATOM     92  F   UNL A   1      45.943  24.898  36.469  1.00  0.00    -0.200 F 
ATOM     93  C   UNL A   1      47.147  26.759  35.656  1.00  0.00     0.200 A 
ATOM     94  F   UNL A   1      48.306  28.644  34.833  1.00  0.00    -0.200 F 
ATOM     95  F   UNL A   1      48.240  26.361  36.321  1.00  0.00    -0.200 F 
ENDBRANCH  62  85
ENDBRANCH  36  37
ENDBRANCH  28  31
ENDBRANCH  26  27
ENDBRANCH  25  26
ENDBRANCH   1  25
TORSDOF 13
ENDMDL
