MODEL 1
REMARK VINA RESULT:     -11.5      0.000      0.000
REMARK SMILES C[C@H](CC(=O)NCCCNC(=O)c1ccc(-c2c3nc(c(-c4c(F)c(F)c(F)c(F)c4F)c4ccc([nH]4)c(-c4c(F)c(F)c(F)c(F)c4F)c4nc(c(-c5c(F)c(F)c(F)c(F)c5F)c5ccc2[nH]5)C=C4)C=C3)cc1)NC(=O)CS[C@H]1CCS(=O)(=O)C1
REMARK SMILES IDX 4 1 5 2 6 3 3 5 2 6 1 7 76 8 77 9 78 11 79 12 80 13 81 14
REMARK SMILES IDX 82 15 87 16 83 17 84 18 85 19 86 20 7 21 8 22 9 23 10 24
REMARK SMILES IDX 11 25 12 27 13 28 14 29 75 30 15 31 74 32 16 33 17 34 18 35
REMARK SMILES IDX 68 36 19 37 73 38 67 39 69 40 20 41 72 42 66 43 65 44 21 46
REMARK SMILES IDX 53 47 33 48 52 49 34 50 37 51 51 52 70 53 35 54 36 55 50 57
REMARK SMILES IDX 71 58 38 59 22 60 23 61 31 62 24 63 25 64 29 65 32 66 26 67
REMARK SMILES IDX 27 68 30 69 28 70 54 71 55 72 63 73 56 74 57 75 61 76 64 77
REMARK SMILES IDX 58 78 59 79 62 80 60 81 39 82 40 83 48 84 41 85 42 86 46 87
REMARK SMILES IDX 49 88 43 89 44 90 47 91 45 92
REMARK H PARENT 6 4 76 10 10 26 69 45 37 56
REMARK Flexibility Score: inf
ROOT
ATOM      1  C   UNL A   1      32.908  29.094  24.744  1.00  0.00     0.222 C 
ATOM      2  O   UNL A   1      33.822  28.378  25.151  1.00  0.00    -0.275 OA
ATOM      3  N   UNL A   1      32.412  30.057  25.563  1.00  0.00    -0.356 N 
ATOM      4  H   UNL A   1      32.968  30.289  26.343  1.00  0.00     0.163 HD
ENDROOT
BRANCH   1   5
ATOM      5  C   UNL A   1      32.352  28.939  23.352  1.00  0.00     0.124 C 
BRANCH   5   6
ATOM      6  C   UNL A   1      31.587  27.645  23.020  1.00  0.00     0.088 C 
ATOM      7  C   UNL A   1      30.082  27.693  23.254  1.00  0.00     0.031 C 
BRANCH   6   8
ATOM      8  N   UNL A   1      31.971  27.107  21.716  1.00  0.00    -0.352 N 
ATOM      9  C   UNL A   1      32.600  25.935  21.393  1.00  0.00     0.230 C 
ATOM     10  H   UNL A   1      31.741  27.678  20.949  1.00  0.00     0.163 HD
ATOM     11  O   UNL A   1      33.147  25.889  20.288  1.00  0.00    -0.274 OA
BRANCH   9  12
ATOM     12  C   UNL A   1      32.513  24.712  22.294  1.00  0.00     0.169 C 
BRANCH  12  13
ATOM     13  S   UNL A   1      33.696  24.674  23.689  1.00  0.00    -0.148 SA
BRANCH  13  14
ATOM     14  C   UNL A   1      32.777  23.726  24.931  1.00  0.00     0.063 C 
ATOM     15  C   UNL A   1      33.274  23.869  26.380  1.00  0.00     0.031 C 
ATOM     16  C   UNL A   1      31.289  24.054  25.019  1.00  0.00     0.151 C 
ATOM     17  C   UNL A   1      32.378  22.941  27.196  1.00  0.00     0.138 C 
ATOM     18  S   UNL A   1      30.764  23.082  26.435  1.00  0.00     0.151 S 
ATOM     19  O   UNL A   1      30.371  21.772  25.967  1.00  0.00    -0.229 OA
ATOM     20  O   UNL A   1      29.919  23.894  27.287  1.00  0.00    -0.229 OA
ENDBRANCH  13  14
ENDBRANCH  12  13
ENDBRANCH   9  12
ENDBRANCH   6   8
ENDBRANCH   5   6
ENDBRANCH   1   5
BRANCH   3  21
ATOM     21  C   UNL A   1      31.169  30.786  25.434  1.00  0.00     0.117 C 
BRANCH  21  22
ATOM     22  C   UNL A   1      31.116  31.910  26.464  1.00  0.00     0.042 C 
BRANCH  22  23
ATOM     23  C   UNL A   1      32.492  32.370  26.910  1.00  0.00     0.118 C 
BRANCH  23  24
ATOM     24  N   UNL A   1      32.469  33.763  27.313  1.00  0.00    -0.352 N 
ATOM     25  C   UNL A   1      33.115  34.371  28.357  1.00  0.00     0.251 C 
ATOM     26  H   UNL A   1      31.911  34.355  26.759  1.00  0.00     0.163 HD
ATOM     27  O   UNL A   1      32.702  35.445  28.783  1.00  0.00    -0.269 OA
BRANCH  25  28
ATOM     28  C   UNL A   1      34.306  33.739  28.960  1.00  0.00     0.039 A 
ATOM     29  C   UNL A   1      34.128  32.684  29.856  1.00  0.00     0.014 A 
ATOM     30  C   UNL A   1      35.592  34.220  28.692  1.00  0.00     0.014 A 
ATOM     31  C   UNL A   1      35.240  32.103  30.463  1.00  0.00     0.010 A 
ATOM     32  C   UNL A   1      36.703  33.562  29.201  1.00  0.00     0.010 A 
ATOM     33  C   UNL A   1      36.538  32.524  30.124  1.00  0.00    -0.014 A 
BRANCH  33  34
ATOM     34  C   UNL A   1      37.724  31.904  30.759  1.00  0.00     0.031 A 
ATOM     35  C   UNL A   1      38.144  32.314  32.144  1.00  0.00     0.074 A 
ATOM     36  C   UNL A   1      38.435  30.993  30.071  1.00  0.00     0.049 A 
ATOM     37  N   UNL A   1      39.140  31.873  32.871  1.00  0.00    -0.248 NA
ATOM     38  C   UNL A   1      37.366  33.385  32.789  1.00  0.00     0.031 C 
ATOM     39  C   UNL A   1      38.161  30.574  28.694  1.00  0.00     0.029 A 
ATOM     40  N   UNL A   1      39.529  30.251  30.433  1.00  0.00    -0.354 N 
ATOM     41  C   UNL A   1      39.113  32.619  34.043  1.00  0.00     0.074 A 
ATOM     42  C   UNL A   1      38.048  33.587  33.905  1.00  0.00     0.031 C 
ATOM     43  C   UNL A   1      39.037  29.620  28.344  1.00  0.00     0.029 A 
ATOM     44  C   UNL A   1      39.956  29.389  29.453  1.00  0.00     0.049 A 
ATOM     45  H   UNL A   1      39.966  30.329  31.312  1.00  0.00     0.167 HD
ATOM     46  C   UNL A   1      39.885  32.485  35.147  1.00  0.00     0.037 A 
ATOM     47  C   UNL A   1      40.975  28.512  29.452  1.00  0.00     0.037 A 
ATOM     48  C   UNL A   1      40.928  31.501  35.279  1.00  0.00     0.049 A 
ATOM     49  C   UNL A   1      41.806  28.368  30.697  1.00  0.00     0.074 A 
ATOM     50  C   UNL A   1      41.724  31.227  36.376  1.00  0.00     0.029 A 
ATOM     51  N   UNL A   1      41.323  30.632  34.271  1.00  0.00    -0.354 N 
ATOM     52  N   UNL A   1      41.712  29.013  31.836  1.00  0.00    -0.248 NA
ATOM     53  C   UNL A   1      42.875  27.363  30.662  1.00  0.00     0.031 C 
ATOM     54  C   UNL A   1      42.645  30.240  36.011  1.00  0.00     0.029 A 
ATOM     55  C   UNL A   1      42.378  29.846  34.710  1.00  0.00     0.049 A 
ATOM     56  H   UNL A   1      40.916  30.582  33.376  1.00  0.00     0.167 HD
ATOM     57  C   UNL A   1      42.694  28.481  32.659  1.00  0.00     0.074 A 
ATOM     58  C   UNL A   1      43.352  27.438  31.896  1.00  0.00     0.031 C 
ATOM     59  C   UNL A   1      43.028  28.824  33.928  1.00  0.00     0.037 A 
BRANCH  46  60
ATOM     60  C   UNL A   1      39.639  33.431  36.289  1.00  0.00     0.064 A 
ATOM     61  C   UNL A   1      38.813  33.088  37.373  1.00  0.00     0.173 A 
ATOM     62  C   UNL A   1      40.253  34.692  36.313  1.00  0.00     0.173 A 
ATOM     63  F   UNL A   1      38.189  31.901  37.398  1.00  0.00    -0.203 F 
ATOM     64  C   UNL A   1      38.584  33.986  38.415  1.00  0.00     0.198 A 
ATOM     65  C   UNL A   1      40.051  35.571  37.374  1.00  0.00     0.198 A 
ATOM     66  F   UNL A   1      41.054  35.073  35.307  1.00  0.00    -0.203 F 
ATOM     67  F   UNL A   1      37.743  33.658  39.405  1.00  0.00    -0.200 F 
ATOM     68  C   UNL A   1      39.209  35.223  38.418  1.00  0.00     0.200 A 
ATOM     69  F   UNL A   1      40.668  36.761  37.382  1.00  0.00    -0.200 F 
ATOM     70  F   UNL A   1      38.993  36.081  39.423  1.00  0.00    -0.200 F 
ENDBRANCH  46  60
BRANCH  47  71
ATOM     71  C   UNL A   1      41.242  27.690  28.243  1.00  0.00     0.064 A 
ATOM     72  C   UNL A   1      42.095  28.146  27.228  1.00  0.00     0.173 A 
ATOM     73  C   UNL A   1      40.658  26.424  28.084  1.00  0.00     0.173 A 
ATOM     74  F   UNL A   1      42.666  29.356  27.326  1.00  0.00    -0.203 F 
ATOM     75  C   UNL A   1      42.334  27.378  26.091  1.00  0.00     0.198 A 
ATOM     76  C   UNL A   1      40.925  25.643  26.962  1.00  0.00     0.198 A 
ATOM     77  F   UNL A   1      39.844  25.936  29.031  1.00  0.00    -0.203 F 
ATOM     78  F   UNL A   1      43.114  27.858  25.113  1.00  0.00    -0.200 F 
ATOM     79  C   UNL A   1      41.755  26.124  25.961  1.00  0.00     0.200 A 
ATOM     80  F   UNL A   1      40.380  24.424  26.853  1.00  0.00    -0.200 F 
ATOM     81  F   UNL A   1      41.992  25.384  24.871  1.00  0.00    -0.200 F 
ENDBRANCH  47  71
BRANCH  59  82
ATOM     82  C   UNL A   1      44.142  28.046  34.571  1.00  0.00     0.064 A 
ATOM     83  C   UNL A   1      45.474  28.483  34.516  1.00  0.00     0.173 A 
ATOM     84  C   UNL A   1      43.871  26.852  35.258  1.00  0.00     0.173 A 
ATOM     85  F   UNL A   1      45.789  29.610  33.862  1.00  0.00    -0.203 F 
ATOM     86  C   UNL A   1      46.499  27.727  35.081  1.00  0.00     0.198 A 
ATOM     87  C   UNL A   1      44.893  26.121  35.857  1.00  0.00     0.198 A 
ATOM     88  F   UNL A   1      42.613  26.395  35.352  1.00  0.00    -0.203 F 
ATOM     89  F   UNL A   1      47.771  28.127  34.949  1.00  0.00    -0.200 F 
ATOM     90  C   UNL A   1      46.207  26.551  35.755  1.00  0.00     0.200 A 
ATOM     91  F   UNL A   1      44.606  24.995  36.524  1.00  0.00    -0.200 F 
ATOM     92  F   UNL A   1      47.194  25.826  36.296  1.00  0.00    -0.200 F 
ENDBRANCH  59  82
ENDBRANCH  33  34
ENDBRANCH  25  28
ENDBRANCH  23  24
ENDBRANCH  22  23
ENDBRANCH  21  22
ENDBRANCH   3  21
TORSDOF 15
ENDMDL
MODEL 2
REMARK VINA RESULT:     -11.4      5.330     10.775
REMARK SMILES C[C@H](CC(=O)NCCCNC(=O)c1ccc(-c2c3nc(c(-c4c(F)c(F)c(F)c(F)c4F)c4ccc([nH]4)c(-c4c(F)c(F)c(F)c(F)c4F)c4nc(c(-c5c(F)c(F)c(F)c(F)c5F)c5ccc2[nH]5)C=C4)C=C3)cc1)NC(=O)CS[C@H]1CCS(=O)(=O)C1
REMARK SMILES IDX 4 1 5 2 6 3 3 5 2 6 1 7 76 8 77 9 78 11 79 12 80 13 81 14
REMARK SMILES IDX 82 15 87 16 83 17 84 18 85 19 86 20 7 21 8 22 9 23 10 24
REMARK SMILES IDX 11 25 12 27 13 28 14 29 75 30 15 31 74 32 16 33 17 34 18 35
REMARK SMILES IDX 68 36 19 37 73 38 67 39 69 40 20 41 72 42 66 43 65 44 21 46
REMARK SMILES IDX 53 47 33 48 52 49 34 50 37 51 51 52 70 53 35 54 36 55 50 57
REMARK SMILES IDX 71 58 38 59 22 60 23 61 31 62 24 63 25 64 29 65 32 66 26 67
REMARK SMILES IDX 27 68 30 69 28 70 54 71 55 72 63 73 56 74 57 75 61 76 64 77
REMARK SMILES IDX 58 78 59 79 62 80 60 81 39 82 40 83 48 84 41 85 42 86 46 87
REMARK SMILES IDX 49 88 43 89 44 90 47 91 45 92
REMARK H PARENT 6 4 76 10 10 26 69 45 37 56
REMARK Flexibility Score: inf
ROOT
ATOM      1  C   UNL A   1      36.353  22.578  23.571  1.00  0.00     0.222 C 
ATOM      2  O   UNL A   1      36.799  23.391  22.763  1.00  0.00    -0.275 OA
ATOM      3  N   UNL A   1      37.209  21.719  24.182  1.00  0.00    -0.356 N 
ATOM      4  H   UNL A   1      38.165  21.952  24.128  1.00  0.00     0.163 HD
ENDROOT
BRANCH   1   5
ATOM      5  C   UNL A   1      34.885  22.536  23.912  1.00  0.00     0.124 C 
BRANCH   5   6
ATOM      6  C   UNL A   1      34.148  23.875  24.093  1.00  0.00     0.088 C 
ATOM      7  C   UNL A   1      34.550  24.686  25.319  1.00  0.00     0.031 C 
BRANCH   6   8
ATOM      8  N   UNL A   1      34.115  24.647  22.852  1.00  0.00    -0.352 N 
ATOM      9  C   UNL A   1      33.050  25.084  22.110  1.00  0.00     0.230 C 
ATOM     10  H   UNL A   1      34.997  24.893  22.494  1.00  0.00     0.163 HD
ATOM     11  O   UNL A   1      33.279  25.372  20.932  1.00  0.00    -0.274 OA
BRANCH   9  12
ATOM     12  C   UNL A   1      31.687  25.327  22.742  1.00  0.00     0.169 C 
BRANCH  12  13
ATOM     13  S   UNL A   1      31.058  27.041  22.623  1.00  0.00    -0.148 SA
BRANCH  13  14
ATOM     14  C   UNL A   1      31.680  27.774  24.160  1.00  0.00     0.063 C 
ATOM     15  C   UNL A   1      31.047  29.117  24.561  1.00  0.00     0.031 C 
ATOM     16  C   UNL A   1      31.513  26.902  25.402  1.00  0.00     0.151 C 
ATOM     17  C   UNL A   1      31.778  29.530  25.836  1.00  0.00     0.138 C 
ATOM     18  S   UNL A   1      32.060  27.997  26.716  1.00  0.00     0.151 S 
ATOM     19  O   UNL A   1      33.486  27.830  26.883  1.00  0.00    -0.229 OA
ATOM     20  O   UNL A   1      31.129  27.921  27.823  1.00  0.00    -0.229 OA
ENDBRANCH  13  14
ENDBRANCH  12  13
ENDBRANCH   9  12
ENDBRANCH   6   8
ENDBRANCH   5   6
ENDBRANCH   1   5
BRANCH   3  21
ATOM     21  C   UNL A   1      36.895  20.504  24.902  1.00  0.00     0.117 C 
BRANCH  21  22
ATOM     22  C   UNL A   1      38.136  19.622  25.002  1.00  0.00     0.042 C 
BRANCH  22  23
ATOM     23  C   UNL A   1      39.111  20.091  26.067  1.00  0.00     0.118 C 
BRANCH  23  24
ATOM     24  N   UNL A   1      40.272  19.224  26.126  1.00  0.00    -0.352 N 
ATOM     25  C   UNL A   1      41.600  19.553  26.063  1.00  0.00     0.251 C 
ATOM     26  H   UNL A   1      40.079  18.263  26.225  1.00  0.00     0.163 HD
ATOM     27  O   UNL A   1      42.422  18.699  25.747  1.00  0.00    -0.269 OA
BRANCH  25  28
ATOM     28  C   UNL A   1      42.038  20.928  26.379  1.00  0.00     0.039 A 
ATOM     29  C   UNL A   1      42.277  21.269  27.711  1.00  0.00     0.014 A 
ATOM     30  C   UNL A   1      42.157  21.896  25.376  1.00  0.00     0.014 A 
ATOM     31  C   UNL A   1      42.653  22.573  28.029  1.00  0.00     0.010 A 
ATOM     32  C   UNL A   1      42.651  23.158  25.680  1.00  0.00     0.010 A 
ATOM     33  C   UNL A   1      42.865  23.521  27.014  1.00  0.00    -0.014 A 
BRANCH  33  34
ATOM     34  C   UNL A   1      43.274  24.906  27.345  1.00  0.00     0.031 A 
ATOM     35  C   UNL A   1      44.680  25.368  27.074  1.00  0.00     0.074 A 
ATOM     36  C   UNL A   1      42.381  25.735  27.916  1.00  0.00     0.049 A 
ATOM     37  N   UNL A   1      45.219  26.544  27.278  1.00  0.00    -0.248 NA
ATOM     38  C   UNL A   1      45.618  24.370  26.535  1.00  0.00     0.031 C 
ATOM     39  C   UNL A   1      41.012  25.370  28.290  1.00  0.00     0.029 A 
ATOM     40  N   UNL A   1      42.485  27.052  28.278  1.00  0.00    -0.354 N 
ATOM     41  C   UNL A   1      46.551  26.419  26.906  1.00  0.00     0.074 A 
ATOM     42  C   UNL A   1      46.759  25.039  26.530  1.00  0.00     0.031 C 
ATOM     43  C   UNL A   1      40.392  26.451  28.789  1.00  0.00     0.029 A 
ATOM     44  C   UNL A   1      41.329  27.569  28.808  1.00  0.00     0.049 A 
ATOM     45  H   UNL A   1      43.311  27.577  28.169  1.00  0.00     0.167 HD
ATOM     46  C   UNL A   1      47.506  27.378  26.852  1.00  0.00     0.037 A 
ATOM     47  C   UNL A   1      41.057  28.807  29.258  1.00  0.00     0.037 A 
ATOM     48  C   UNL A   1      47.278  28.754  27.209  1.00  0.00     0.049 A 
ATOM     49  C   UNL A   1      42.128  29.859  29.168  1.00  0.00     0.074 A 
ATOM     50  C   UNL A   1      48.149  29.825  27.124  1.00  0.00     0.029 A 
ATOM     51  N   UNL A   1      46.087  29.247  27.727  1.00  0.00    -0.354 N 
ATOM     52  N   UNL A   1      43.359  29.754  28.727  1.00  0.00    -0.248 NA
ATOM     53  C   UNL A   1      41.767  31.206  29.627  1.00  0.00     0.031 C 
ATOM     54  C   UNL A   1      47.510  30.950  27.654  1.00  0.00     0.029 A 
ATOM     55  C   UNL A   1      46.215  30.600  28.001  1.00  0.00     0.049 A 
ATOM     56  H   UNL A   1      45.273  28.714  27.879  1.00  0.00     0.167 HD
ATOM     57  C   UNL A   1      43.913  31.022  28.835  1.00  0.00     0.074 A 
ATOM     58  C   UNL A   1      42.872  31.885  29.356  1.00  0.00     0.031 C 
ATOM     59  C   UNL A   1      45.169  31.437  28.535  1.00  0.00     0.037 A 
BRANCH  46  60
ATOM     60  C   UNL A   1      48.881  26.969  26.403  1.00  0.00     0.064 A 
ATOM     61  C   UNL A   1      49.287  27.071  25.062  1.00  0.00     0.173 A 
ATOM     62  C   UNL A   1      49.816  26.486  27.331  1.00  0.00     0.173 A 
ATOM     63  F   UNL A   1      48.430  27.515  24.129  1.00  0.00    -0.203 F 
ATOM     64  C   UNL A   1      50.560  26.671  24.663  1.00  0.00     0.198 A 
ATOM     65  C   UNL A   1      51.101  26.122  26.934  1.00  0.00     0.198 A 
ATOM     66  F   UNL A   1      49.487  26.369  28.626  1.00  0.00    -0.203 F 
ATOM     67  F   UNL A   1      50.901  26.720  23.368  1.00  0.00    -0.200 F 
ATOM     68  C   UNL A   1      51.469  26.204  25.600  1.00  0.00     0.200 A 
ATOM     69  F   UNL A   1      51.982  25.685  27.844  1.00  0.00    -0.200 F 
ATOM     70  F   UNL A   1      52.695  25.826  25.216  1.00  0.00    -0.200 F 
ENDBRANCH  46  60
BRANCH  47  71
ATOM     71  C   UNL A   1      39.710  29.116  29.803  1.00  0.00     0.064 A 
ATOM     72  C   UNL A   1      39.434  28.988  31.172  1.00  0.00     0.173 A 
ATOM     73  C   UNL A   1      38.674  29.558  28.967  1.00  0.00     0.173 A 
ATOM     74  F   UNL A   1      40.387  28.555  32.010  1.00  0.00    -0.203 F 
ATOM     75  C   UNL A   1      38.167  29.268  31.679  1.00  0.00     0.198 A 
ATOM     76  C   UNL A   1      37.418  29.870  29.481  1.00  0.00     0.198 A 
ATOM     77  F   UNL A   1      38.889  29.708  27.652  1.00  0.00    -0.203 F 
ATOM     78  F   UNL A   1      37.915  29.091  32.983  1.00  0.00    -0.200 F 
ATOM     79  C   UNL A   1      37.161  29.716  30.834  1.00  0.00     0.200 A 
ATOM     80  F   UNL A   1      36.456  30.322  28.664  1.00  0.00    -0.200 F 
ATOM     81  F   UNL A   1      35.946  29.992  31.324  1.00  0.00    -0.200 F 
ENDBRANCH  47  71
BRANCH  59  82
ATOM     82  C   UNL A   1      45.472  32.894  28.749  1.00  0.00     0.064 A 
ATOM     83  C   UNL A   1      46.013  33.366  29.955  1.00  0.00     0.173 A 
ATOM     84  C   UNL A   1      45.224  33.828  27.731  1.00  0.00     0.173 A 
ATOM     85  F   UNL A   1      46.258  32.517  30.964  1.00  0.00    -0.203 F 
ATOM     86  C   UNL A   1      46.248  34.725  30.150  1.00  0.00     0.198 A 
ATOM     87  C   UNL A   1      45.499  35.180  27.917  1.00  0.00     0.198 A 
ATOM     88  F   UNL A   1      44.719  33.430  26.555  1.00  0.00    -0.203 F 
ATOM     89  F   UNL A   1      46.694  35.159  31.337  1.00  0.00    -0.200 F 
ATOM     90  C   UNL A   1      45.996  35.629  29.130  1.00  0.00     0.200 A 
ATOM     91  F   UNL A   1      45.272  36.049  26.922  1.00  0.00    -0.200 F 
ATOM     92  F   UNL A   1      46.221  36.935  29.321  1.00  0.00    -0.200 F 
ENDBRANCH  59  82
ENDBRANCH  33  34
ENDBRANCH  25  28
ENDBRANCH  23  24
ENDBRANCH  22  23
ENDBRANCH  21  22
ENDBRANCH   3  21
TORSDOF 15
ENDMDL
MODEL 3
REMARK VINA RESULT:     -11.4      2.221      3.956
REMARK SMILES C[C@H](CC(=O)NCCCNC(=O)c1ccc(-c2c3nc(c(-c4c(F)c(F)c(F)c(F)c4F)c4ccc([nH]4)c(-c4c(F)c(F)c(F)c(F)c4F)c4nc(c(-c5c(F)c(F)c(F)c(F)c5F)c5ccc2[nH]5)C=C4)C=C3)cc1)NC(=O)CS[C@H]1CCS(=O)(=O)C1
REMARK SMILES IDX 4 1 5 2 6 3 3 5 2 6 1 7 76 8 77 9 78 11 79 12 80 13 81 14
REMARK SMILES IDX 82 15 87 16 83 17 84 18 85 19 86 20 7 21 8 22 9 23 10 24
REMARK SMILES IDX 11 25 12 27 13 28 14 29 75 30 15 31 74 32 16 33 17 34 18 35
REMARK SMILES IDX 68 36 19 37 73 38 67 39 69 40 20 41 72 42 66 43 65 44 21 46
REMARK SMILES IDX 53 47 33 48 52 49 34 50 37 51 51 52 70 53 35 54 36 55 50 57
REMARK SMILES IDX 71 58 38 59 22 60 23 61 31 62 24 63 25 64 29 65 32 66 26 67
REMARK SMILES IDX 27 68 30 69 28 70 54 71 55 72 63 73 56 74 57 75 61 76 64 77
REMARK SMILES IDX 58 78 59 79 62 80 60 81 39 82 40 83 48 84 41 85 42 86 46 87
REMARK SMILES IDX 49 88 43 89 44 90 47 91 45 92
REMARK H PARENT 6 4 76 10 10 26 69 45 37 56
REMARK Flexibility Score: inf
ROOT
ATOM      1  C   UNL A   1      35.367  33.238  28.420  1.00  0.00     0.222 C 
ATOM      2  O   UNL A   1      36.583  33.357  28.282  1.00  0.00    -0.275 OA
ATOM      3  N   UNL A   1      34.571  34.317  28.205  1.00  0.00    -0.356 N 
ATOM      4  H   UNL A   1      34.983  35.067  27.718  1.00  0.00     0.163 HD
ENDROOT
BRANCH   1   5
ATOM      5  C   UNL A   1      34.747  31.917  28.798  1.00  0.00     0.124 C 
BRANCH   5   6
ATOM      6  C   UNL A   1      34.750  30.792  27.746  1.00  0.00     0.088 C 
ATOM      7  C   UNL A   1      36.075  30.062  27.569  1.00  0.00     0.031 C 
BRANCH   6   8
ATOM      8  N   UNL A   1      33.597  29.906  27.898  1.00  0.00    -0.352 N 
ATOM      9  C   UNL A   1      32.702  29.452  26.967  1.00  0.00     0.230 C 
ATOM     10  H   UNL A   1      33.439  29.586  28.814  1.00  0.00     0.163 HD
ATOM     11  O   UNL A   1      31.620  29.041  27.395  1.00  0.00    -0.274 OA
BRANCH   9  12
ATOM     12  C   UNL A   1      33.076  29.336  25.496  1.00  0.00     0.169 C 
BRANCH  12  13
ATOM     13  S   UNL A   1      31.679  29.065  24.347  1.00  0.00    -0.148 SA
BRANCH  13  14
ATOM     14  C   UNL A   1      32.098  27.456  23.623  1.00  0.00     0.063 C 
ATOM     15  C   UNL A   1      30.919  26.661  23.038  1.00  0.00     0.031 C 
ATOM     16  C   UNL A   1      33.110  27.509  22.481  1.00  0.00     0.151 C 
ATOM     17  C   UNL A   1      31.531  25.348  22.556  1.00  0.00     0.138 C 
ATOM     18  S   UNL A   1      33.139  25.804  21.915  1.00  0.00     0.151 S 
ATOM     19  O   UNL A   1      34.143  25.091  22.672  1.00  0.00    -0.229 OA
ATOM     20  O   UNL A   1      33.085  25.778  20.468  1.00  0.00    -0.229 OA
ENDBRANCH  13  14
ENDBRANCH  12  13
ENDBRANCH   9  12
ENDBRANCH   6   8
ENDBRANCH   5   6
ENDBRANCH   1   5
BRANCH   3  21
ATOM     21  C   UNL A   1      33.191  34.503  28.601  1.00  0.00     0.117 C 
BRANCH  21  22
ATOM     22  C   UNL A   1      32.878  35.992  28.713  1.00  0.00     0.042 C 
BRANCH  22  23
ATOM     23  C   UNL A   1      33.441  36.622  29.973  1.00  0.00     0.118 C 
BRANCH  23  24
ATOM     24  N   UNL A   1      32.549  36.419  31.099  1.00  0.00    -0.352 N 
ATOM     25  C   UNL A   1      32.611  35.476  32.090  1.00  0.00     0.251 C 
ATOM     26  H   UNL A   1      31.793  37.047  31.159  1.00  0.00     0.163 HD
ATOM     27  O   UNL A   1      31.601  35.202  32.730  1.00  0.00    -0.269 OA
BRANCH  25  28
ATOM     28  C   UNL A   1      33.890  34.800  32.390  1.00  0.00     0.039 A 
ATOM     29  C   UNL A   1      33.879  33.432  32.667  1.00  0.00     0.014 A 
ATOM     30  C   UNL A   1      35.088  35.518  32.459  1.00  0.00     0.014 A 
ATOM     31  C   UNL A   1      35.071  32.787  32.991  1.00  0.00     0.010 A 
ATOM     32  C   UNL A   1      36.290  34.853  32.659  1.00  0.00     0.010 A 
ATOM     33  C   UNL A   1      36.289  33.488  32.968  1.00  0.00    -0.014 A 
BRANCH  33  34
ATOM     34  C   UNL A   1      37.561  32.806  33.302  1.00  0.00     0.031 A 
ATOM     35  C   UNL A   1      38.275  33.118  34.589  1.00  0.00     0.074 A 
ATOM     36  C   UNL A   1      38.083  31.927  32.427  1.00  0.00     0.049 A 
ATOM     37  N   UNL A   1      39.385  32.612  35.063  1.00  0.00    -0.248 NA
ATOM     38  C   UNL A   1      37.683  34.160  35.445  1.00  0.00     0.031 C 
ATOM     39  C   UNL A   1      37.514  31.603  31.117  1.00  0.00     0.029 A 
ATOM     40  N   UNL A   1      39.203  31.143  32.507  1.00  0.00    -0.354 N 
ATOM     41  C   UNL A   1      39.628  33.282  36.256  1.00  0.00     0.074 A 
ATOM     42  C   UNL A   1      38.590  34.277  36.402  1.00  0.00     0.031 C 
ATOM     43  C   UNL A   1      38.266  30.656  30.535  1.00  0.00     0.029 A 
ATOM     44  C   UNL A   1      39.388  30.337  31.411  1.00  0.00     0.049 A 
ATOM     45  H   UNL A   1      39.817  31.155  33.277  1.00  0.00     0.167 HD
ATOM     46  C   UNL A   1      40.609  33.063  37.163  1.00  0.00     0.037 A 
ATOM     47  C   UNL A   1      40.356  29.442  31.144  1.00  0.00     0.037 A 
ATOM     48  C   UNL A   1      41.624  32.052  37.015  1.00  0.00     0.049 A 
ATOM     49  C   UNL A   1      41.423  29.202  32.176  1.00  0.00     0.074 A 
ATOM     50  C   UNL A   1      42.621  31.693  37.903  1.00  0.00     0.029 A 
ATOM     51  N   UNL A   1      41.771  31.242  35.897  1.00  0.00    -0.354 N 
ATOM     52  N   UNL A   1      41.590  29.775  33.344  1.00  0.00    -0.248 NA
ATOM     53  C   UNL A   1      42.428  28.181  31.858  1.00  0.00     0.031 C 
ATOM     54  C   UNL A   1      43.413  30.714  37.295  1.00  0.00     0.029 A 
ATOM     55  C   UNL A   1      42.868  30.408  36.058  1.00  0.00     0.049 A 
ATOM     56  H   UNL A   1      41.185  31.257  35.106  1.00  0.00     0.167 HD
ATOM     57  C   UNL A   1      42.705  29.172  33.910  1.00  0.00     0.074 A 
ATOM     58  C   UNL A   1      43.154  28.167  32.966  1.00  0.00     0.031 C 
ATOM     59  C   UNL A   1      43.306  29.426  35.098  1.00  0.00     0.037 A 
BRANCH  46  60
ATOM     60  C   UNL A   1      40.637  33.938  38.385  1.00  0.00     0.064 A 
ATOM     61  C   UNL A   1      41.401  35.116  38.439  1.00  0.00     0.173 A 
ATOM     62  C   UNL A   1      39.873  33.605  39.515  1.00  0.00     0.173 A 
ATOM     63  F   UNL A   1      42.160  35.477  37.394  1.00  0.00    -0.203 F 
ATOM     64  C   UNL A   1      41.426  35.904  39.588  1.00  0.00     0.198 A 
ATOM     65  C   UNL A   1      39.873  34.416  40.647  1.00  0.00     0.198 A 
ATOM     66  F   UNL A   1      39.123  32.494  39.520  1.00  0.00    -0.203 F 
ATOM     67  F   UNL A   1      42.211  36.990  39.636  1.00  0.00    -0.200 F 
ATOM     68  C   UNL A   1      40.657  35.558  40.687  1.00  0.00     0.200 A 
ATOM     69  F   UNL A   1      39.117  34.087  41.703  1.00  0.00    -0.200 F 
ATOM     70  F   UNL A   1      40.678  36.321  41.788  1.00  0.00    -0.200 F 
ENDBRANCH  46  60
BRANCH  47  71
ATOM     71  C   UNL A   1      40.337  28.694  29.860  1.00  0.00     0.064 A 
ATOM     72  C   UNL A   1      39.634  27.489  29.731  1.00  0.00     0.173 A 
ATOM     73  C   UNL A   1      41.013  29.179  28.730  1.00  0.00     0.173 A 
ATOM     74  F   UNL A   1      38.984  26.976  30.786  1.00  0.00    -0.203 F 
ATOM     75  C   UNL A   1      39.627  26.785  28.529  1.00  0.00     0.198 A 
ATOM     76  C   UNL A   1      40.977  28.492  27.519  1.00  0.00     0.198 A 
ATOM     77  F   UNL A   1      41.691  30.334  28.796  1.00  0.00    -0.203 F 
ATOM     78  F   UNL A   1      38.988  25.610  28.446  1.00  0.00    -0.200 F 
ATOM     79  C   UNL A   1      40.293  27.290  27.421  1.00  0.00     0.200 A 
ATOM     80  F   UNL A   1      41.605  28.995  26.447  1.00  0.00    -0.200 F 
ATOM     81  F   UNL A   1      40.279  26.616  26.264  1.00  0.00    -0.200 F 
ENDBRANCH  47  71
BRANCH  59  82
ATOM     82  C   UNL A   1      44.505  28.587  35.446  1.00  0.00     0.064 A 
ATOM     83  C   UNL A   1      45.806  28.979  35.097  1.00  0.00     0.173 A 
ATOM     84  C   UNL A   1      44.348  27.379  36.144  1.00  0.00     0.173 A 
ATOM     85  F   UNL A   1      46.010  30.118  34.419  1.00  0.00    -0.203 F 
ATOM     86  C   UNL A   1      46.900  28.168  35.390  1.00  0.00     0.198 A 
ATOM     87  C   UNL A   1      45.448  26.592  36.471  1.00  0.00     0.198 A 
ATOM     88  F   UNL A   1      43.127  26.963  36.512  1.00  0.00    -0.203 F 
ATOM     89  F   UNL A   1      48.124  28.528  34.980  1.00  0.00    -0.200 F 
ATOM     90  C   UNL A   1      46.721  26.979  36.081  1.00  0.00     0.200 A 
ATOM     91  F   UNL A   1      45.274  25.453  37.155  1.00  0.00    -0.200 F 
ATOM     92  F   UNL A   1      47.774  26.201  36.360  1.00  0.00    -0.200 F 
ENDBRANCH  59  82
ENDBRANCH  33  34
ENDBRANCH  25  28
ENDBRANCH  23  24
ENDBRANCH  22  23
ENDBRANCH  21  22
ENDBRANCH   3  21
TORSDOF 15
ENDMDL
