MODEL 1
REMARK VINA RESULT:     -15.0      0.000      0.000
REMARK SMILES CC1(C)O[C@H]2C[C@H]3[C@@H]4CCC5=CC(=O)C=C[C@]5(C)[C@@]4(F)[C@H](O)C[C@@]3(C)[C@@]2(C(=O)NCCCNC(=O)c2ccc(-c3c4nc(c(-c5c(F)c(F)c(F)c(F)c5F)c5ccc([nH]5)c(-c5c(F)c(F)c(F)c(F)c5F)c5nc(c(-c6c(F)c(F)c(F)c(F)c6F)c6ccc3[nH]6)C=C5)C=C4)cc2)O1
REMARK SMILES IDX 31 1 30 2 29 3 27 4 28 5 26 7 1 8 2 9 3 10 4 11 99 12 5 13
REMARK SMILES IDX 6 14 24 15 7 16 23 17 25 18 8 19 21 20 9 21 19 22 10 23
REMARK SMILES IDX 17 24 20 25 11 26 16 27 18 28 12 29 15 30 13 31 14 32 22 33
REMARK SMILES IDX 32 35 33 36 34 37 35 39 36 40 37 41 98 42 38 43 97 44 39 45
REMARK SMILES IDX 40 46 41 47 91 48 42 49 96 50 90 51 92 52 43 53 95 54 89 55
REMARK SMILES IDX 88 56 44 58 76 59 56 60 75 61 57 62 60 63 74 64 93 65 58 66
REMARK SMILES IDX 59 67 73 69 94 70 61 71 45 72 46 73 54 74 47 75 48 76 52 77
REMARK SMILES IDX 55 78 49 79 50 80 53 81 51 82 77 83 78 84 86 85 79 86 80 87
REMARK SMILES IDX 84 88 87 89 81 90 82 91 85 92 83 93 62 94 63 95 71 96 64 97
REMARK SMILES IDX 65 98 69 99 72 100 66 101 67 102 70 103 68 104
REMARK H PARENT 29 6 22 34 33 38 92 57 60 68
REMARK Flexibility Score: inf
ROOT
ATOM      1  C   UNL A   1      31.812  30.985  26.877  1.00  0.00     0.042 C 
ENDROOT
BRANCH   1   2
ATOM      2  C   UNL A   1      31.655  30.373  25.503  1.00  0.00     0.117 C 
BRANCH   2   3
ATOM      3  N   UNL A   1      32.828  30.078  24.719  1.00  0.00    -0.353 N 
ATOM      4  C   UNL A   1      33.149  28.840  24.189  1.00  0.00     0.255 C 
ATOM      5  O   UNL A   1      34.009  28.795  23.308  1.00  0.00    -0.272 OA
ATOM      6  H   UNL A   1      33.452  30.819  24.546  1.00  0.00     0.163 HD
BRANCH   4   7
ATOM      7  C   UNL A   1      32.478  27.558  24.757  1.00  0.00     0.181 C 
ATOM      8  C   UNL A   1      30.119  25.553  23.032  1.00  0.00     0.075 C 
ATOM      9  C   UNL A   1      30.791  26.913  23.271  1.00  0.00     0.164 C 
ATOM     10  C   UNL A   1      30.662  27.759  22.013  1.00  0.00     0.075 C 
ATOM     11  O   UNL A   1      30.105  27.574  24.335  1.00  0.00    -0.344 OA
ATOM     12  O   UNL A   1      32.187  26.722  23.593  1.00  0.00    -0.331 OA
ATOM     13  C   UNL A   1      31.046  27.783  25.389  1.00  0.00     0.164 C 
ATOM     14  C   UNL A   1      30.840  26.644  26.504  1.00  0.00     0.040 C 
ATOM     15  C   UNL A   1      33.185  26.771  25.957  1.00  0.00     0.014 C 
ATOM     16  C   UNL A   1      32.039  25.732  26.207  1.00  0.00     0.008 C 
ATOM     17  C   UNL A   1      34.523  26.022  25.946  1.00  0.00     0.046 C 
ATOM     18  C   UNL A   1      33.414  27.825  27.096  1.00  0.00     0.015 C 
ATOM     19  C   UNL A   1      32.232  24.202  25.876  1.00  0.00     0.035 C 
ATOM     20  C   UNL A   1      34.585  24.721  25.174  1.00  0.00     0.154 C 
ATOM     21  C   UNL A   1      31.276  23.226  26.541  1.00  0.00     0.012 C 
ATOM     22  C   UNL A   1      33.668  23.636  25.784  1.00  0.00     0.152 C 
ATOM     23  C   UNL A   1      31.142  22.000  25.623  1.00  0.00     0.032 C 
ATOM     24  C   UNL A   1      33.688  22.276  24.945  1.00  0.00     0.044 C 
ATOM     25  F   UNL A   1      34.096  23.391  27.060  1.00  0.00    -0.239 F 
ATOM     26  C   UNL A   1      32.463  21.373  25.228  1.00  0.00    -0.053 C 
ATOM     27  C   UNL A   1      34.967  21.466  25.174  1.00  0.00    -0.009 C 
ATOM     28  C   UNL A   1      33.668  22.572  23.409  1.00  0.00     0.024 C 
ATOM     29  C   UNL A   1      32.528  20.041  25.030  1.00  0.00     0.052 C 
ATOM     30  C   UNL A   1      35.034  20.139  24.999  1.00  0.00     0.048 C 
ATOM     31  C   UNL A   1      33.807  19.387  24.667  1.00  0.00     0.178 C 
ATOM     32  O   UNL A   1      33.846  18.271  24.169  1.00  0.00    -0.290 OA
BRANCH  20  33
ATOM     33  O   UNL A   1      35.959  24.331  25.141  1.00  0.00    -0.390 OA
ATOM     34  H   UNL A   1      36.372  24.532  25.995  1.00  0.00     0.211 HD
ENDBRANCH  20  33
ENDBRANCH   4   7
ENDBRANCH   2   3
ENDBRANCH   1   2
BRANCH   1  35
ATOM     35  C   UNL A   1      32.978  31.947  27.010  1.00  0.00     0.118 C 
BRANCH  35  36
ATOM     36  N   UNL A   1      32.595  33.323  27.331  1.00  0.00    -0.352 N 
ATOM     37  C   UNL A   1      33.081  34.224  28.250  1.00  0.00     0.251 C 
ATOM     38  H   UNL A   1      31.849  33.667  26.789  1.00  0.00     0.163 HD
ATOM     39  O   UNL A   1      32.528  35.316  28.375  1.00  0.00    -0.269 OA
BRANCH  37  40
ATOM     40  C   UNL A   1      34.229  33.887  29.119  1.00  0.00     0.039 A 
ATOM     41  C   UNL A   1      34.029  33.039  30.214  1.00  0.00     0.014 A 
ATOM     42  C   UNL A   1      35.506  34.375  28.851  1.00  0.00     0.014 A 
ATOM     43  C   UNL A   1      35.124  32.580  30.948  1.00  0.00     0.010 A 
ATOM     44  C   UNL A   1      36.604  33.825  29.500  1.00  0.00     0.010 A 
ATOM     45  C   UNL A   1      36.428  32.909  30.545  1.00  0.00    -0.014 A 
BRANCH  45  46
ATOM     46  C   UNL A   1      37.627  32.285  31.163  1.00  0.00     0.031 A 
ATOM     47  C   UNL A   1      38.366  31.192  30.443  1.00  0.00     0.074 A 
ATOM     48  C   UNL A   1      37.973  32.620  32.421  1.00  0.00     0.049 A 
ATOM     49  N   UNL A   1      39.338  30.427  30.870  1.00  0.00    -0.248 NA
ATOM     50  C   UNL A   1      37.927  30.895  29.069  1.00  0.00     0.031 C 
ATOM     51  C   UNL A   1      37.302  33.625  33.247  1.00  0.00     0.029 A 
ATOM     52  N   UNL A   1      38.968  32.137  33.235  1.00  0.00    -0.354 N 
ATOM     53  C   UNL A   1      39.609  29.548  29.830  1.00  0.00     0.074 A 
ATOM     54  C   UNL A   1      38.661  29.832  28.776  1.00  0.00     0.031 C 
ATOM     55  C   UNL A   1      37.919  33.703  34.436  1.00  0.00     0.029 A 
ATOM     56  C   UNL A   1      38.995  32.720  34.479  1.00  0.00     0.049 A 
ATOM     57  H   UNL A   1      39.604  31.439  32.954  1.00  0.00     0.167 HD
ATOM     58  C   UNL A   1      40.580  28.606  29.752  1.00  0.00     0.037 A 
ATOM     59  C   UNL A   1      39.785  32.477  35.541  1.00  0.00     0.037 A 
ATOM     60  C   UNL A   1      41.537  28.347  30.796  1.00  0.00     0.049 A 
ATOM     61  C   UNL A   1      40.838  31.407  35.441  1.00  0.00     0.074 A 
ATOM     62  C   UNL A   1      42.607  27.470  30.787  1.00  0.00     0.029 A 
ATOM     63  N   UNL A   1      41.533  28.961  32.040  1.00  0.00    -0.354 N 
ATOM     64  N   UNL A   1      41.135  30.633  34.426  1.00  0.00    -0.248 NA
ATOM     65  C   UNL A   1      41.660  31.174  36.635  1.00  0.00     0.031 C 
ATOM     66  C   UNL A   1      43.218  27.514  32.045  1.00  0.00     0.029 A 
ATOM     67  C   UNL A   1      42.561  28.455  32.821  1.00  0.00     0.049 A 
ATOM     68  H   UNL A   1      40.894  29.653  32.326  1.00  0.00     0.167 HD
ATOM     69  C   UNL A   1      42.188  29.834  34.850  1.00  0.00     0.074 A 
ATOM     70  C   UNL A   1      42.490  30.231  36.210  1.00  0.00     0.031 C 
ATOM     71  C   UNL A   1      42.843  28.859  34.175  1.00  0.00     0.037 A 
BRANCH  58  72
ATOM     72  C   UNL A   1      40.653  27.791  28.492  1.00  0.00     0.064 A 
ATOM     73  C   UNL A   1      39.983  26.564  28.369  1.00  0.00     0.173 A 
ATOM     74  C   UNL A   1      41.391  28.248  27.389  1.00  0.00     0.173 A 
ATOM     75  F   UNL A   1      39.273  26.075  29.396  1.00  0.00    -0.203 F 
ATOM     76  C   UNL A   1      40.081  25.807  27.204  1.00  0.00     0.198 A 
ATOM     77  C   UNL A   1      41.458  27.505  26.214  1.00  0.00     0.198 A 
ATOM     78  F   UNL A   1      42.046  29.417  27.450  1.00  0.00    -0.203 F 
ATOM     79  F   UNL A   1      39.484  24.609  27.133  1.00  0.00    -0.200 F 
ATOM     80  C   UNL A   1      40.813  26.281  26.126  1.00  0.00     0.200 A 
ATOM     81  F   UNL A   1      42.154  27.970  25.167  1.00  0.00    -0.200 F 
ATOM     82  F   UNL A   1      40.905  25.551  25.005  1.00  0.00    -0.200 F 
ENDBRANCH  58  72
BRANCH  59  83
ATOM     83  C   UNL A   1      39.622  33.276  36.784  1.00  0.00     0.064 A 
ATOM     84  C   UNL A   1      40.381  34.435  36.993  1.00  0.00     0.173 A 
ATOM     85  C   UNL A   1      38.701  32.911  37.778  1.00  0.00     0.173 A 
ATOM     86  F   UNL A   1      41.289  34.813  36.081  1.00  0.00    -0.203 F 
ATOM     87  C   UNL A   1      40.236  35.192  38.154  1.00  0.00     0.198 A 
ATOM     88  C   UNL A   1      38.537  33.683  38.926  1.00  0.00     0.198 A 
ATOM     89  F   UNL A   1      37.949  31.811  37.624  1.00  0.00    -0.203 F 
ATOM     90  F   UNL A   1      41.004  36.273  38.347  1.00  0.00    -0.200 F 
ATOM     91  C   UNL A   1      39.309  34.819  39.116  1.00  0.00     0.200 A 
ATOM     92  F   UNL A   1      37.633  33.325  39.848  1.00  0.00    -0.200 F 
ATOM     93  F   UNL A   1      39.168  35.550  40.231  1.00  0.00    -0.200 F 
ENDBRANCH  59  83
BRANCH  71  94
ATOM     94  C   UNL A   1      43.962  28.159  34.891  1.00  0.00     0.064 A 
ATOM     95  C   UNL A   1      43.750  26.955  35.578  1.00  0.00     0.173 A 
ATOM     96  C   UNL A   1      45.268  28.670  34.844  1.00  0.00     0.173 A 
ATOM     97  F   UNL A   1      42.517  26.435  35.666  1.00  0.00    -0.203 F 
ATOM     98  C   UNL A   1      44.804  26.296  36.206  1.00  0.00     0.198 A 
ATOM     99  C   UNL A   1      46.323  27.992  35.447  1.00  0.00     0.198 A 
ATOM    100  F   UNL A   1      45.523  29.816  34.194  1.00  0.00    -0.203 F 
ATOM    101  F   UNL A   1      44.572  25.168  36.891  1.00  0.00    -0.200 F 
ATOM    102  C   UNL A   1      46.090  26.810  36.132  1.00  0.00     0.200 A 
ATOM    103  F   UNL A   1      47.568  28.483  35.362  1.00  0.00    -0.200 F 
ATOM    104  F   UNL A   1      47.105  26.167  36.726  1.00  0.00    -0.200 F 
ENDBRANCH  71  94
ENDBRANCH  45  46
ENDBRANCH  37  40
ENDBRANCH  35  36
ENDBRANCH   1  35
TORSDOF 11
ENDMDL
MODEL 2
REMARK VINA RESULT:     -15.0      0.260      1.099
REMARK SMILES CC1(C)O[C@H]2C[C@H]3[C@@H]4CCC5=CC(=O)C=C[C@]5(C)[C@@]4(F)[C@H](O)C[C@@]3(C)[C@@]2(C(=O)NCCCNC(=O)c2ccc(-c3c4nc(c(-c5c(F)c(F)c(F)c(F)c5F)c5ccc([nH]5)c(-c5c(F)c(F)c(F)c(F)c5F)c5nc(c(-c6c(F)c(F)c(F)c(F)c6F)c6ccc3[nH]6)C=C5)C=C4)cc2)O1
REMARK SMILES IDX 31 1 30 2 29 3 27 4 28 5 26 7 1 8 2 9 3 10 4 11 99 12 5 13
REMARK SMILES IDX 6 14 24 15 7 16 23 17 25 18 8 19 21 20 9 21 19 22 10 23
REMARK SMILES IDX 17 24 20 25 11 26 16 27 18 28 12 29 15 30 13 31 14 32 22 33
REMARK SMILES IDX 32 35 33 36 34 37 35 39 36 40 37 41 98 42 38 43 97 44 39 45
REMARK SMILES IDX 40 46 41 47 91 48 42 49 96 50 90 51 92 52 43 53 95 54 89 55
REMARK SMILES IDX 88 56 44 58 76 59 56 60 75 61 57 62 60 63 74 64 93 65 58 66
REMARK SMILES IDX 59 67 73 69 94 70 61 71 45 72 46 73 54 74 47 75 48 76 52 77
REMARK SMILES IDX 55 78 49 79 50 80 53 81 51 82 77 83 78 84 86 85 79 86 80 87
REMARK SMILES IDX 84 88 87 89 81 90 82 91 85 92 83 93 62 94 63 95 71 96 64 97
REMARK SMILES IDX 65 98 69 99 72 100 66 101 67 102 70 103 68 104
REMARK H PARENT 29 6 22 34 33 38 92 57 60 68
REMARK Flexibility Score: inf
ROOT
ATOM      1  C   UNL A   1      31.822  30.950  26.895  1.00  0.00     0.042 C 
ENDROOT
BRANCH   1   2
ATOM      2  C   UNL A   1      31.666  30.337  25.522  1.00  0.00     0.117 C 
BRANCH   2   3
ATOM      3  N   UNL A   1      32.839  30.050  24.734  1.00  0.00    -0.353 N 
ATOM      4  C   UNL A   1      33.175  28.812  24.214  1.00  0.00     0.255 C 
ATOM      5  O   UNL A   1      34.031  28.771  23.329  1.00  0.00    -0.272 OA
ATOM      6  H   UNL A   1      33.453  30.798  24.551  1.00  0.00     0.163 HD
BRANCH   4   7
ATOM      7  C   UNL A   1      32.523  27.527  24.797  1.00  0.00     0.181 C 
ATOM      8  C   UNL A   1      30.110  25.530  23.139  1.00  0.00     0.075 C 
ATOM      9  C   UNL A   1      30.788  26.888  23.364  1.00  0.00     0.164 C 
ATOM     10  C   UNL A   1      30.618  27.742  22.115  1.00  0.00     0.075 C 
ATOM     11  O   UNL A   1      30.138  27.543  24.453  1.00  0.00    -0.344 OA
ATOM     12  O   UNL A   1      32.194  26.697  23.639  1.00  0.00    -0.331 OA
ATOM     13  C   UNL A   1      31.113  27.747  25.477  1.00  0.00     0.164 C 
ATOM     14  C   UNL A   1      30.944  26.603  26.592  1.00  0.00     0.040 C 
ATOM     15  C   UNL A   1      33.270  26.734  25.968  1.00  0.00     0.014 C 
ATOM     16  C   UNL A   1      32.132  25.692  26.250  1.00  0.00     0.008 C 
ATOM     17  C   UNL A   1      34.607  25.986  25.910  1.00  0.00     0.046 C 
ATOM     18  C   UNL A   1      33.535  27.781  27.106  1.00  0.00     0.015 C 
ATOM     19  C   UNL A   1      32.315  24.165  25.904  1.00  0.00     0.035 C 
ATOM     20  C   UNL A   1      34.644  24.689  25.129  1.00  0.00     0.154 C 
ATOM     21  C   UNL A   1      31.382  23.184  26.596  1.00  0.00     0.012 C 
ATOM     22  C   UNL A   1      33.748  23.600  25.762  1.00  0.00     0.152 C 
ATOM     23  C   UNL A   1      31.219  21.963  25.676  1.00  0.00     0.032 C 
ATOM     24  C   UNL A   1      33.741  22.244  24.916  1.00  0.00     0.044 C 
ATOM     25  F   UNL A   1      34.218  23.348  27.022  1.00  0.00    -0.239 F 
ATOM     26  C   UNL A   1      32.527  21.340  25.234  1.00  0.00    -0.053 C 
ATOM     27  C   UNL A   1      35.028  21.434  25.099  1.00  0.00    -0.009 C 
ATOM     28  C   UNL A   1      33.670  22.549  23.383  1.00  0.00     0.024 C 
ATOM     29  C   UNL A   1      32.585  20.009  25.026  1.00  0.00     0.052 C 
ATOM     30  C   UNL A   1      35.089  20.108  24.914  1.00  0.00     0.048 C 
ATOM     31  C   UNL A   1      33.852  19.358  24.619  1.00  0.00     0.178 C 
ATOM     32  O   UNL A   1      33.876  18.244  24.114  1.00  0.00    -0.290 OA
BRANCH  20  33
ATOM     33  O   UNL A   1      36.016  24.300  25.048  1.00  0.00    -0.390 OA
ATOM     34  H   UNL A   1      36.175  23.552  25.645  1.00  0.00     0.211 HD
ENDBRANCH  20  33
ENDBRANCH   4   7
ENDBRANCH   2   3
ENDBRANCH   1   2
BRANCH   1  35
ATOM     35  C   UNL A   1      32.972  31.932  27.021  1.00  0.00     0.118 C 
BRANCH  35  36
ATOM     36  N   UNL A   1      32.565  33.306  27.319  1.00  0.00    -0.352 N 
ATOM     37  C   UNL A   1      33.044  34.236  28.214  1.00  0.00     0.251 C 
ATOM     38  H   UNL A   1      31.806  33.625  26.778  1.00  0.00     0.163 HD
ATOM     39  O   UNL A   1      32.471  35.319  28.323  1.00  0.00    -0.269 OA
BRANCH  37  40
ATOM     40  C   UNL A   1      34.208  33.939  29.076  1.00  0.00     0.039 A 
ATOM     41  C   UNL A   1      34.033  33.124  30.200  1.00  0.00     0.014 A 
ATOM     42  C   UNL A   1      35.475  34.432  28.774  1.00  0.00     0.014 A 
ATOM     43  C   UNL A   1      35.144  32.701  30.932  1.00  0.00     0.010 A 
ATOM     44  C   UNL A   1      36.589  33.914  29.423  1.00  0.00     0.010 A 
ATOM     45  C   UNL A   1      36.437  33.030  30.500  1.00  0.00    -0.014 A 
BRANCH  45  46
ATOM     46  C   UNL A   1      37.652  32.439  31.120  1.00  0.00     0.031 A 
ATOM     47  C   UNL A   1      38.388  31.327  30.428  1.00  0.00     0.074 A 
ATOM     48  C   UNL A   1      38.016  32.823  32.359  1.00  0.00     0.049 A 
ATOM     49  N   UNL A   1      39.374  30.586  30.866  1.00  0.00    -0.248 NA
ATOM     50  C   UNL A   1      37.930  30.976  29.074  1.00  0.00     0.031 C 
ATOM     51  C   UNL A   1      37.350  33.852  33.159  1.00  0.00     0.029 A 
ATOM     52  N   UNL A   1      39.029  32.378  33.173  1.00  0.00    -0.354 N 
ATOM     53  C   UNL A   1      39.636  29.672  29.854  1.00  0.00     0.074 A 
ATOM     54  C   UNL A   1      38.668  29.909  28.807  1.00  0.00     0.031 C 
ATOM     55  C   UNL A   1      37.986  33.979  34.334  1.00  0.00     0.029 A 
ATOM     56  C   UNL A   1      39.071  33.007  34.394  1.00  0.00     0.049 A 
ATOM     57  H   UNL A   1      39.666  31.676  32.906  1.00  0.00     0.167 HD
ATOM     58  C   UNL A   1      40.613  28.736  29.794  1.00  0.00     0.037 A 
ATOM     59  C   UNL A   1      39.881  32.810  35.451  1.00  0.00     0.037 A 
ATOM     60  C   UNL A   1      41.589  28.523  30.830  1.00  0.00     0.049 A 
ATOM     61  C   UNL A   1      40.941  31.745  35.372  1.00  0.00     0.074 A 
ATOM     62  C   UNL A   1      42.667  27.655  30.835  1.00  0.00     0.029 A 
ATOM     63  N   UNL A   1      41.602  29.182  32.051  1.00  0.00    -0.354 N 
ATOM     64  N   UNL A   1      41.228  30.936  34.381  1.00  0.00    -0.248 NA
ATOM     65  C   UNL A   1      41.785  31.563  36.560  1.00  0.00     0.031 C 
ATOM     66  C   UNL A   1      43.298  27.750  32.080  1.00  0.00     0.029 A 
ATOM     67  C   UNL A   1      42.646  28.713  32.832  1.00  0.00     0.049 A 
ATOM     68  H   UNL A   1      40.961  29.879  32.322  1.00  0.00     0.167 HD
ATOM     69  C   UNL A   1      42.295  30.163  34.816  1.00  0.00     0.074 A 
ATOM     70  C   UNL A   1      42.617  30.612  36.156  1.00  0.00     0.031 C 
ATOM     71  C   UNL A   1      42.948  29.169  34.166  1.00  0.00     0.037 A 
BRANCH  58  72
ATOM     72  C   UNL A   1      40.673  27.875  28.564  1.00  0.00     0.064 A 
ATOM     73  C   UNL A   1      41.403  28.261  27.429  1.00  0.00     0.173 A 
ATOM     74  C   UNL A   1      40.004  26.642  28.524  1.00  0.00     0.173 A 
ATOM     75  F   UNL A   1      42.051  29.435  27.410  1.00  0.00    -0.203 F 
ATOM     76  C   UNL A   1      41.428  27.465  26.287  1.00  0.00     0.198 A 
ATOM     77  C   UNL A   1      40.060  25.833  27.392  1.00  0.00     0.198 A 
ATOM     78  F   UNL A   1      39.297  26.220  29.582  1.00  0.00    -0.203 F 
ATOM     79  F   UNL A   1      42.080  27.886  25.193  1.00  0.00    -0.200 F 
ATOM     80  C   UNL A   1      40.762  26.249  26.272  1.00  0.00     0.200 A 
ATOM     81  F   UNL A   1      39.428  24.651  27.384  1.00  0.00    -0.200 F 
ATOM     82  F   UNL A   1      40.789  25.483  25.172  1.00  0.00    -0.200 F 
ENDBRANCH  58  72
BRANCH  59  83
ATOM     83  C   UNL A   1      39.731  33.652  36.666  1.00  0.00     0.064 A 
ATOM     84  C   UNL A   1      40.476  34.830  36.815  1.00  0.00     0.173 A 
ATOM     85  C   UNL A   1      38.839  33.310  37.693  1.00  0.00     0.173 A 
ATOM     86  F   UNL A   1      41.357  35.188  35.869  1.00  0.00    -0.203 F 
ATOM     87  C   UNL A   1      40.343  35.628  37.949  1.00  0.00     0.198 A 
ATOM     88  C   UNL A   1      38.688  34.122  38.816  1.00  0.00     0.198 A 
ATOM     89  F   UNL A   1      38.102  32.193  37.598  1.00  0.00    -0.203 F 
ATOM     90  F   UNL A   1      41.097  36.728  38.084  1.00  0.00    -0.200 F 
ATOM     91  C   UNL A   1      39.444  35.276  38.946  1.00  0.00     0.200 A 
ATOM     92  F   UNL A   1      37.810  33.784  39.770  1.00  0.00    -0.200 F 
ATOM     93  F   UNL A   1      39.315  36.047  40.035  1.00  0.00    -0.200 F 
ENDBRANCH  59  83
BRANCH  71  94
ATOM     94  C   UNL A   1      44.084  28.505  34.888  1.00  0.00     0.064 A 
ATOM     95  C   UNL A   1      43.893  27.328  35.627  1.00  0.00     0.173 A 
ATOM     96  C   UNL A   1      45.386  29.021  34.795  1.00  0.00     0.173 A 
ATOM     97  F   UNL A   1      42.665  26.804  35.759  1.00  0.00    -0.203 F 
ATOM     98  C   UNL A   1      44.963  26.701  36.261  1.00  0.00     0.198 A 
ATOM     99  C   UNL A   1      46.457  28.374  35.405  1.00  0.00     0.198 A 
ATOM    100  F   UNL A   1      45.621  30.141  34.095  1.00  0.00    -0.203 F 
ATOM    101  F   UNL A   1      44.752  25.600  36.995  1.00  0.00    -0.200 F 
ATOM    102  C   UNL A   1      46.244  27.219  36.141  1.00  0.00     0.200 A 
ATOM    103  F   UNL A   1      47.696  28.868  35.277  1.00  0.00    -0.200 F 
ATOM    104  F   UNL A   1      47.274  26.606  36.741  1.00  0.00    -0.200 F 
ENDBRANCH  71  94
ENDBRANCH  45  46
ENDBRANCH  37  40
ENDBRANCH  35  36
ENDBRANCH   1  35
TORSDOF 11
ENDMDL
MODEL 3
REMARK VINA RESULT:     -14.9      4.766      8.689
REMARK SMILES CC1(C)O[C@H]2C[C@H]3[C@@H]4CCC5=CC(=O)C=C[C@]5(C)[C@@]4(F)[C@H](O)C[C@@]3(C)[C@@]2(C(=O)NCCCNC(=O)c2ccc(-c3c4nc(c(-c5c(F)c(F)c(F)c(F)c5F)c5ccc([nH]5)c(-c5c(F)c(F)c(F)c(F)c5F)c5nc(c(-c6c(F)c(F)c(F)c(F)c6F)c6ccc3[nH]6)C=C5)C=C4)cc2)O1
REMARK SMILES IDX 31 1 30 2 29 3 27 4 28 5 26 7 1 8 2 9 3 10 4 11 99 12 5 13
REMARK SMILES IDX 6 14 24 15 7 16 23 17 25 18 8 19 21 20 9 21 19 22 10 23
REMARK SMILES IDX 17 24 20 25 11 26 16 27 18 28 12 29 15 30 13 31 14 32 22 33
REMARK SMILES IDX 32 35 33 36 34 37 35 39 36 40 37 41 98 42 38 43 97 44 39 45
REMARK SMILES IDX 40 46 41 47 91 48 42 49 96 50 90 51 92 52 43 53 95 54 89 55
REMARK SMILES IDX 88 56 44 58 76 59 56 60 75 61 57 62 60 63 74 64 93 65 58 66
REMARK SMILES IDX 59 67 73 69 94 70 61 71 45 72 46 73 54 74 47 75 48 76 52 77
REMARK SMILES IDX 55 78 49 79 50 80 53 81 51 82 77 83 78 84 86 85 79 86 80 87
REMARK SMILES IDX 84 88 87 89 81 90 82 91 85 92 83 93 62 94 63 95 71 96 64 97
REMARK SMILES IDX 65 98 69 99 72 100 66 101 67 102 70 103 68 104
REMARK H PARENT 29 6 22 34 33 38 92 57 60 68
REMARK Flexibility Score: inf
ROOT
ATOM      1  C   UNL A   1      37.398  19.812  25.001  1.00  0.00     0.042 C 
ENDROOT
BRANCH   1   2
ATOM      2  C   UNL A   1      36.024  20.433  25.115  1.00  0.00     0.117 C 
BRANCH   2   3
ATOM      3  N   UNL A   1      35.637  21.080  26.344  1.00  0.00    -0.353 N 
ATOM      4  C   UNL A   1      34.687  22.081  26.461  1.00  0.00     0.255 C 
ATOM      5  O   UNL A   1      34.249  22.332  27.585  1.00  0.00    -0.272 OA
ATOM      6  H   UNL A   1      36.086  20.786  27.169  1.00  0.00     0.163 HD
BRANCH   4   7
ATOM      7  C   UNL A   1      34.258  22.889  25.204  1.00  0.00     0.181 C 
ATOM      8  C   UNL A   1      31.213  22.457  23.443  1.00  0.00     0.075 C 
ATOM      9  C   UNL A   1      32.326  21.894  24.337  1.00  0.00     0.164 C 
ATOM     10  C   UNL A   1      31.778  20.717  25.132  1.00  0.00     0.075 C 
ATOM     11  O   UNL A   1      33.383  21.425  23.501  1.00  0.00    -0.344 OA
ATOM     12  O   UNL A   1      32.796  22.919  25.242  1.00  0.00    -0.331 OA
ATOM     13  C   UNL A   1      34.554  22.177  23.824  1.00  0.00     0.164 C 
ATOM     14  C   UNL A   1      34.746  23.337  22.728  1.00  0.00     0.040 C 
ATOM     15  C   UNL A   1      34.926  24.315  24.926  1.00  0.00     0.014 C 
ATOM     16  C   UNL A   1      34.272  24.562  23.523  1.00  0.00     0.008 C 
ATOM     17  C   UNL A   1      34.804  25.601  25.751  1.00  0.00     0.046 C 
ATOM     18  C   UNL A   1      36.477  24.078  24.925  1.00  0.00     0.015 C 
ATOM     19  C   UNL A   1      33.190  25.690  23.310  1.00  0.00     0.035 C 
ATOM     20  C   UNL A   1      33.471  26.320  25.723  1.00  0.00     0.154 C 
ATOM     21  C   UNL A   1      32.944  26.150  21.883  1.00  0.00     0.012 C 
ATOM     22  C   UNL A   1      33.129  26.862  24.317  1.00  0.00     0.152 C 
ATOM     23  C   UNL A   1      31.493  26.652  21.795  1.00  0.00     0.032 C 
ATOM     24  C   UNL A   1      31.701  27.578  24.267  1.00  0.00     0.044 C 
ATOM     25  F   UNL A   1      34.100  27.759  23.963  1.00  0.00    -0.239 F 
ATOM     26  C   UNL A   1      31.132  27.693  22.833  1.00  0.00    -0.053 C 
ATOM     27  C   UNL A   1      31.720  28.968  24.909  1.00  0.00    -0.009 C 
ATOM     28  C   UNL A   1      30.647  26.767  25.093  1.00  0.00     0.024 C 
ATOM     29  C   UNL A   1      30.236  28.652  22.521  1.00  0.00     0.052 C 
ATOM     30  C   UNL A   1      30.847  29.933  24.589  1.00  0.00     0.048 C 
ATOM     31  C   UNL A   1      29.876  29.703  23.501  1.00  0.00     0.178 C 
ATOM     32  O   UNL A   1      28.860  30.374  23.387  1.00  0.00    -0.290 OA
BRANCH  20  33
ATOM     33  O   UNL A   1      33.542  27.349  26.712  1.00  0.00    -0.390 OA
ATOM     34  H   UNL A   1      32.790  27.952  26.604  1.00  0.00     0.211 HD
ENDBRANCH  20  33
ENDBRANCH   4   7
ENDBRANCH   2   3
ENDBRANCH   1   2
BRANCH   1  35
ATOM     35  C   UNL A   1      38.534  20.700  25.475  1.00  0.00     0.118 C 
BRANCH  35  36
ATOM     36  N   UNL A   1      39.632  19.982  26.125  1.00  0.00    -0.352 N 
ATOM     37  C   UNL A   1      40.691  20.414  26.891  1.00  0.00     0.251 C 
ATOM     38  H   UNL A   1      39.609  19.007  25.987  1.00  0.00     0.163 HD
ATOM     39  O   UNL A   1      41.534  19.602  27.268  1.00  0.00    -0.269 OA
BRANCH  37  40
ATOM     40  C   UNL A   1      40.855  21.844  27.231  1.00  0.00     0.039 A 
ATOM     41  C   UNL A   1      41.698  22.199  28.290  1.00  0.00     0.014 A 
ATOM     42  C   UNL A   1      40.210  22.839  26.501  1.00  0.00     0.014 A 
ATOM     43  C   UNL A   1      41.993  23.544  28.523  1.00  0.00     0.010 A 
ATOM     44  C   UNL A   1      40.596  24.165  26.652  1.00  0.00     0.010 A 
ATOM     45  C   UNL A   1      41.505  24.532  27.654  1.00  0.00    -0.014 A 
BRANCH  45  46
ATOM     46  C   UNL A   1      41.952  25.947  27.734  1.00  0.00     0.031 A 
ATOM     47  C   UNL A   1      43.291  26.348  27.183  1.00  0.00     0.074 A 
ATOM     48  C   UNL A   1      41.204  26.840  28.411  1.00  0.00     0.049 A 
ATOM     49  N   UNL A   1      43.921  27.491  27.284  1.00  0.00    -0.248 NA
ATOM     50  C   UNL A   1      44.039  25.313  26.450  1.00  0.00     0.031 C 
ATOM     51  C   UNL A   1      39.913  26.561  29.041  1.00  0.00     0.029 A 
ATOM     52  N   UNL A   1      41.431  28.163  28.699  1.00  0.00    -0.354 N 
ATOM     53  C   UNL A   1      45.142  27.305  26.650  1.00  0.00     0.074 A 
ATOM     54  C   UNL A   1      45.192  25.924  26.222  1.00  0.00     0.031 C 
ATOM     55  C   UNL A   1      39.450  27.682  29.616  1.00  0.00     0.029 A 
ATOM     56  C   UNL A   1      40.433  28.745  29.443  1.00  0.00     0.049 A 
ATOM     57  H   UNL A   1      42.234  28.650  28.401  1.00  0.00     0.167 HD
ATOM     58  C   UNL A   1      46.123  28.211  26.422  1.00  0.00     0.037 A 
ATOM     59  C   UNL A   1      40.329  29.990  29.944  1.00  0.00     0.037 A 
ATOM     60  C   UNL A   1      46.055  29.590  26.829  1.00  0.00     0.049 A 
ATOM     61  C   UNL A   1      41.443  30.971  29.702  1.00  0.00     0.074 A 
ATOM     62  C   UNL A   1      46.958  30.609  26.580  1.00  0.00     0.029 A 
ATOM     63  N   UNL A   1      45.025  30.143  27.576  1.00  0.00    -0.354 N 
ATOM     64  N   UNL A   1      42.561  30.806  29.038  1.00  0.00    -0.248 NA
ATOM     65  C   UNL A   1      41.284  32.310  30.286  1.00  0.00     0.031 C 
ATOM     66  C   UNL A   1      46.501  31.764  27.224  1.00  0.00     0.029 A 
ATOM     67  C   UNL A   1      45.288  31.480  27.830  1.00  0.00     0.049 A 
ATOM     68  H   UNL A   1      44.226  29.656  27.883  1.00  0.00     0.167 HD
ATOM     69  C   UNL A   1      43.229  32.020  29.106  1.00  0.00     0.074 A 
ATOM     70  C   UNL A   1      42.382  32.920  29.863  1.00  0.00     0.031 C 
ATOM     71  C   UNL A   1      44.436  32.359  28.590  1.00  0.00     0.037 A 
BRANCH  58  72
ATOM     72  C   UNL A   1      47.350  27.736  25.698  1.00  0.00     0.064 A 
ATOM     73  C   UNL A   1      47.438  27.766  24.298  1.00  0.00     0.173 A 
ATOM     74  C   UNL A   1      48.460  27.258  26.413  1.00  0.00     0.173 A 
ATOM     75  F   UNL A   1      46.403  28.203  23.565  1.00  0.00    -0.203 F 
ATOM     76  C   UNL A   1      48.573  27.299  23.639  1.00  0.00     0.198 A 
ATOM     77  C   UNL A   1      49.606  26.824  25.753  1.00  0.00     0.198 A 
ATOM     78  F   UNL A   1      48.433  27.213  27.753  1.00  0.00    -0.203 F 
ATOM     79  F   UNL A   1      48.607  27.279  22.299  1.00  0.00    -0.200 F 
ATOM     80  C   UNL A   1      49.657  26.834  24.367  1.00  0.00     0.200 A 
ATOM     81  F   UNL A   1      50.659  26.388  26.458  1.00  0.00    -0.200 F 
ATOM     82  F   UNL A   1      50.749  26.386  23.732  1.00  0.00    -0.200 F 
ENDBRANCH  58  72
BRANCH  59  83
ATOM     83  C   UNL A   1      39.115  30.382  30.707  1.00  0.00     0.064 A 
ATOM     84  C   UNL A   1      39.050  30.189  32.094  1.00  0.00     0.173 A 
ATOM     85  C   UNL A   1      38.006  30.965  30.076  1.00  0.00     0.173 A 
ATOM     86  F   UNL A   1      40.077  29.616  32.738  1.00  0.00    -0.203 F 
ATOM     87  C   UNL A   1      37.918  30.553  32.819  1.00  0.00     0.198 A 
ATOM     88  C   UNL A   1      36.885  31.353  30.807  1.00  0.00     0.198 A 
ATOM     89  F   UNL A   1      38.019  31.172  28.751  1.00  0.00    -0.203 F 
ATOM     90  F   UNL A   1      37.867  30.320  34.138  1.00  0.00    -0.200 F 
ATOM     91  C   UNL A   1      36.839  31.141  32.176  1.00  0.00     0.200 A 
ATOM     92  F   UNL A   1      35.849  31.931  30.183  1.00  0.00    -0.200 F 
ATOM     93  F   UNL A   1      35.751  31.494  32.876  1.00  0.00    -0.200 F 
ENDBRANCH  59  83
BRANCH  71  94
ATOM     94  C   UNL A   1      44.910  33.765  28.816  1.00  0.00     0.064 A 
ATOM     95  C   UNL A   1      45.730  34.095  29.906  1.00  0.00     0.173 A 
ATOM     96  C   UNL A   1      44.587  34.781  27.904  1.00  0.00     0.173 A 
ATOM     97  F   UNL A   1      46.053  33.162  30.815  1.00  0.00    -0.203 F 
ATOM     98  C   UNL A   1      46.194  35.395  30.083  1.00  0.00     0.198 A 
ATOM     99  C   UNL A   1      45.078  36.073  28.068  1.00  0.00     0.198 A 
ATOM    100  F   UNL A   1      43.811  34.515  26.842  1.00  0.00    -0.203 F 
ATOM    101  F   UNL A   1      46.942  35.697  31.152  1.00  0.00    -0.200 F 
ATOM    102  C   UNL A   1      45.875  36.380  29.159  1.00  0.00     0.200 A 
ATOM    103  F   UNL A   1      44.781  37.020  27.167  1.00  0.00    -0.200 F 
ATOM    104  F   UNL A   1      46.335  37.628  29.324  1.00  0.00    -0.200 F 
ENDBRANCH  71  94
ENDBRANCH  45  46
ENDBRANCH  37  40
ENDBRANCH  35  36
ENDBRANCH   1  35
TORSDOF 11
ENDMDL
