MODEL 1
REMARK VINA RESULT:     -14.0      0.000      0.000
REMARK SMILES Cc1cc(S(F)(F)(F)(F)F)cc2c1O[C@H](C(F)(F)F)C(C(=O)NCCCNC(=O)c1ccc(-c3c4nc(c(-c5c(F)c(F)c(F)c(F)c5F)c5ccc([nH]5)c(-c5c(F)c(F)c(F)c(F)c5F)c5nc(c(-c6c(F)c(F)c(F)c(F)c6F)c6ccc3[nH]6)C=C5)C=C4)cc1)=C2
REMARK SMILES IDX 25 1 24 2 23 3 21 4 22 5 20 7 1 8 2 9 3 10 13 11 4 12 12 13
REMARK SMILES IDX 14 14 11 15 93 16 15 17 5 18 6 19 7 20 8 21 9 22 10 23 16 24
REMARK SMILES IDX 17 25 18 26 19 27 26 28 27 29 28 30 29 32 30 33 31 34 92 35
REMARK SMILES IDX 32 36 91 37 33 38 34 39 35 40 85 41 36 42 90 43 84 44 86 45
REMARK SMILES IDX 37 46 89 47 83 48 82 49 38 51 70 52 50 53 69 54 51 55 54 56
REMARK SMILES IDX 68 57 87 58 52 59 53 60 67 62 88 63 55 64 39 65 40 66 48 67
REMARK SMILES IDX 41 68 42 69 46 70 49 71 43 72 44 73 47 74 45 75 71 76 72 77
REMARK SMILES IDX 80 78 73 79 74 80 78 81 81 82 75 83 76 84 79 85 77 86 56 87
REMARK SMILES IDX 57 88 65 89 58 90 59 91 63 92 66 93 60 94 61 95 64 96 62 97
REMARK H PARENT 23 6 27 31 86 50 54 61
REMARK Flexibility Score: inf
ROOT
ATOM      1  C   UNL A   1      37.781  20.147  24.628  1.00  0.00     0.042 C 
ENDROOT
BRANCH   1   2
ATOM      2  C   UNL A   1      36.662  21.165  24.770  1.00  0.00     0.118 C 
BRANCH   2   3
ATOM      3  N   UNL A   1      35.695  20.694  25.772  1.00  0.00    -0.352 N 
ATOM      4  C   UNL A   1      34.489  21.484  26.057  1.00  0.00     0.251 C 
ATOM      5  O   UNL A   1      33.653  21.078  26.924  1.00  0.00    -0.270 OA
ATOM      6  H   UNL A   1      35.855  19.850  26.252  1.00  0.00     0.163 HD
BRANCH   4   7
ATOM      7  C   UNL A   1      34.241  22.788  25.315  1.00  0.00     0.067 C 
ATOM      8  C   UNL A   1      33.278  26.448  21.745  1.00  0.00     0.048 C 
ATOM      9  C   UNL A   1      33.562  26.356  23.236  1.00  0.00    -0.007 A 
ATOM     10  C   UNL A   1      33.453  27.526  23.954  1.00  0.00     0.031 A 
ATOM     11  C   UNL A   1      33.788  25.157  23.912  1.00  0.00     0.130 A 
ATOM     12  C   UNL A   1      33.571  27.524  25.338  1.00  0.00     0.108 A 
ATOM     13  C   UNL A   1      33.902  25.158  25.320  1.00  0.00     0.019 A 
ATOM     14  O   UNL A   1      33.914  23.876  23.204  1.00  0.00    -0.475 OA
ATOM     15  C   UNL A   1      33.785  26.360  26.021  1.00  0.00     0.036 A 
ATOM     16  C   UNL A   1      34.140  23.886  26.003  1.00  0.00     0.025 C 
ATOM     17  C   UNL A   1      34.133  22.757  23.925  1.00  0.00     0.314 C 
BRANCH  12  18
ATOM     18  S   UNL A   1      33.437  29.082  26.248  1.00  0.00     0.310 S 
ATOM     19  F   UNL A   1      33.346  28.250  27.595  1.00  0.00    -0.094 F 
ATOM     20  F   UNL A   1      31.882  28.879  26.097  1.00  0.00    -0.094 F 
ATOM     21  F   UNL A   1      33.216  30.365  27.098  1.00  0.00    -0.094 F 
ATOM     22  F   UNL A   1      34.992  29.191  26.505  1.00  0.00    -0.094 F 
ATOM     23  F   UNL A   1      33.674  27.720  25.482  1.00  0.00    -0.094 F 
ENDBRANCH  12  18
BRANCH  17  24
ATOM     24  C   UNL A   1      32.842  21.982  23.719  1.00  0.00     0.429 C 
ATOM     25  F   UNL A   1      32.355  22.246  22.509  1.00  0.00    -0.167 F 
ATOM     26  F   UNL A   1      33.085  20.679  23.825  1.00  0.00    -0.167 F 
ATOM     27  F   UNL A   1      31.955  22.345  24.642  1.00  0.00    -0.167 F 
ENDBRANCH  17  24
ENDBRANCH   4   7
ENDBRANCH   2   3
ENDBRANCH   1   2
BRANCH   1  28
ATOM     28  C   UNL A   1      38.788  20.342  25.751  1.00  0.00     0.118 C 
BRANCH  28  29
ATOM     29  N   UNL A   1      39.718  19.203  25.779  1.00  0.00    -0.352 N 
ATOM     30  C   UNL A   1      41.130  19.416  26.126  1.00  0.00     0.251 C 
ATOM     31  H   UNL A   1      39.394  18.299  25.565  1.00  0.00     0.163 HD
ATOM     32  O   UNL A   1      41.934  18.432  26.149  1.00  0.00    -0.269 OA
BRANCH  30  33
ATOM     33  C   UNL A   1      41.629  20.813  26.456  1.00  0.00     0.039 A 
ATOM     34  C   UNL A   1      42.104  21.650  25.451  1.00  0.00     0.014 A 
ATOM     35  C   UNL A   1      41.610  21.268  27.690  1.00  0.00     0.014 A 
ATOM     36  C   UNL A   1      42.051  23.037  25.707  1.00  0.00     0.010 A 
ATOM     37  C   UNL A   1      42.064  22.558  27.984  1.00  0.00     0.010 A 
ATOM     38  C   UNL A   1      42.282  23.432  27.024  1.00  0.00    -0.014 A 
BRANCH  38  39
ATOM     39  C   UNL A   1      42.771  24.835  27.343  1.00  0.00     0.031 A 
ATOM     40  C   UNL A   1      44.098  25.140  27.038  1.00  0.00     0.074 A 
ATOM     41  C   UNL A   1      41.877  25.735  27.899  1.00  0.00     0.049 A 
ATOM     42  N   UNL A   1      44.718  26.313  27.185  1.00  0.00    -0.248 NA
ATOM     43  C   UNL A   1      45.058  24.178  26.479  1.00  0.00     0.031 C 
ATOM     44  C   UNL A   1      40.534  25.436  28.201  1.00  0.00     0.029 A 
ATOM     45  N   UNL A   1      42.109  27.045  28.254  1.00  0.00    -0.354 N 
ATOM     46  C   UNL A   1      45.981  26.223  26.765  1.00  0.00     0.074 A 
ATOM     47  C   UNL A   1      46.220  24.846  26.311  1.00  0.00     0.031 C 
ATOM     48  C   UNL A   1      39.967  26.547  28.742  1.00  0.00     0.029 A 
ATOM     49  C   UNL A   1      40.945  27.558  28.786  1.00  0.00     0.049 A 
ATOM     50  H   UNL A   1      42.958  27.531  28.147  1.00  0.00     0.167 HD
ATOM     51  C   UNL A   1      46.943  27.234  26.741  1.00  0.00     0.037 A 
ATOM     52  C   UNL A   1      40.732  28.832  29.287  1.00  0.00     0.037 A 
ATOM     53  C   UNL A   1      46.716  28.521  27.203  1.00  0.00     0.049 A 
ATOM     54  C   UNL A   1      41.712  29.828  29.318  1.00  0.00     0.074 A 
ATOM     55  C   UNL A   1      47.672  29.554  27.180  1.00  0.00     0.029 A 
ATOM     56  N   UNL A   1      45.561  29.026  27.758  1.00  0.00    -0.354 N 
ATOM     57  N   UNL A   1      42.962  29.749  28.861  1.00  0.00    -0.248 NA
ATOM     58  C   UNL A   1      41.506  31.171  29.876  1.00  0.00     0.031 C 
ATOM     59  C   UNL A   1      47.105  30.665  27.722  1.00  0.00     0.029 A 
ATOM     60  C   UNL A   1      45.785  30.344  28.092  1.00  0.00     0.049 A 
ATOM     61  H   UNL A   1      44.720  28.532  27.892  1.00  0.00     0.167 HD
ATOM     62  C   UNL A   1      43.594  30.909  29.048  1.00  0.00     0.074 A 
ATOM     63  C   UNL A   1      42.669  31.839  29.710  1.00  0.00     0.031 C 
ATOM     64  C   UNL A   1      44.904  31.232  28.689  1.00  0.00     0.037 A 
BRANCH  51  65
ATOM     65  C   UNL A   1      48.316  26.906  26.179  1.00  0.00     0.064 A 
ATOM     66  C   UNL A   1      48.597  27.137  24.847  1.00  0.00     0.173 A 
ATOM     67  C   UNL A   1      49.299  26.364  26.994  1.00  0.00     0.173 A 
ATOM     68  F   UNL A   1      47.662  27.656  24.057  1.00  0.00    -0.203 F 
ATOM     69  C   UNL A   1      49.789  26.847  24.347  1.00  0.00     0.198 A 
ATOM     70  C   UNL A   1      50.538  26.079  26.439  1.00  0.00     0.198 A 
ATOM     71  F   UNL A   1      49.059  26.124  28.280  1.00  0.00    -0.203 F 
ATOM     72  F   UNL A   1      50.025  27.077  23.058  1.00  0.00    -0.200 F 
ATOM     73  C   UNL A   1      50.749  26.336  25.098  1.00  0.00     0.200 A 
ATOM     74  F   UNL A   1      51.509  25.563  27.187  1.00  0.00    -0.200 F 
ATOM     75  F   UNL A   1      51.934  26.065  24.556  1.00  0.00    -0.200 F 
ENDBRANCH  51  65
BRANCH  52  76
ATOM     76  C   UNL A   1      39.354  29.165  29.835  1.00  0.00     0.064 A 
ATOM     77  C   UNL A   1      38.408  29.767  29.029  1.00  0.00     0.173 A 
ATOM     78  C   UNL A   1      39.029  28.863  31.150  1.00  0.00     0.173 A 
ATOM     79  F   UNL A   1      38.711  30.061  27.768  1.00  0.00    -0.203 F 
ATOM     80  C   UNL A   1      37.204  30.055  29.498  1.00  0.00     0.198 A 
ATOM     81  C   UNL A   1      37.756  29.173  31.606  1.00  0.00     0.198 A 
ATOM     82  F   UNL A   1      39.918  28.287  31.955  1.00  0.00    -0.203 F 
ATOM     83  F   UNL A   1      36.319  30.640  28.696  1.00  0.00    -0.200 F 
ATOM     84  C   UNL A   1      36.860  29.775  30.744  1.00  0.00     0.200 A 
ATOM     85  F   UNL A   1      37.403  28.894  32.858  1.00  0.00    -0.200 F 
ATOM     86  F   UNL A   1      35.638  30.076  31.171  1.00  0.00    -0.200 F 
ENDBRANCH  52  76
BRANCH  64  87
ATOM     87  C   UNL A   1      45.393  32.643  28.970  1.00  0.00     0.064 A 
ATOM     88  C   UNL A   1      45.161  33.647  28.052  1.00  0.00     0.173 A 
ATOM     89  C   UNL A   1      46.055  32.946  30.152  1.00  0.00     0.173 A 
ATOM     90  F   UNL A   1      44.527  33.366  26.917  1.00  0.00    -0.203 F 
ATOM     91  C   UNL A   1      45.563  34.887  28.288  1.00  0.00     0.198 A 
ATOM     92  C   UNL A   1      46.457  34.256  30.369  1.00  0.00     0.198 A 
ATOM     93  F   UNL A   1      46.300  32.002  31.055  1.00  0.00    -0.203 F 
ATOM     94  F   UNL A   1      45.330  35.829  27.379  1.00  0.00    -0.200 F 
ATOM     95  C   UNL A   1      46.192  35.210  29.405  1.00  0.00     0.200 A 
ATOM     96  F   UNL A   1      47.090  34.589  31.490  1.00  0.00    -0.200 F 
ATOM     97  F   UNL A   1      46.573  36.469  29.604  1.00  0.00    -0.200 F 
ENDBRANCH  64  87
ENDBRANCH  38  39
ENDBRANCH  30  33
ENDBRANCH  28  29
ENDBRANCH   1  28
TORSDOF 12
ENDMDL
MODEL 2
REMARK VINA RESULT:     -13.9      0.122      1.160
REMARK SMILES Cc1cc(S(F)(F)(F)(F)F)cc2c1O[C@H](C(F)(F)F)C(C(=O)NCCCNC(=O)c1ccc(-c3c4nc(c(-c5c(F)c(F)c(F)c(F)c5F)c5ccc([nH]5)c(-c5c(F)c(F)c(F)c(F)c5F)c5nc(c(-c6c(F)c(F)c(F)c(F)c6F)c6ccc3[nH]6)C=C5)C=C4)cc1)=C2
REMARK SMILES IDX 25 1 24 2 23 3 21 4 22 5 20 7 1 8 2 9 3 10 13 11 4 12 12 13
REMARK SMILES IDX 14 14 11 15 93 16 15 17 5 18 6 19 7 20 8 21 9 22 10 23 16 24
REMARK SMILES IDX 17 25 18 26 19 27 26 28 27 29 28 30 29 32 30 33 31 34 92 35
REMARK SMILES IDX 32 36 91 37 33 38 34 39 35 40 85 41 36 42 90 43 84 44 86 45
REMARK SMILES IDX 37 46 89 47 83 48 82 49 38 51 70 52 50 53 69 54 51 55 54 56
REMARK SMILES IDX 68 57 87 58 52 59 53 60 67 62 88 63 55 64 39 65 40 66 48 67
REMARK SMILES IDX 41 68 42 69 46 70 49 71 43 72 44 73 47 74 45 75 71 76 72 77
REMARK SMILES IDX 80 78 73 79 74 80 78 81 81 82 75 83 76 84 79 85 77 86 56 87
REMARK SMILES IDX 57 88 65 89 58 90 59 91 63 92 66 93 60 94 61 95 64 96 62 97
REMARK H PARENT 23 6 27 31 86 50 54 61
REMARK Flexibility Score: inf
ROOT
ATOM      1  C   UNL A   1      37.812  20.154  24.634  1.00  0.00     0.042 C 
ENDROOT
BRANCH   1   2
ATOM      2  C   UNL A   1      36.696  21.173  24.791  1.00  0.00     0.118 C 
BRANCH   2   3
ATOM      3  N   UNL A   1      35.719  20.681  25.774  1.00  0.00    -0.352 N 
ATOM      4  C   UNL A   1      34.499  21.454  26.047  1.00  0.00     0.251 C 
ATOM      5  O   UNL A   1      33.655  21.030  26.897  1.00  0.00    -0.270 OA
ATOM      6  H   UNL A   1      35.882  19.835  26.248  1.00  0.00     0.163 HD
BRANCH   4   7
ATOM      7  C   UNL A   1      34.247  22.762  25.313  1.00  0.00     0.067 C 
ATOM      8  C   UNL A   1      33.278  26.442  21.766  1.00  0.00     0.048 C 
ATOM      9  C   UNL A   1      33.557  26.341  23.257  1.00  0.00    -0.007 A 
ATOM     10  C   UNL A   1      33.440  27.506  23.982  1.00  0.00     0.031 A 
ATOM     11  C   UNL A   1      33.787  25.138  23.925  1.00  0.00     0.130 A 
ATOM     12  C   UNL A   1      33.553  27.494  25.367  1.00  0.00     0.108 A 
ATOM     13  C   UNL A   1      33.896  25.130  25.333  1.00  0.00     0.019 A 
ATOM     14  O   UNL A   1      33.921  23.863  23.209  1.00  0.00    -0.475 OA
ATOM     15  C   UNL A   1      33.771  26.327  26.043  1.00  0.00     0.036 A 
ATOM     16  C   UNL A   1      34.138  23.855  26.009  1.00  0.00     0.025 C 
ATOM     17  C   UNL A   1      34.144  22.740  23.923  1.00  0.00     0.314 C 
BRANCH  12  18
ATOM     18  S   UNL A   1      33.409  29.046  26.288  1.00  0.00     0.310 S 
ATOM     19  F   UNL A   1      33.373  28.205  27.632  1.00  0.00    -0.094 F 
ATOM     20  F   UNL A   1      31.855  28.807  26.178  1.00  0.00    -0.094 F 
ATOM     21  F   UNL A   1      33.181  30.319  27.149  1.00  0.00    -0.094 F 
ATOM     22  F   UNL A   1      34.967  29.189  26.503  1.00  0.00    -0.094 F 
ATOM     23  F   UNL A   1      33.656  27.692  25.509  1.00  0.00    -0.094 F 
ENDBRANCH  12  18
BRANCH  17  24
ATOM     24  C   UNL A   1      32.857  21.960  23.707  1.00  0.00     0.429 C 
ATOM     25  F   UNL A   1      33.101  20.659  23.832  1.00  0.00    -0.167 F 
ATOM     26  F   UNL A   1      31.957  22.331  24.613  1.00  0.00    -0.167 F 
ATOM     27  F   UNL A   1      32.388  22.209  22.488  1.00  0.00    -0.167 F 
ENDBRANCH  17  24
ENDBRANCH   4   7
ENDBRANCH   2   3
ENDBRANCH   1   2
BRANCH   1  28
ATOM     28  C   UNL A   1      38.832  20.344  25.745  1.00  0.00     0.118 C 
BRANCH  28  29
ATOM     29  N   UNL A   1      39.754  19.199  25.765  1.00  0.00    -0.352 N 
ATOM     30  C   UNL A   1      41.169  19.402  26.108  1.00  0.00     0.251 C 
ATOM     31  H   UNL A   1      39.424  18.298  25.549  1.00  0.00     0.163 HD
ATOM     32  O   UNL A   1      41.966  18.412  26.125  1.00  0.00    -0.269 OA
BRANCH  30  33
ATOM     33  C   UNL A   1      41.679  20.794  26.442  1.00  0.00     0.039 A 
ATOM     34  C   UNL A   1      42.122  21.645  25.435  1.00  0.00     0.014 A 
ATOM     35  C   UNL A   1      41.698  21.232  27.683  1.00  0.00     0.014 A 
ATOM     36  C   UNL A   1      42.078  23.028  25.712  1.00  0.00     0.010 A 
ATOM     37  C   UNL A   1      42.162  22.517  27.981  1.00  0.00     0.010 A 
ATOM     38  C   UNL A   1      42.349  23.405  27.026  1.00  0.00    -0.014 A 
BRANCH  38  39
ATOM     39  C   UNL A   1      42.849  24.803  27.350  1.00  0.00     0.031 A 
ATOM     40  C   UNL A   1      44.181  25.096  27.056  1.00  0.00     0.074 A 
ATOM     41  C   UNL A   1      41.959  25.710  27.900  1.00  0.00     0.049 A 
ATOM     42  N   UNL A   1      44.810  26.263  27.208  1.00  0.00    -0.248 NA
ATOM     43  C   UNL A   1      45.136  24.125  26.504  1.00  0.00     0.031 C 
ATOM     44  C   UNL A   1      40.611  25.424  28.191  1.00  0.00     0.029 A 
ATOM     45  N   UNL A   1      42.199  27.018  28.257  1.00  0.00    -0.354 N 
ATOM     46  C   UNL A   1      46.075  26.162  26.798  1.00  0.00     0.074 A 
ATOM     47  C   UNL A   1      46.306  24.783  26.345  1.00  0.00     0.031 C 
ATOM     48  C   UNL A   1      40.050  26.539  28.728  1.00  0.00     0.029 A 
ATOM     49  C   UNL A   1      41.036  27.542  28.780  1.00  0.00     0.049 A 
ATOM     50  H   UNL A   1      43.054  27.497  28.157  1.00  0.00     0.167 HD
ATOM     51  C   UNL A   1      47.047  27.164  26.783  1.00  0.00     0.037 A 
ATOM     52  C   UNL A   1      40.830  28.817  29.280  1.00  0.00     0.037 A 
ATOM     53  C   UNL A   1      46.827  28.453  27.243  1.00  0.00     0.049 A 
ATOM     54  C   UNL A   1      41.819  29.804  29.319  1.00  0.00     0.074 A 
ATOM     55  C   UNL A   1      47.793  29.478  27.228  1.00  0.00     0.029 A 
ATOM     56  N   UNL A   1      45.673  28.969  27.789  1.00  0.00    -0.354 N 
ATOM     57  N   UNL A   1      43.072  29.714  28.872  1.00  0.00    -0.248 NA
ATOM     58  C   UNL A   1      41.620  31.149  29.876  1.00  0.00     0.031 C 
ATOM     59  C   UNL A   1      47.231  30.594  27.765  1.00  0.00     0.029 A 
ATOM     60  C   UNL A   1      45.906  30.284  28.125  1.00  0.00     0.049 A 
ATOM     61  H   UNL A   1      44.827  28.482  27.917  1.00  0.00     0.167 HD
ATOM     62  C   UNL A   1      43.712  30.869  29.065  1.00  0.00     0.074 A 
ATOM     63  C   UNL A   1      42.791  31.806  29.720  1.00  0.00     0.031 C 
ATOM     64  C   UNL A   1      45.029  31.180  28.716  1.00  0.00     0.037 A 
BRANCH  51  65
ATOM     65  C   UNL A   1      48.421  26.824  26.231  1.00  0.00     0.064 A 
ATOM     66  C   UNL A   1      48.715  27.054  24.901  1.00  0.00     0.173 A 
ATOM     67  C   UNL A   1      49.392  26.273  27.053  1.00  0.00     0.173 A 
ATOM     68  F   UNL A   1      47.791  27.583  24.105  1.00  0.00    -0.203 F 
ATOM     69  C   UNL A   1      49.908  26.754  24.411  1.00  0.00     0.198 A 
ATOM     70  C   UNL A   1      50.633  25.977  26.507  1.00  0.00     0.198 A 
ATOM     71  F   UNL A   1      49.140  26.033  28.336  1.00  0.00    -0.203 F 
ATOM     72  F   UNL A   1      50.156  26.983  23.124  1.00  0.00    -0.200 F 
ATOM     73  C   UNL A   1      50.858  26.233  25.169  1.00  0.00     0.200 A 
ATOM     74  F   UNL A   1      51.593  25.451  27.263  1.00  0.00    -0.200 F 
ATOM     75  F   UNL A   1      52.044  25.952  24.636  1.00  0.00    -0.200 F 
ENDBRANCH  51  65
BRANCH  52  76
ATOM     76  C   UNL A   1      39.451  29.163  29.818  1.00  0.00     0.064 A 
ATOM     77  C   UNL A   1      39.149  28.955  31.149  1.00  0.00     0.173 A 
ATOM     78  C   UNL A   1      38.484  29.698  28.979  1.00  0.00     0.173 A 
ATOM     79  F   UNL A   1      40.070  28.443  31.960  1.00  0.00    -0.203 F 
ATOM     80  C   UNL A   1      37.952  29.259  31.626  1.00  0.00     0.198 A 
ATOM     81  C   UNL A   1      37.243  30.011  29.515  1.00  0.00     0.198 A 
ATOM     82  F   UNL A   1      38.741  29.907  27.691  1.00  0.00    -0.203 F 
ATOM     83  F   UNL A   1      37.692  29.039  32.912  1.00  0.00    -0.200 F 
ATOM     84  C   UNL A   1      37.009  29.775  30.855  1.00  0.00     0.200 A 
ATOM     85  F   UNL A   1      36.290  30.530  28.746  1.00  0.00    -0.200 F 
ATOM     86  F   UNL A   1      35.823  30.071  31.378  1.00  0.00    -0.200 F 
ENDBRANCH  52  76
BRANCH  64  87
ATOM     87  C   UNL A   1      45.528  32.586  29.002  1.00  0.00     0.064 A 
ATOM     88  C   UNL A   1      45.314  33.592  28.081  1.00  0.00     0.173 A 
ATOM     89  C   UNL A   1      46.182  32.884  30.190  1.00  0.00     0.173 A 
ATOM     90  F   UNL A   1      44.688  33.317  26.940  1.00  0.00    -0.203 F 
ATOM     91  C   UNL A   1      45.725  34.828  28.320  1.00  0.00     0.198 A 
ATOM     92  C   UNL A   1      46.594  34.190  30.411  1.00  0.00     0.198 A 
ATOM     93  F   UNL A   1      46.408  31.937  31.096  1.00  0.00    -0.203 F 
ATOM     94  F   UNL A   1      45.510  35.772  27.409  1.00  0.00    -0.200 F 
ATOM     95  C   UNL A   1      46.346  35.146  29.444  1.00  0.00     0.200 A 
ATOM     96  F   UNL A   1      47.219  34.518  31.537  1.00  0.00    -0.200 F 
ATOM     97  F   UNL A   1      46.737  36.401  29.647  1.00  0.00    -0.200 F 
ENDBRANCH  64  87
ENDBRANCH  38  39
ENDBRANCH  30  33
ENDBRANCH  28  29
ENDBRANCH   1  28
TORSDOF 12
ENDMDL
MODEL 3
REMARK VINA RESULT:     -13.9      5.198     10.332
REMARK SMILES Cc1cc(S(F)(F)(F)(F)F)cc2c1O[C@H](C(F)(F)F)C(C(=O)NCCCNC(=O)c1ccc(-c3c4nc(c(-c5c(F)c(F)c(F)c(F)c5F)c5ccc([nH]5)c(-c5c(F)c(F)c(F)c(F)c5F)c5nc(c(-c6c(F)c(F)c(F)c(F)c6F)c6ccc3[nH]6)C=C5)C=C4)cc1)=C2
REMARK SMILES IDX 25 1 24 2 23 3 21 4 22 5 20 7 1 8 2 9 3 10 13 11 4 12 12 13
REMARK SMILES IDX 14 14 11 15 93 16 15 17 5 18 6 19 7 20 8 21 9 22 10 23 16 24
REMARK SMILES IDX 17 25 18 26 19 27 26 28 27 29 28 30 29 32 30 33 31 34 92 35
REMARK SMILES IDX 32 36 91 37 33 38 34 39 35 40 85 41 36 42 90 43 84 44 86 45
REMARK SMILES IDX 37 46 89 47 83 48 82 49 38 51 70 52 50 53 69 54 51 55 54 56
REMARK SMILES IDX 68 57 87 58 52 59 53 60 67 62 88 63 55 64 39 65 40 66 48 67
REMARK SMILES IDX 41 68 42 69 46 70 49 71 43 72 44 73 47 74 45 75 71 76 72 77
REMARK SMILES IDX 80 78 73 79 74 80 78 81 81 82 75 83 76 84 79 85 77 86 56 87
REMARK SMILES IDX 57 88 65 89 58 90 59 91 63 92 66 93 60 94 61 95 64 96 62 97
REMARK H PARENT 23 6 27 31 86 50 54 61
REMARK Flexibility Score: inf
ROOT
ATOM      1  C   UNL A   1      31.446  31.359  26.639  1.00  0.00     0.042 C 
ENDROOT
BRANCH   1   2
ATOM      2  C   UNL A   1      31.853  29.998  26.099  1.00  0.00     0.118 C 
BRANCH   2   3
ATOM      3  N   UNL A   1      32.005  30.076  24.639  1.00  0.00    -0.352 N 
ATOM      4  C   UNL A   1      32.321  28.865  23.867  1.00  0.00     0.251 C 
ATOM      5  O   UNL A   1      32.452  28.932  22.605  1.00  0.00    -0.270 OA
ATOM      6  H   UNL A   1      31.895  30.938  24.178  1.00  0.00     0.163 HD
BRANCH   4   7
ATOM      7  C   UNL A   1      32.490  27.532  24.580  1.00  0.00     0.067 C 
ATOM      8  C   UNL A   1      31.789  23.128  27.260  1.00  0.00     0.048 C 
ATOM      9  C   UNL A   1      32.916  23.869  26.558  1.00  0.00    -0.007 A 
ATOM     10  C   UNL A   1      34.120  23.207  26.466  1.00  0.00     0.031 A 
ATOM     11  C   UNL A   1      32.755  25.091  25.905  1.00  0.00     0.130 A 
ATOM     12  C   UNL A   1      35.172  23.745  25.736  1.00  0.00     0.108 A 
ATOM     13  C   UNL A   1      33.826  25.632  25.160  1.00  0.00     0.019 A 
ATOM     14  O   UNL A   1      31.496  25.845  25.965  1.00  0.00    -0.475 OA
ATOM     15  C   UNL A   1      35.035  24.937  25.083  1.00  0.00     0.036 A 
ATOM     16  C   UNL A   1      33.630  26.916  24.485  1.00  0.00     0.025 C 
ATOM     17  C   UNL A   1      31.415  27.022  25.308  1.00  0.00     0.314 C 
BRANCH  12  18
ATOM     18  S   UNL A   1      36.746  22.855  25.648  1.00  0.00     0.310 S 
ATOM     19  F   UNL A   1      37.185  23.814  24.465  1.00  0.00    -0.094 F 
ATOM     20  F   UNL A   1      36.025  21.964  24.568  1.00  0.00    -0.094 F 
ATOM     21  F   UNL A   1      38.079  22.084  25.436  1.00  0.00    -0.094 F 
ATOM     22  F   UNL A   1      37.486  23.847  26.631  1.00  0.00    -0.094 F 
ATOM     23  F   UNL A   1      35.429  23.719  25.792  1.00  0.00    -0.094 F 
ENDBRANCH  12  18
BRANCH  17  24
ATOM     24  C   UNL A   1      30.403  26.713  24.217  1.00  0.00     0.429 C 
ATOM     25  F   UNL A   1      29.786  27.834  23.855  1.00  0.00    -0.167 F 
ATOM     26  F   UNL A   1      31.030  26.193  23.166  1.00  0.00    -0.167 F 
ATOM     27  F   UNL A   1      29.509  25.842  24.677  1.00  0.00    -0.167 F 
ENDBRANCH  17  24
ENDBRANCH   4   7
ENDBRANCH   2   3
ENDBRANCH   1   2
BRANCH   1  28
ATOM     28  C   UNL A   1      32.685  32.116  27.090  1.00  0.00     0.118 C 
BRANCH  28  29
ATOM     29  N   UNL A   1      32.332  33.517  27.360  1.00  0.00    -0.352 N 
ATOM     30  C   UNL A   1      33.147  34.314  28.289  1.00  0.00     0.251 C 
ATOM     31  H   UNL A   1      31.551  33.921  26.920  1.00  0.00     0.163 HD
ATOM     32  O   UNL A   1      32.842  35.525  28.523  1.00  0.00    -0.269 OA
BRANCH  30  33
ATOM     33  C   UNL A   1      34.355  33.689  28.969  1.00  0.00     0.039 A 
ATOM     34  C   UNL A   1      34.192  32.853  30.069  1.00  0.00     0.014 A 
ATOM     35  C   UNL A   1      35.574  33.909  28.526  1.00  0.00     0.014 A 
ATOM     36  C   UNL A   1      35.227  31.925  30.315  1.00  0.00     0.010 A 
ATOM     37  C   UNL A   1      36.679  33.324  29.153  1.00  0.00     0.010 A 
ATOM     38  C   UNL A   1      36.522  32.352  30.028  1.00  0.00    -0.014 A 
BRANCH  38  39
ATOM     39  C   UNL A   1      37.723  31.713  30.706  1.00  0.00     0.031 A 
ATOM     40  C   UNL A   1      38.026  32.126  32.004  1.00  0.00     0.074 A 
ATOM     41  C   UNL A   1      38.437  30.750  30.012  1.00  0.00     0.049 A 
ATOM     42  N   UNL A   1      38.995  31.667  32.799  1.00  0.00    -0.248 NA
ATOM     43  C   UNL A   1      37.290  33.172  32.729  1.00  0.00     0.031 C 
ATOM     44  C   UNL A   1      38.132  30.323  28.706  1.00  0.00     0.029 A 
ATOM     45  N   UNL A   1      39.541  30.047  30.439  1.00  0.00    -0.354 N 
ATOM     46  C   UNL A   1      38.960  32.292  33.976  1.00  0.00     0.074 A 
ATOM     47  C   UNL A   1      37.867  33.274  33.947  1.00  0.00     0.031 C 
ATOM     48  C   UNL A   1      39.045  29.384  28.345  1.00  0.00     0.029 A 
ATOM     49  C   UNL A   1      39.937  29.208  29.421  1.00  0.00     0.049 A 
ATOM     50  H   UNL A   1      39.974  30.129  31.320  1.00  0.00     0.167 HD
ATOM     51  C   UNL A   1      39.795  32.083  35.075  1.00  0.00     0.037 A 
ATOM     52  C   UNL A   1      41.012  28.333  29.411  1.00  0.00     0.037 A 
ATOM     53  C   UNL A   1      40.844  31.176  35.080  1.00  0.00     0.049 A 
ATOM     54  C   UNL A   1      41.884  28.165  30.490  1.00  0.00     0.074 A 
ATOM     55  C   UNL A   1      41.691  30.947  36.181  1.00  0.00     0.029 A 
ATOM     56  N   UNL A   1      41.255  30.356  34.053  1.00  0.00    -0.354 N 
ATOM     57  N   UNL A   1      41.825  28.762  31.680  1.00  0.00    -0.248 NA
ATOM     58  C   UNL A   1      43.045  27.265  30.479  1.00  0.00     0.031 C 
ATOM     59  C   UNL A   1      42.606  30.008  35.821  1.00  0.00     0.029 A 
ATOM     60  C   UNL A   1      42.346  29.635  34.488  1.00  0.00     0.049 A 
ATOM     61  H   UNL A   1      40.841  30.294  33.162  1.00  0.00     0.167 HD
ATOM     62  C   UNL A   1      42.820  28.333  32.459  1.00  0.00     0.074 A 
ATOM     63  C   UNL A   1      43.624  27.370  31.696  1.00  0.00     0.031 C 
ATOM     64  C   UNL A   1      43.087  28.703  33.780  1.00  0.00     0.037 A 
BRANCH  51  65
ATOM     65  C   UNL A   1      39.542  32.893  36.335  1.00  0.00     0.064 A 
ATOM     66  C   UNL A   1      38.626  32.456  37.273  1.00  0.00     0.173 A 
ATOM     67  C   UNL A   1      40.220  34.082  36.555  1.00  0.00     0.173 A 
ATOM     68  F   UNL A   1      37.971  31.317  37.071  1.00  0.00    -0.203 F 
ATOM     69  C   UNL A   1      38.394  33.160  38.370  1.00  0.00     0.198 A 
ATOM     70  C   UNL A   1      39.956  34.791  37.718  1.00  0.00     0.198 A 
ATOM     71  F   UNL A   1      41.103  34.535  35.669  1.00  0.00    -0.203 F 
ATOM     72  F   UNL A   1      37.502  32.713  39.249  1.00  0.00    -0.200 F 
ATOM     73  C   UNL A   1      39.028  34.294  38.612  1.00  0.00     0.200 A 
ATOM     74  F   UNL A   1      40.589  35.934  37.969  1.00  0.00    -0.200 F 
ATOM     75  F   UNL A   1      38.768  34.967  39.731  1.00  0.00    -0.200 F 
ENDBRANCH  51  65
BRANCH  52  76
ATOM     76  C   UNL A   1      41.257  27.511  28.156  1.00  0.00     0.064 A 
ATOM     77  C   UNL A   1      42.063  28.000  27.148  1.00  0.00     0.173 A 
ATOM     78  C   UNL A   1      40.679  26.258  28.014  1.00  0.00     0.173 A 
ATOM     79  F   UNL A   1      42.621  29.200  27.277  1.00  0.00    -0.203 F 
ATOM     80  C   UNL A   1      42.286  27.287  26.055  1.00  0.00     0.198 A 
ATOM     81  C   UNL A   1      40.939  25.536  26.858  1.00  0.00     0.198 A 
ATOM     82  F   UNL A   1      39.893  25.759  28.964  1.00  0.00    -0.203 F 
ATOM     83  F   UNL A   1      43.063  27.791  25.100  1.00  0.00    -0.200 F 
ATOM     84  C   UNL A   1      41.756  26.087  25.889  1.00  0.00     0.200 A 
ATOM     85  F   UNL A   1      40.409  24.329  26.685  1.00  0.00    -0.200 F 
ATOM     86  F   UNL A   1      42.011  25.404  24.778  1.00  0.00    -0.200 F 
ENDBRANCH  52  76
BRANCH  64  87
ATOM     87  C   UNL A   1      44.264  28.044  34.480  1.00  0.00     0.064 A 
ATOM     88  C   UNL A   1      44.091  26.835  35.124  1.00  0.00     0.173 A 
ATOM     89  C   UNL A   1      45.522  28.630  34.466  1.00  0.00     0.173 A 
ATOM     90  F   UNL A   1      42.890  26.265  35.141  1.00  0.00    -0.203 F 
ATOM     91  C   UNL A   1      45.108  26.236  35.723  1.00  0.00     0.198 A 
ATOM     92  C   UNL A   1      46.566  27.973  35.100  1.00  0.00     0.198 A 
ATOM     93  F   UNL A   1      45.721  29.797  33.860  1.00  0.00    -0.203 F 
ATOM     94  F   UNL A   1      44.906  25.076  36.340  1.00  0.00    -0.200 F 
ATOM     95  C   UNL A   1      46.320  26.765  35.725  1.00  0.00     0.200 A 
ATOM     96  F   UNL A   1      47.788  28.498  35.106  1.00  0.00    -0.200 F 
ATOM     97  F   UNL A   1      47.315  26.127  36.335  1.00  0.00    -0.200 F 
ENDBRANCH  64  87
ENDBRANCH  38  39
ENDBRANCH  30  33
ENDBRANCH  28  29
ENDBRANCH   1  28
TORSDOF 12
ENDMDL
