MODEL 1
REMARK VINA RESULT:     -11.7      0.000      0.000
REMARK SMILES C[C@@H](Nc1cccc(Cl)c1)[C@@H](C)C(=O)NCCCNC(=O)c1ccc(-c2c3nc(c(-c4c(F)c(F)c(F)c(F)c4F)c4ccc([nH]4)c(-c4c(F)c(F)c(F)c(F)c4F)c4nc(c(-c5c(F)c(F)c(F)c(F)c5F)c5ccc2[nH]5)C=C4)C=C3)cc1
REMARK SMILES IDX 16 1 15 2 13 3 14 4 11 6 12 7 2 8 1 9 3 10 4 12 5 13 10 14
REMARK SMILES IDX 6 15 8 16 7 17 9 18 17 19 18 20 19 21 20 22 21 24 22 25
REMARK SMILES IDX 23 26 84 27 24 28 83 29 25 30 26 31 27 32 77 33 28 34 82 35
REMARK SMILES IDX 76 36 78 37 29 38 81 39 75 40 74 41 30 43 62 44 42 45 61 46
REMARK SMILES IDX 43 47 46 48 60 49 79 50 44 51 45 52 59 54 80 55 47 56 31 57
REMARK SMILES IDX 32 58 40 59 33 60 34 61 38 62 41 63 35 64 36 65 39 66 37 67
REMARK SMILES IDX 63 68 64 69 72 70 65 71 66 72 70 73 73 74 67 75 68 76 71 77
REMARK SMILES IDX 69 78 48 79 49 80 57 81 50 82 51 83 55 84 58 85 52 86 53 87
REMARK SMILES IDX 56 88 54 89
REMARK H PARENT 15 5 3 11 19 23 78 42 46 53
REMARK Flexibility Score: inf
ROOT
ATOM      1  C   UNL A   1      36.735  20.324  25.000  1.00  0.00     0.117 C 
ENDROOT
BRANCH   1   2
ATOM      2  N   UNL A   1      36.979  21.690  25.420  1.00  0.00    -0.356 N 
ATOM      3  C   UNL A   1      36.155  22.698  25.805  1.00  0.00     0.224 C 
ATOM      4  O   UNL A   1      36.716  23.702  26.260  1.00  0.00    -0.275 OA
ATOM      5  H   UNL A   1      37.932  21.935  25.428  1.00  0.00     0.163 HD
BRANCH   3   6
ATOM      6  C   UNL A   1      34.630  22.609  25.797  1.00  0.00     0.097 C 
ATOM      7  C   UNL A   1      34.119  24.053  25.660  1.00  0.00     0.020 C 
BRANCH   6   8
ATOM      8  C   UNL A   1      33.986  21.792  26.947  1.00  0.00     0.088 C 
ATOM      9  C   UNL A   1      32.844  22.572  27.630  1.00  0.00     0.031 C 
BRANCH   8  10
ATOM     10  N   UNL A   1      33.418  20.473  26.604  1.00  0.00    -0.382 N 
ATOM     11  H   UNL A   1      33.203  19.888  27.365  1.00  0.00     0.160 HD
BRANCH  10  12
ATOM     12  C   UNL A   1      33.150  19.953  25.356  1.00  0.00     0.036 A 
ATOM     13  C   UNL A   1      32.481  20.669  24.365  1.00  0.00     0.026 A 
ATOM     14  C   UNL A   1      33.545  18.642  25.062  1.00  0.00     0.046 A 
ATOM     15  C   UNL A   1      32.153  20.085  23.136  1.00  0.00     0.004 A 
ATOM     16  C   UNL A   1      33.238  18.061  23.829  1.00  0.00     0.043 A 
ATOM     17  C   UNL A   1      32.528  18.773  22.869  1.00  0.00     0.020 A 
ATOM     18  Cl  UNL A   1      33.736  16.446  23.501  1.00  0.00    -0.084 Cl
ENDBRANCH  10  12
ENDBRANCH   8  10
ENDBRANCH   6   8
ENDBRANCH   3   6
ENDBRANCH   1   2
BRANCH   1  19
ATOM     19  C   UNL A   1      38.002  19.473  24.970  1.00  0.00     0.042 C 
BRANCH  19  20
ATOM     20  C   UNL A   1      39.152  20.005  25.820  1.00  0.00     0.118 C 
BRANCH  20  21
ATOM     21  N   UNL A   1      40.264  19.074  25.917  1.00  0.00    -0.352 N 
ATOM     22  C   UNL A   1      41.609  19.290  26.090  1.00  0.00     0.251 C 
ATOM     23  H   UNL A   1      40.010  18.126  25.847  1.00  0.00     0.163 HD
ATOM     24  O   UNL A   1      42.390  18.352  25.947  1.00  0.00    -0.269 OA
BRANCH  22  25
ATOM     25  C   UNL A   1      42.138  20.631  26.422  1.00  0.00     0.039 A 
ATOM     26  C   UNL A   1      42.510  21.483  25.376  1.00  0.00     0.014 A 
ATOM     27  C   UNL A   1      42.324  21.041  27.745  1.00  0.00     0.014 A 
ATOM     28  C   UNL A   1      43.002  22.761  25.654  1.00  0.00     0.010 A 
ATOM     29  C   UNL A   1      42.736  22.344  28.021  1.00  0.00     0.010 A 
ATOM     30  C   UNL A   1      43.083  23.217  26.979  1.00  0.00    -0.014 A 
BRANCH  30  31
ATOM     31  C   UNL A   1      43.537  24.596  27.299  1.00  0.00     0.031 A 
ATOM     32  C   UNL A   1      42.558  25.611  27.823  1.00  0.00     0.074 A 
ATOM     33  C   UNL A   1      44.814  24.954  27.058  1.00  0.00     0.049 A 
ATOM     34  N   UNL A   1      42.731  26.889  28.056  1.00  0.00    -0.248 NA
ATOM     35  C   UNL A   1      41.196  25.131  28.106  1.00  0.00     0.031 C 
ATOM     36  C   UNL A   1      45.855  24.073  26.526  1.00  0.00     0.029 A 
ATOM     37  N   UNL A   1      45.453  26.159  27.218  1.00  0.00    -0.354 N 
ATOM     38  C   UNL A   1      41.503  27.363  28.498  1.00  0.00     0.074 A 
ATOM     39  C   UNL A   1      40.579  26.251  28.452  1.00  0.00     0.031 C 
ATOM     40  C   UNL A   1      47.004  24.760  26.421  1.00  0.00     0.029 A 
ATOM     41  C   UNL A   1      46.773  26.139  26.835  1.00  0.00     0.049 A 
ATOM     42  H   UNL A   1      45.007  26.962  27.573  1.00  0.00     0.167 HD
ATOM     43  C   UNL A   1      41.182  28.605  28.930  1.00  0.00     0.037 A 
ATOM     44  C   UNL A   1      47.687  27.128  26.808  1.00  0.00     0.037 A 
ATOM     45  C   UNL A   1      42.106  29.707  28.995  1.00  0.00     0.049 A 
ATOM     46  C   UNL A   1      47.291  28.508  27.261  1.00  0.00     0.074 A 
ATOM     47  C   UNL A   1      41.880  30.999  29.436  1.00  0.00     0.029 A 
ATOM     48  N   UNL A   1      43.437  29.641  28.613  1.00  0.00    -0.354 N 
ATOM     49  N   UNL A   1      46.137  28.932  27.714  1.00  0.00    -0.248 NA
ATOM     50  C   UNL A   1      48.328  29.548  27.201  1.00  0.00     0.031 C 
ATOM     51  C   UNL A   1      43.067  31.725  29.291  1.00  0.00     0.029 A 
ATOM     52  C   UNL A   1      44.043  30.873  28.802  1.00  0.00     0.049 A 
ATOM     53  H   UNL A   1      43.886  28.839  28.261  1.00  0.00     0.167 HD
ATOM     54  C   UNL A   1      46.321  30.272  28.029  1.00  0.00     0.074 A 
ATOM     55  C   UNL A   1      47.700  30.589  27.725  1.00  0.00     0.031 C 
ATOM     56  C   UNL A   1      45.426  31.162  28.524  1.00  0.00     0.037 A 
BRANCH  43  57
ATOM     57  C   UNL A   1      39.771  28.841  29.386  1.00  0.00     0.064 A 
ATOM     58  C   UNL A   1      39.395  28.643  30.723  1.00  0.00     0.173 A 
ATOM     59  C   UNL A   1      38.799  29.321  28.495  1.00  0.00     0.173 A 
ATOM     60  F   UNL A   1      40.283  28.174  31.612  1.00  0.00    -0.203 F 
ATOM     61  C   UNL A   1      38.093  28.896  31.147  1.00  0.00     0.198 A 
ATOM     62  C   UNL A   1      37.506  29.601  28.928  1.00  0.00     0.198 A 
ATOM     63  F   UNL A   1      39.109  29.534  27.207  1.00  0.00    -0.203 F 
ATOM     64  F   UNL A   1      37.747  28.661  32.420  1.00  0.00    -0.200 F 
ATOM     65  C   UNL A   1      37.153  29.383  30.252  1.00  0.00     0.200 A 
ATOM     66  F   UNL A   1      36.601  30.085  28.067  1.00  0.00    -0.200 F 
ATOM     67  F   UNL A   1      35.903  29.639  30.664  1.00  0.00    -0.200 F 
ENDBRANCH  43  57
BRANCH  44  68
ATOM     68  C   UNL A   1      49.075  26.857  26.349  1.00  0.00     0.064 A 
ATOM     69  C   UNL A   1      49.431  27.026  25.003  1.00  0.00     0.173 A 
ATOM     70  C   UNL A   1      50.061  26.387  27.229  1.00  0.00     0.173 A 
ATOM     71  F   UNL A   1      48.518  27.453  24.119  1.00  0.00    -0.203 F 
ATOM     72  C   UNL A   1      50.708  26.704  24.549  1.00  0.00     0.198 A 
ATOM     73  C   UNL A   1      51.347  26.095  26.780  1.00  0.00     0.198 A 
ATOM     74  F   UNL A   1      49.775  26.212  28.528  1.00  0.00    -0.203 F 
ATOM     75  F   UNL A   1      51.002  26.817  23.247  1.00  0.00    -0.200 F 
ATOM     76  C   UNL A   1      51.666  26.241  25.438  1.00  0.00     0.200 A 
ATOM     77  F   UNL A   1      52.275  25.661  27.645  1.00  0.00    -0.200 F 
ATOM     78  F   UNL A   1      52.893  25.926  25.001  1.00  0.00    -0.200 F 
ENDBRANCH  44  68
BRANCH  56  79
ATOM     79  C   UNL A   1      45.924  32.545  28.825  1.00  0.00     0.064 A 
ATOM     80  C   UNL A   1      46.487  32.873  30.067  1.00  0.00     0.173 A 
ATOM     81  C   UNL A   1      45.873  33.544  27.841  1.00  0.00     0.173 A 
ATOM     82  F   UNL A   1      46.543  31.957  31.045  1.00  0.00    -0.203 F 
ATOM     83  C   UNL A   1      46.958  34.158  30.320  1.00  0.00     0.198 A 
ATOM     84  C   UNL A   1      46.372  34.819  28.088  1.00  0.00     0.198 A 
ATOM     85  F   UNL A   1      45.350  33.279  26.634  1.00  0.00    -0.203 F 
ATOM     86  F   UNL A   1      47.448  34.463  31.530  1.00  0.00    -0.200 F 
ATOM     87  C   UNL A   1      46.907  35.128  29.330  1.00  0.00     0.200 A 
ATOM     88  F   UNL A   1      46.335  35.750  27.125  1.00  0.00    -0.200 F 
ATOM     89  F   UNL A   1      47.368  36.361  29.574  1.00  0.00    -0.200 F 
ENDBRANCH  56  79
ENDBRANCH  30  31
ENDBRANCH  22  25
ENDBRANCH  20  21
ENDBRANCH  19  20
ENDBRANCH   1  19
TORSDOF 13
ENDMDL
MODEL 2
REMARK VINA RESULT:     -11.7      5.606      9.707
REMARK SMILES C[C@@H](Nc1cccc(Cl)c1)[C@@H](C)C(=O)NCCCNC(=O)c1ccc(-c2c3nc(c(-c4c(F)c(F)c(F)c(F)c4F)c4ccc([nH]4)c(-c4c(F)c(F)c(F)c(F)c4F)c4nc(c(-c5c(F)c(F)c(F)c(F)c5F)c5ccc2[nH]5)C=C4)C=C3)cc1
REMARK SMILES IDX 16 1 15 2 13 3 14 4 11 6 12 7 2 8 1 9 3 10 4 12 5 13 10 14
REMARK SMILES IDX 6 15 8 16 7 17 9 18 17 19 18 20 19 21 20 22 21 24 22 25
REMARK SMILES IDX 23 26 84 27 24 28 83 29 25 30 26 31 27 32 77 33 28 34 82 35
REMARK SMILES IDX 76 36 78 37 29 38 81 39 75 40 74 41 30 43 62 44 42 45 61 46
REMARK SMILES IDX 43 47 46 48 60 49 79 50 44 51 45 52 59 54 80 55 47 56 31 57
REMARK SMILES IDX 32 58 40 59 33 60 34 61 38 62 41 63 35 64 36 65 39 66 37 67
REMARK SMILES IDX 63 68 64 69 72 70 65 71 66 72 70 73 73 74 67 75 68 76 71 77
REMARK SMILES IDX 69 78 48 79 49 80 57 81 50 82 51 83 55 84 58 85 52 86 53 87
REMARK SMILES IDX 56 88 54 89
REMARK H PARENT 15 5 3 11 19 23 78 42 46 53
REMARK Flexibility Score: inf
ROOT
ATOM      1  C   UNL A   1      35.678  33.445  30.451  1.00  0.00     0.117 C 
ENDROOT
BRANCH   1   2
ATOM      2  N   UNL A   1      35.637  34.506  31.438  1.00  0.00    -0.356 N 
ATOM      3  C   UNL A   1      35.879  34.533  32.773  1.00  0.00     0.224 C 
ATOM      4  O   UNL A   1      35.909  35.658  33.287  1.00  0.00    -0.275 OA
ATOM      5  H   UNL A   1      35.384  35.381  31.065  1.00  0.00     0.163 HD
BRANCH   3   6
ATOM      6  C   UNL A   1      36.204  33.299  33.611  1.00  0.00     0.097 C 
ATOM      7  C   UNL A   1      35.961  33.700  35.076  1.00  0.00     0.020 C 
BRANCH   6   8
ATOM      8  C   UNL A   1      37.572  32.624  33.335  1.00  0.00     0.088 C 
ATOM      9  C   UNL A   1      38.749  33.567  33.658  1.00  0.00     0.031 C 
BRANCH   8  10
ATOM     10  N   UNL A   1      37.862  31.366  34.050  1.00  0.00    -0.382 N 
ATOM     11  H   UNL A   1      37.614  31.347  35.002  1.00  0.00     0.160 HD
BRANCH  10  12
ATOM     12  C   UNL A   1      38.434  30.212  33.559  1.00  0.00     0.036 A 
ATOM     13  C   UNL A   1      37.700  29.219  32.912  1.00  0.00     0.026 A 
ATOM     14  C   UNL A   1      39.808  30.005  33.727  1.00  0.00     0.046 A 
ATOM     15  C   UNL A   1      38.296  28.023  32.496  1.00  0.00     0.004 A 
ATOM     16  C   UNL A   1      40.413  28.821  33.295  1.00  0.00     0.043 A 
ATOM     17  C   UNL A   1      39.658  27.821  32.694  1.00  0.00     0.020 A 
ATOM     18  Cl  UNL A   1      42.105  28.598  33.519  1.00  0.00    -0.084 Cl
ENDBRANCH  10  12
ENDBRANCH   8  10
ENDBRANCH   6   8
ENDBRANCH   3   6
ENDBRANCH   1   2
BRANCH   1  19
ATOM     19  C   UNL A   1      34.343  33.240  29.738  1.00  0.00     0.042 C 
BRANCH  19  20
ATOM     20  C   UNL A   1      34.451  32.987  28.238  1.00  0.00     0.118 C 
BRANCH  20  21
ATOM     21  N   UNL A   1      33.758  31.781  27.814  1.00  0.00    -0.352 N 
ATOM     22  C   UNL A   1      34.218  30.508  27.587  1.00  0.00     0.251 C 
ATOM     23  H   UNL A   1      32.792  31.898  27.662  1.00  0.00     0.163 HD
ATOM     24  O   UNL A   1      33.478  29.691  27.044  1.00  0.00    -0.269 OA
BRANCH  22  25
ATOM     25  C   UNL A   1      35.591  30.106  27.965  1.00  0.00     0.039 A 
ATOM     26  C   UNL A   1      36.608  30.215  27.010  1.00  0.00     0.014 A 
ATOM     27  C   UNL A   1      35.881  29.574  29.224  1.00  0.00     0.014 A 
ATOM     28  C   UNL A   1      37.919  29.856  27.338  1.00  0.00     0.010 A 
ATOM     29  C   UNL A   1      37.200  29.293  29.577  1.00  0.00     0.010 A 
ATOM     30  C   UNL A   1      38.233  29.428  28.637  1.00  0.00    -0.014 A 
BRANCH  30  31
ATOM     31  C   UNL A   1      39.630  29.106  29.031  1.00  0.00     0.031 A 
ATOM     32  C   UNL A   1      40.433  30.090  29.836  1.00  0.00     0.074 A 
ATOM     33  C   UNL A   1      40.196  27.957  28.611  1.00  0.00     0.049 A 
ATOM     34  N   UNL A   1      41.696  30.045  30.183  1.00  0.00    -0.248 NA
ATOM     35  C   UNL A   1      39.730  31.297  30.298  1.00  0.00     0.031 C 
ATOM     36  C   UNL A   1      39.534  26.932  27.803  1.00  0.00     0.029 A 
ATOM     37  N   UNL A   1      41.464  27.463  28.796  1.00  0.00    -0.354 N 
ATOM     38  C   UNL A   1      41.937  31.217  30.889  1.00  0.00     0.074 A 
ATOM     39  C   UNL A   1      40.707  31.978  30.877  1.00  0.00     0.031 C 
ATOM     40  C   UNL A   1      40.393  25.925  27.578  1.00  0.00     0.029 A 
ATOM     41  C   UNL A   1      41.679  26.251  28.186  1.00  0.00     0.049 A 
ATOM     42  H   UNL A   1      42.155  27.934  29.317  1.00  0.00     0.167 HD
ATOM     43  C   UNL A   1      43.072  31.609  31.514  1.00  0.00     0.037 A 
ATOM     44  C   UNL A   1      42.792  25.496  28.114  1.00  0.00     0.037 A 
ATOM     45  C   UNL A   1      44.290  30.842  31.543  1.00  0.00     0.049 A 
ATOM     46  C   UNL A   1      44.050  25.975  28.788  1.00  0.00     0.074 A 
ATOM     47  C   UNL A   1      45.488  31.146  32.166  1.00  0.00     0.029 A 
ATOM     48  N   UNL A   1      44.461  29.612  30.926  1.00  0.00    -0.354 N 
ATOM     49  N   UNL A   1      44.252  27.066  29.485  1.00  0.00    -0.248 NA
ATOM     50  C   UNL A   1      45.235  25.115  28.668  1.00  0.00     0.031 C 
ATOM     51  C   UNL A   1      46.395  30.115  31.899  1.00  0.00     0.029 A 
ATOM     52  C   UNL A   1      45.748  29.148  31.148  1.00  0.00     0.049 A 
ATOM     53  H   UNL A   1      43.771  29.139  30.408  1.00  0.00     0.167 HD
ATOM     54  C   UNL A   1      45.570  27.003  29.918  1.00  0.00     0.074 A 
ATOM     55  C   UNL A   1      46.118  25.762  29.414  1.00  0.00     0.031 C 
ATOM     56  C   UNL A   1      46.266  27.895  30.665  1.00  0.00     0.037 A 
BRANCH  43  57
ATOM     57  C   UNL A   1      43.050  32.924  32.237  1.00  0.00     0.064 A 
ATOM     58  C   UNL A   1      42.741  32.999  33.604  1.00  0.00     0.173 A 
ATOM     59  C   UNL A   1      43.394  34.113  31.576  1.00  0.00     0.173 A 
ATOM     60  F   UNL A   1      42.394  31.893  34.279  1.00  0.00    -0.203 F 
ATOM     61  C   UNL A   1      42.755  34.218  34.277  1.00  0.00     0.198 A 
ATOM     62  C   UNL A   1      43.436  35.325  32.259  1.00  0.00     0.198 A 
ATOM     63  F   UNL A   1      43.705  34.096  30.272  1.00  0.00    -0.203 F 
ATOM     64  F   UNL A   1      42.416  34.270  35.572  1.00  0.00    -0.200 F 
ATOM     65  C   UNL A   1      43.111  35.378  33.607  1.00  0.00     0.200 A 
ATOM     66  F   UNL A   1      43.793  36.445  31.614  1.00  0.00    -0.200 F 
ATOM     67  F   UNL A   1      43.137  36.548  34.259  1.00  0.00    -0.200 F 
ENDBRANCH  43  57
BRANCH  44  68
ATOM     68  C   UNL A   1      42.777  24.199  27.387  1.00  0.00     0.064 A 
ATOM     69  C   UNL A   1      42.453  23.008  28.054  1.00  0.00     0.173 A 
ATOM     70  C   UNL A   1      43.121  24.113  26.031  1.00  0.00     0.173 A 
ATOM     71  F   UNL A   1      42.137  23.035  29.357  1.00  0.00    -0.203 F 
ATOM     72  C   UNL A   1      42.507  21.779  27.400  1.00  0.00     0.198 A 
ATOM     73  C   UNL A   1      43.144  22.886  25.369  1.00  0.00     0.198 A 
ATOM     74  F   UNL A   1      43.434  25.222  25.344  1.00  0.00    -0.203 F 
ATOM     75  F   UNL A   1      42.253  20.651  28.078  1.00  0.00    -0.200 F 
ATOM     76  C   UNL A   1      42.851  21.719  26.058  1.00  0.00     0.200 A 
ATOM     77  F   UNL A   1      43.462  22.834  24.069  1.00  0.00    -0.200 F 
ATOM     78  F   UNL A   1      42.909  20.536  25.431  1.00  0.00    -0.200 F 
ENDBRANCH  44  68
BRANCH  56  79
ATOM     79  C   UNL A   1      47.675  27.534  31.034  1.00  0.00     0.064 A 
ATOM     80  C   UNL A   1      47.970  26.794  32.187  1.00  0.00     0.173 A 
ATOM     81  C   UNL A   1      48.740  27.901  30.197  1.00  0.00     0.173 A 
ATOM     82  F   UNL A   1      46.988  26.434  33.028  1.00  0.00    -0.203 F 
ATOM     83  C   UNL A   1      49.283  26.456  32.503  1.00  0.00     0.198 A 
ATOM     84  C   UNL A   1      50.048  27.535  30.500  1.00  0.00     0.198 A 
ATOM     85  F   UNL A   1      48.510  28.603  29.077  1.00  0.00    -0.203 F 
ATOM     86  F   UNL A   1      49.547  25.789  33.636  1.00  0.00    -0.200 F 
ATOM     87  C   UNL A   1      50.320  26.820  31.656  1.00  0.00     0.200 A 
ATOM     88  F   UNL A   1      51.046  27.876  29.673  1.00  0.00    -0.200 F 
ATOM     89  F   UNL A   1      51.581  26.487  31.958  1.00  0.00    -0.200 F 
ENDBRANCH  56  79
ENDBRANCH  30  31
ENDBRANCH  22  25
ENDBRANCH  20  21
ENDBRANCH  19  20
ENDBRANCH   1  19
TORSDOF 13
ENDMDL
MODEL 3
REMARK VINA RESULT:     -11.6      0.739      1.958
REMARK SMILES C[C@@H](Nc1cccc(Cl)c1)[C@@H](C)C(=O)NCCCNC(=O)c1ccc(-c2c3nc(c(-c4c(F)c(F)c(F)c(F)c4F)c4ccc([nH]4)c(-c4c(F)c(F)c(F)c(F)c4F)c4nc(c(-c5c(F)c(F)c(F)c(F)c5F)c5ccc2[nH]5)C=C4)C=C3)cc1
REMARK SMILES IDX 16 1 15 2 13 3 14 4 11 6 12 7 2 8 1 9 3 10 4 12 5 13 10 14
REMARK SMILES IDX 6 15 8 16 7 17 9 18 17 19 18 20 19 21 20 22 21 24 22 25
REMARK SMILES IDX 23 26 84 27 24 28 83 29 25 30 26 31 27 32 77 33 28 34 82 35
REMARK SMILES IDX 76 36 78 37 29 38 81 39 75 40 74 41 30 43 62 44 42 45 61 46
REMARK SMILES IDX 43 47 46 48 60 49 79 50 44 51 45 52 59 54 80 55 47 56 31 57
REMARK SMILES IDX 32 58 40 59 33 60 34 61 38 62 41 63 35 64 36 65 39 66 37 67
REMARK SMILES IDX 63 68 64 69 72 70 65 71 66 72 70 73 73 74 67 75 68 76 71 77
REMARK SMILES IDX 69 78 48 79 49 80 57 81 50 82 51 83 55 84 58 85 52 86 53 87
REMARK SMILES IDX 56 88 54 89
REMARK H PARENT 15 5 3 11 19 23 78 42 46 53
REMARK Flexibility Score: inf
ROOT
ATOM      1  C   UNL A   1      36.571  20.643  24.800  1.00  0.00     0.117 C 
ENDROOT
BRANCH   1   2
ATOM      2  N   UNL A   1      35.995  21.148  26.030  1.00  0.00    -0.356 N 
ATOM      3  C   UNL A   1      34.807  21.741  26.317  1.00  0.00     0.224 C 
ATOM      4  O   UNL A   1      34.569  21.903  27.520  1.00  0.00    -0.275 OA
ATOM      5  H   UNL A   1      36.580  21.039  26.814  1.00  0.00     0.163 HD
BRANCH   3   6
ATOM      6  C   UNL A   1      33.757  22.106  25.271  1.00  0.00     0.097 C 
ATOM      7  C   UNL A   1      33.376  23.571  25.541  1.00  0.00     0.020 C 
BRANCH   6   8
ATOM      8  C   UNL A   1      32.558  21.132  25.136  1.00  0.00     0.088 C 
ATOM      9  C   UNL A   1      32.244  20.815  23.660  1.00  0.00     0.031 C 
BRANCH   8  10
ATOM     10  N   UNL A   1      32.670  19.823  25.809  1.00  0.00    -0.382 N 
ATOM     11  H   UNL A   1      32.417  19.807  26.760  1.00  0.00     0.160 HD
BRANCH  10  12
ATOM     12  C   UNL A   1      33.084  18.619  25.281  1.00  0.00     0.036 A 
ATOM     13  C   UNL A   1      34.027  18.525  24.259  1.00  0.00     0.026 A 
ATOM     14  C   UNL A   1      32.528  17.430  25.770  1.00  0.00     0.046 A 
ATOM     15  C   UNL A   1      34.366  17.293  23.689  1.00  0.00     0.004 A 
ATOM     16  C   UNL A   1      32.878  16.195  25.219  1.00  0.00     0.043 A 
ATOM     17  C   UNL A   1      33.785  16.123  24.168  1.00  0.00     0.020 A 
ATOM     18  Cl  UNL A   1      32.174  14.753  25.842  1.00  0.00    -0.084 Cl
ENDBRANCH  10  12
ENDBRANCH   8  10
ENDBRANCH   6   8
ENDBRANCH   3   6
ENDBRANCH   1   2
BRANCH   1  19
ATOM     19  C   UNL A   1      37.680  19.620  25.036  1.00  0.00     0.042 C 
BRANCH  19  20
ATOM     20  C   UNL A   1      38.890  20.150  25.797  1.00  0.00     0.118 C 
BRANCH  20  21
ATOM     21  N   UNL A   1      39.972  19.184  25.889  1.00  0.00    -0.352 N 
ATOM     22  C   UNL A   1      41.324  19.355  26.055  1.00  0.00     0.251 C 
ATOM     23  H   UNL A   1      39.686  18.244  25.821  1.00  0.00     0.163 HD
ATOM     24  O   UNL A   1      42.073  18.392  25.909  1.00  0.00    -0.269 OA
BRANCH  22  25
ATOM     25  C   UNL A   1      41.898  20.678  26.384  1.00  0.00     0.039 A 
ATOM     26  C   UNL A   1      42.195  21.559  25.338  1.00  0.00     0.014 A 
ATOM     27  C   UNL A   1      42.200  21.042  27.699  1.00  0.00     0.014 A 
ATOM     28  C   UNL A   1      42.727  22.822  25.615  1.00  0.00     0.010 A 
ATOM     29  C   UNL A   1      42.653  22.331  27.980  1.00  0.00     0.010 A 
ATOM     30  C   UNL A   1      42.924  23.233  26.942  1.00  0.00    -0.014 A 
BRANCH  30  31
ATOM     31  C   UNL A   1      43.424  24.595  27.266  1.00  0.00     0.031 A 
ATOM     32  C   UNL A   1      42.482  25.637  27.804  1.00  0.00     0.074 A 
ATOM     33  C   UNL A   1      44.710  24.914  27.016  1.00  0.00     0.049 A 
ATOM     34  N   UNL A   1      42.696  26.907  28.043  1.00  0.00    -0.248 NA
ATOM     35  C   UNL A   1      41.108  25.198  28.096  1.00  0.00     0.031 C 
ATOM     36  C   UNL A   1      45.718  24.005  26.470  1.00  0.00     0.029 A 
ATOM     37  N   UNL A   1      45.387  26.098  27.177  1.00  0.00    -0.354 N 
ATOM     38  C   UNL A   1      41.487  27.416  28.498  1.00  0.00     0.074 A 
ATOM     39  C   UNL A   1      40.528  26.334  28.453  1.00  0.00     0.031 C 
ATOM     40  C   UNL A   1      46.887  24.656  26.360  1.00  0.00     0.029 A 
ATOM     41  C   UNL A   1      46.702  26.040  26.784  1.00  0.00     0.049 A 
ATOM     42  H   UNL A   1      44.969  26.912  27.542  1.00  0.00     0.167 HD
ATOM     43  C   UNL A   1      41.208  28.665  28.940  1.00  0.00     0.037 A 
ATOM     44  C   UNL A   1      47.647  27.000  26.755  1.00  0.00     0.037 A 
ATOM     45  C   UNL A   1      42.166  29.737  29.004  1.00  0.00     0.049 A 
ATOM     46  C   UNL A   1      47.298  28.389  27.219  1.00  0.00     0.074 A 
ATOM     47  C   UNL A   1      41.985  31.034  29.455  1.00  0.00     0.029 A 
ATOM     48  N   UNL A   1      43.492  29.633  28.611  1.00  0.00    -0.354 N 
ATOM     49  N   UNL A   1      46.161  28.846  27.684  1.00  0.00    -0.248 NA
ATOM     50  C   UNL A   1      48.366  29.396  27.156  1.00  0.00     0.031 C 
ATOM     51  C   UNL A   1      43.193  31.723  29.304  1.00  0.00     0.029 A 
ATOM     52  C   UNL A   1      44.138  30.844  28.801  1.00  0.00     0.049 A 
ATOM     53  H   UNL A   1      43.912  28.819  28.249  1.00  0.00     0.167 HD
ATOM     54  C   UNL A   1      46.389  30.177  28.006  1.00  0.00     0.074 A 
ATOM     55  C   UNL A   1      47.775  30.453  27.692  1.00  0.00     0.031 C 
ATOM     56  C   UNL A   1      45.526  31.092  28.513  1.00  0.00     0.037 A 
BRANCH  43  57
ATOM     57  C   UNL A   1      39.809  28.942  29.409  1.00  0.00     0.064 A 
ATOM     58  C   UNL A   1      38.819  29.394  28.523  1.00  0.00     0.173 A 
ATOM     59  C   UNL A   1      39.438  28.702  30.740  1.00  0.00     0.173 A 
ATOM     60  F   UNL A   1      39.126  29.650  27.242  1.00  0.00    -0.203 F 
ATOM     61  C   UNL A   1      37.515  29.617  28.957  1.00  0.00     0.198 A 
ATOM     62  C   UNL A   1      38.126  28.898  31.164  1.00  0.00     0.198 A 
ATOM     63  F   UNL A   1      40.344  28.263  31.626  1.00  0.00    -0.203 F 
ATOM     64  F   UNL A   1      36.598  30.088  28.102  1.00  0.00    -0.200 F 
ATOM     65  C   UNL A   1      37.167  29.360  30.274  1.00  0.00     0.200 A 
ATOM     66  F   UNL A   1      37.787  28.637  32.434  1.00  0.00    -0.200 F 
ATOM     67  F   UNL A   1      35.909  29.562  30.688  1.00  0.00    -0.200 F 
ENDBRANCH  43  57
BRANCH  44  68
ATOM     68  C   UNL A   1      49.022  26.688  26.283  1.00  0.00     0.064 A 
ATOM     69  C   UNL A   1      49.997  26.219  27.175  1.00  0.00     0.173 A 
ATOM     70  C   UNL A   1      49.403  26.889  24.949  1.00  0.00     0.173 A 
ATOM     71  F   UNL A   1      49.687  26.031  28.466  1.00  0.00    -0.203 F 
ATOM     72  C   UNL A   1      51.308  25.995  26.758  1.00  0.00     0.198 A 
ATOM     73  C   UNL A   1      50.706  26.634  24.525  1.00  0.00     0.198 A 
ATOM     74  F   UNL A   1      48.508  27.332  24.053  1.00  0.00    -0.203 F 
ATOM     75  F   UNL A   1      52.233  25.606  27.645  1.00  0.00    -0.200 F 
ATOM     76  C   UNL A   1      51.660  26.201  25.433  1.00  0.00     0.200 A 
ATOM     77  F   UNL A   1      51.040  26.820  23.241  1.00  0.00    -0.200 F 
ATOM     78  F   UNL A   1      52.922  25.991  25.033  1.00  0.00    -0.200 F 
ENDBRANCH  44  68
BRANCH  56  79
ATOM     79  C   UNL A   1      46.070  32.457  28.819  1.00  0.00     0.064 A 
ATOM     80  C   UNL A   1      46.651  32.759  30.057  1.00  0.00     0.173 A 
ATOM     81  C   UNL A   1      46.043  33.463  27.840  1.00  0.00     0.173 A 
ATOM     82  F   UNL A   1      46.686  31.837  31.031  1.00  0.00    -0.203 F 
ATOM     83  C   UNL A   1      47.165  34.028  30.315  1.00  0.00     0.198 A 
ATOM     84  C   UNL A   1      46.583  34.719  28.091  1.00  0.00     0.198 A 
ATOM     85  F   UNL A   1      45.503  33.220  26.636  1.00  0.00    -0.203 F 
ATOM     86  F   UNL A   1      47.673  34.310  31.523  1.00  0.00    -0.200 F 
ATOM     87  C   UNL A   1      47.137  35.004  29.330  1.00  0.00     0.200 A 
ATOM     88  F   UNL A   1      46.568  35.657  27.133  1.00  0.00    -0.200 F 
ATOM     89  F   UNL A   1      47.638  36.222  29.577  1.00  0.00    -0.200 F 
ENDBRANCH  56  79
ENDBRANCH  30  31
ENDBRANCH  22  25
ENDBRANCH  20  21
ENDBRANCH  19  20
ENDBRANCH   1  19
TORSDOF 13
ENDMDL
