MODEL 1
REMARK VINA RESULT:     -13.3      0.000      0.000
REMARK SMILES Cc1nn(CC(=O)NCCCNC(=O)c2ccc(-c3c4nc(c(-c5c(F)c(F)c(F)c(F)c5F)c5ccc([nH]5)c(-c5c(F)c(F)c(F)c(F)c5F)c5nc(c(-c6c(F)c(F)c(F)c(F)c6F)c6ccc3[nH]6)C=C5)C=C4)cc2)c(C)c1NC(=O)C(=O)Nc1ccc(F)cc1
REMARK SMILES IDX 9 1 8 2 6 3 7 4 5 6 4 7 1 8 2 9 3 10 80 11 78 12 79 13 81 14
REMARK SMILES IDX 82 15 83 17 84 18 85 19 86 20 87 22 88 23 93 24 89 25 92 26
REMARK SMILES IDX 90 27 91 28 10 29 11 30 12 31 13 32 14 34 15 35 16 36 77 37
REMARK SMILES IDX 17 38 76 39 18 40 19 41 20 42 70 43 21 44 75 45 69 46 71 47
REMARK SMILES IDX 22 48 74 49 68 50 67 51 23 53 55 54 35 55 54 56 36 57 39 58
REMARK SMILES IDX 53 59 72 60 37 61 38 62 52 64 73 65 40 66 24 67 25 68 33 69
REMARK SMILES IDX 26 70 27 71 31 72 34 73 28 74 29 75 32 76 30 77 56 78 57 79
REMARK SMILES IDX 65 80 58 81 59 82 63 83 66 84 60 85 61 86 64 87 62 88 41 89
REMARK SMILES IDX 42 90 50 91 43 92 44 93 48 94 51 95 45 96 46 97 49 98 47 99
REMARK H PARENT 8 5 81 16 86 21 12 33 71 52 39 63
REMARK Flexibility Score: inf
ROOT
ATOM      1  C   UNL A   1      36.672  21.248  24.980  1.00  0.00     0.117 C 
ENDROOT
BRANCH   1   2
ATOM      2  N   UNL A   1      35.986  21.335  26.258  1.00  0.00    -0.354 N 
ATOM      3  C   UNL A   1      34.719  21.733  26.579  1.00  0.00     0.241 C 
ATOM      4  O   UNL A   1      34.389  21.591  27.764  1.00  0.00    -0.273 OA
ATOM      5  H   UNL A   1      36.530  21.058  27.029  1.00  0.00     0.163 HD
BRANCH   3   6
ATOM      6  C   UNL A   1      33.696  22.179  25.555  1.00  0.00     0.244 C 
BRANCH   6   7
ATOM      7  N   UNL A   1      33.750  23.588  25.202  1.00  0.00    -0.258 N 
ATOM      8  C   UNL A   1      33.239  26.898  26.322  1.00  0.00     0.071 C 
ATOM      9  C   UNL A   1      33.544  25.663  25.552  1.00  0.00     0.083 A 
ATOM     10  N   UNL A   1      33.446  24.481  26.157  1.00  0.00    -0.175 NA
ATOM     11  C   UNL A   1      33.940  25.537  24.180  1.00  0.00     0.086 A 
ATOM     12  C   UNL A   1      34.017  24.166  23.971  1.00  0.00     0.060 A 
ATOM     13  C   UNL A   1      34.348  23.325  22.791  1.00  0.00     0.069 C 
BRANCH  11  14
ATOM     14  N   UNL A   1      34.180  26.648  23.387  1.00  0.00    -0.315 N 
ATOM     15  C   UNL A   1      33.823  27.049  22.123  1.00  0.00     0.314 C 
ATOM     16  H   UNL A   1      34.745  27.314  23.841  1.00  0.00     0.170 HD
ATOM     17  O   UNL A   1      34.276  28.098  21.674  1.00  0.00    -0.263 OA
BRANCH  15  18
ATOM     18  C   UNL A   1      32.794  26.278  21.322  1.00  0.00     0.314 C 
ATOM     19  O   UNL A   1      33.170  25.439  20.510  1.00  0.00    -0.263 OA
ATOM     20  N   UNL A   1      31.440  26.542  21.494  1.00  0.00    -0.318 N 
ATOM     21  H   UNL A   1      30.916  26.918  20.749  1.00  0.00     0.170 HD
BRANCH  20  22
ATOM     22  C   UNL A   1      30.813  26.274  22.727  1.00  0.00     0.041 A 
ATOM     23  C   UNL A   1      30.681  24.924  23.078  1.00  0.00     0.029 A 
ATOM     24  C   UNL A   1      30.402  27.271  23.608  1.00  0.00     0.029 A 
ATOM     25  C   UNL A   1      30.245  24.575  24.352  1.00  0.00     0.041 A 
ATOM     26  C   UNL A   1      29.946  26.918  24.880  1.00  0.00     0.041 A 
ATOM     27  C   UNL A   1      29.897  25.576  25.249  1.00  0.00     0.123 A 
ATOM     28  F   UNL A   1      29.520  25.243  26.490  1.00  0.00    -0.207 F 
ENDBRANCH  20  22
ENDBRANCH  15  18
ENDBRANCH  11  14
ENDBRANCH   6   7
ENDBRANCH   3   6
ENDBRANCH   1   2
BRANCH   1  29
ATOM     29  C   UNL A   1      37.712  20.125  24.909  1.00  0.00     0.042 C 
BRANCH  29  30
ATOM     30  C   UNL A   1      38.971  20.469  25.679  1.00  0.00     0.118 C 
BRANCH  30  31
ATOM     31  N   UNL A   1      39.922  19.345  25.799  1.00  0.00    -0.352 N 
ATOM     32  C   UNL A   1      41.303  19.403  25.946  1.00  0.00     0.251 C 
ATOM     33  H   UNL A   1      39.528  18.443  25.772  1.00  0.00     0.163 HD
ATOM     34  O   UNL A   1      42.022  18.437  25.697  1.00  0.00    -0.269 OA
BRANCH  32  35
ATOM     35  C   UNL A   1      41.880  20.656  26.451  1.00  0.00     0.039 A 
ATOM     36  C   UNL A   1      42.403  21.682  25.659  1.00  0.00     0.014 A 
ATOM     37  C   UNL A   1      41.710  20.831  27.810  1.00  0.00     0.014 A 
ATOM     38  C   UNL A   1      42.695  22.896  26.282  1.00  0.00     0.010 A 
ATOM     39  C   UNL A   1      41.531  22.103  28.236  1.00  0.00     0.010 A 
ATOM     40  C   UNL A   1      42.248  23.086  27.597  1.00  0.00    -0.014 A 
BRANCH  40  41
ATOM     41  C   UNL A   1      42.399  24.301  28.376  1.00  0.00     0.031 A 
ATOM     42  C   UNL A   1      41.306  25.267  28.148  1.00  0.00     0.074 A 
ATOM     43  C   UNL A   1      43.290  24.386  29.396  1.00  0.00     0.049 A 
ATOM     44  N   UNL A   1      41.357  26.354  27.457  1.00  0.00    -0.248 NA
ATOM     45  C   UNL A   1      39.944  24.887  28.558  1.00  0.00     0.031 C 
ATOM     46  C   UNL A   1      44.182  23.339  29.938  1.00  0.00     0.029 A 
ATOM     47  N   UNL A   1      43.538  25.428  30.238  1.00  0.00    -0.354 N 
ATOM     48  C   UNL A   1      40.095  26.926  27.573  1.00  0.00     0.074 A 
ATOM     49  C   UNL A   1      39.223  25.883  28.036  1.00  0.00     0.031 C 
ATOM     50  C   UNL A   1      44.693  23.726  31.127  1.00  0.00     0.029 A 
ATOM     51  C   UNL A   1      44.332  25.111  31.342  1.00  0.00     0.049 A 
ATOM     52  H   UNL A   1      43.185  26.334  30.080  1.00  0.00     0.167 HD
ATOM     53  C   UNL A   1      39.966  28.283  27.606  1.00  0.00     0.037 A 
ATOM     54  C   UNL A   1      44.676  25.950  32.349  1.00  0.00     0.037 A 
ATOM     55  C   UNL A   1      41.211  28.906  27.220  1.00  0.00     0.049 A 
ATOM     56  C   UNL A   1      44.500  27.323  31.824  1.00  0.00     0.074 A 
ATOM     57  C   UNL A   1      41.932  29.061  26.056  1.00  0.00     0.029 A 
ATOM     58  N   UNL A   1      42.085  29.067  28.264  1.00  0.00    -0.354 N 
ATOM     59  N   UNL A   1      45.213  27.812  30.845  1.00  0.00    -0.248 NA
ATOM     60  C   UNL A   1      43.245  28.013  32.089  1.00  0.00     0.031 C 
ATOM     61  C   UNL A   1      43.308  29.076  26.449  1.00  0.00     0.029 A 
ATOM     62  C   UNL A   1      43.384  29.003  27.840  1.00  0.00     0.049 A 
ATOM     63  H   UNL A   1      41.812  29.212  29.199  1.00  0.00     0.167 HD
ATOM     64  C   UNL A   1      44.323  28.580  30.114  1.00  0.00     0.074 A 
ATOM     65  C   UNL A   1      43.185  28.793  31.005  1.00  0.00     0.031 C 
ATOM     66  C   UNL A   1      44.460  28.695  28.759  1.00  0.00     0.037 A 
BRANCH  53  67
ATOM     67  C   UNL A   1      38.968  29.037  28.465  1.00  0.00     0.064 A 
ATOM     68  C   UNL A   1      38.962  28.802  29.856  1.00  0.00     0.173 A 
ATOM     69  C   UNL A   1      37.833  29.711  27.964  1.00  0.00     0.173 A 
ATOM     70  F   UNL A   1      39.978  28.150  30.441  1.00  0.00    -0.203 F 
ATOM     71  C   UNL A   1      37.875  29.152  30.663  1.00  0.00     0.198 A 
ATOM     72  C   UNL A   1      36.772  30.102  28.780  1.00  0.00     0.198 A 
ATOM     73  F   UNL A   1      37.638  29.919  26.658  1.00  0.00    -0.203 F 
ATOM     74  F   UNL A   1      37.864  28.803  31.957  1.00  0.00    -0.200 F 
ATOM     75  C   UNL A   1      36.777  29.797  30.123  1.00  0.00     0.200 A 
ATOM     76  F   UNL A   1      35.707  30.704  28.230  1.00  0.00    -0.200 F 
ATOM     77  F   UNL A   1      35.709  30.080  30.880  1.00  0.00    -0.200 F 
ENDBRANCH  53  67
BRANCH  54  78
ATOM     78  C   UNL A   1      44.785  25.661  33.801  1.00  0.00     0.064 A 
ATOM     79  C   UNL A   1      43.645  25.507  34.608  1.00  0.00     0.173 A 
ATOM     80  C   UNL A   1      46.005  25.220  34.350  1.00  0.00     0.173 A 
ATOM     81  F   UNL A   1      42.439  25.861  34.141  1.00  0.00    -0.203 F 
ATOM     82  C   UNL A   1      43.717  24.916  35.876  1.00  0.00     0.198 A 
ATOM     83  C   UNL A   1      46.074  24.627  35.613  1.00  0.00     0.198 A 
ATOM     84  F   UNL A   1      47.131  25.259  33.624  1.00  0.00    -0.203 F 
ATOM     85  F   UNL A   1      42.599  24.726  36.591  1.00  0.00    -0.200 F 
ATOM     86  C   UNL A   1      44.929  24.463  36.370  1.00  0.00     0.200 A 
ATOM     87  F   UNL A   1      47.245  24.151  36.060  1.00  0.00    -0.200 F 
ATOM     88  F   UNL A   1      44.988  23.830  37.551  1.00  0.00    -0.200 F 
ENDBRANCH  54  78
BRANCH  66  89
ATOM     89  C   UNL A   1      45.797  28.338  28.174  1.00  0.00     0.064 A 
ATOM     90  C   UNL A   1      46.951  29.136  28.260  1.00  0.00     0.173 A 
ATOM     91  C   UNL A   1      45.929  27.084  27.567  1.00  0.00     0.173 A 
ATOM     92  F   UNL A   1      46.931  30.312  28.895  1.00  0.00    -0.203 F 
ATOM     93  C   UNL A   1      48.168  28.712  27.722  1.00  0.00     0.198 A 
ATOM     94  C   UNL A   1      47.149  26.648  27.060  1.00  0.00     0.198 A 
ATOM     95  F   UNL A   1      44.872  26.260  27.498  1.00  0.00    -0.203 F 
ATOM     96  F   UNL A   1      49.250  29.500  27.802  1.00  0.00    -0.200 F 
ATOM     97  C   UNL A   1      48.265  27.466  27.127  1.00  0.00     0.200 A 
ATOM     98  F   UNL A   1      47.246  25.424  26.524  1.00  0.00    -0.200 F 
ATOM     99  F   UNL A   1      49.439  27.044  26.635  1.00  0.00    -0.200 F 
ENDBRANCH  66  89
ENDBRANCH  40  41
ENDBRANCH  32  35
ENDBRANCH  30  31
ENDBRANCH  29  30
ENDBRANCH   1  29
TORSDOF 14
ENDMDL
MODEL 2
REMARK VINA RESULT:     -13.1      2.869      7.517
REMARK SMILES Cc1nn(CC(=O)NCCCNC(=O)c2ccc(-c3c4nc(c(-c5c(F)c(F)c(F)c(F)c5F)c5ccc([nH]5)c(-c5c(F)c(F)c(F)c(F)c5F)c5nc(c(-c6c(F)c(F)c(F)c(F)c6F)c6ccc3[nH]6)C=C5)C=C4)cc2)c(C)c1NC(=O)C(=O)Nc1ccc(F)cc1
REMARK SMILES IDX 9 1 8 2 6 3 7 4 5 6 4 7 1 8 2 9 3 10 80 11 78 12 79 13 81 14
REMARK SMILES IDX 82 15 83 17 84 18 85 19 86 20 87 22 88 23 93 24 89 25 92 26
REMARK SMILES IDX 90 27 91 28 10 29 11 30 12 31 13 32 14 34 15 35 16 36 77 37
REMARK SMILES IDX 17 38 76 39 18 40 19 41 20 42 70 43 21 44 75 45 69 46 71 47
REMARK SMILES IDX 22 48 74 49 68 50 67 51 23 53 55 54 35 55 54 56 36 57 39 58
REMARK SMILES IDX 53 59 72 60 37 61 38 62 52 64 73 65 40 66 24 67 25 68 33 69
REMARK SMILES IDX 26 70 27 71 31 72 34 73 28 74 29 75 32 76 30 77 56 78 57 79
REMARK SMILES IDX 65 80 58 81 59 82 63 83 66 84 60 85 61 86 64 87 62 88 41 89
REMARK SMILES IDX 42 90 50 91 43 92 44 93 48 94 51 95 45 96 46 97 49 98 47 99
REMARK H PARENT 8 5 81 16 86 21 12 33 71 52 39 63
REMARK Flexibility Score: inf
ROOT
ATOM      1  C   UNL A   1      35.932  22.262  25.249  1.00  0.00     0.117 C 
ENDROOT
BRANCH   1   2
ATOM      2  N   UNL A   1      35.256  22.049  26.517  1.00  0.00    -0.354 N 
ATOM      3  C   UNL A   1      33.968  21.696  26.808  1.00  0.00     0.241 C 
ATOM      4  O   UNL A   1      33.719  21.483  28.001  1.00  0.00    -0.273 OA
ATOM      5  H   UNL A   1      35.826  22.181  27.308  1.00  0.00     0.163 HD
BRANCH   3   6
ATOM      6  C   UNL A   1      32.918  21.417  25.752  1.00  0.00     0.244 C 
BRANCH   6   7
ATOM      7  N   UNL A   1      32.244  22.593  25.227  1.00  0.00    -0.258 N 
ATOM      8  C   UNL A   1      30.109  25.306  25.965  1.00  0.00     0.071 C 
ATOM      9  C   UNL A   1      31.005  24.302  25.333  1.00  0.00     0.083 A 
ATOM     10  N   UNL A   1      31.524  23.333  26.083  1.00  0.00    -0.175 NA
ATOM     11  C   UNL A   1      31.414  24.203  23.963  1.00  0.00     0.086 A 
ATOM     12  C   UNL A   1      32.181  23.046  23.919  1.00  0.00     0.060 A 
ATOM     13  C   UNL A   1      32.899  22.332  22.830  1.00  0.00     0.069 C 
BRANCH  11  14
ATOM     14  N   UNL A   1      31.053  25.157  23.024  1.00  0.00    -0.315 N 
ATOM     15  C   UNL A   1      31.671  26.224  22.420  1.00  0.00     0.314 C 
ATOM     16  H   UNL A   1      30.126  25.042  22.714  1.00  0.00     0.170 HD
ATOM     17  O   UNL A   1      31.028  26.938  21.655  1.00  0.00    -0.263 OA
BRANCH  15  18
ATOM     18  C   UNL A   1      33.157  26.464  22.591  1.00  0.00     0.314 C 
ATOM     19  O   UNL A   1      33.856  26.639  21.598  1.00  0.00    -0.263 OA
ATOM     20  N   UNL A   1      33.720  26.461  23.862  1.00  0.00    -0.318 N 
ATOM     21  H   UNL A   1      34.374  25.765  24.106  1.00  0.00     0.170 HD
BRANCH  20  22
ATOM     22  C   UNL A   1      33.361  27.446  24.802  1.00  0.00     0.041 A 
ATOM     23  C   UNL A   1      33.088  28.723  24.293  1.00  0.00     0.029 A 
ATOM     24  C   UNL A   1      33.204  27.185  26.162  1.00  0.00     0.029 A 
ATOM     25  C   UNL A   1      32.550  29.703  25.121  1.00  0.00     0.041 A 
ATOM     26  C   UNL A   1      32.683  28.178  26.995  1.00  0.00     0.041 A 
ATOM     27  C   UNL A   1      32.337  29.416  26.462  1.00  0.00     0.123 A 
ATOM     28  F   UNL A   1      31.778  30.344  27.251  1.00  0.00    -0.207 F 
ENDBRANCH  20  22
ENDBRANCH  15  18
ENDBRANCH  11  14
ENDBRANCH   6   7
ENDBRANCH   3   6
ENDBRANCH   1   2
BRANCH   1  29
ATOM     29  C   UNL A   1      37.311  21.600  25.161  1.00  0.00     0.042 C 
BRANCH  29  30
ATOM     30  C   UNL A   1      38.415  22.523  25.636  1.00  0.00     0.118 C 
BRANCH  30  31
ATOM     31  N   UNL A   1      39.283  21.930  26.673  1.00  0.00    -0.352 N 
ATOM     32  C   UNL A   1      40.307  22.543  27.387  1.00  0.00     0.251 C 
ATOM     33  H   UNL A   1      39.116  20.982  26.884  1.00  0.00     0.163 HD
ATOM     34  O   UNL A   1      41.174  21.890  27.965  1.00  0.00    -0.269 OA
BRANCH  32  35
ATOM     35  C   UNL A   1      40.296  24.010  27.465  1.00  0.00     0.039 A 
ATOM     36  C   UNL A   1      39.170  24.819  27.291  1.00  0.00     0.014 A 
ATOM     37  C   UNL A   1      41.489  24.547  27.905  1.00  0.00     0.014 A 
ATOM     38  C   UNL A   1      39.285  26.169  27.626  1.00  0.00     0.010 A 
ATOM     39  C   UNL A   1      41.404  25.668  28.657  1.00  0.00     0.010 A 
ATOM     40  C   UNL A   1      40.434  26.581  28.315  1.00  0.00    -0.014 A 
BRANCH  40  41
ATOM     41  C   UNL A   1      40.694  27.922  28.803  1.00  0.00     0.031 A 
ATOM     42  C   UNL A   1      41.884  28.538  28.181  1.00  0.00     0.074 A 
ATOM     43  C   UNL A   1      39.773  28.609  29.525  1.00  0.00     0.049 A 
ATOM     44  N   UNL A   1      43.045  28.707  28.716  1.00  0.00    -0.248 NA
ATOM     45  C   UNL A   1      41.851  28.810  26.734  1.00  0.00     0.031 C 
ATOM     46  C   UNL A   1      38.398  28.208  29.892  1.00  0.00     0.029 A 
ATOM     47  N   UNL A   1      39.841  29.872  30.030  1.00  0.00    -0.354 N 
ATOM     48  C   UNL A   1      43.807  29.354  27.749  1.00  0.00     0.074 A 
ATOM     49  C   UNL A   1      43.118  29.166  26.503  1.00  0.00     0.031 C 
ATOM     50  C   UNL A   1      37.706  29.273  30.354  1.00  0.00     0.029 A 
ATOM     51  C   UNL A   1      38.629  30.378  30.504  1.00  0.00     0.049 A 
ATOM     52  H   UNL A   1      40.679  30.388  30.059  1.00  0.00     0.167 HD
ATOM     53  C   UNL A   1      44.746  30.268  28.126  1.00  0.00     0.037 A 
ATOM     54  C   UNL A   1      38.419  31.620  31.002  1.00  0.00     0.037 A 
ATOM     55  C   UNL A   1      44.968  30.188  29.551  1.00  0.00     0.049 A 
ATOM     56  C   UNL A   1      39.747  32.133  31.412  1.00  0.00     0.074 A 
ATOM     57  C   UNL A   1      45.567  29.302  30.420  1.00  0.00     0.029 A 
ATOM     58  N   UNL A   1      44.088  30.943  30.282  1.00  0.00    -0.354 N 
ATOM     59  N   UNL A   1      40.453  31.601  32.373  1.00  0.00    -0.248 NA
ATOM     60  C   UNL A   1      40.489  32.966  30.477  1.00  0.00     0.031 C 
ATOM     61  C   UNL A   1      44.830  29.397  31.643  1.00  0.00     0.029 A 
ATOM     62  C   UNL A   1      43.854  30.385  31.509  1.00  0.00     0.049 A 
ATOM     63  H   UNL A   1      43.679  31.781  29.965  1.00  0.00     0.167 HD
ATOM     64  C   UNL A   1      41.762  31.680  31.929  1.00  0.00     0.074 A 
ATOM     65  C   UNL A   1      41.736  32.660  30.846  1.00  0.00     0.031 C 
ATOM     66  C   UNL A   1      42.667  30.714  32.270  1.00  0.00     0.037 A 
BRANCH  53  67
ATOM     67  C   UNL A   1      45.055  31.550  27.375  1.00  0.00     0.064 A 
ATOM     68  C   UNL A   1      46.359  31.739  26.870  1.00  0.00     0.173 A 
ATOM     69  C   UNL A   1      44.250  32.709  27.409  1.00  0.00     0.173 A 
ATOM     70  F   UNL A   1      47.221  30.713  26.810  1.00  0.00    -0.203 F 
ATOM     71  C   UNL A   1      46.835  33.001  26.500  1.00  0.00     0.198 A 
ATOM     72  C   UNL A   1      44.713  33.957  26.993  1.00  0.00     0.198 A 
ATOM     73  F   UNL A   1      43.028  32.720  27.952  1.00  0.00    -0.203 F 
ATOM     74  F   UNL A   1      48.117  33.150  26.139  1.00  0.00    -0.200 F 
ATOM     75  C   UNL A   1      46.013  34.110  26.567  1.00  0.00     0.200 A 
ATOM     76  F   UNL A   1      43.906  35.023  27.091  1.00  0.00    -0.200 F 
ATOM     77  F   UNL A   1      46.483  35.329  26.270  1.00  0.00    -0.200 F 
ENDBRANCH  53  67
BRANCH  54  78
ATOM     78  C   UNL A   1      37.246  32.510  30.812  1.00  0.00     0.064 A 
ATOM     79  C   UNL A   1      36.935  33.058  29.556  1.00  0.00     0.173 A 
ATOM     80  C   UNL A   1      36.238  32.579  31.792  1.00  0.00     0.173 A 
ATOM     81  F   UNL A   1      37.824  32.991  28.554  1.00  0.00    -0.203 F 
ATOM     82  C   UNL A   1      35.676  33.611  29.287  1.00  0.00     0.198 A 
ATOM     83  C   UNL A   1      34.982  33.128  31.522  1.00  0.00     0.198 A 
ATOM     84  F   UNL A   1      36.419  32.017  32.996  1.00  0.00    -0.203 F 
ATOM     85  F   UNL A   1      35.391  34.065  28.058  1.00  0.00    -0.200 F 
ATOM     86  C   UNL A   1      34.697  33.632  30.266  1.00  0.00     0.200 A 
ATOM     87  F   UNL A   1      34.028  33.100  32.463  1.00  0.00    -0.200 F 
ATOM     88  F   UNL A   1      33.468  34.093  29.989  1.00  0.00    -0.200 F 
ENDBRANCH  54  78
BRANCH  66  89
ATOM     89  C   UNL A   1      42.325  29.841  33.445  1.00  0.00     0.064 A 
ATOM     90  C   UNL A   1      41.793  28.544  33.355  1.00  0.00     0.173 A 
ATOM     91  C   UNL A   1      42.632  30.321  34.723  1.00  0.00     0.173 A 
ATOM     92  F   UNL A   1      41.548  27.980  32.168  1.00  0.00    -0.203 F 
ATOM     93  C   UNL A   1      41.540  27.783  34.497  1.00  0.00     0.198 A 
ATOM     94  C   UNL A   1      42.411  29.549  35.860  1.00  0.00     0.198 A 
ATOM     95  F   UNL A   1      43.186  31.534  34.868  1.00  0.00    -0.203 F 
ATOM     96  F   UNL A   1      41.015  26.553  34.384  1.00  0.00    -0.200 F 
ATOM     97  C   UNL A   1      41.854  28.285  35.748  1.00  0.00     0.200 A 
ATOM     98  F   UNL A   1      42.757  30.025  37.063  1.00  0.00    -0.200 F 
ATOM     99  F   UNL A   1      41.639  27.546  36.845  1.00  0.00    -0.200 F 
ENDBRANCH  66  89
ENDBRANCH  40  41
ENDBRANCH  32  35
ENDBRANCH  30  31
ENDBRANCH  29  30
ENDBRANCH   1  29
TORSDOF 14
ENDMDL
MODEL 3
REMARK VINA RESULT:     -13.0      1.526      2.406
REMARK SMILES Cc1nn(CC(=O)NCCCNC(=O)c2ccc(-c3c4nc(c(-c5c(F)c(F)c(F)c(F)c5F)c5ccc([nH]5)c(-c5c(F)c(F)c(F)c(F)c5F)c5nc(c(-c6c(F)c(F)c(F)c(F)c6F)c6ccc3[nH]6)C=C5)C=C4)cc2)c(C)c1NC(=O)C(=O)Nc1ccc(F)cc1
REMARK SMILES IDX 9 1 8 2 6 3 7 4 5 6 4 7 1 8 2 9 3 10 80 11 78 12 79 13 81 14
REMARK SMILES IDX 82 15 83 17 84 18 85 19 86 20 87 22 88 23 93 24 89 25 92 26
REMARK SMILES IDX 90 27 91 28 10 29 11 30 12 31 13 32 14 34 15 35 16 36 77 37
REMARK SMILES IDX 17 38 76 39 18 40 19 41 20 42 70 43 21 44 75 45 69 46 71 47
REMARK SMILES IDX 22 48 74 49 68 50 67 51 23 53 55 54 35 55 54 56 36 57 39 58
REMARK SMILES IDX 53 59 72 60 37 61 38 62 52 64 73 65 40 66 24 67 25 68 33 69
REMARK SMILES IDX 26 70 27 71 31 72 34 73 28 74 29 75 32 76 30 77 56 78 57 79
REMARK SMILES IDX 65 80 58 81 59 82 63 83 66 84 60 85 61 86 64 87 62 88 41 89
REMARK SMILES IDX 42 90 50 91 43 92 44 93 48 94 51 95 45 96 46 97 49 98 47 99
REMARK H PARENT 8 5 81 16 86 21 12 33 71 52 39 63
REMARK Flexibility Score: inf
ROOT
ATOM      1  C   UNL A   1      36.740  21.353  24.786  1.00  0.00     0.117 C 
ENDROOT
BRANCH   1   2
ATOM      2  N   UNL A   1      35.926  21.564  25.972  1.00  0.00    -0.354 N 
ATOM      3  C   UNL A   1      34.577  21.482  26.171  1.00  0.00     0.241 C 
ATOM      4  O   UNL A   1      34.191  21.615  27.339  1.00  0.00    -0.273 OA
ATOM      5  H   UNL A   1      36.439  21.809  26.776  1.00  0.00     0.163 HD
BRANCH   3   6
ATOM      6  C   UNL A   1      33.593  21.099  25.085  1.00  0.00     0.244 C 
BRANCH   6   7
ATOM      7  N   UNL A   1      32.833  22.202  24.523  1.00  0.00    -0.258 N 
ATOM      8  C   UNL A   1      32.769  24.766  22.095  1.00  0.00     0.071 C 
ATOM      9  C   UNL A   1      32.482  23.815  23.202  1.00  0.00     0.083 A 
ATOM     10  N   UNL A   1      33.361  22.855  23.476  1.00  0.00    -0.175 NA
ATOM     11  C   UNL A   1      31.347  23.774  24.076  1.00  0.00     0.086 A 
ATOM     12  C   UNL A   1      31.632  22.740  24.958  1.00  0.00     0.060 A 
ATOM     13  C   UNL A   1      30.916  22.160  26.124  1.00  0.00     0.069 C 
BRANCH  11  14
ATOM     14  N   UNL A   1      30.272  24.634  23.914  1.00  0.00    -0.315 N 
ATOM     15  C   UNL A   1      29.756  25.703  24.604  1.00  0.00     0.314 C 
ATOM     16  H   UNL A   1      29.750  24.430  23.105  1.00  0.00     0.170 HD
ATOM     17  O   UNL A   1      28.712  26.223  24.217  1.00  0.00    -0.263 OA
BRANCH  15  18
ATOM     18  C   UNL A   1      30.510  26.321  25.764  1.00  0.00     0.314 C 
ATOM     19  O   UNL A   1      30.718  25.650  26.770  1.00  0.00    -0.263 OA
ATOM     20  N   UNL A   1      30.938  27.641  25.690  1.00  0.00    -0.318 N 
ATOM     21  H   UNL A   1      30.564  28.312  26.306  1.00  0.00     0.170 HD
BRANCH  20  22
ATOM     22  C   UNL A   1      31.905  28.024  24.740  1.00  0.00     0.041 A 
ATOM     23  C   UNL A   1      33.191  27.493  24.910  1.00  0.00     0.029 A 
ATOM     24  C   UNL A   1      31.617  28.825  23.636  1.00  0.00     0.029 A 
ATOM     25  C   UNL A   1      34.153  27.668  23.920  1.00  0.00     0.041 A 
ATOM     26  C   UNL A   1      32.592  29.016  22.654  1.00  0.00     0.041 A 
ATOM     27  C   UNL A   1      33.840  28.415  22.793  1.00  0.00     0.123 A 
ATOM     28  F   UNL A   1      34.751  28.547  21.819  1.00  0.00    -0.207 F 
ENDBRANCH  20  22
ENDBRANCH  15  18
ENDBRANCH  11  14
ENDBRANCH   6   7
ENDBRANCH   3   6
ENDBRANCH   1   2
BRANCH   1  29
ATOM     29  C   UNL A   1      37.689  20.155  24.890  1.00  0.00     0.042 C 
BRANCH  29  30
ATOM     30  C   UNL A   1      38.974  20.510  25.610  1.00  0.00     0.118 C 
BRANCH  30  31
ATOM     31  N   UNL A   1      39.900  19.370  25.772  1.00  0.00    -0.352 N 
ATOM     32  C   UNL A   1      41.278  19.406  25.955  1.00  0.00     0.251 C 
ATOM     33  H   UNL A   1      39.491  18.475  25.747  1.00  0.00     0.163 HD
ATOM     34  O   UNL A   1      41.985  18.423  25.740  1.00  0.00    -0.269 OA
BRANCH  32  35
ATOM     35  C   UNL A   1      41.864  20.656  26.458  1.00  0.00     0.039 A 
ATOM     36  C   UNL A   1      42.411  21.668  25.664  1.00  0.00     0.014 A 
ATOM     37  C   UNL A   1      41.679  20.845  27.812  1.00  0.00     0.014 A 
ATOM     38  C   UNL A   1      42.711  22.884  26.280  1.00  0.00     0.010 A 
ATOM     39  C   UNL A   1      41.510  22.123  28.225  1.00  0.00     0.010 A 
ATOM     40  C   UNL A   1      42.248  23.091  27.587  1.00  0.00    -0.014 A 
BRANCH  40  41
ATOM     41  C   UNL A   1      42.405  24.311  28.357  1.00  0.00     0.031 A 
ATOM     42  C   UNL A   1      41.302  25.270  28.142  1.00  0.00     0.074 A 
ATOM     43  C   UNL A   1      43.311  24.406  29.363  1.00  0.00     0.049 A 
ATOM     44  N   UNL A   1      41.337  26.354  27.444  1.00  0.00    -0.248 NA
ATOM     45  C   UNL A   1      39.949  24.883  28.575  1.00  0.00     0.031 C 
ATOM     46  C   UNL A   1      44.217  23.367  29.895  1.00  0.00     0.029 A 
ATOM     47  N   UNL A   1      43.566  25.454  30.196  1.00  0.00    -0.354 N 
ATOM     48  C   UNL A   1      40.073  26.919  27.577  1.00  0.00     0.074 A 
ATOM     49  C   UNL A   1      39.215  25.873  28.060  1.00  0.00     0.031 C 
ATOM     50  C   UNL A   1      44.745  23.763  31.075  1.00  0.00     0.029 A 
ATOM     51  C   UNL A   1      44.379  25.147  31.288  1.00  0.00     0.049 A 
ATOM     52  H   UNL A   1      43.206  26.357  30.039  1.00  0.00     0.167 HD
ATOM     53  C   UNL A   1      39.937  28.275  27.605  1.00  0.00     0.037 A 
ATOM     54  C   UNL A   1      44.735  25.993  32.285  1.00  0.00     0.037 A 
ATOM     55  C   UNL A   1      41.172  28.903  27.197  1.00  0.00     0.049 A 
ATOM     56  C   UNL A   1      44.542  27.363  31.756  1.00  0.00     0.074 A 
ATOM     57  C   UNL A   1      41.874  29.056  26.021  1.00  0.00     0.029 A 
ATOM     58  N   UNL A   1      42.061  29.075  28.226  1.00  0.00    -0.354 N 
ATOM     59  N   UNL A   1      45.236  27.850  30.763  1.00  0.00    -0.248 NA
ATOM     60  C   UNL A   1      43.288  28.047  32.037  1.00  0.00     0.031 C 
ATOM     61  C   UNL A   1      43.255  29.081  26.392  1.00  0.00     0.029 A 
ATOM     62  C   UNL A   1      43.354  29.016  27.782  1.00  0.00     0.049 A 
ATOM     63  H   UNL A   1      41.802  29.223  29.165  1.00  0.00     0.167 HD
ATOM     64  C   UNL A   1      44.331  28.610  30.043  1.00  0.00     0.074 A 
ATOM     65  C   UNL A   1      43.206  28.820  30.951  1.00  0.00     0.031 C 
ATOM     66  C   UNL A   1      44.446  28.719  28.685  1.00  0.00     0.037 A 
BRANCH  53  67
ATOM     67  C   UNL A   1      38.948  29.027  28.476  1.00  0.00     0.064 A 
ATOM     68  C   UNL A   1      38.951  28.783  29.866  1.00  0.00     0.173 A 
ATOM     69  C   UNL A   1      37.813  29.710  27.988  1.00  0.00     0.173 A 
ATOM     70  F   UNL A   1      39.967  28.123  30.440  1.00  0.00    -0.203 F 
ATOM     71  C   UNL A   1      37.870  29.133  30.682  1.00  0.00     0.198 A 
ATOM     72  C   UNL A   1      36.759  30.101  28.814  1.00  0.00     0.198 A 
ATOM     73  F   UNL A   1      37.610  29.928  26.685  1.00  0.00    -0.203 F 
ATOM     74  F   UNL A   1      37.866  28.775  31.974  1.00  0.00    -0.200 F 
ATOM     75  C   UNL A   1      36.772  29.786  30.154  1.00  0.00     0.200 A 
ATOM     76  F   UNL A   1      35.694  30.711  28.275  1.00  0.00    -0.200 F 
ATOM     77  F   UNL A   1      35.710  30.069  30.920  1.00  0.00    -0.200 F 
ENDBRANCH  53  67
BRANCH  54  78
ATOM     78  C   UNL A   1      44.868  25.713  33.737  1.00  0.00     0.064 A 
ATOM     79  C   UNL A   1      43.743  25.505  34.552  1.00  0.00     0.173 A 
ATOM     80  C   UNL A   1      46.111  25.332  34.277  1.00  0.00     0.173 A 
ATOM     81  F   UNL A   1      42.517  25.799  34.094  1.00  0.00    -0.203 F 
ATOM     82  C   UNL A   1      43.852  24.920  35.820  1.00  0.00     0.198 A 
ATOM     83  C   UNL A   1      46.219  24.745  35.540  1.00  0.00     0.198 A 
ATOM     84  F   UNL A   1      47.229  25.424  33.543  1.00  0.00    -0.203 F 
ATOM     85  F   UNL A   1      42.751  24.678  36.545  1.00  0.00    -0.200 F 
ATOM     86  C   UNL A   1      45.088  24.528  36.307  1.00  0.00     0.200 A 
ATOM     87  F   UNL A   1      47.414  24.327  35.979  1.00  0.00    -0.200 F 
ATOM     88  F   UNL A   1      45.186  23.900  37.488  1.00  0.00    -0.200 F 
ENDBRANCH  54  78
BRANCH  66  89
ATOM     89  C   UNL A   1      45.776  28.366  28.081  1.00  0.00     0.064 A 
ATOM     90  C   UNL A   1      46.103  27.116  27.529  1.00  0.00     0.173 A 
ATOM     91  C   UNL A   1      46.737  29.379  27.987  1.00  0.00     0.173 A 
ATOM     92  F   UNL A   1      45.212  26.119  27.504  1.00  0.00    -0.203 F 
ATOM     93  C   UNL A   1      47.351  26.882  26.951  1.00  0.00     0.198 A 
ATOM     94  C   UNL A   1      47.970  29.155  27.382  1.00  0.00     0.198 A 
ATOM     95  F   UNL A   1      46.464  30.606  28.455  1.00  0.00    -0.203 F 
ATOM     96  F   UNL A   1      47.644  25.674  26.446  1.00  0.00    -0.200 F 
ATOM     97  C   UNL A   1      48.281  27.904  26.874  1.00  0.00     0.200 A 
ATOM     98  F   UNL A   1      48.848  30.160  27.272  1.00  0.00    -0.200 F 
ATOM     99  F   UNL A   1      49.471  27.691  26.294  1.00  0.00    -0.200 F 
ENDBRANCH  66  89
ENDBRANCH  40  41
ENDBRANCH  32  35
ENDBRANCH  30  31
ENDBRANCH  29  30
ENDBRANCH   1  29
TORSDOF 14
ENDMDL
