MODEL 1
REMARK VINA RESULT:     -13.3      0.000      0.000
REMARK SMILES CC(C)Cc1cc2c(cc1Cl)C=C(C(=O)NCCCNC(=O)c1ccc(-c3c4nc(c(-c5c(F)c(F)c(F)c(F)c5F)c5ccc([nH]5)c(-c5c(F)c(F)c(F)c(F)c5F)c5nc(c(-c6c(F)c(F)c(F)c(F)c6F)c6ccc3[nH]6)C=C5)C=C4)cc1)[C@H](C(F)(F)F)O2
REMARK SMILES IDX 18 1 17 2 16 3 14 4 15 5 13 7 5 8 6 9 10 10 7 11 9 12 11 13
REMARK SMILES IDX 8 14 91 15 12 16 86 17 4 18 2 19 1 20 3 21 87 22 88 23 89 24
REMARK SMILES IDX 90 25 19 26 20 27 21 28 22 30 23 31 24 32 85 33 25 34 84 35
REMARK SMILES IDX 26 36 27 37 28 38 78 39 29 40 83 41 77 42 79 43 30 44 82 45
REMARK SMILES IDX 76 46 75 47 31 49 63 50 43 51 62 52 44 53 47 54 61 55 80 56
REMARK SMILES IDX 45 57 46 58 60 60 81 61 48 62 32 63 33 64 41 65 34 66 35 67
REMARK SMILES IDX 39 68 42 69 36 70 37 71 40 72 38 73 64 74 65 75 73 76 66 77
REMARK SMILES IDX 67 78 71 79 74 80 68 81 69 82 72 83 70 84 49 85 50 86 58 87
REMARK SMILES IDX 51 88 52 89 56 90 59 91 53 92 54 93 57 94 55 95
REMARK H PARENT 16 6 20 29 79 48 47 59
REMARK Flexibility Score: inf
ROOT
ATOM      1  C   UNL A   1      31.468  32.198  26.629  1.00  0.00     0.042 C 
ENDROOT
BRANCH   1   2
ATOM      2  C   UNL A   1      31.673  30.734  26.264  1.00  0.00     0.118 C 
BRANCH   2   3
ATOM      3  N   UNL A   1      31.022  30.422  25.005  1.00  0.00    -0.352 N 
ATOM      4  C   UNL A   1      30.923  29.351  24.189  1.00  0.00     0.251 C 
ATOM      5  O   UNL A   1      30.257  29.530  23.164  1.00  0.00    -0.270 OA
ATOM      6  H   UNL A   1      30.521  31.193  24.654  1.00  0.00     0.163 HD
BRANCH   4   7
ATOM      7  C   UNL A   1      31.524  28.015  24.458  1.00  0.00     0.067 C 
ATOM      8  C   UNL A   1      32.059  23.207  25.997  1.00  0.00    -0.025 A 
ATOM      9  C   UNL A   1      32.901  24.174  25.395  1.00  0.00     0.052 A 
ATOM     10  C   UNL A   1      30.758  23.616  26.333  1.00  0.00     0.045 A 
ATOM     11  C   UNL A   1      32.456  25.461  25.100  1.00  0.00     0.128 A 
ATOM     12  C   UNL A   1      30.303  24.900  25.993  1.00  0.00     0.032 A 
ATOM     13  Cl  UNL A   1      29.623  22.672  27.227  1.00  0.00    -0.084 Cl
ATOM     14  C   UNL A   1      31.148  25.822  25.377  1.00  0.00     0.019 A 
ATOM     15  O   UNL A   1      33.379  26.321  24.587  1.00  0.00    -0.475 OA
ATOM     16  C   UNL A   1      30.689  27.165  25.080  1.00  0.00     0.025 C 
ATOM     17  C   UNL A   1      32.903  27.581  24.035  1.00  0.00     0.314 C 
BRANCH   8  18
ATOM     18  C   UNL A   1      32.732  21.867  26.246  1.00  0.00     0.040 C 
BRANCH  18  19
ATOM     19  C   UNL A   1      33.276  20.983  25.113  1.00  0.00    -0.013 C 
ATOM     20  C   UNL A   1      34.806  20.952  25.071  1.00  0.00     0.008 C 
ATOM     21  C   UNL A   1      32.752  19.550  25.274  1.00  0.00     0.008 C 
ENDBRANCH  18  19
ENDBRANCH   8  18
BRANCH  17  22
ATOM     22  C   UNL A   1      33.121  27.558  22.513  1.00  0.00     0.429 C 
ATOM     23  F   UNL A   1      33.498  28.759  22.019  1.00  0.00    -0.167 F 
ATOM     24  F   UNL A   1      34.054  26.660  22.124  1.00  0.00    -0.167 F 
ATOM     25  F   UNL A   1      31.964  27.217  21.885  1.00  0.00    -0.167 F 
ENDBRANCH  17  22
ENDBRANCH   4   7
ENDBRANCH   2   3
ENDBRANCH   1   2
BRANCH   1  26
ATOM     26  C   UNL A   1      32.699  32.812  27.285  1.00  0.00     0.118 C 
BRANCH  26  27
ATOM     27  N   UNL A   1      32.475  34.199  27.671  1.00  0.00    -0.352 N 
ATOM     28  C   UNL A   1      33.034  34.934  28.691  1.00  0.00     0.251 C 
ATOM     29  H   UNL A   1      31.823  34.686  27.116  1.00  0.00     0.163 HD
ATOM     30  O   UNL A   1      32.537  36.004  29.016  1.00  0.00    -0.269 OA
BRANCH  28  31
ATOM     31  C   UNL A   1      34.220  34.418  29.410  1.00  0.00     0.039 A 
ATOM     32  C   UNL A   1      35.501  34.608  28.891  1.00  0.00     0.014 A 
ATOM     33  C   UNL A   1      34.051  33.739  30.618  1.00  0.00     0.014 A 
ATOM     34  C   UNL A   1      36.580  33.947  29.462  1.00  0.00     0.010 A 
ATOM     35  C   UNL A   1      35.160  33.175  31.259  1.00  0.00     0.010 A 
ATOM     36  C   UNL A   1      36.426  33.229  30.659  1.00  0.00    -0.014 A 
BRANCH  36  37
ATOM     37  C   UNL A   1      37.609  32.554  31.254  1.00  0.00     0.031 A 
ATOM     38  C   UNL A   1      38.077  32.897  32.643  1.00  0.00     0.074 A 
ATOM     39  C   UNL A   1      38.226  31.578  30.557  1.00  0.00     0.049 A 
ATOM     40  N   UNL A   1      39.083  32.403  33.321  1.00  0.00    -0.248 NA
ATOM     41  C   UNL A   1      37.324  33.934  33.367  1.00  0.00     0.031 C 
ATOM     42  C   UNL A   1      37.856  31.147  29.208  1.00  0.00     0.029 A 
ATOM     43  N   UNL A   1      39.269  30.752  30.893  1.00  0.00    -0.354 N 
ATOM     44  C   UNL A   1      39.095  33.079  34.533  1.00  0.00     0.074 A 
ATOM     45  C   UNL A   1      38.019  34.044  34.490  1.00  0.00     0.031 C 
ATOM     46  C   UNL A   1      38.611  30.097  28.857  1.00  0.00     0.029 A 
ATOM     47  C   UNL A   1      39.573  29.831  29.921  1.00  0.00     0.049 A 
ATOM     48  H   UNL A   1      39.752  30.814  31.749  1.00  0.00     0.167 HD
ATOM     49  C   UNL A   1      39.921  32.898  35.592  1.00  0.00     0.037 A 
ATOM     50  C   UNL A   1      40.532  28.888  29.877  1.00  0.00     0.037 A 
ATOM     51  C   UNL A   1      40.971  31.913  35.641  1.00  0.00     0.049 A 
ATOM     52  C   UNL A   1      41.466  28.743  31.045  1.00  0.00     0.074 A 
ATOM     53  C   UNL A   1      41.843  31.637  36.678  1.00  0.00     0.029 A 
ATOM     54  N   UNL A   1      41.289  31.042  34.609  1.00  0.00    -0.354 N 
ATOM     55  N   UNL A   1      41.462  29.386  32.186  1.00  0.00    -0.248 NA
ATOM     56  C   UNL A   1      42.542  27.752  30.914  1.00  0.00     0.031 C 
ATOM     57  C   UNL A   1      42.722  30.634  36.257  1.00  0.00     0.029 A 
ATOM     58  C   UNL A   1      42.362  30.245  34.976  1.00  0.00     0.049 A 
ATOM     59  H   UNL A   1      40.820  30.995  33.743  1.00  0.00     0.167 HD
ATOM     60  C   UNL A   1      42.526  28.874  32.915  1.00  0.00     0.074 A 
ATOM     61  C   UNL A   1      43.138  27.848  32.096  1.00  0.00     0.031 C 
ATOM     62  C   UNL A   1      42.959  29.229  34.148  1.00  0.00     0.037 A 
BRANCH  49  63
ATOM     63  C   UNL A   1      39.736  33.784  36.791  1.00  0.00     0.064 A 
ATOM     64  C   UNL A   1      40.328  35.053  36.867  1.00  0.00     0.173 A 
ATOM     65  C   UNL A   1      38.894  33.390  37.843  1.00  0.00     0.173 A 
ATOM     66  F   UNL A   1      41.150  35.475  35.895  1.00  0.00    -0.203 F 
ATOM     67  C   UNL A   1      40.096  35.888  37.959  1.00  0.00     0.198 A 
ATOM     68  C   UNL A   1      38.640  34.238  38.918  1.00  0.00     0.198 A 
ATOM     69  F   UNL A   1      38.296  32.189  37.817  1.00  0.00    -0.203 F 
ATOM     70  F   UNL A   1      40.700  37.083  38.026  1.00  0.00    -0.200 F 
ATOM     71  C   UNL A   1      39.245  35.484  38.977  1.00  0.00     0.200 A 
ATOM     72  F   UNL A   1      37.806  33.853  39.892  1.00  0.00    -0.200 F 
ATOM     73  F   UNL A   1      39.010  36.297  40.017  1.00  0.00    -0.200 F 
ENDBRANCH  49  63
BRANCH  50  74
ATOM     74  C   UNL A   1      40.650  28.017  28.678  1.00  0.00     0.064 A 
ATOM     75  C   UNL A   1      39.970  26.795  28.606  1.00  0.00     0.173 A 
ATOM     76  C   UNL A   1      41.410  28.408  27.565  1.00  0.00     0.173 A 
ATOM     77  F   UNL A   1      39.247  26.368  29.652  1.00  0.00    -0.203 F 
ATOM     78  C   UNL A   1      40.047  25.996  27.468  1.00  0.00     0.198 A 
ATOM     79  C   UNL A   1      41.460  27.624  26.415  1.00  0.00     0.198 A 
ATOM     80  F   UNL A   1      42.077  29.572  27.582  1.00  0.00    -0.203 F 
ATOM     81  F   UNL A   1      39.411  24.816  27.435  1.00  0.00    -0.200 F 
ATOM     82  C   UNL A   1      40.783  26.416  26.369  1.00  0.00     0.200 A 
ATOM     83  F   UNL A   1      42.156  28.045  25.350  1.00  0.00    -0.200 F 
ATOM     84  F   UNL A   1      40.839  25.656  25.266  1.00  0.00    -0.200 F 
ENDBRANCH  50  74
BRANCH  62  85
ATOM     85  C   UNL A   1      44.149  28.499  34.701  1.00  0.00     0.064 A 
ATOM     86  C   UNL A   1      45.449  29.000  34.544  1.00  0.00     0.173 A 
ATOM     87  C   UNL A   1      43.980  27.332  35.460  1.00  0.00     0.173 A 
ATOM     88  F   UNL A   1      45.664  30.106  33.814  1.00  0.00    -0.203 F 
ATOM     89  C   UNL A   1      46.539  28.351  35.116  1.00  0.00     0.198 A 
ATOM     90  C   UNL A   1      45.068  26.702  36.056  1.00  0.00     0.198 A 
ATOM     91  F   UNL A   1      42.755  26.817  35.646  1.00  0.00    -0.203 F 
ATOM     92  F   UNL A   1      47.777  28.827  34.926  1.00  0.00    -0.200 F 
ATOM     93  C   UNL A   1      46.347  27.209  35.881  1.00  0.00     0.200 A 
ATOM     94  F   UNL A   1      44.878  25.610  36.809  1.00  0.00    -0.200 F 
ATOM     95  F   UNL A   1      47.395  26.597  36.448  1.00  0.00    -0.200 F 
ENDBRANCH  62  85
ENDBRANCH  36  37
ENDBRANCH  28  31
ENDBRANCH  26  27
ENDBRANCH   1  26
TORSDOF 13
ENDMDL
MODEL 2
REMARK VINA RESULT:     -13.2      0.265      1.675
REMARK SMILES CC(C)Cc1cc2c(cc1Cl)C=C(C(=O)NCCCNC(=O)c1ccc(-c3c4nc(c(-c5c(F)c(F)c(F)c(F)c5F)c5ccc([nH]5)c(-c5c(F)c(F)c(F)c(F)c5F)c5nc(c(-c6c(F)c(F)c(F)c(F)c6F)c6ccc3[nH]6)C=C5)C=C4)cc1)[C@H](C(F)(F)F)O2
REMARK SMILES IDX 18 1 17 2 16 3 14 4 15 5 13 7 5 8 6 9 10 10 7 11 9 12 11 13
REMARK SMILES IDX 8 14 91 15 12 16 86 17 4 18 2 19 1 20 3 21 87 22 88 23 89 24
REMARK SMILES IDX 90 25 19 26 20 27 21 28 22 30 23 31 24 32 85 33 25 34 84 35
REMARK SMILES IDX 26 36 27 37 28 38 78 39 29 40 83 41 77 42 79 43 30 44 82 45
REMARK SMILES IDX 76 46 75 47 31 49 63 50 43 51 62 52 44 53 47 54 61 55 80 56
REMARK SMILES IDX 45 57 46 58 60 60 81 61 48 62 32 63 33 64 41 65 34 66 35 67
REMARK SMILES IDX 39 68 42 69 36 70 37 71 40 72 38 73 64 74 65 75 73 76 66 77
REMARK SMILES IDX 67 78 71 79 74 80 68 81 69 82 72 83 70 84 49 85 50 86 58 87
REMARK SMILES IDX 51 88 52 89 56 90 59 91 53 92 54 93 57 94 55 95
REMARK H PARENT 16 6 20 29 79 48 47 59
REMARK Flexibility Score: inf
ROOT
ATOM      1  C   UNL A   1      31.425  32.225  26.555  1.00  0.00     0.042 C 
ENDROOT
BRANCH   1   2
ATOM      2  C   UNL A   1      31.574  30.733  26.292  1.00  0.00     0.118 C 
BRANCH   2   3
ATOM      3  N   UNL A   1      31.024  30.383  24.995  1.00  0.00    -0.352 N 
ATOM      4  C   UNL A   1      31.005  29.293  24.198  1.00  0.00     0.251 C 
ATOM      5  O   UNL A   1      30.414  29.438  23.123  1.00  0.00    -0.270 OA
ATOM      6  H   UNL A   1      30.537  31.136  24.591  1.00  0.00     0.163 HD
BRANCH   4   7
ATOM      7  C   UNL A   1      31.607  27.974  24.540  1.00  0.00     0.067 C 
ATOM      8  C   UNL A   1      32.107  23.207  26.210  1.00  0.00    -0.025 A 
ATOM      9  C   UNL A   1      32.976  24.180  25.659  1.00  0.00     0.052 A 
ATOM     10  C   UNL A   1      30.775  23.595  26.434  1.00  0.00     0.045 A 
ATOM     11  C   UNL A   1      32.532  25.452  25.304  1.00  0.00     0.128 A 
ATOM     12  C   UNL A   1      30.326  24.863  26.033  1.00  0.00     0.032 A 
ATOM     13  Cl  UNL A   1      29.590  22.645  27.252  1.00  0.00    -0.084 Cl
ATOM     14  C   UNL A   1      31.200  25.791  25.469  1.00  0.00     0.019 A 
ATOM     15  O   UNL A   1      33.477  26.321  24.851  1.00  0.00    -0.475 OA
ATOM     16  C   UNL A   1      30.741  27.119  25.109  1.00  0.00     0.025 C 
ATOM     17  C   UNL A   1      33.024  27.561  24.238  1.00  0.00     0.314 C 
BRANCH   8  18
ATOM     18  C   UNL A   1      32.783  21.886  26.540  1.00  0.00     0.040 C 
BRANCH  18  19
ATOM     19  C   UNL A   1      33.090  20.819  25.476  1.00  0.00    -0.013 C 
ATOM     20  C   UNL A   1      32.154  20.904  24.268  1.00  0.00     0.008 C 
ATOM     21  C   UNL A   1      34.539  20.967  24.995  1.00  0.00     0.008 C 
ENDBRANCH  18  19
ENDBRANCH   8  18
BRANCH  17  22
ATOM     22  C   UNL A   1      33.363  27.515  22.738  1.00  0.00     0.429 C 
ATOM     23  F   UNL A   1      32.267  27.387  21.957  1.00  0.00    -0.167 F 
ATOM     24  F   UNL A   1      34.028  28.612  22.311  1.00  0.00    -0.167 F 
ATOM     25  F   UNL A   1      34.162  26.446  22.478  1.00  0.00    -0.167 F 
ENDBRANCH  17  22
ENDBRANCH   4   7
ENDBRANCH   2   3
ENDBRANCH   1   2
BRANCH   1  26
ATOM     26  C   UNL A   1      32.642  32.817  27.256  1.00  0.00     0.118 C 
BRANCH  26  27
ATOM     27  N   UNL A   1      32.441  34.216  27.606  1.00  0.00    -0.352 N 
ATOM     28  C   UNL A   1      33.006  34.966  28.613  1.00  0.00     0.251 C 
ATOM     29  H   UNL A   1      31.803  34.702  27.033  1.00  0.00     0.163 HD
ATOM     30  O   UNL A   1      32.526  36.053  28.907  1.00  0.00    -0.269 OA
BRANCH  28  31
ATOM     31  C   UNL A   1      34.176  34.446  29.354  1.00  0.00     0.039 A 
ATOM     32  C   UNL A   1      35.461  34.567  28.825  1.00  0.00     0.014 A 
ATOM     33  C   UNL A   1      33.988  33.830  30.593  1.00  0.00     0.014 A 
ATOM     34  C   UNL A   1      36.519  33.900  29.425  1.00  0.00     0.010 A 
ATOM     35  C   UNL A   1      35.079  33.261  31.259  1.00  0.00     0.010 A 
ATOM     36  C   UNL A   1      36.345  33.244  30.656  1.00  0.00    -0.014 A 
BRANCH  36  37
ATOM     37  C   UNL A   1      37.506  32.559  31.281  1.00  0.00     0.031 A 
ATOM     38  C   UNL A   1      37.946  32.906  32.678  1.00  0.00     0.074 A 
ATOM     39  C   UNL A   1      38.128  31.573  30.604  1.00  0.00     0.049 A 
ATOM     40  N   UNL A   1      38.932  32.404  33.382  1.00  0.00    -0.248 NA
ATOM     41  C   UNL A   1      37.189  33.955  33.379  1.00  0.00     0.031 C 
ATOM     42  C   UNL A   1      37.783  31.138  29.249  1.00  0.00     0.029 A 
ATOM     43  N   UNL A   1      39.153  30.737  30.968  1.00  0.00    -0.354 N 
ATOM     44  C   UNL A   1      38.924  33.087  34.590  1.00  0.00     0.074 A 
ATOM     45  C   UNL A   1      37.860  34.064  34.517  1.00  0.00     0.031 C 
ATOM     46  C   UNL A   1      38.534  30.078  28.921  1.00  0.00     0.029 A 
ATOM     47  C   UNL A   1      39.469  29.807  30.008  1.00  0.00     0.049 A 
ATOM     48  H   UNL A   1      39.618  30.798  31.834  1.00  0.00     0.167 HD
ATOM     49  C   UNL A   1      39.723  32.902  35.668  1.00  0.00     0.037 A 
ATOM     50  C   UNL A   1      40.418  28.853  29.991  1.00  0.00     0.037 A 
ATOM     51  C   UNL A   1      40.761  31.906  35.746  1.00  0.00     0.049 A 
ATOM     52  C   UNL A   1      41.323  28.704  31.180  1.00  0.00     0.074 A 
ATOM     53  C   UNL A   1      41.607  31.626  36.804  1.00  0.00     0.029 A 
ATOM     54  N   UNL A   1      41.092  31.025  34.727  1.00  0.00    -0.354 N 
ATOM     55  N   UNL A   1      41.301  29.354  32.318  1.00  0.00    -0.248 NA
ATOM     56  C   UNL A   1      42.390  27.701  31.079  1.00  0.00     0.031 C 
ATOM     57  C   UNL A   1      42.483  30.611  36.409  1.00  0.00     0.029 A 
ATOM     58  C   UNL A   1      42.147  30.219  35.122  1.00  0.00     0.049 A 
ATOM     59  H   UNL A   1      40.643  30.979  33.851  1.00  0.00     0.167 HD
ATOM     60  C   UNL A   1      42.342  28.834  33.073  1.00  0.00     0.074 A 
ATOM     61  C   UNL A   1      42.961  27.797  32.273  1.00  0.00     0.031 C 
ATOM     62  C   UNL A   1      42.752  29.191  34.314  1.00  0.00     0.037 A 
BRANCH  49  63
ATOM     63  C   UNL A   1      39.521  33.797  36.858  1.00  0.00     0.064 A 
ATOM     64  C   UNL A   1      38.722  33.409  37.944  1.00  0.00     0.173 A 
ATOM     65  C   UNL A   1      40.197  35.024  36.948  1.00  0.00     0.173 A 
ATOM     66  F   UNL A   1      38.046  32.251  37.906  1.00  0.00    -0.203 F 
ATOM     67  C   UNL A   1      38.594  34.224  39.067  1.00  0.00     0.198 A 
ATOM     68  C   UNL A   1      40.091  35.822  38.084  1.00  0.00     0.198 A 
ATOM     69  F   UNL A   1      40.980  35.439  35.941  1.00  0.00    -0.203 F 
ATOM     70  F   UNL A   1      37.798  33.848  40.078  1.00  0.00    -0.200 F 
ATOM     71  C   UNL A   1      39.286  35.424  39.140  1.00  0.00     0.200 A 
ATOM     72  F   UNL A   1      40.772  36.973  38.160  1.00  0.00    -0.200 F 
ATOM     73  F   UNL A   1      39.176  36.197  40.230  1.00  0.00    -0.200 F 
ENDBRANCH  49  63
BRANCH  50  74
ATOM     74  C   UNL A   1      40.552  27.974  28.800  1.00  0.00     0.064 A 
ATOM     75  C   UNL A   1      39.866  26.756  28.722  1.00  0.00     0.173 A 
ATOM     76  C   UNL A   1      41.336  28.353  27.699  1.00  0.00     0.173 A 
ATOM     77  F   UNL A   1      39.119  26.341  29.756  1.00  0.00    -0.203 F 
ATOM     78  C   UNL A   1      39.959  25.949  27.590  1.00  0.00     0.198 A 
ATOM     79  C   UNL A   1      41.404  27.561  26.555  1.00  0.00     0.198 A 
ATOM     80  F   UNL A   1      42.011  29.513  27.722  1.00  0.00    -0.203 F 
ATOM     81  F   UNL A   1      39.315  24.774  27.552  1.00  0.00    -0.200 F 
ATOM     82  C   UNL A   1      40.719  26.358  26.503  1.00  0.00     0.200 A 
ATOM     83  F   UNL A   1      42.122  27.971  25.501  1.00  0.00    -0.200 F 
ATOM     84  F   UNL A   1      40.791  25.590  25.406  1.00  0.00    -0.200 F 
ENDBRANCH  50  74
BRANCH  62  85
ATOM     85  C   UNL A   1      43.920  28.451  34.897  1.00  0.00     0.064 A 
ATOM     86  C   UNL A   1      43.743  27.267  35.626  1.00  0.00     0.173 A 
ATOM     87  C   UNL A   1      45.232  28.888  34.658  1.00  0.00     0.173 A 
ATOM     88  F   UNL A   1      42.509  26.816  35.893  1.00  0.00    -0.203 F 
ATOM     89  C   UNL A   1      44.838  26.554  36.106  1.00  0.00     0.198 A 
ATOM     90  C   UNL A   1      46.324  28.157  35.113  1.00  0.00     0.198 A 
ATOM     91  F   UNL A   1      45.454  30.011  33.958  1.00  0.00    -0.203 F 
ATOM     92  F   UNL A   1      44.646  25.442  36.830  1.00  0.00    -0.200 F 
ATOM     93  C   UNL A   1      46.127  26.992  35.840  1.00  0.00     0.200 A 
ATOM     94  F   UNL A   1      47.568  28.573  34.840  1.00  0.00    -0.200 F 
ATOM     95  F   UNL A   1      47.179  26.293  36.286  1.00  0.00    -0.200 F 
ENDBRANCH  62  85
ENDBRANCH  36  37
ENDBRANCH  28  31
ENDBRANCH  26  27
ENDBRANCH   1  26
TORSDOF 13
ENDMDL
MODEL 3
REMARK VINA RESULT:     -13.2      0.597      7.271
REMARK SMILES CC(C)Cc1cc2c(cc1Cl)C=C(C(=O)NCCCNC(=O)c1ccc(-c3c4nc(c(-c5c(F)c(F)c(F)c(F)c5F)c5ccc([nH]5)c(-c5c(F)c(F)c(F)c(F)c5F)c5nc(c(-c6c(F)c(F)c(F)c(F)c6F)c6ccc3[nH]6)C=C5)C=C4)cc1)[C@H](C(F)(F)F)O2
REMARK SMILES IDX 18 1 17 2 16 3 14 4 15 5 13 7 5 8 6 9 10 10 7 11 9 12 11 13
REMARK SMILES IDX 8 14 91 15 12 16 86 17 4 18 2 19 1 20 3 21 87 22 88 23 89 24
REMARK SMILES IDX 90 25 19 26 20 27 21 28 22 30 23 31 24 32 85 33 25 34 84 35
REMARK SMILES IDX 26 36 27 37 28 38 78 39 29 40 83 41 77 42 79 43 30 44 82 45
REMARK SMILES IDX 76 46 75 47 31 49 63 50 43 51 62 52 44 53 47 54 61 55 80 56
REMARK SMILES IDX 45 57 46 58 60 60 81 61 48 62 32 63 33 64 41 65 34 66 35 67
REMARK SMILES IDX 39 68 42 69 36 70 37 71 40 72 38 73 64 74 65 75 73 76 66 77
REMARK SMILES IDX 67 78 71 79 74 80 68 81 69 82 72 83 70 84 49 85 50 86 58 87
REMARK SMILES IDX 51 88 52 89 56 90 59 91 53 92 54 93 57 94 55 95
REMARK H PARENT 16 6 20 29 79 48 47 59
REMARK Flexibility Score: inf
ROOT
ATOM      1  C   UNL A   1      31.510  32.257  26.602  1.00  0.00     0.042 C 
ENDROOT
BRANCH   1   2
ATOM      2  C   UNL A   1      31.685  30.774  26.305  1.00  0.00     0.118 C 
BRANCH   2   3
ATOM      3  N   UNL A   1      31.042  30.421  25.052  1.00  0.00    -0.352 N 
ATOM      4  C   UNL A   1      30.954  29.325  24.269  1.00  0.00     0.251 C 
ATOM      5  O   UNL A   1      30.293  29.468  23.236  1.00  0.00    -0.270 OA
ATOM      6  H   UNL A   1      30.539  31.178  24.676  1.00  0.00     0.163 HD
BRANCH   4   7
ATOM      7  C   UNL A   1      31.559  28.000  24.582  1.00  0.00     0.067 C 
ATOM      8  C   UNL A   1      32.081  23.209  26.177  1.00  0.00    -0.025 A 
ATOM      9  C   UNL A   1      32.942  24.188  25.624  1.00  0.00     0.052 A 
ATOM     10  C   UNL A   1      30.755  23.597  26.430  1.00  0.00     0.045 A 
ATOM     11  C   UNL A   1      32.494  25.466  25.295  1.00  0.00     0.128 A 
ATOM     12  C   UNL A   1      30.300  24.871  26.055  1.00  0.00     0.032 A 
ATOM     13  Cl  UNL A   1      29.583  22.637  27.256  1.00  0.00    -0.084 Cl
ATOM     14  C   UNL A   1      31.165  25.805  25.488  1.00  0.00     0.019 A 
ATOM     15  O   UNL A   1      33.432  26.340  24.836  1.00  0.00    -0.475 OA
ATOM     16  C   UNL A   1      30.703  27.139  25.155  1.00  0.00     0.025 C 
ATOM     17  C   UNL A   1      32.970  27.590  24.249  1.00  0.00     0.314 C 
BRANCH   8  18
ATOM     18  C   UNL A   1      32.761  21.883  26.476  1.00  0.00     0.040 C 
BRANCH  18  19
ATOM     19  C   UNL A   1      33.002  20.809  25.402  1.00  0.00    -0.013 C 
ATOM     20  C   UNL A   1      32.147  21.026  24.150  1.00  0.00     0.008 C 
ATOM     21  C   UNL A   1      34.482  20.799  25.000  1.00  0.00     0.008 C 
ENDBRANCH  18  19
ENDBRANCH   8  18
BRANCH  17  22
ATOM     22  C   UNL A   1      33.282  27.563  22.743  1.00  0.00     0.429 C 
ATOM     23  F   UNL A   1      32.181  27.368  21.983  1.00  0.00    -0.167 F 
ATOM     24  F   UNL A   1      33.869  28.699  22.303  1.00  0.00    -0.167 F 
ATOM     25  F   UNL A   1      34.141  26.546  22.466  1.00  0.00    -0.167 F 
ENDBRANCH  17  22
ENDBRANCH   4   7
ENDBRANCH   2   3
ENDBRANCH   1   2
BRANCH   1  26
ATOM     26  C   UNL A   1      32.734  32.866  27.273  1.00  0.00     0.118 C 
BRANCH  26  27
ATOM     27  N   UNL A   1      32.520  34.260  27.635  1.00  0.00    -0.352 N 
ATOM     28  C   UNL A   1      33.018  34.986  28.693  1.00  0.00     0.251 C 
ATOM     29  H   UNL A   1      31.929  34.762  27.028  1.00  0.00     0.163 HD
ATOM     30  O   UNL A   1      32.528  36.071  28.974  1.00  0.00    -0.269 OA
BRANCH  28  31
ATOM     31  C   UNL A   1      34.129  34.441  29.505  1.00  0.00     0.039 A 
ATOM     32  C   UNL A   1      35.446  34.528  29.054  1.00  0.00     0.014 A 
ATOM     33  C   UNL A   1      33.851  33.838  30.734  1.00  0.00     0.014 A 
ATOM     34  C   UNL A   1      36.448  33.838  29.720  1.00  0.00     0.010 A 
ATOM     35  C   UNL A   1      34.886  33.245  31.467  1.00  0.00     0.010 A 
ATOM     36  C   UNL A   1      36.185  33.194  30.940  1.00  0.00    -0.014 A 
BRANCH  36  37
ATOM     37  C   UNL A   1      37.289  32.484  31.637  1.00  0.00     0.031 A 
ATOM     38  C   UNL A   1      38.029  31.358  30.965  1.00  0.00     0.074 A 
ATOM     39  C   UNL A   1      37.667  32.902  32.862  1.00  0.00     0.049 A 
ATOM     40  N   UNL A   1      39.021  30.634  31.421  1.00  0.00    -0.248 NA
ATOM     41  C   UNL A   1      37.598  30.989  29.607  1.00  0.00     0.031 C 
ATOM     42  C   UNL A   1      37.035  33.991  33.609  1.00  0.00     0.029 A 
ATOM     43  N   UNL A   1      38.687  32.488  33.681  1.00  0.00    -0.354 N 
ATOM     44  C   UNL A   1      39.317  29.719  30.420  1.00  0.00     0.074 A 
ATOM     45  C   UNL A   1      38.379  29.951  29.344  1.00  0.00     0.031 C 
ATOM     46  C   UNL A   1      37.719  34.203  34.742  1.00  0.00     0.029 A 
ATOM     47  C   UNL A   1      38.787  33.215  34.841  1.00  0.00     0.049 A 
ATOM     48  H   UNL A   1      39.290  31.741  33.457  1.00  0.00     0.167 HD
ATOM     49  C   UNL A   1      40.294  28.780  30.397  1.00  0.00     0.037 A 
ATOM     50  C   UNL A   1      39.630  33.090  35.883  1.00  0.00     0.037 A 
ATOM     51  C   UNL A   1      41.245  28.575  31.459  1.00  0.00     0.049 A 
ATOM     52  C   UNL A   1      40.672  32.008  35.852  1.00  0.00     0.074 A 
ATOM     53  C   UNL A   1      42.287  27.667  31.517  1.00  0.00     0.029 A 
ATOM     54  N   UNL A   1      41.272  29.291  32.647  1.00  0.00    -0.354 N 
ATOM     55  N   UNL A   1      40.942  31.153  34.897  1.00  0.00    -0.248 NA
ATOM     56  C   UNL A   1      41.516  31.867  37.046  1.00  0.00     0.031 C 
ATOM     57  C   UNL A   1      42.913  27.797  32.760  1.00  0.00     0.029 A 
ATOM     58  C   UNL A   1      42.297  28.825  33.456  1.00  0.00     0.049 A 
ATOM     59  H   UNL A   1      40.655  30.022  32.882  1.00  0.00     0.167 HD
ATOM     60  C   UNL A   1      41.992  30.377  35.368  1.00  0.00     0.074 A 
ATOM     61  C   UNL A   1      42.326  30.880  36.685  1.00  0.00     0.031 C 
ATOM     62  C   UNL A   1      42.616  29.337  34.765  1.00  0.00     0.037 A 
BRANCH  49  63
ATOM     63  C   UNL A   1      40.390  27.891  29.189  1.00  0.00     0.064 A 
ATOM     64  C   UNL A   1      39.655  26.700  29.092  1.00  0.00     0.173 A 
ATOM     65  C   UNL A   1      41.167  28.273  28.085  1.00  0.00     0.173 A 
ATOM     66  F   UNL A   1      38.904  26.283  30.123  1.00  0.00    -0.203 F 
ATOM     67  C   UNL A   1      39.707  25.918  27.940  1.00  0.00     0.198 A 
ATOM     68  C   UNL A   1      41.194  27.504  26.924  1.00  0.00     0.198 A 
ATOM     69  F   UNL A   1      41.884  29.407  28.122  1.00  0.00    -0.203 F 
ATOM     70  F   UNL A   1      39.023  24.766  27.883  1.00  0.00    -0.200 F 
ATOM     71  C   UNL A   1      40.468  26.326  26.855  1.00  0.00     0.200 A 
ATOM     72  F   UNL A   1      41.916  27.908  25.871  1.00  0.00    -0.200 F 
ATOM     73  F   UNL A   1      40.502  25.580  25.741  1.00  0.00    -0.200 F 
ENDBRANCH  49  63
BRANCH  50  74
ATOM     74  C   UNL A   1      39.511  34.018  37.038  1.00  0.00     0.064 A 
ATOM     75  C   UNL A   1      38.753  33.674  38.164  1.00  0.00     0.173 A 
ATOM     76  C   UNL A   1      40.186  35.249  37.057  1.00  0.00     0.173 A 
ATOM     77  F   UNL A   1      38.074  32.517  38.185  1.00  0.00    -0.203 F 
ATOM     78  C   UNL A   1      38.672  34.525  39.264  1.00  0.00     0.198 A 
ATOM     79  C   UNL A   1      40.130  36.084  38.170  1.00  0.00     0.198 A 
ATOM     80  F   UNL A   1      40.929  35.624  36.004  1.00  0.00    -0.203 F 
ATOM     81  F   UNL A   1      37.916  34.185  40.317  1.00  0.00    -0.200 F 
ATOM     82  C   UNL A   1      39.370  35.724  39.270  1.00  0.00     0.200 A 
ATOM     83  F   UNL A   1      40.822  37.232  38.179  1.00  0.00    -0.200 F 
ATOM     84  F   UNL A   1      39.307  36.533  40.338  1.00  0.00    -0.200 F 
ENDBRANCH  50  74
BRANCH  62  85
ATOM     85  C   UNL A   1      43.734  28.671  35.513  1.00  0.00     0.064 A 
ATOM     86  C   UNL A   1      45.063  29.090  35.362  1.00  0.00     0.173 A 
ATOM     87  C   UNL A   1      43.463  27.659  36.446  1.00  0.00     0.173 A 
ATOM     88  F   UNL A   1      45.374  30.044  34.472  1.00  0.00    -0.203 F 
ATOM     89  C   UNL A   1      46.084  28.510  36.110  1.00  0.00     0.198 A 
ATOM     90  C   UNL A   1      44.481  27.104  37.214  1.00  0.00     0.198 A 
ATOM     91  F   UNL A   1      42.206  27.230  36.633  1.00  0.00    -0.203 F 
ATOM     92  F   UNL A   1      47.353  28.901  35.926  1.00  0.00    -0.200 F 
ATOM     93  C   UNL A   1      45.792  27.526  37.043  1.00  0.00     0.200 A 
ATOM     94  F   UNL A   1      44.195  26.165  38.127  1.00  0.00    -0.200 F 
ATOM     95  F   UNL A   1      46.773  26.983  37.776  1.00  0.00    -0.200 F 
ENDBRANCH  62  85
ENDBRANCH  36  37
ENDBRANCH  28  31
ENDBRANCH  26  27
ENDBRANCH   1  26
TORSDOF 13
ENDMDL
