MODEL 1
REMARK VINA RESULT:     -13.9      0.000      0.000
REMARK SMILES COc1ccc2c(c1C)OC(=O)[C@@H](CC(=O)N[C@@H](CC1=c3ccccc3=NC1)C(=O)NCCCNC(=O)c1ccc(-c3c4nc(c(-c5c(F)c(F)c(F)c(F)c5F)c5ccc([nH]5)c(-c5c(F)c(F)c(F)c(F)c5F)c5nc(c(-c6c(F)c(F)c(F)c(F)c6F)c6ccc3[nH]6)C=C5)C=C4)cc1)[C@H]2C
REMARK SMILES IDX 32 1 31 2 29 3 30 4 18 6 17 7 15 8 16 9 14 11 13 12 3 13
REMARK SMILES IDX 4 14 8 15 5 16 7 17 9 18 6 19 10 20 101 21 11 22 102 23
REMARK SMILES IDX 12 24 2 25 1 26 19 27 20 28 21 29 28 30 22 31 26 32 27 33
REMARK SMILES IDX 23 34 25 35 24 36 33 37 34 38 35 39 36 40 37 42 38 43 39 44
REMARK SMILES IDX 100 45 40 46 99 47 41 48 42 49 43 50 93 51 44 52 98 53 92 54
REMARK SMILES IDX 94 55 45 56 97 57 91 58 90 59 46 61 78 62 58 63 77 64 59 65
REMARK SMILES IDX 62 66 76 67 95 68 60 69 61 70 75 72 96 73 63 74 47 75 48 76
REMARK SMILES IDX 56 77 49 78 50 79 54 80 57 81 51 82 52 83 55 84 53 85 79 86
REMARK SMILES IDX 80 87 88 88 81 89 82 90 86 91 89 92 83 93 84 94 87 95 85 96
REMARK SMILES IDX 64 97 65 98 73 99 66 100 67 101 71 102 74 103 68 104 69 105
REMARK SMILES IDX 72 106 70 107
REMARK H PARENT 31 5 17 10 35 41 94 60 62 71
REMARK Flexibility Score: inf
ROOT
ATOM      1  C   UNL A   1      31.304  30.911  26.853  1.00  0.00     0.117 C 
ENDROOT
BRANCH   1   2
ATOM      2  N   UNL A   1      32.504  30.129  26.664  1.00  0.00    -0.354 N 
ATOM      3  C   UNL A   1      32.992  29.569  25.524  1.00  0.00     0.242 C 
ATOM      4  O   UNL A   1      34.167  29.186  25.544  1.00  0.00    -0.273 OA
ATOM      5  H   UNL A   1      33.043  29.980  27.473  1.00  0.00     0.163 HD
BRANCH   3   6
ATOM      6  C   UNL A   1      32.163  29.438  24.226  1.00  0.00     0.175 C 
BRANCH   6   7
ATOM      7  N   UNL A   1      32.927  28.848  23.123  1.00  0.00    -0.344 N 
ATOM      8  C   UNL A   1      32.979  27.582  22.632  1.00  0.00     0.221 C 
ATOM      9  O   UNL A   1      33.770  27.361  21.714  1.00  0.00    -0.275 OA
ATOM     10  H   UNL A   1      33.508  29.487  22.650  1.00  0.00     0.164 HD
BRANCH   8  11
ATOM     11  C   UNL A   1      32.052  26.502  23.147  1.00  0.00     0.116 C 
BRANCH  11  12
ATOM     12  C   UNL A   1      32.755  25.179  23.477  1.00  0.00     0.116 C 
ATOM     13  C   UNL A   1      35.792  21.612  25.182  1.00  0.00     0.125 A 
ATOM     14  C   UNL A   1      36.483  22.815  25.372  1.00  0.00     0.047 A 
ATOM     15  C   UNL A   1      34.451  21.617  24.767  1.00  0.00     0.034 A 
ATOM     16  C   UNL A   1      35.836  24.036  25.193  1.00  0.00     0.012 A 
ATOM     17  C   UNL A   1      33.822  22.860  24.595  1.00  0.00     0.140 A 
ATOM     18  C   UNL A   1      33.698  20.347  24.489  1.00  0.00     0.052 C 
ATOM     19  C   UNL A   1      34.495  24.064  24.809  1.00  0.00    -0.001 A 
ATOM     20  O   UNL A   1      32.450  22.878  24.238  1.00  0.00    -0.426 OA
ATOM     21  C   UNL A   1      33.767  25.363  24.620  1.00  0.00     0.035 C 
ATOM     22  C   UNL A   1      31.807  24.047  23.823  1.00  0.00     0.315 C 
ATOM     23  C   UNL A   1      33.156  25.839  25.940  1.00  0.00     0.014 C 
ATOM     24  O   UNL A   1      30.595  24.087  23.661  1.00  0.00    -0.251 OA
BRANCH  13  25
ATOM     25  O   UNL A   1      36.414  20.398  25.337  1.00  0.00    -0.496 OA
ATOM     26  C   UNL A   1      37.748  20.374  24.831  1.00  0.00     0.278 C 
ENDBRANCH  13  25
ENDBRANCH  11  12
ENDBRANCH   8  11
ENDBRANCH   6   7
BRANCH   6  27
ATOM     27  C   UNL A   1      30.720  28.873  24.396  1.00  0.00     0.068 C 
BRANCH  27  28
ATOM     28  C   UNL A   1      29.625  29.362  23.490  1.00  0.00    -0.037 C 
ATOM     29  C   UNL A   1      29.136  30.593  23.327  1.00  0.00     0.001 A 
ATOM     30  C   UNL A   1      29.003  28.424  22.492  1.00  0.00     0.174 C 
ATOM     31  C   UNL A   1      29.343  31.860  23.950  1.00  0.00     0.010 A 
ATOM     32  C   UNL A   1      28.440  30.481  22.031  1.00  0.00     0.065 A 
ATOM     33  N   UNL A   1      28.310  29.297  21.518  1.00  0.00    -0.280 NA
ATOM     34  C   UNL A   1      29.008  32.975  23.282  1.00  0.00     0.001 A 
ATOM     35  C   UNL A   1      28.079  31.753  21.366  1.00  0.00     0.028 A 
ATOM     36  C   UNL A   1      28.402  32.913  21.964  1.00  0.00     0.002 A 
ENDBRANCH  27  28
ENDBRANCH   6  27
ENDBRANCH   3   6
ENDBRANCH   1   2
BRANCH   1  37
ATOM     37  C   UNL A   1      31.467  32.392  26.598  1.00  0.00     0.042 C 
BRANCH  37  38
ATOM     38  C   UNL A   1      32.711  32.962  27.250  1.00  0.00     0.118 C 
BRANCH  38  39
ATOM     39  N   UNL A   1      32.520  34.327  27.730  1.00  0.00    -0.352 N 
ATOM     40  C   UNL A   1      33.098  35.007  28.777  1.00  0.00     0.251 C 
ATOM     41  H   UNL A   1      31.863  34.852  27.217  1.00  0.00     0.163 HD
ATOM     42  O   UNL A   1      32.651  36.091  29.127  1.00  0.00    -0.269 OA
BRANCH  40  43
ATOM     43  C   UNL A   1      34.249  34.425  29.496  1.00  0.00     0.039 A 
ATOM     44  C   UNL A   1      34.032  33.740  30.696  1.00  0.00     0.014 A 
ATOM     45  C   UNL A   1      35.543  34.582  29.006  1.00  0.00     0.014 A 
ATOM     46  C   UNL A   1      35.110  33.151  31.362  1.00  0.00     0.010 A 
ATOM     47  C   UNL A   1      36.595  33.905  29.603  1.00  0.00     0.010 A 
ATOM     48  C   UNL A   1      36.393  33.204  30.799  1.00  0.00    -0.014 A 
BRANCH  48  49
ATOM     49  C   UNL A   1      37.572  32.609  31.468  1.00  0.00     0.031 A 
ATOM     50  C   UNL A   1      38.308  31.491  30.788  1.00  0.00     0.074 A 
ATOM     51  C   UNL A   1      37.921  33.010  32.704  1.00  0.00     0.049 A 
ATOM     52  N   UNL A   1      39.271  30.732  31.243  1.00  0.00    -0.248 NA
ATOM     53  C   UNL A   1      37.877  31.155  29.419  1.00  0.00     0.031 C 
ATOM     54  C   UNL A   1      37.258  34.065  33.472  1.00  0.00     0.029 A 
ATOM     55  N   UNL A   1      38.916  32.565  33.537  1.00  0.00    -0.354 N 
ATOM     56  C   UNL A   1      39.545  29.825  30.228  1.00  0.00     0.074 A 
ATOM     57  C   UNL A   1      38.604  30.079  29.161  1.00  0.00     0.031 C 
ATOM     58  C   UNL A   1      37.879  34.202  34.655  1.00  0.00     0.029 A 
ATOM     59  C   UNL A   1      38.956  33.220  34.743  1.00  0.00     0.049 A 
ATOM     60  H   UNL A   1      39.540  31.845  33.293  1.00  0.00     0.167 HD
ATOM     61  C   UNL A   1      40.518  28.887  30.178  1.00  0.00     0.037 A 
ATOM     62  C   UNL A   1      39.772  33.040  35.799  1.00  0.00     0.037 A 
ATOM     63  C   UNL A   1      41.470  28.663  31.231  1.00  0.00     0.049 A 
ATOM     64  C   UNL A   1      40.834  31.976  35.726  1.00  0.00     0.074 A 
ATOM     65  C   UNL A   1      42.523  27.767  31.266  1.00  0.00     0.029 A 
ATOM     66  N   UNL A   1      41.487  29.353  32.434  1.00  0.00    -0.354 N 
ATOM     67  N   UNL A   1      41.111  31.147  34.748  1.00  0.00    -0.248 NA
ATOM     68  C   UNL A   1      41.699  31.823  36.905  1.00  0.00     0.031 C 
ATOM     69  C   UNL A   1      43.156  27.890  32.507  1.00  0.00     0.029 A 
ATOM     70  C   UNL A   1      42.525  28.894  33.227  1.00  0.00     0.049 A 
ATOM     71  H   UNL A   1      40.854  30.064  32.687  1.00  0.00     0.167 HD
ATOM     72  C   UNL A   1      42.193  30.393  35.179  1.00  0.00     0.074 A 
ATOM     73  C   UNL A   1      42.532  30.872  36.504  1.00  0.00     0.031 C 
ATOM     74  C   UNL A   1      42.846  29.392  34.539  1.00  0.00     0.037 A 
BRANCH  61  75
ATOM     75  C   UNL A   1      40.611  28.052  28.935  1.00  0.00     0.064 A 
ATOM     76  C   UNL A   1      39.867  26.869  28.794  1.00  0.00     0.173 A 
ATOM     77  C   UNL A   1      41.426  28.447  27.865  1.00  0.00     0.173 A 
ATOM     78  F   UNL A   1      39.087  26.439  29.796  1.00  0.00    -0.203 F 
ATOM     79  C   UNL A   1      39.955  26.101  27.636  1.00  0.00     0.198 A 
ATOM     80  C   UNL A   1      41.489  27.691  26.697  1.00  0.00     0.198 A 
ATOM     81  F   UNL A   1      42.157  29.567  27.950  1.00  0.00    -0.203 F 
ATOM     82  F   UNL A   1      39.274  24.951  27.544  1.00  0.00    -0.200 F 
ATOM     83  C   UNL A   1      40.760  26.517  26.586  1.00  0.00     0.200 A 
ATOM     84  F   UNL A   1      42.258  28.099  25.678  1.00  0.00    -0.200 F 
ATOM     85  F   UNL A   1      40.837  25.781  25.468  1.00  0.00    -0.200 F 
ENDBRANCH  61  75
BRANCH  62  86
ATOM     86  C   UNL A   1      39.643  33.916  36.990  1.00  0.00     0.064 A 
ATOM     87  C   UNL A   1      38.893  33.501  38.100  1.00  0.00     0.173 A 
ATOM     88  C   UNL A   1      40.274  35.166  37.059  1.00  0.00     0.173 A 
ATOM     89  F   UNL A   1      38.255  32.322  38.073  1.00  0.00    -0.203 F 
ATOM     90  C   UNL A   1      38.769  34.309  39.228  1.00  0.00     0.198 A 
ATOM     91  C   UNL A   1      40.170  35.962  38.198  1.00  0.00     0.198 A 
ATOM     92  F   UNL A   1      41.007  35.606  36.027  1.00  0.00    -0.203 F 
ATOM     93  F   UNL A   1      38.019  33.903  40.262  1.00  0.00    -0.200 F 
ATOM     94  C   UNL A   1      39.414  35.536  39.280  1.00  0.00     0.200 A 
ATOM     95  F   UNL A   1      40.805  37.141  38.250  1.00  0.00    -0.200 F 
ATOM     96  F   UNL A   1      39.303  36.308  40.370  1.00  0.00    -0.200 F 
ENDBRANCH  62  86
BRANCH  74  97
ATOM     97  C   UNL A   1      44.006  28.760  35.249  1.00  0.00     0.064 A 
ATOM     98  C   UNL A   1      43.828  27.676  36.120  1.00  0.00     0.173 A 
ATOM     99  C   UNL A   1      45.315  29.198  34.999  1.00  0.00     0.173 A 
ATOM    100  F   UNL A   1      42.594  27.230  36.399  1.00  0.00    -0.203 F 
ATOM    101  C   UNL A   1      44.920  27.062  36.728  1.00  0.00     0.198 A 
ATOM    102  C   UNL A   1      46.406  28.564  35.585  1.00  0.00     0.198 A 
ATOM    103  F   UNL A   1      45.537  30.226  34.166  1.00  0.00    -0.203 F 
ATOM    104  F   UNL A   1      44.725  26.050  37.584  1.00  0.00    -0.200 F 
ATOM    105  C   UNL A   1      46.207  27.500  36.453  1.00  0.00     0.200 A 
ATOM    106  F   UNL A   1      47.650  28.977  35.306  1.00  0.00    -0.200 F 
ATOM    107  F   UNL A   1      47.258  26.897  37.026  1.00  0.00    -0.200 F 
ENDBRANCH  74  97
ENDBRANCH  48  49
ENDBRANCH  40  43
ENDBRANCH  38  39
ENDBRANCH  37  38
ENDBRANCH   1  37
TORSDOF 16
ENDMDL
MODEL 2
REMARK VINA RESULT:     -13.4      2.044      7.481
REMARK SMILES COc1ccc2c(c1C)OC(=O)[C@@H](CC(=O)N[C@@H](CC1=c3ccccc3=NC1)C(=O)NCCCNC(=O)c1ccc(-c3c4nc(c(-c5c(F)c(F)c(F)c(F)c5F)c5ccc([nH]5)c(-c5c(F)c(F)c(F)c(F)c5F)c5nc(c(-c6c(F)c(F)c(F)c(F)c6F)c6ccc3[nH]6)C=C5)C=C4)cc1)[C@H]2C
REMARK SMILES IDX 32 1 31 2 29 3 30 4 18 6 17 7 15 8 16 9 14 11 13 12 3 13
REMARK SMILES IDX 4 14 8 15 5 16 7 17 9 18 6 19 10 20 101 21 11 22 102 23
REMARK SMILES IDX 12 24 2 25 1 26 19 27 20 28 21 29 28 30 22 31 26 32 27 33
REMARK SMILES IDX 23 34 25 35 24 36 33 37 34 38 35 39 36 40 37 42 38 43 39 44
REMARK SMILES IDX 100 45 40 46 99 47 41 48 42 49 43 50 93 51 44 52 98 53 92 54
REMARK SMILES IDX 94 55 45 56 97 57 91 58 90 59 46 61 78 62 58 63 77 64 59 65
REMARK SMILES IDX 62 66 76 67 95 68 60 69 61 70 75 72 96 73 63 74 47 75 48 76
REMARK SMILES IDX 56 77 49 78 50 79 54 80 57 81 51 82 52 83 55 84 53 85 79 86
REMARK SMILES IDX 80 87 88 88 81 89 82 90 86 91 89 92 83 93 84 94 87 95 85 96
REMARK SMILES IDX 64 97 65 98 73 99 66 100 67 101 71 102 74 103 68 104 69 105
REMARK SMILES IDX 72 106 70 107
REMARK H PARENT 31 5 17 10 35 41 94 60 62 71
REMARK Flexibility Score: inf
ROOT
ATOM      1  C   UNL A   1      32.133  27.190  26.476  1.00  0.00     0.117 C 
ENDROOT
BRANCH   1   2
ATOM      2  N   UNL A   1      30.988  26.382  26.822  1.00  0.00    -0.354 N 
ATOM      3  C   UNL A   1      30.125  25.721  26.004  1.00  0.00     0.242 C 
ATOM      4  O   UNL A   1      29.393  24.872  26.526  1.00  0.00    -0.273 OA
ATOM      5  H   UNL A   1      30.807  26.296  27.786  1.00  0.00     0.163 HD
BRANCH   3   6
ATOM      6  C   UNL A   1      30.058  25.959  24.478  1.00  0.00     0.175 C 
BRANCH   6   7
ATOM      7  N   UNL A   1      30.271  24.734  23.703  1.00  0.00    -0.344 N 
ATOM      8  C   UNL A   1      31.137  23.699  23.865  1.00  0.00     0.221 C 
ATOM      9  O   UNL A   1      31.130  22.814  23.008  1.00  0.00    -0.275 OA
ATOM     10  H   UNL A   1      29.678  24.645  22.922  1.00  0.00     0.164 HD
BRANCH   8  11
ATOM     11  C   UNL A   1      32.026  23.604  25.085  1.00  0.00     0.116 C 
BRANCH  11  12
ATOM     12  C   UNL A   1      33.196  22.624  24.933  1.00  0.00     0.116 C 
ATOM     13  C   UNL A   1      37.633  20.349  24.965  1.00  0.00     0.125 A 
ATOM     14  C   UNL A   1      37.904  21.705  25.188  1.00  0.00     0.047 A 
ATOM     15  C   UNL A   1      36.310  19.879  24.956  1.00  0.00     0.034 A 
ATOM     16  C   UNL A   1      36.868  22.600  25.445  1.00  0.00     0.012 A 
ATOM     17  C   UNL A   1      35.284  20.800  25.220  1.00  0.00     0.140 A 
ATOM     18  C   UNL A   1      35.977  18.445  24.656  1.00  0.00     0.052 C 
ATOM     19  C   UNL A   1      35.548  22.148  25.470  1.00  0.00    -0.001 A 
ATOM     20  O   UNL A   1      33.950  20.326  25.276  1.00  0.00    -0.426 OA
ATOM     21  C   UNL A   1      34.411  23.084  25.755  1.00  0.00     0.035 C 
ATOM     22  C   UNL A   1      32.854  21.193  25.300  1.00  0.00     0.315 C 
ATOM     23  C   UNL A   1      34.157  23.185  27.262  1.00  0.00     0.014 C 
ATOM     24  O   UNL A   1      31.719  20.783  25.499  1.00  0.00    -0.251 OA
BRANCH  13  25
ATOM     25  O   UNL A   1      38.637  19.454  24.694  1.00  0.00    -0.496 OA
ATOM     26  C   UNL A   1      39.664  19.433  25.686  1.00  0.00     0.278 C 
ENDBRANCH  13  25
ENDBRANCH  11  12
ENDBRANCH   8  11
ENDBRANCH   6   7
BRANCH   6  27
ATOM     27  C   UNL A   1      28.878  26.850  23.982  1.00  0.00     0.068 C 
BRANCH  27  28
ATOM     28  C   UNL A   1      29.167  28.030  23.097  1.00  0.00    -0.037 C 
ATOM     29  C   UNL A   1      28.517  29.190  22.981  1.00  0.00     0.001 A 
ATOM     30  C   UNL A   1      30.421  28.057  22.267  1.00  0.00     0.174 C 
ATOM     31  C   UNL A   1      27.315  29.741  23.517  1.00  0.00     0.010 A 
ATOM     32  C   UNL A   1      29.523  30.045  22.321  1.00  0.00     0.065 A 
ATOM     33  N   UNL A   1      30.601  29.473  21.878  1.00  0.00    -0.280 NA
ATOM     34  C   UNL A   1      27.161  31.075  23.530  1.00  0.00     0.001 A 
ATOM     35  C   UNL A   1      29.272  31.502  22.354  1.00  0.00     0.028 A 
ATOM     36  C   UNL A   1      28.169  31.958  22.972  1.00  0.00     0.002 A 
ENDBRANCH  27  28
ENDBRANCH   6  27
ENDBRANCH   3   6
ENDBRANCH   1   2
BRANCH   1  37
ATOM     37  C   UNL A   1      31.814  28.627  26.131  1.00  0.00     0.042 C 
BRANCH  37  38
ATOM     38  C   UNL A   1      33.058  29.474  25.953  1.00  0.00     0.118 C 
BRANCH  38  39
ATOM     39  N   UNL A   1      32.845  30.870  26.321  1.00  0.00    -0.352 N 
ATOM     40  C   UNL A   1      33.481  31.668  27.244  1.00  0.00     0.251 C 
ATOM     41  H   UNL A   1      32.123  31.318  25.824  1.00  0.00     0.163 HD
ATOM     42  O   UNL A   1      33.016  32.763  27.532  1.00  0.00    -0.269 OA
BRANCH  40  43
ATOM     43  C   UNL A   1      34.716  31.202  27.905  1.00  0.00     0.039 A 
ATOM     44  C   UNL A   1      35.831  32.045  27.947  1.00  0.00     0.014 A 
ATOM     45  C   UNL A   1      34.787  29.923  28.452  1.00  0.00     0.014 A 
ATOM     46  C   UNL A   1      36.990  31.628  28.606  1.00  0.00     0.010 A 
ATOM     47  C   UNL A   1      35.892  29.551  29.201  1.00  0.00     0.010 A 
ATOM     48  C   UNL A   1      37.013  30.390  29.265  1.00  0.00    -0.014 A 
BRANCH  48  49
ATOM     49  C   UNL A   1      38.218  29.892  29.965  1.00  0.00     0.031 A 
ATOM     50  C   UNL A   1      38.536  30.423  31.334  1.00  0.00     0.074 A 
ATOM     51  C   UNL A   1      39.058  29.043  29.346  1.00  0.00     0.049 A 
ATOM     52  N   UNL A   1      39.602  30.240  32.070  1.00  0.00    -0.248 NA
ATOM     53  C   UNL A   1      37.533  31.313  31.945  1.00  0.00     0.031 C 
ATOM     54  C   UNL A   1      38.866  28.488  28.006  1.00  0.00     0.029 A 
ATOM     55  N   UNL A   1      40.251  28.509  29.761  1.00  0.00    -0.354 N 
ATOM     56  C   UNL A   1      39.403  31.001  33.213  1.00  0.00     0.074 A 
ATOM     57  C   UNL A   1      38.151  31.705  33.048  1.00  0.00     0.031 C 
ATOM     58  C   UNL A   1      39.894  27.672  27.717  1.00  0.00     0.029 A 
ATOM     59  C   UNL A   1      40.834  27.679  28.835  1.00  0.00     0.049 A 
ATOM     60  H   UNL A   1      40.651  28.703  30.639  1.00  0.00     0.167 HD
ATOM     61  C   UNL A   1      40.180  31.081  34.318  1.00  0.00     0.037 A 
ATOM     62  C   UNL A   1      41.998  27.005  28.888  1.00  0.00     0.037 A 
ATOM     63  C   UNL A   1      41.408  30.353  34.487  1.00  0.00     0.049 A 
ATOM     64  C   UNL A   1      42.854  27.125  30.119  1.00  0.00     0.074 A 
ATOM     65  C   UNL A   1      42.252  30.327  35.582  1.00  0.00     0.029 A 
ATOM     66  N   UNL A   1      41.961  29.513  33.531  1.00  0.00    -0.354 N 
ATOM     67  N   UNL A   1      42.641  27.818  31.212  1.00  0.00    -0.248 NA
ATOM     68  C   UNL A   1      44.113  26.367  30.125  1.00  0.00     0.031 C 
ATOM     69  C   UNL A   1      43.335  29.498  35.275  1.00  0.00     0.029 A 
ATOM     70  C   UNL A   1      43.144  28.973  34.006  1.00  0.00     0.049 A 
ATOM     71  H   UNL A   1      41.570  29.329  32.646  1.00  0.00     0.167 HD
ATOM     72  C   UNL A   1      43.722  27.562  32.044  1.00  0.00     0.074 A 
ATOM     73  C   UNL A   1      44.583  26.638  31.336  1.00  0.00     0.031 C 
ATOM     74  C   UNL A   1      43.981  28.050  33.283  1.00  0.00     0.037 A 
BRANCH  61  75
ATOM     75  C   UNL A   1      39.710  31.967  35.433  1.00  0.00     0.064 A 
ATOM     76  C   UNL A   1      40.162  33.291  35.552  1.00  0.00     0.173 A 
ATOM     77  C   UNL A   1      38.780  31.503  36.375  1.00  0.00     0.173 A 
ATOM     78  F   UNL A   1      41.065  33.776  34.688  1.00  0.00    -0.203 F 
ATOM     79  C   UNL A   1      39.719  34.108  36.588  1.00  0.00     0.198 A 
ATOM     80  C   UNL A   1      38.317  32.334  37.392  1.00  0.00     0.198 A 
ATOM     81  F   UNL A   1      38.318  30.246  36.305  1.00  0.00    -0.203 F 
ATOM     82  F   UNL A   1      40.202  35.352  36.710  1.00  0.00    -0.200 F 
ATOM     83  C   UNL A   1      38.791  33.632  37.501  1.00  0.00     0.200 A 
ATOM     84  F   UNL A   1      37.412  31.876  38.268  1.00  0.00    -0.200 F 
ATOM     85  F   UNL A   1      38.358  34.424  38.492  1.00  0.00    -0.200 F 
ENDBRANCH  61  75
BRANCH  62  86
ATOM     86  C   UNL A   1      42.394  26.126  27.759  1.00  0.00     0.064 A 
ATOM     87  C   UNL A   1      41.833  24.848  27.622  1.00  0.00     0.173 A 
ATOM     88  C   UNL A   1      43.317  26.542  26.789  1.00  0.00     0.173 A 
ATOM     89  F   UNL A   1      40.961  24.399  28.536  1.00  0.00    -0.203 F 
ATOM     90  C   UNL A   1      42.189  24.016  26.563  1.00  0.00     0.198 A 
ATOM     91  C   UNL A   1      43.654  25.717  25.717  1.00  0.00     0.198 A 
ATOM     92  F   UNL A   1      43.878  27.756  26.872  1.00  0.00    -0.203 F 
ATOM     93  F   UNL A   1      41.662  22.786  26.474  1.00  0.00    -0.200 F 
ATOM     94  C   UNL A   1      43.093  24.453  25.607  1.00  0.00     0.200 A 
ATOM     95  F   UNL A   1      44.517  26.148  24.787  1.00  0.00    -0.200 F 
ATOM     96  F   UNL A   1      43.427  23.655  24.583  1.00  0.00    -0.200 F 
ENDBRANCH  62  86
BRANCH  74  97
ATOM     97  C   UNL A   1      45.232  27.581  33.962  1.00  0.00     0.064 A 
ATOM     98  C   UNL A   1      46.436  28.292  33.851  1.00  0.00     0.173 A 
ATOM     99  C   UNL A   1      45.208  26.448  34.790  1.00  0.00     0.173 A 
ATOM    100  F   UNL A   1      46.510  29.373  33.061  1.00  0.00    -0.203 F 
ATOM    101  C   UNL A   1      47.576  27.876  34.533  1.00  0.00     0.198 A 
ATOM    102  C   UNL A   1      46.342  26.053  35.494  1.00  0.00     0.198 A 
ATOM    103  F   UNL A   1      44.078  25.740  34.936  1.00  0.00    -0.203 F 
ATOM    104  F   UNL A   1      48.724  28.550  34.385  1.00  0.00    -0.200 F 
ATOM    105  C   UNL A   1      47.525  26.764  35.361  1.00  0.00     0.200 A 
ATOM    106  F   UNL A   1      46.288  24.988  36.305  1.00  0.00    -0.200 F 
ATOM    107  F   UNL A   1      48.619  26.375  36.029  1.00  0.00    -0.200 F 
ENDBRANCH  74  97
ENDBRANCH  48  49
ENDBRANCH  40  43
ENDBRANCH  38  39
ENDBRANCH  37  38
ENDBRANCH   1  37
TORSDOF 16
ENDMDL
MODEL 3
REMARK VINA RESULT:     -13.4      5.282     11.360
REMARK SMILES COc1ccc2c(c1C)OC(=O)[C@@H](CC(=O)N[C@@H](CC1=c3ccccc3=NC1)C(=O)NCCCNC(=O)c1ccc(-c3c4nc(c(-c5c(F)c(F)c(F)c(F)c5F)c5ccc([nH]5)c(-c5c(F)c(F)c(F)c(F)c5F)c5nc(c(-c6c(F)c(F)c(F)c(F)c6F)c6ccc3[nH]6)C=C5)C=C4)cc1)[C@H]2C
REMARK SMILES IDX 32 1 31 2 29 3 30 4 18 6 17 7 15 8 16 9 14 11 13 12 3 13
REMARK SMILES IDX 4 14 8 15 5 16 7 17 9 18 6 19 10 20 101 21 11 22 102 23
REMARK SMILES IDX 12 24 2 25 1 26 19 27 20 28 21 29 28 30 22 31 26 32 27 33
REMARK SMILES IDX 23 34 25 35 24 36 33 37 34 38 35 39 36 40 37 42 38 43 39 44
REMARK SMILES IDX 100 45 40 46 99 47 41 48 42 49 43 50 93 51 44 52 98 53 92 54
REMARK SMILES IDX 94 55 45 56 97 57 91 58 90 59 46 61 78 62 58 63 77 64 59 65
REMARK SMILES IDX 62 66 76 67 95 68 60 69 61 70 75 72 96 73 63 74 47 75 48 76
REMARK SMILES IDX 56 77 49 78 50 79 54 80 57 81 51 82 52 83 55 84 53 85 79 86
REMARK SMILES IDX 80 87 88 88 81 89 82 90 86 91 89 92 83 93 84 94 87 95 85 96
REMARK SMILES IDX 64 97 65 98 73 99 66 100 67 101 71 102 74 103 68 104 69 105
REMARK SMILES IDX 72 106 70 107
REMARK H PARENT 31 5 17 10 35 41 94 60 62 71
REMARK Flexibility Score: inf
ROOT
ATOM      1  C   UNL A   1      36.665  20.490  25.019  1.00  0.00     0.117 C 
ENDROOT
BRANCH   1   2
ATOM      2  N   UNL A   1      36.674  21.623  24.123  1.00  0.00    -0.354 N 
ATOM      3  C   UNL A   1      35.902  22.742  24.147  1.00  0.00     0.242 C 
ATOM      4  O   UNL A   1      36.273  23.697  23.454  1.00  0.00    -0.273 OA
ATOM      5  H   UNL A   1      37.333  21.578  23.393  1.00  0.00     0.163 HD
BRANCH   3   6
ATOM      6  C   UNL A   1      34.632  22.874  25.019  1.00  0.00     0.175 C 
BRANCH   6   7
ATOM      7  N   UNL A   1      34.460  24.221  25.570  1.00  0.00    -0.344 N 
ATOM      8  C   UNL A   1      33.897  25.346  25.054  1.00  0.00     0.221 C 
ATOM      9  O   UNL A   1      33.946  26.370  25.737  1.00  0.00    -0.275 OA
ATOM     10  H   UNL A   1      34.817  24.331  26.481  1.00  0.00     0.164 HD
BRANCH   8  11
ATOM     11  C   UNL A   1      33.179  25.323  23.722  1.00  0.00     0.116 C 
BRANCH  11  12
ATOM     12  C   UNL A   1      31.904  26.174  23.683  1.00  0.00     0.116 C 
ATOM     13  C   UNL A   1      28.377  29.556  22.692  1.00  0.00     0.125 A 
ATOM     14  C   UNL A   1      29.556  30.071  22.140  1.00  0.00     0.047 A 
ATOM     15  C   UNL A   1      28.341  28.250  23.207  1.00  0.00     0.034 A 
ATOM     16  C   UNL A   1      30.701  29.281  22.056  1.00  0.00     0.012 A 
ATOM     17  C   UNL A   1      29.507  27.474  23.109  1.00  0.00     0.140 A 
ATOM     18  C   UNL A   1      27.114  27.687  23.866  1.00  0.00     0.052 C 
ATOM     19  C   UNL A   1      30.678  27.970  22.535  1.00  0.00    -0.001 A 
ATOM     20  O   UNL A   1      29.465  26.133  23.567  1.00  0.00    -0.426 OA
ATOM     21  C   UNL A   1      31.890  27.090  22.448  1.00  0.00     0.035 C 
ATOM     22  C   UNL A   1      30.622  25.366  23.723  1.00  0.00     0.315 C 
ATOM     23  C   UNL A   1      31.928  26.349  21.108  1.00  0.00     0.014 C 
ATOM     24  O   UNL A   1      30.566  24.169  23.975  1.00  0.00    -0.251 OA
BRANCH  13  25
ATOM     25  O   UNL A   1      27.243  30.322  22.799  1.00  0.00    -0.496 OA
ATOM     26  C   UNL A   1      27.401  31.454  23.654  1.00  0.00     0.278 C 
ENDBRANCH  13  25
ENDBRANCH  11  12
ENDBRANCH   8  11
ENDBRANCH   6   7
BRANCH   6  27
ATOM     27  C   UNL A   1      33.336  22.238  24.431  1.00  0.00     0.068 C 
BRANCH  27  28
ATOM     28  C   UNL A   1      32.975  20.826  24.800  1.00  0.00    -0.037 C 
ATOM     29  C   UNL A   1      32.619  19.803  24.020  1.00  0.00     0.001 A 
ATOM     30  C   UNL A   1      33.120  20.362  26.224  1.00  0.00     0.174 C 
ATOM     31  C   UNL A   1      32.349  19.630  22.630  1.00  0.00     0.010 A 
ATOM     32  C   UNL A   1      32.840  18.645  24.907  1.00  0.00     0.065 A 
ATOM     33  N   UNL A   1      33.102  18.884  26.155  1.00  0.00    -0.280 NA
ATOM     34  C   UNL A   1      32.423  18.398  22.102  1.00  0.00     0.001 A 
ATOM     35  C   UNL A   1      32.883  17.316  24.256  1.00  0.00     0.028 A 
ATOM     36  C   UNL A   1      32.727  17.240  22.924  1.00  0.00     0.002 A 
ENDBRANCH  27  28
ENDBRANCH   6  27
ENDBRANCH   3   6
ENDBRANCH   1   2
BRANCH   1  37
ATOM     37  C   UNL A   1      37.887  19.605  24.935  1.00  0.00     0.042 C 
BRANCH  37  38
ATOM     38  C   UNL A   1      39.056  20.147  25.733  1.00  0.00     0.118 C 
BRANCH  38  39
ATOM     39  N   UNL A   1      40.130  19.172  25.890  1.00  0.00    -0.352 N 
ATOM     40  C   UNL A   1      41.481  19.339  26.086  1.00  0.00     0.251 C 
ATOM     41  H   UNL A   1      39.838  18.233  25.848  1.00  0.00     0.163 HD
ATOM     42  O   UNL A   1      42.238  18.381  25.999  1.00  0.00    -0.269 OA
BRANCH  40  43
ATOM     43  C   UNL A   1      42.029  20.678  26.384  1.00  0.00     0.039 A 
ATOM     44  C   UNL A   1      42.295  21.560  25.332  1.00  0.00     0.014 A 
ATOM     45  C   UNL A   1      42.312  21.052  27.696  1.00  0.00     0.014 A 
ATOM     46  C   UNL A   1      42.774  22.843  25.608  1.00  0.00     0.010 A 
ATOM     47  C   UNL A   1      42.679  22.358  27.980  1.00  0.00     0.010 A 
ATOM     48  C   UNL A   1      42.937  23.258  26.937  1.00  0.00    -0.014 A 
BRANCH  48  49
ATOM     49  C   UNL A   1      43.455  24.600  27.286  1.00  0.00     0.031 A 
ATOM     50  C   UNL A   1      42.512  25.618  27.861  1.00  0.00     0.074 A 
ATOM     51  C   UNL A   1      44.731  24.925  27.009  1.00  0.00     0.049 A 
ATOM     52  N   UNL A   1      42.708  26.887  28.106  1.00  0.00    -0.248 NA
ATOM     53  C   UNL A   1      41.148  25.152  28.168  1.00  0.00     0.031 C 
ATOM     54  C   UNL A   1      45.726  24.027  26.422  1.00  0.00     0.029 A 
ATOM     55  N   UNL A   1      45.405  26.107  27.175  1.00  0.00    -0.354 N 
ATOM     56  C   UNL A   1      41.495  27.369  28.577  1.00  0.00     0.074 A 
ATOM     57  C   UNL A   1      40.548  26.279  28.519  1.00  0.00     0.031 C 
ATOM     58  C   UNL A   1      46.891  24.684  26.297  1.00  0.00     0.029 A 
ATOM     59  C   UNL A   1      46.713  26.058  26.759  1.00  0.00     0.049 A 
ATOM     60  H   UNL A   1      44.990  26.915  27.555  1.00  0.00     0.167 HD
ATOM     61  C   UNL A   1      41.205  28.603  29.049  1.00  0.00     0.037 A 
ATOM     62  C   UNL A   1      47.656  27.019  26.751  1.00  0.00     0.037 A 
ATOM     63  C   UNL A   1      42.161  29.673  29.133  1.00  0.00     0.049 A 
ATOM     64  C   UNL A   1      47.303  28.390  27.262  1.00  0.00     0.074 A 
ATOM     65  C   UNL A   1      41.985  30.950  29.633  1.00  0.00     0.029 A 
ATOM     66  N   UNL A   1      43.480  29.583  28.712  1.00  0.00    -0.354 N 
ATOM     67  N   UNL A   1      46.164  28.828  27.741  1.00  0.00    -0.248 NA
ATOM     68  C   UNL A   1      48.370  29.400  27.234  1.00  0.00     0.031 C 
ATOM     69  C   UNL A   1      43.189  31.645  29.482  1.00  0.00     0.029 A 
ATOM     70  C   UNL A   1      44.128  30.787  28.929  1.00  0.00     0.049 A 
ATOM     71  H   UNL A   1      43.894  28.780  28.318  1.00  0.00     0.167 HD
ATOM     72  C   UNL A   1      46.380  30.152  28.093  1.00  0.00     0.074 A 
ATOM     73  C   UNL A   1      47.765  30.444  27.786  1.00  0.00     0.031 C 
ATOM     74  C   UNL A   1      45.510  31.050  28.620  1.00  0.00     0.037 A 
BRANCH  61  75
ATOM     75  C   UNL A   1      39.805  28.851  29.528  1.00  0.00     0.064 A 
ATOM     76  C   UNL A   1      38.817  29.354  28.666  1.00  0.00     0.173 A 
ATOM     77  C   UNL A   1      39.437  28.558  30.849  1.00  0.00     0.173 A 
ATOM     78  F   UNL A   1      39.123  29.666  27.399  1.00  0.00    -0.203 F 
ATOM     79  C   UNL A   1      37.520  29.577  29.118  1.00  0.00     0.198 A 
ATOM     80  C   UNL A   1      38.131  28.756  31.289  1.00  0.00     0.198 A 
ATOM     81  F   UNL A   1      40.344  28.077  31.712  1.00  0.00    -0.203 F 
ATOM     82  F   UNL A   1      36.607  30.104  28.290  1.00  0.00    -0.200 F 
ATOM     83  C   UNL A   1      37.176  29.271  30.425  1.00  0.00     0.200 A 
ATOM     84  F   UNL A   1      37.796  28.449  32.550  1.00  0.00    -0.200 F 
ATOM     85  F   UNL A   1      35.924  29.478  30.856  1.00  0.00    -0.200 F 
ENDBRANCH  61  75
BRANCH  62  86
ATOM     86  C   UNL A   1      49.029  26.703  26.285  1.00  0.00     0.064 A 
ATOM     87  C   UNL A   1      49.398  26.930  24.952  1.00  0.00     0.173 A 
ATOM     88  C   UNL A   1      50.003  26.189  27.153  1.00  0.00     0.173 A 
ATOM     89  F   UNL A   1      48.495  27.402  24.079  1.00  0.00    -0.203 F 
ATOM     90  C   UNL A   1      50.686  26.646  24.502  1.00  0.00     0.198 A 
ATOM     91  C   UNL A   1      51.298  25.928  26.708  1.00  0.00     0.198 A 
ATOM     92  F   UNL A   1      49.702  25.959  28.439  1.00  0.00    -0.203 F 
ATOM     93  F   UNL A   1      51.002  26.843  23.214  1.00  0.00    -0.200 F 
ATOM     94  C   UNL A   1      51.637  26.153  25.381  1.00  0.00     0.200 A 
ATOM     95  F   UNL A   1      52.218  25.464  27.564  1.00  0.00    -0.200 F 
ATOM     96  F   UNL A   1      52.878  25.889  24.950  1.00  0.00    -0.200 F 
ENDBRANCH  62  86
BRANCH  74  97
ATOM     97  C   UNL A   1      46.032  32.423  28.919  1.00  0.00     0.064 A 
ATOM     98  C   UNL A   1      45.929  33.464  27.986  1.00  0.00     0.173 A 
ATOM     99  C   UNL A   1      46.573  32.717  30.180  1.00  0.00     0.173 A 
ATOM    100  F   UNL A   1      45.429  33.228  26.764  1.00  0.00    -0.203 F 
ATOM    101  C   UNL A   1      46.365  34.749  28.299  1.00  0.00     0.198 A 
ATOM    102  C   UNL A   1      46.981  34.009  30.499  1.00  0.00     0.198 A 
ATOM    103  F   UNL A   1      46.683  31.757  31.110  1.00  0.00    -0.203 F 
ATOM    104  F   UNL A   1      46.291  35.721  27.379  1.00  0.00    -0.200 F 
ATOM    105  C   UNL A   1      46.882  35.022  29.556  1.00  0.00     0.200 A 
ATOM    106  F   UNL A   1      47.465  34.275  31.720  1.00  0.00    -0.200 F 
ATOM    107  F   UNL A   1      47.286  36.262  29.861  1.00  0.00    -0.200 F 
ENDBRANCH  74  97
ENDBRANCH  48  49
ENDBRANCH  40  43
ENDBRANCH  38  39
ENDBRANCH  37  38
ENDBRANCH   1  37
TORSDOF 16
ENDMDL
