MODEL 1
REMARK VINA RESULT:     -11.4      0.000      0.000
REMARK SMILES Cc1cc(S[C@@H](C)c2ccc(C(=O)NCCCNC(=O)c3ccc(-c4c5nc(c(-c6c(F)c(F)c(F)c(F)c6F)c6ccc([nH]6)c(-c6c(F)c(F)c(F)c(F)c6F)c6nc(c(-c7c(F)c(F)c(F)c(F)c7F)c7ccc4[nH]7)C=C6)C=C5)cc3)o2)n(C)n1
REMARK SMILES IDX 15 1 14 2 12 3 13 4 11 6 8 7 9 8 84 9 10 10 6 11 7 12 5 13
REMARK SMILES IDX 4 14 1 15 2 16 3 17 87 18 85 19 86 20 16 21 17 22 18 23
REMARK SMILES IDX 19 24 20 26 21 27 22 28 83 29 23 30 82 31 24 32 25 33 26 34
REMARK SMILES IDX 76 35 27 36 81 37 75 38 77 39 28 40 80 41 74 42 73 43 29 45
REMARK SMILES IDX 61 46 41 47 60 48 42 49 45 50 59 51 78 52 43 53 44 54 58 56
REMARK SMILES IDX 79 57 46 58 30 59 31 60 39 61 32 62 33 63 37 64 40 65 34 66
REMARK SMILES IDX 35 67 38 68 36 69 62 70 63 71 71 72 64 73 65 74 69 75 72 76
REMARK SMILES IDX 66 77 67 78 70 79 68 80 47 81 48 82 56 83 49 84 50 85 54 86
REMARK SMILES IDX 57 87 51 88 52 89 55 90 53 91
REMARK H PARENT 14 5 18 25 77 44 45 55
REMARK Flexibility Score: inf
ROOT
ATOM      1  C   UNL A   1      31.095  30.954  25.345  1.00  0.00     0.118 C 
ENDROOT
BRANCH   1   2
ATOM      2  N   UNL A   1      30.066  31.253  24.373  1.00  0.00    -0.349 N 
ATOM      3  C   UNL A   1      29.417  30.454  23.461  1.00  0.00     0.286 C 
ATOM      4  O   UNL A   1      28.534  31.014  22.808  1.00  0.00    -0.266 OA
ATOM      5  H   UNL A   1      29.779  32.194  24.362  1.00  0.00     0.163 HD
BRANCH   3   6
ATOM      6  C   UNL A   1      29.757  29.052  23.293  1.00  0.00     0.191 A 
ATOM      7  C   UNL A   1      31.242  27.439  22.916  1.00  0.00     0.118 A 
ATOM      8  C   UNL A   1      30.027  26.817  23.115  1.00  0.00     0.047 A 
ATOM      9  O   UNL A   1      31.071  28.785  23.010  1.00  0.00    -0.455 OA
ATOM     10  C   UNL A   1      29.085  27.846  23.379  1.00  0.00     0.056 A 
BRANCH   7  11
ATOM     11  C   UNL A   1      32.619  26.905  22.656  1.00  0.00     0.116 C 
ATOM     12  C   UNL A   1      32.674  26.036  21.400  1.00  0.00     0.028 C 
BRANCH  11  13
ATOM     13  S   UNL A   1      33.464  26.136  24.076  1.00  0.00    -0.096 SA
BRANCH  13  14
ATOM     14  C   UNL A   1      33.552  27.320  25.348  1.00  0.00     0.095 A 
ATOM     15  C   UNL A   1      34.671  29.929  27.675  1.00  0.00     0.069 C 
ATOM     16  C   UNL A   1      34.014  28.877  26.865  1.00  0.00     0.061 A 
ATOM     17  C   UNL A   1      34.486  28.274  25.680  1.00  0.00     0.060 A 
ATOM     18  N   UNL A   1      32.833  28.374  27.235  1.00  0.00    -0.178 NA
ATOM     19  N   UNL A   1      32.589  27.402  26.325  1.00  0.00    -0.262 N 
ATOM     20  C   UNL A   1      31.403  26.602  26.523  1.00  0.00     0.175 C 
ENDBRANCH  13  14
ENDBRANCH  11  13
ENDBRANCH   7  11
ENDBRANCH   3   6
ENDBRANCH   1   2
BRANCH   1  21
ATOM     21  C   UNL A   1      31.044  31.919  26.528  1.00  0.00     0.042 C 
BRANCH  21  22
ATOM     22  C   UNL A   1      32.411  32.489  26.906  1.00  0.00     0.118 C 
BRANCH  22  23
ATOM     23  N   UNL A   1      32.325  33.878  27.337  1.00  0.00    -0.352 N 
ATOM     24  C   UNL A   1      32.990  34.546  28.333  1.00  0.00     0.251 C 
ATOM     25  H   UNL A   1      31.684  34.427  26.830  1.00  0.00     0.163 HD
ATOM     26  O   UNL A   1      32.601  35.658  28.676  1.00  0.00    -0.269 OA
BRANCH  24  27
ATOM     27  C   UNL A   1      34.166  33.948  29.002  1.00  0.00     0.039 A 
ATOM     28  C   UNL A   1      35.441  34.401  28.646  1.00  0.00     0.014 A 
ATOM     29  C   UNL A   1      34.032  32.899  29.917  1.00  0.00     0.014 A 
ATOM     30  C   UNL A   1      36.574  33.839  29.239  1.00  0.00     0.010 A 
ATOM     31  C   UNL A   1      35.159  32.378  30.551  1.00  0.00     0.010 A 
ATOM     32  C   UNL A   1      36.440  32.839  30.216  1.00  0.00    -0.014 A 
BRANCH  32  33
ATOM     33  C   UNL A   1      37.631  32.256  30.885  1.00  0.00     0.031 A 
ATOM     34  C   UNL A   1      38.423  31.172  30.207  1.00  0.00     0.074 A 
ATOM     35  C   UNL A   1      37.967  32.664  32.123  1.00  0.00     0.049 A 
ATOM     36  N   UNL A   1      39.427  30.468  30.668  1.00  0.00    -0.248 NA
ATOM     37  C   UNL A   1      38.021  30.819  28.837  1.00  0.00     0.031 C 
ATOM     38  C   UNL A   1      37.264  33.689  32.895  1.00  0.00     0.029 A 
ATOM     39  N   UNL A   1      38.979  32.256  32.957  1.00  0.00    -0.354 N 
ATOM     40  C   UNL A   1      39.769  29.587  29.650  1.00  0.00     0.074 A 
ATOM     41  C   UNL A   1      38.839  29.812  28.564  1.00  0.00     0.031 C 
ATOM     42  C   UNL A   1      37.871  33.839  34.084  1.00  0.00     0.029 A 
ATOM     43  C   UNL A   1      38.982  32.894  34.173  1.00  0.00     0.049 A 
ATOM     44  H   UNL A   1      39.639  31.570  32.707  1.00  0.00     0.167 HD
ATOM     45  C   UNL A   1      40.780  28.686  29.617  1.00  0.00     0.037 A 
ATOM     46  C   UNL A   1      39.783  32.729  35.242  1.00  0.00     0.037 A 
ATOM     47  C   UNL A   1      41.718  28.474  30.688  1.00  0.00     0.049 A 
ATOM     48  C   UNL A   1      40.891  31.712  35.180  1.00  0.00     0.074 A 
ATOM     49  C   UNL A   1      42.783  27.592  30.746  1.00  0.00     0.029 A 
ATOM     50  N   UNL A   1      41.705  29.164  31.892  1.00  0.00    -0.354 N 
ATOM     51  N   UNL A   1      41.219  30.905  34.202  1.00  0.00    -0.248 NA
ATOM     52  C   UNL A   1      41.743  31.588  36.371  1.00  0.00     0.031 C 
ATOM     53  C   UNL A   1      43.402  27.731  31.992  1.00  0.00     0.029 A 
ATOM     54  C   UNL A   1      42.744  28.726  32.697  1.00  0.00     0.049 A 
ATOM     55  H   UNL A   1      41.055  29.861  32.138  1.00  0.00     0.167 HD
ATOM     56  C   UNL A   1      42.331  30.202  34.645  1.00  0.00     0.074 A 
ATOM     57  C   UNL A   1      42.629  30.686  35.976  1.00  0.00     0.031 C 
ATOM     58  C   UNL A   1      43.040  29.238  34.009  1.00  0.00     0.037 A 
BRANCH  45  59
ATOM     59  C   UNL A   1      40.940  27.868  28.370  1.00  0.00     0.064 A 
ATOM     60  C   UNL A   1      41.743  28.310  27.308  1.00  0.00     0.173 A 
ATOM     61  C   UNL A   1      40.331  26.610  28.255  1.00  0.00     0.173 A 
ATOM     62  F   UNL A   1      42.337  29.511  27.365  1.00  0.00    -0.203 F 
ATOM     63  C   UNL A   1      41.916  27.529  26.168  1.00  0.00     0.198 A 
ATOM     64  C   UNL A   1      40.527  25.821  27.124  1.00  0.00     0.198 A 
ATOM     65  F   UNL A   1      39.558  26.139  29.244  1.00  0.00    -0.203 F 
ATOM     66  F   UNL A   1      42.659  27.987  25.151  1.00  0.00    -0.200 F 
ATOM     67  C   UNL A   1      41.315  26.283  26.080  1.00  0.00     0.200 A 
ATOM     68  F   UNL A   1      39.954  24.611  27.044  1.00  0.00    -0.200 F 
ATOM     69  F   UNL A   1      41.491  25.528  24.986  1.00  0.00    -0.200 F 
ENDBRANCH  45  59
BRANCH  46  70
ATOM     70  C   UNL A   1      39.582  33.552  36.462  1.00  0.00     0.064 A 
ATOM     71  C   UNL A   1      38.762  33.103  37.505  1.00  0.00     0.173 A 
ATOM     72  C   UNL A   1      40.180  34.813  36.597  1.00  0.00     0.173 A 
ATOM     73  F   UNL A   1      38.152  31.912  37.411  1.00  0.00    -0.203 F 
ATOM     74  C   UNL A   1      38.525  33.895  38.627  1.00  0.00     0.198 A 
ATOM     75  C   UNL A   1      39.963  35.593  37.731  1.00  0.00     0.198 A 
ATOM     76  F   UNL A   1      40.977  35.287  35.628  1.00  0.00    -0.203 F 
ATOM     77  F   UNL A   1      37.694  33.463  39.586  1.00  0.00    -0.200 F 
ATOM     78  C   UNL A   1      39.128  35.138  38.740  1.00  0.00     0.200 A 
ATOM     79  F   UNL A   1      40.558  36.789  37.842  1.00  0.00    -0.200 F 
ATOM     80  F   UNL A   1      38.897  35.901  39.816  1.00  0.00    -0.200 F 
ENDBRANCH  46  70
BRANCH  58  81
ATOM     81  C   UNL A   1      44.234  28.681  34.724  1.00  0.00     0.064 A 
ATOM     82  C   UNL A   1      44.137  27.543  35.538  1.00  0.00     0.173 A 
ATOM     83  C   UNL A   1      45.495  29.274  34.564  1.00  0.00     0.173 A 
ATOM     84  F   UNL A   1      42.949  26.952  35.734  1.00  0.00    -0.203 F 
ATOM     85  C   UNL A   1      45.259  27.033  36.186  1.00  0.00     0.198 A 
ATOM     86  C   UNL A   1      46.618  28.745  35.194  1.00  0.00     0.198 A 
ATOM     87  F   UNL A   1      45.638  30.361  33.791  1.00  0.00    -0.203 F 
ATOM     88  F   UNL A   1      45.137  25.971  36.994  1.00  0.00    -0.200 F 
ATOM     89  C   UNL A   1      46.498  27.630  36.009  1.00  0.00     0.200 A 
ATOM     90  F   UNL A   1      47.816  29.318  35.015  1.00  0.00    -0.200 F 
ATOM     91  F   UNL A   1      47.576  27.135  36.631  1.00  0.00    -0.200 F 
ENDBRANCH  58  81
ENDBRANCH  32  33
ENDBRANCH  24  27
ENDBRANCH  22  23
ENDBRANCH  21  22
ENDBRANCH   1  21
TORSDOF 13
ENDMDL
MODEL 2
REMARK VINA RESULT:     -11.3      6.062     11.203
REMARK SMILES Cc1cc(S[C@@H](C)c2ccc(C(=O)NCCCNC(=O)c3ccc(-c4c5nc(c(-c6c(F)c(F)c(F)c(F)c6F)c6ccc([nH]6)c(-c6c(F)c(F)c(F)c(F)c6F)c6nc(c(-c7c(F)c(F)c(F)c(F)c7F)c7ccc4[nH]7)C=C6)C=C5)cc3)o2)n(C)n1
REMARK SMILES IDX 15 1 14 2 12 3 13 4 11 6 8 7 9 8 84 9 10 10 6 11 7 12 5 13
REMARK SMILES IDX 4 14 1 15 2 16 3 17 87 18 85 19 86 20 16 21 17 22 18 23
REMARK SMILES IDX 19 24 20 26 21 27 22 28 83 29 23 30 82 31 24 32 25 33 26 34
REMARK SMILES IDX 76 35 27 36 81 37 75 38 77 39 28 40 80 41 74 42 73 43 29 45
REMARK SMILES IDX 61 46 41 47 60 48 42 49 45 50 59 51 78 52 43 53 44 54 58 56
REMARK SMILES IDX 79 57 46 58 30 59 31 60 39 61 32 62 33 63 37 64 40 65 34 66
REMARK SMILES IDX 35 67 38 68 36 69 62 70 63 71 71 72 64 73 65 74 69 75 72 76
REMARK SMILES IDX 66 77 67 78 70 79 68 80 47 81 48 82 56 83 49 84 50 85 54 86
REMARK SMILES IDX 57 87 51 88 52 89 55 90 53 91
REMARK H PARENT 14 5 18 25 77 44 45 55
REMARK Flexibility Score: inf
ROOT
ATOM      1  C   UNL A   1      36.484  19.919  25.000  1.00  0.00     0.118 C 
ENDROOT
BRANCH   1   2
ATOM      2  N   UNL A   1      35.658  18.733  24.925  1.00  0.00    -0.349 N 
ATOM      3  C   UNL A   1      34.312  18.576  24.692  1.00  0.00     0.286 C 
ATOM      4  O   UNL A   1      33.923  17.408  24.632  1.00  0.00    -0.266 OA
ATOM      5  H   UNL A   1      36.146  17.890  25.062  1.00  0.00     0.163 HD
BRANCH   3   6
ATOM      6  C   UNL A   1      33.426  19.714  24.530  1.00  0.00     0.191 A 
ATOM      7  C   UNL A   1      32.548  21.621  25.268  1.00  0.00     0.118 A 
ATOM      8  C   UNL A   1      32.010  21.397  24.017  1.00  0.00     0.047 A 
ATOM      9  O   UNL A   1      33.388  20.598  25.577  1.00  0.00    -0.455 OA
ATOM     10  C   UNL A   1      32.589  20.192  23.538  1.00  0.00     0.056 A 
BRANCH   7  11
ATOM     11  C   UNL A   1      32.382  22.740  26.253  1.00  0.00     0.116 C 
ATOM     12  C   UNL A   1      30.918  22.965  26.629  1.00  0.00     0.028 C 
BRANCH  11  13
ATOM     13  S   UNL A   1      33.251  24.293  25.857  1.00  0.00    -0.096 SA
BRANCH  13  14
ATOM     14  C   UNL A   1      34.937  23.921  25.643  1.00  0.00     0.095 A 
ATOM     15  C   UNL A   1      38.548  23.487  26.131  1.00  0.00     0.069 C 
ATOM     16  C   UNL A   1      37.132  23.583  25.708  1.00  0.00     0.061 A 
ATOM     17  C   UNL A   1      36.010  23.896  26.503  1.00  0.00     0.060 A 
ATOM     18  N   UNL A   1      36.788  23.373  24.435  1.00  0.00    -0.178 NA
ATOM     19  N   UNL A   1      35.458  23.623  24.407  1.00  0.00    -0.262 N 
ATOM     20  C   UNL A   1      34.807  23.566  23.119  1.00  0.00     0.175 C 
ENDBRANCH  13  14
ENDBRANCH  11  13
ENDBRANCH   7  11
ENDBRANCH   3   6
ENDBRANCH   1   2
BRANCH   1  21
ATOM     21  C   UNL A   1      37.943  19.607  24.673  1.00  0.00     0.042 C 
BRANCH  21  22
ATOM     22  C   UNL A   1      38.921  20.075  25.751  1.00  0.00     0.118 C 
BRANCH  22  23
ATOM     23  N   UNL A   1      40.033  19.149  25.921  1.00  0.00    -0.352 N 
ATOM     24  C   UNL A   1      41.371  19.387  26.105  1.00  0.00     0.251 C 
ATOM     25  H   UNL A   1      39.783  18.197  25.900  1.00  0.00     0.163 HD
ATOM     26  O   UNL A   1      42.167  18.459  25.998  1.00  0.00    -0.269 OA
BRANCH  24  27
ATOM     27  C   UNL A   1      41.871  20.742  26.426  1.00  0.00     0.039 A 
ATOM     28  C   UNL A   1      42.099  21.637  25.375  1.00  0.00     0.014 A 
ATOM     29  C   UNL A   1      42.189  21.112  27.736  1.00  0.00     0.014 A 
ATOM     30  C   UNL A   1      42.598  22.915  25.642  1.00  0.00     0.010 A 
ATOM     31  C   UNL A   1      42.632  22.406  28.007  1.00  0.00     0.010 A 
ATOM     32  C   UNL A   1      42.845  23.318  26.963  1.00  0.00    -0.014 A 
BRANCH  32  33
ATOM     33  C   UNL A   1      43.339  24.684  27.269  1.00  0.00     0.031 A 
ATOM     34  C   UNL A   1      42.407  25.714  27.845  1.00  0.00     0.074 A 
ATOM     35  C   UNL A   1      44.612  25.013  26.981  1.00  0.00     0.049 A 
ATOM     36  N   UNL A   1      42.620  26.984  28.084  1.00  0.00    -0.248 NA
ATOM     37  C   UNL A   1      41.047  25.261  28.177  1.00  0.00     0.031 C 
ATOM     38  C   UNL A   1      45.607  24.112  26.398  1.00  0.00     0.029 A 
ATOM     39  N   UNL A   1      45.285  26.202  27.126  1.00  0.00    -0.354 N 
ATOM     40  C   UNL A   1      41.423  27.480  28.585  1.00  0.00     0.074 A 
ATOM     41  C   UNL A   1      40.474  26.388  28.575  1.00  0.00     0.031 C 
ATOM     42  C   UNL A   1      46.766  24.774  26.245  1.00  0.00     0.029 A 
ATOM     43  C   UNL A   1      46.585  26.156  26.684  1.00  0.00     0.049 A 
ATOM     44  H   UNL A   1      44.875  27.010  27.509  1.00  0.00     0.167 HD
ATOM     45  C   UNL A   1      41.148  28.729  29.033  1.00  0.00     0.037 A 
ATOM     46  C   UNL A   1      47.521  27.122  26.629  1.00  0.00     0.037 A 
ATOM     47  C   UNL A   1      42.096  29.811  29.062  1.00  0.00     0.049 A 
ATOM     48  C   UNL A   1      47.183  28.503  27.124  1.00  0.00     0.074 A 
ATOM     49  C   UNL A   1      41.915  31.110  29.506  1.00  0.00     0.029 A 
ATOM     50  N   UNL A   1      43.412  29.715  28.634  1.00  0.00    -0.354 N 
ATOM     51  N   UNL A   1      46.056  28.951  27.619  1.00  0.00    -0.248 NA
ATOM     52  C   UNL A   1      48.250  29.511  27.053  1.00  0.00     0.031 C 
ATOM     53  C   UNL A   1      43.115  31.806  29.328  1.00  0.00     0.029 A 
ATOM     54  C   UNL A   1      44.054  30.931  28.805  1.00  0.00     0.049 A 
ATOM     55  H   UNL A   1      43.829  28.903  28.264  1.00  0.00     0.167 HD
ATOM     56  C   UNL A   1      46.287  30.279  27.949  1.00  0.00     0.074 A 
ATOM     57  C   UNL A   1      47.665  30.562  27.608  1.00  0.00     0.031 C 
ATOM     58  C   UNL A   1      45.433  31.186  28.483  1.00  0.00     0.037 A 
BRANCH  45  59
ATOM     59  C   UNL A   1      39.764  28.992  29.549  1.00  0.00     0.064 A 
ATOM     60  C   UNL A   1      38.744  29.440  28.697  1.00  0.00     0.173 A 
ATOM     61  C   UNL A   1      39.439  28.744  30.890  1.00  0.00     0.173 A 
ATOM     62  F   UNL A   1      39.007  29.702  27.408  1.00  0.00    -0.203 F 
ATOM     63  C   UNL A   1      37.452  29.647  29.174  1.00  0.00     0.198 A 
ATOM     64  C   UNL A   1      38.140  28.929  31.358  1.00  0.00     0.198 A 
ATOM     65  F   UNL A   1      40.377  28.310  31.745  1.00  0.00    -0.203 F 
ATOM     66  F   UNL A   1      36.501  30.109  28.349  1.00  0.00    -0.200 F 
ATOM     67  C   UNL A   1      37.150  29.384  30.501  1.00  0.00     0.200 A 
ATOM     68  F   UNL A   1      37.846  28.664  32.639  1.00  0.00    -0.200 F 
ATOM     69  F   UNL A   1      35.903  29.575  30.956  1.00  0.00    -0.200 F 
ENDBRANCH  45  59
BRANCH  46  70
ATOM     70  C   UNL A   1      48.876  26.821  26.100  1.00  0.00     0.064 A 
ATOM     71  C   UNL A   1      49.186  27.040  24.751  1.00  0.00     0.173 A 
ATOM     72  C   UNL A   1      49.877  26.284  26.922  1.00  0.00     0.173 A 
ATOM     73  F   UNL A   1      48.254  27.532  23.923  1.00  0.00    -0.203 F 
ATOM     74  C   UNL A   1      50.437  26.707  24.237  1.00  0.00     0.198 A 
ATOM     75  C   UNL A   1      51.137  25.976  26.412  1.00  0.00     0.198 A 
ATOM     76  F   UNL A   1      49.632  26.059  28.221  1.00  0.00    -0.203 F 
ATOM     77  F   UNL A   1      50.690  26.877  22.932  1.00  0.00    -0.200 F 
ATOM     78  C   UNL A   1      51.412  26.178  25.068  1.00  0.00     0.200 A 
ATOM     79  F   UNL A   1      52.081  25.477  27.222  1.00  0.00    -0.200 F 
ATOM     80  F   UNL A   1      52.614  25.855  24.573  1.00  0.00    -0.200 F 
ENDBRANCH  46  70
BRANCH  58  81
ATOM     81  C   UNL A   1      45.978  32.551  28.776  1.00  0.00     0.064 A 
ATOM     82  C   UNL A   1      45.907  33.588  27.835  1.00  0.00     0.173 A 
ATOM     83  C   UNL A   1      46.548  32.832  30.027  1.00  0.00     0.173 A 
ATOM     84  F   UNL A   1      45.386  33.362  26.620  1.00  0.00    -0.203 F 
ATOM     85  C   UNL A   1      46.410  34.853  28.128  1.00  0.00     0.198 A 
ATOM     86  C   UNL A   1      47.026  34.105  30.325  1.00  0.00     0.198 A 
ATOM     87  F   UNL A   1      46.634  31.873  30.961  1.00  0.00    -0.203 F 
ATOM     88  F   UNL A   1      46.371  35.818  27.199  1.00  0.00    -0.200 F 
ATOM     89  C   UNL A   1      46.962  35.112  29.374  1.00  0.00     0.200 A 
ATOM     90  F   UNL A   1      47.552  34.355  31.531  1.00  0.00    -0.200 F 
ATOM     91  F   UNL A   1      47.442  36.330  29.655  1.00  0.00    -0.200 F 
ENDBRANCH  58  81
ENDBRANCH  32  33
ENDBRANCH  24  27
ENDBRANCH  22  23
ENDBRANCH  21  22
ENDBRANCH   1  21
TORSDOF 13
ENDMDL
MODEL 3
REMARK VINA RESULT:     -11.3      2.038      8.299
REMARK SMILES Cc1cc(S[C@@H](C)c2ccc(C(=O)NCCCNC(=O)c3ccc(-c4c5nc(c(-c6c(F)c(F)c(F)c(F)c6F)c6ccc([nH]6)c(-c6c(F)c(F)c(F)c(F)c6F)c6nc(c(-c7c(F)c(F)c(F)c(F)c7F)c7ccc4[nH]7)C=C6)C=C5)cc3)o2)n(C)n1
REMARK SMILES IDX 15 1 14 2 12 3 13 4 11 6 8 7 9 8 84 9 10 10 6 11 7 12 5 13
REMARK SMILES IDX 4 14 1 15 2 16 3 17 87 18 85 19 86 20 16 21 17 22 18 23
REMARK SMILES IDX 19 24 20 26 21 27 22 28 83 29 23 30 82 31 24 32 25 33 26 34
REMARK SMILES IDX 76 35 27 36 81 37 75 38 77 39 28 40 80 41 74 42 73 43 29 45
REMARK SMILES IDX 61 46 41 47 60 48 42 49 45 50 59 51 78 52 43 53 44 54 58 56
REMARK SMILES IDX 79 57 46 58 30 59 31 60 39 61 32 62 33 63 37 64 40 65 34 66
REMARK SMILES IDX 35 67 38 68 36 69 62 70 63 71 71 72 64 73 65 74 69 75 72 76
REMARK SMILES IDX 66 77 67 78 70 79 68 80 47 81 48 82 56 83 49 84 50 85 54 86
REMARK SMILES IDX 57 87 51 88 52 89 55 90 53 91
REMARK H PARENT 14 5 18 25 77 44 45 55
REMARK Flexibility Score: inf
ROOT
ATOM      1  C   UNL A   1      33.513  33.826  28.910  1.00  0.00     0.118 C 
ENDROOT
BRANCH   1   2
ATOM      2  N   UNL A   1      34.938  33.852  28.657  1.00  0.00    -0.349 N 
ATOM      3  C   UNL A   1      35.798  32.880  28.205  1.00  0.00     0.286 C 
ATOM      4  O   UNL A   1      36.964  33.248  28.038  1.00  0.00    -0.266 OA
ATOM      5  H   UNL A   1      35.365  34.719  28.839  1.00  0.00     0.163 HD
BRANCH   3   6
ATOM      6  C   UNL A   1      35.353  31.523  27.947  1.00  0.00     0.191 A 
ATOM      7  C   UNL A   1      33.912  30.082  27.055  1.00  0.00     0.118 A 
ATOM      8  C   UNL A   1      34.904  29.330  27.649  1.00  0.00     0.047 A 
ATOM      9  O   UNL A   1      34.180  31.401  27.250  1.00  0.00    -0.455 OA
ATOM     10  C   UNL A   1      35.836  30.251  28.197  1.00  0.00     0.056 A 
BRANCH   7  11
ATOM     11  C   UNL A   1      32.692  29.703  26.270  1.00  0.00     0.116 C 
ATOM     12  C   UNL A   1      31.766  28.773  27.054  1.00  0.00     0.028 C 
BRANCH  11  13
ATOM     13  S   UNL A   1      32.980  29.128  24.564  1.00  0.00    -0.096 SA
BRANCH  13  14
ATOM     14  C   UNL A   1      31.437  29.023  23.769  1.00  0.00     0.095 A 
ATOM     15  C   UNL A   1      27.930  29.480  22.787  1.00  0.00     0.069 C 
ATOM     16  C   UNL A   1      29.352  29.127  23.008  1.00  0.00     0.061 A 
ATOM     17  C   UNL A   1      30.274  29.751  23.874  1.00  0.00     0.060 A 
ATOM     18  N   UNL A   1      29.904  28.099  22.359  1.00  0.00    -0.178 NA
ATOM     19  N   UNL A   1      31.158  28.027  22.864  1.00  0.00    -0.262 N 
ATOM     20  C   UNL A   1      31.985  26.932  22.411  1.00  0.00     0.175 C 
ENDBRANCH  13  14
ENDBRANCH  11  13
ENDBRANCH   7  11
ENDBRANCH   3   6
ENDBRANCH   1   2
BRANCH   1  21
ATOM     21  C   UNL A   1      32.867  35.178  28.617  1.00  0.00     0.042 C 
BRANCH  21  22
ATOM     22  C   UNL A   1      33.359  36.297  29.535  1.00  0.00     0.118 C 
BRANCH  22  23
ATOM     23  N   UNL A   1      32.513  36.451  30.712  1.00  0.00    -0.352 N 
ATOM     24  C   UNL A   1      32.580  35.850  31.943  1.00  0.00     0.251 C 
ATOM     25  H   UNL A   1      31.773  37.091  30.606  1.00  0.00     0.163 HD
ATOM     26  O   UNL A   1      31.631  35.953  32.716  1.00  0.00    -0.269 OA
BRANCH  24  27
ATOM     27  C   UNL A   1      33.772  35.077  32.354  1.00  0.00     0.039 A 
ATOM     28  C   UNL A   1      35.036  35.648  32.171  1.00  0.00     0.014 A 
ATOM     29  C   UNL A   1      33.663  33.772  32.845  1.00  0.00     0.014 A 
ATOM     30  C   UNL A   1      36.184  34.933  32.523  1.00  0.00     0.010 A 
ATOM     31  C   UNL A   1      34.805  33.082  33.250  1.00  0.00     0.010 A 
ATOM     32  C   UNL A   1      36.076  33.654  33.089  1.00  0.00    -0.014 A 
BRANCH  32  33
ATOM     33  C   UNL A   1      37.282  32.894  33.505  1.00  0.00     0.031 A 
ATOM     34  C   UNL A   1      37.954  33.199  34.815  1.00  0.00     0.074 A 
ATOM     35  C   UNL A   1      37.804  31.966  32.679  1.00  0.00     0.049 A 
ATOM     36  N   UNL A   1      39.069  32.720  35.306  1.00  0.00    -0.248 NA
ATOM     37  C   UNL A   1      37.293  34.190  35.680  1.00  0.00     0.031 C 
ATOM     38  C   UNL A   1      37.259  31.596  31.372  1.00  0.00     0.029 A 
ATOM     39  N   UNL A   1      38.917  31.174  32.813  1.00  0.00    -0.354 N 
ATOM     40  C   UNL A   1      39.247  33.355  36.529  1.00  0.00     0.074 A 
ATOM     41  C   UNL A   1      38.150  34.287  36.686  1.00  0.00     0.031 C 
ATOM     42  C   UNL A   1      38.033  30.642  30.827  1.00  0.00     0.029 A 
ATOM     43  C   UNL A   1      39.146  30.360  31.730  1.00  0.00     0.049 A 
ATOM     44  H   UNL A   1      39.497  31.188  33.608  1.00  0.00     0.167 HD
ATOM     45  C   UNL A   1      40.225  33.163  37.447  1.00  0.00     0.037 A 
ATOM     46  C   UNL A   1      40.148  29.493  31.488  1.00  0.00     0.037 A 
ATOM     47  C   UNL A   1      41.306  32.224  37.300  1.00  0.00     0.049 A 
ATOM     48  C   UNL A   1      41.227  29.309  32.521  1.00  0.00     0.074 A 
ATOM     49  C   UNL A   1      42.340  31.950  38.178  1.00  0.00     0.029 A 
ATOM     50  N   UNL A   1      41.485  31.397  36.201  1.00  0.00    -0.354 N 
ATOM     51  N   UNL A   1      41.368  29.897  33.683  1.00  0.00    -0.248 NA
ATOM     52  C   UNL A   1      42.284  28.338  32.208  1.00  0.00     0.031 C 
ATOM     53  C   UNL A   1      43.158  30.972  37.603  1.00  0.00     0.029 A 
ATOM     54  C   UNL A   1      42.612  30.612  36.380  1.00  0.00     0.049 A 
ATOM     55  H   UNL A   1      40.898  31.370  35.411  1.00  0.00     0.167 HD
ATOM     56  C   UNL A   1      42.507  29.345  34.252  1.00  0.00     0.074 A 
ATOM     57  C   UNL A   1      43.014  28.367  33.313  1.00  0.00     0.031 C 
ATOM     58  C   UNL A   1      43.086  29.626  35.446  1.00  0.00     0.037 A 
BRANCH  45  59
ATOM     59  C   UNL A   1      40.164  33.975  38.706  1.00  0.00     0.064 A 
ATOM     60  C   UNL A   1      39.460  33.521  39.831  1.00  0.00     0.173 A 
ATOM     61  C   UNL A   1      40.857  35.191  38.810  1.00  0.00     0.173 A 
ATOM     62  F   UNL A   1      38.773  32.371  39.778  1.00  0.00    -0.203 F 
ATOM     63  C   UNL A   1      39.438  34.263  41.009  1.00  0.00     0.198 A 
ATOM     64  C   UNL A   1      40.853  35.917  39.998  1.00  0.00     0.198 A 
ATOM     65  F   UNL A   1      41.549  35.667  37.765  1.00  0.00    -0.203 F 
ATOM     66  F   UNL A   1      38.730  33.827  42.061  1.00  0.00    -0.200 F 
ATOM     67  C   UNL A   1      40.140  35.455  41.095  1.00  0.00     0.200 A 
ATOM     68  F   UNL A   1      41.541  37.065  40.083  1.00  0.00    -0.200 F 
ATOM     69  F   UNL A   1      40.125  36.163  42.233  1.00  0.00    -0.200 F 
ENDBRANCH  45  59
BRANCH  46  70
ATOM     70  C   UNL A   1      40.176  28.717  30.222  1.00  0.00     0.064 A 
ATOM     71  C   UNL A   1      40.837  29.212  29.090  1.00  0.00     0.173 A 
ATOM     72  C   UNL A   1      39.520  27.484  30.108  1.00  0.00     0.173 A 
ATOM     73  F   UNL A   1      41.460  30.398  29.145  1.00  0.00    -0.203 F 
ATOM     74  C   UNL A   1      40.819  28.516  27.883  1.00  0.00     0.198 A 
ATOM     75  C   UNL A   1      39.525  26.775  28.908  1.00  0.00     0.198 A 
ATOM     76  F   UNL A   1      38.875  26.964  31.163  1.00  0.00    -0.203 F 
ATOM     77  F   UNL A   1      41.415  29.037  26.802  1.00  0.00    -0.200 F 
ATOM     78  C   UNL A   1      40.165  27.297  27.794  1.00  0.00     0.200 A 
ATOM     79  F   UNL A   1      38.902  25.590  28.829  1.00  0.00    -0.200 F 
ATOM     80  F   UNL A   1      40.145  26.629  26.633  1.00  0.00    -0.200 F 
ENDBRANCH  46  70
BRANCH  58  81
ATOM     81  C   UNL A   1      44.300  28.832  35.822  1.00  0.00     0.064 A 
ATOM     82  C   UNL A   1      44.200  27.637  36.549  1.00  0.00     0.173 A 
ATOM     83  C   UNL A   1      45.575  29.256  35.419  1.00  0.00     0.173 A 
ATOM     84  F   UNL A   1      43.004  27.201  36.970  1.00  0.00    -0.203 F 
ATOM     85  C   UNL A   1      45.338  26.907  36.881  1.00  0.00     0.198 A 
ATOM     86  C   UNL A   1      46.708  28.509  35.732  1.00  0.00     0.198 A 
ATOM     87  F   UNL A   1      45.721  30.390  34.718  1.00  0.00    -0.203 F 
ATOM     88  F   UNL A   1      45.225  25.791  37.614  1.00  0.00    -0.200 F 
ATOM     89  C   UNL A   1      46.589  27.339  36.467  1.00  0.00     0.200 A 
ATOM     90  F   UNL A   1      47.915  28.924  35.324  1.00  0.00    -0.200 F 
ATOM     91  F   UNL A   1      47.683  26.633  36.784  1.00  0.00    -0.200 F 
ENDBRANCH  58  81
ENDBRANCH  32  33
ENDBRANCH  24  27
ENDBRANCH  22  23
ENDBRANCH  21  22
ENDBRANCH   1  21
TORSDOF 13
ENDMDL
