MODEL 1
REMARK VINA RESULT:     -10.4      0.000      0.000
REMARK SMILES C=CCN(CC(=O)NCCCNC(=O)c1ccc(-c2c3nc(c(-c4c(F)c(F)c(F)c(F)c4F)c4ccc([nH]4)c(-c4c(F)c(F)c(F)c(F)c4F)c4nc(c(-c5c(F)c(F)c(F)c(F)c5F)c5ccc2[nH]5)C=C4)C=C3)cc1)C(=O)c1cn(C2C[NH2+]C2)nn1
REMARK SMILES IDX 9 1 8 2 6 3 7 4 5 6 4 7 3 8 2 9 1 10 78 11 79 12 80 13 81 14
REMARK SMILES IDX 88 15 82 16 87 17 83 18 84 19 86 20 85 21 10 24 11 25 12 26
REMARK SMILES IDX 13 27 14 29 15 30 16 31 77 32 17 33 76 34 18 35 19 36 20 37
REMARK SMILES IDX 70 38 21 39 75 40 69 41 71 42 22 43 74 44 68 45 67 46 23 48
REMARK SMILES IDX 55 49 35 50 54 51 36 52 39 53 53 54 72 55 37 56 38 57 52 59
REMARK SMILES IDX 73 60 40 61 24 62 25 63 33 64 26 65 27 66 31 67 34 68 28 69
REMARK SMILES IDX 29 70 32 71 30 72 56 73 57 74 65 75 58 76 59 77 63 78 66 79
REMARK SMILES IDX 60 80 61 81 64 82 62 83 41 84 42 85 50 86 43 87 44 88 48 89
REMARK SMILES IDX 51 90 45 91 46 92 49 93 47 94
REMARK H PARENT 8 5 85 22 85 23 12 28 71 47 39 58
REMARK Flexibility Score: inf
ROOT
ATOM      1  C   UNL A   1      42.719  22.429  26.480  1.00  0.00     0.117 C 
ENDROOT
BRANCH   1   2
ATOM      2  N   UNL A   1      43.631  22.556  27.600  1.00  0.00    -0.354 N 
ATOM      3  C   UNL A   1      44.471  23.572  27.948  1.00  0.00     0.239 C 
ATOM      4  O   UNL A   1      44.907  23.561  29.104  1.00  0.00    -0.273 OA
ATOM      5  H   UNL A   1      43.646  21.783  28.209  1.00  0.00     0.163 HD
BRANCH   3   6
ATOM      6  C   UNL A   1      44.785  24.753  27.013  1.00  0.00     0.220 C 
BRANCH   6   7
ATOM      7  N   UNL A   1      46.108  24.722  26.381  1.00  0.00    -0.324 N 
BRANCH   7   8
ATOM      8  C   UNL A   1      47.280  24.870  27.232  1.00  0.00     0.147 C 
BRANCH   8   9
ATOM      9  C   UNL A   1      47.306  26.250  27.818  1.00  0.00    -0.014 C 
ATOM     10  C   UNL A   1      47.428  27.365  27.084  1.00  0.00     0.006 C 
ENDBRANCH   8   9
ENDBRANCH   7   8
BRANCH   7  11
ATOM     11  C   UNL A   1      46.315  24.347  25.045  1.00  0.00     0.276 C 
ATOM     12  O   UNL A   1      46.878  25.088  24.238  1.00  0.00    -0.267 OA
BRANCH  11  13
ATOM     13  C   UNL A   1      45.808  23.053  24.621  1.00  0.00     0.170 A 
ATOM     14  C   UNL A   1      46.119  21.808  25.128  1.00  0.00     0.145 A 
ATOM     15  N   UNL A   1      44.882  22.906  23.619  1.00  0.00    -0.125 NA
ATOM     16  N   UNL A   1      45.384  20.942  24.366  1.00  0.00    -0.237 N 
ATOM     17  N   UNL A   1      44.628  21.612  23.475  1.00  0.00    -0.066 NA
BRANCH  16  18
ATOM     18  C   UNL A   1      45.365  19.511  24.424  1.00  0.00     0.218 C 
ATOM     19  C   UNL A   1      46.356  18.938  25.463  1.00  0.00     0.294 C 
ATOM     20  C   UNL A   1      44.293  18.903  25.352  1.00  0.00     0.294 C 
ATOM     21  N   UNL A   1      45.314  17.971  25.879  1.00  0.00    -0.342 N 
ATOM     22  H   UNL A   1      45.262  17.815  26.886  1.00  0.00     0.346 HD
ATOM     23  H   UNL A   1      45.346  16.998  25.578  1.00  0.00     0.346 HD
ENDBRANCH  16  18
ENDBRANCH  11  13
ENDBRANCH   7  11
ENDBRANCH   6   7
ENDBRANCH   3   6
ENDBRANCH   1   2
BRANCH   1  24
ATOM     24  C   UNL A   1      41.726  21.275  26.609  1.00  0.00     0.042 C 
BRANCH  24  25
ATOM     25  C   UNL A   1      40.423  21.621  27.326  1.00  0.00     0.118 C 
BRANCH  25  26
ATOM     26  N   UNL A   1      39.384  22.085  26.420  1.00  0.00    -0.352 N 
ATOM     27  C   UNL A   1      38.771  23.306  26.287  1.00  0.00     0.251 C 
ATOM     28  H   UNL A   1      39.062  21.400  25.789  1.00  0.00     0.163 HD
ATOM     29  O   UNL A   1      37.782  23.395  25.563  1.00  0.00    -0.269 OA
BRANCH  27  30
ATOM     30  C   UNL A   1      39.252  24.513  27.001  1.00  0.00     0.039 A 
ATOM     31  C   UNL A   1      40.063  25.418  26.302  1.00  0.00     0.014 A 
ATOM     32  C   UNL A   1      38.996  24.729  28.357  1.00  0.00     0.014 A 
ATOM     33  C   UNL A   1      40.554  26.563  26.936  1.00  0.00     0.010 A 
ATOM     34  C   UNL A   1      39.441  25.900  28.978  1.00  0.00     0.010 A 
ATOM     35  C   UNL A   1      40.219  26.831  28.272  1.00  0.00    -0.014 A 
BRANCH  35  36
ATOM     36  C   UNL A   1      40.651  28.085  28.940  1.00  0.00     0.031 A 
ATOM     37  C   UNL A   1      42.051  28.230  29.465  1.00  0.00     0.074 A 
ATOM     38  C   UNL A   1      39.757  29.073  29.143  1.00  0.00     0.049 A 
ATOM     39  N   UNL A   1      42.568  29.189  30.193  1.00  0.00    -0.248 NA
ATOM     40  C   UNL A   1      42.991  27.145  29.145  1.00  0.00     0.031 C 
ATOM     41  C   UNL A   1      38.362  29.052  28.704  1.00  0.00     0.029 A 
ATOM     42  N   UNL A   1      39.886  30.277  29.791  1.00  0.00    -0.354 N 
ATOM     43  C   UNL A   1      43.879  28.812  30.441  1.00  0.00     0.074 A 
ATOM     44  C   UNL A   1      44.080  27.529  29.798  1.00  0.00     0.031 C 
ATOM     45  C   UNL A   1      37.763  30.190  29.092  1.00  0.00     0.029 A 
ATOM     46  C   UNL A   1      38.721  31.001  29.839  1.00  0.00     0.049 A 
ATOM     47  H   UNL A   1      40.733  30.590  30.183  1.00  0.00     0.167 HD
ATOM     48  C   UNL A   1      44.832  29.477  31.137  1.00  0.00     0.037 A 
ATOM     49  C   UNL A   1      38.445  32.175  30.437  1.00  0.00     0.037 A 
ATOM     50  C   UNL A   1      44.654  30.771  31.742  1.00  0.00     0.049 A 
ATOM     51  C   UNL A   1      39.519  32.890  31.205  1.00  0.00     0.074 A 
ATOM     52  C   UNL A   1      45.588  31.553  32.400  1.00  0.00     0.029 A 
ATOM     53  N   UNL A   1      43.459  31.473  31.762  1.00  0.00    -0.354 N 
ATOM     54  N   UNL A   1      40.763  32.537  31.407  1.00  0.00    -0.248 NA
ATOM     55  C   UNL A   1      39.145  34.164  31.836  1.00  0.00     0.031 C 
ATOM     56  C   UNL A   1      44.953  32.720  32.841  1.00  0.00     0.029 A 
ATOM     57  C   UNL A   1      43.629  32.672  32.437  1.00  0.00     0.049 A 
ATOM     58  H   UNL A   1      42.616  31.167  31.357  1.00  0.00     0.167 HD
ATOM     59  C   UNL A   1      41.325  33.546  32.175  1.00  0.00     0.074 A 
ATOM     60  C   UNL A   1      40.288  34.532  32.399  1.00  0.00     0.031 C 
ATOM     61  C   UNL A   1      42.588  33.642  32.653  1.00  0.00     0.037 A 
BRANCH  48  62
ATOM     62  C   UNL A   1      46.167  28.815  31.288  1.00  0.00     0.064 A 
ATOM     63  C   UNL A   1      47.208  29.051  30.380  1.00  0.00     0.173 A 
ATOM     64  C   UNL A   1      46.419  27.970  32.379  1.00  0.00     0.173 A 
ATOM     65  F   UNL A   1      47.007  29.843  29.315  1.00  0.00    -0.203 F 
ATOM     66  C   UNL A   1      48.453  28.453  30.551  1.00  0.00     0.198 A 
ATOM     67  C   UNL A   1      47.671  27.388  32.556  1.00  0.00     0.198 A 
ATOM     68  F   UNL A   1      45.454  27.718  33.276  1.00  0.00    -0.203 F 
ATOM     69  F   UNL A   1      49.427  28.669  29.657  1.00  0.00    -0.200 F 
ATOM     70  C   UNL A   1      48.685  27.626  31.641  1.00  0.00     0.200 A 
ATOM     71  F   UNL A   1      47.895  26.594  33.613  1.00  0.00    -0.200 F 
ATOM     72  F   UNL A   1      49.886  27.055  31.806  1.00  0.00    -0.200 F 
ENDBRANCH  48  62
BRANCH  49  73
ATOM     73  C   UNL A   1      37.082  32.746  30.333  1.00  0.00     0.064 A 
ATOM     74  C   UNL A   1      36.132  32.518  31.337  1.00  0.00     0.173 A 
ATOM     75  C   UNL A   1      36.707  33.540  29.240  1.00  0.00     0.173 A 
ATOM     76  F   UNL A   1      36.444  31.745  32.388  1.00  0.00    -0.203 F 
ATOM     77  C   UNL A   1      34.852  33.059  31.249  1.00  0.00     0.198 A 
ATOM     78  C   UNL A   1      35.432  34.095  29.162  1.00  0.00     0.198 A 
ATOM     79  F   UNL A   1      37.584  33.784  28.256  1.00  0.00    -0.203 F 
ATOM     80  F   UNL A   1      33.954  32.806  32.210  1.00  0.00    -0.200 F 
ATOM     81  C   UNL A   1      34.505  33.851  30.165  1.00  0.00     0.200 A 
ATOM     82  F   UNL A   1      35.100  34.865  28.117  1.00  0.00    -0.200 F 
ATOM     83  F   UNL A   1      33.274  34.376  30.085  1.00  0.00    -0.200 F 
ENDBRANCH  49  73
BRANCH  61  84
ATOM     84  C   UNL A   1      42.924  34.862  33.455  1.00  0.00     0.064 A 
ATOM     85  C   UNL A   1      43.331  36.050  32.833  1.00  0.00     0.173 A 
ATOM     86  C   UNL A   1      42.800  34.852  34.852  1.00  0.00     0.173 A 
ATOM     87  F   UNL A   1      43.479  36.098  31.501  1.00  0.00    -0.203 F 
ATOM     88  C   UNL A   1      43.615  37.186  33.586  1.00  0.00     0.198 A 
ATOM     89  C   UNL A   1      43.071  35.995  35.600  1.00  0.00     0.198 A 
ATOM     90  F   UNL A   1      42.413  33.737  35.488  1.00  0.00    -0.203 F 
ATOM     91  F   UNL A   1      44.030  38.305  32.976  1.00  0.00    -0.200 F 
ATOM     92  C   UNL A   1      43.480  37.159  34.966  1.00  0.00     0.200 A 
ATOM     93  F   UNL A   1      42.936  35.969  36.932  1.00  0.00    -0.200 F 
ATOM     94  F   UNL A   1      43.752  38.255  35.689  1.00  0.00    -0.200 F 
ENDBRANCH  61  84
ENDBRANCH  35  36
ENDBRANCH  27  30
ENDBRANCH  25  26
ENDBRANCH  24  25
ENDBRANCH   1  24
TORSDOF 16
ENDMDL
MODEL 2
REMARK VINA RESULT:     -10.2      5.371     10.056
REMARK SMILES C=CCN(CC(=O)NCCCNC(=O)c1ccc(-c2c3nc(c(-c4c(F)c(F)c(F)c(F)c4F)c4ccc([nH]4)c(-c4c(F)c(F)c(F)c(F)c4F)c4nc(c(-c5c(F)c(F)c(F)c(F)c5F)c5ccc2[nH]5)C=C4)C=C3)cc1)C(=O)c1cn(C2C[NH2+]C2)nn1
REMARK SMILES IDX 9 1 8 2 6 3 7 4 5 6 4 7 3 8 2 9 1 10 78 11 79 12 80 13 81 14
REMARK SMILES IDX 88 15 82 16 87 17 83 18 84 19 86 20 85 21 10 24 11 25 12 26
REMARK SMILES IDX 13 27 14 29 15 30 16 31 77 32 17 33 76 34 18 35 19 36 20 37
REMARK SMILES IDX 70 38 21 39 75 40 69 41 71 42 22 43 74 44 68 45 67 46 23 48
REMARK SMILES IDX 55 49 35 50 54 51 36 52 39 53 53 54 72 55 37 56 38 57 52 59
REMARK SMILES IDX 73 60 40 61 24 62 25 63 33 64 26 65 27 66 31 67 34 68 28 69
REMARK SMILES IDX 29 70 32 71 30 72 56 73 57 74 65 75 58 76 59 77 63 78 66 79
REMARK SMILES IDX 60 80 61 81 64 82 62 83 41 84 42 85 50 86 43 87 44 88 48 89
REMARK SMILES IDX 51 90 45 91 46 92 49 93 47 94
REMARK H PARENT 8 5 85 22 85 23 12 28 71 47 39 58
REMARK Flexibility Score: inf
ROOT
ATOM      1  C   UNL A   1      31.346  30.890  25.847  1.00  0.00     0.117 C 
ENDROOT
BRANCH   1   2
ATOM      2  N   UNL A   1      32.555  30.186  26.227  1.00  0.00    -0.354 N 
ATOM      3  C   UNL A   1      33.157  29.094  25.675  1.00  0.00     0.239 C 
ATOM      4  O   UNL A   1      34.330  28.883  25.999  1.00  0.00    -0.273 OA
ATOM      5  H   UNL A   1      33.018  30.557  27.013  1.00  0.00     0.163 HD
BRANCH   3   6
ATOM      6  C   UNL A   1      32.478  28.218  24.607  1.00  0.00     0.220 C 
BRANCH   6   7
ATOM      7  N   UNL A   1      31.353  27.405  25.081  1.00  0.00    -0.324 N 
BRANCH   7   8
ATOM      8  C   UNL A   1      30.348  26.993  24.112  1.00  0.00     0.147 C 
BRANCH   8   9
ATOM      9  C   UNL A   1      31.000  26.213  23.010  1.00  0.00    -0.014 C 
ATOM     10  C   UNL A   1      31.009  24.874  22.953  1.00  0.00     0.006 C 
ENDBRANCH   8   9
ENDBRANCH   7   8
BRANCH   7  11
ATOM     11  C   UNL A   1      31.304  26.829  26.358  1.00  0.00     0.276 C 
ATOM     12  O   UNL A   1      30.998  27.481  27.358  1.00  0.00    -0.267 OA
BRANCH  11  13
ATOM     13  C   UNL A   1      31.663  25.426  26.481  1.00  0.00     0.170 A 
ATOM     14  C   UNL A   1      32.841  24.813  26.107  1.00  0.00     0.145 A 
ATOM     15  N   UNL A   1      30.832  24.489  27.040  1.00  0.00    -0.125 NA
ATOM     16  N   UNL A   1      32.650  23.497  26.425  1.00  0.00    -0.237 N 
ATOM     17  N   UNL A   1      31.449  23.314  27.004  1.00  0.00    -0.066 NA
BRANCH  16  18
ATOM     18  C   UNL A   1      33.538  22.395  26.199  1.00  0.00     0.218 C 
ATOM     19  C   UNL A   1      33.746  21.522  27.458  1.00  0.00     0.294 C 
ATOM     20  C   UNL A   1      32.877  21.124  25.626  1.00  0.00     0.294 C 
ATOM     21  N   UNL A   1      33.640  20.317  26.604  1.00  0.00    -0.342 N 
ATOM     22  H   UNL A   1      33.113  19.550  27.020  1.00  0.00     0.346 HD
ATOM     23  H   UNL A   1      34.470  19.794  26.324  1.00  0.00     0.346 HD
ENDBRANCH  16  18
ENDBRANCH  11  13
ENDBRANCH   7  11
ENDBRANCH   6   7
ENDBRANCH   3   6
ENDBRANCH   1   2
BRANCH   1  24
ATOM     24  C   UNL A   1      31.206  32.277  26.471  1.00  0.00     0.042 C 
BRANCH  24  25
ATOM     25  C   UNL A   1      32.464  32.808  27.156  1.00  0.00     0.118 C 
BRANCH  25  26
ATOM     26  N   UNL A   1      32.320  34.178  27.622  1.00  0.00    -0.352 N 
ATOM     27  C   UNL A   1      32.983  34.882  28.597  1.00  0.00     0.251 C 
ATOM     28  H   UNL A   1      31.621  34.692  27.156  1.00  0.00     0.163 HD
ATOM     29  O   UNL A   1      32.547  35.981  28.932  1.00  0.00    -0.269 OA
BRANCH  27  30
ATOM     30  C   UNL A   1      34.194  34.352  29.268  1.00  0.00     0.039 A 
ATOM     31  C   UNL A   1      34.038  33.694  30.495  1.00  0.00     0.014 A 
ATOM     32  C   UNL A   1      35.479  34.562  28.763  1.00  0.00     0.014 A 
ATOM     33  C   UNL A   1      35.150  33.190  31.175  1.00  0.00     0.010 A 
ATOM     34  C   UNL A   1      36.587  34.012  29.413  1.00  0.00     0.010 A 
ATOM     35  C   UNL A   1      36.434  33.316  30.622  1.00  0.00    -0.014 A 
BRANCH  35  36
ATOM     36  C   UNL A   1      37.620  32.709  31.277  1.00  0.00     0.031 A 
ATOM     37  C   UNL A   1      38.360  31.578  30.623  1.00  0.00     0.074 A 
ATOM     38  C   UNL A   1      37.989  33.127  32.504  1.00  0.00     0.049 A 
ATOM     39  N   UNL A   1      39.328  30.834  31.101  1.00  0.00    -0.248 NA
ATOM     40  C   UNL A   1      37.949  31.222  29.257  1.00  0.00     0.031 C 
ATOM     41  C   UNL A   1      37.344  34.200  33.260  1.00  0.00     0.029 A 
ATOM     42  N   UNL A   1      38.985  32.682  33.338  1.00  0.00    -0.354 N 
ATOM     43  C   UNL A   1      39.620  29.909  30.111  1.00  0.00     0.074 A 
ATOM     44  C   UNL A   1      38.720  30.172  29.006  1.00  0.00     0.031 C 
ATOM     45  C   UNL A   1      37.961  34.334  34.445  1.00  0.00     0.029 A 
ATOM     46  C   UNL A   1      39.018  33.331  34.548  1.00  0.00     0.049 A 
ATOM     47  H   UNL A   1      39.615  31.967  33.093  1.00  0.00     0.167 HD
ATOM     48  C   UNL A   1      40.558  28.932  30.118  1.00  0.00     0.037 A 
ATOM     49  C   UNL A   1      39.795  33.129  35.628  1.00  0.00     0.037 A 
ATOM     50  C   UNL A   1      41.485  28.690  31.193  1.00  0.00     0.049 A 
ATOM     51  C   UNL A   1      40.824  32.036  35.610  1.00  0.00     0.074 A 
ATOM     52  C   UNL A   1      42.518  27.771  31.252  1.00  0.00     0.029 A 
ATOM     53  N   UNL A   1      41.488  29.375  32.398  1.00  0.00    -0.354 N 
ATOM     54  N   UNL A   1      41.111  31.187  34.656  1.00  0.00    -0.248 NA
ATOM     55  C   UNL A   1      41.633  31.868  36.828  1.00  0.00     0.031 C 
ATOM     56  C   UNL A   1      43.134  27.882  32.504  1.00  0.00     0.029 A 
ATOM     57  C   UNL A   1      42.496  28.886  33.214  1.00  0.00     0.049 A 
ATOM     58  H   UNL A   1      40.868  30.101  32.638  1.00  0.00     0.167 HD
ATOM     59  C   UNL A   1      42.137  30.394  35.147  1.00  0.00     0.074 A 
ATOM     60  C   UNL A   1      42.431  30.866  36.485  1.00  0.00     0.031 C 
ATOM     61  C   UNL A   1      42.775  29.364  34.543  1.00  0.00     0.037 A 
BRANCH  48  62
ATOM     62  C   UNL A   1      40.632  28.036  28.919  1.00  0.00     0.064 A 
ATOM     63  C   UNL A   1      41.474  28.330  27.838  1.00  0.00     0.173 A 
ATOM     64  C   UNL A   1      39.887  26.849  28.874  1.00  0.00     0.173 A 
ATOM     65  F   UNL A   1      42.196  29.461  27.833  1.00  0.00    -0.203 F 
ATOM     66  C   UNL A   1      41.556  27.472  26.745  1.00  0.00     0.198 A 
ATOM     67  C   UNL A   1      39.986  25.985  27.788  1.00  0.00     0.198 A 
ATOM     68  F   UNL A   1      39.072  26.524  29.889  1.00  0.00    -0.203 F 
ATOM     69  F   UNL A   1      42.345  27.784  25.707  1.00  0.00    -0.200 F 
ATOM     70  C   UNL A   1      40.816  26.299  26.722  1.00  0.00     0.200 A 
ATOM     71  F   UNL A   1      39.275  24.848  27.770  1.00  0.00    -0.200 F 
ATOM     72  F   UNL A   1      40.901  25.472  25.672  1.00  0.00    -0.200 F 
ENDBRANCH  48  62
BRANCH  49  73
ATOM     73  C   UNL A   1      39.621  33.985  36.825  1.00  0.00     0.064 A 
ATOM     74  C   UNL A   1      38.820  33.565  37.894  1.00  0.00     0.173 A 
ATOM     75  C   UNL A   1      40.260  35.228  36.929  1.00  0.00     0.173 A 
ATOM     76  F   UNL A   1      38.173  32.392  37.824  1.00  0.00    -0.203 F 
ATOM     77  C   UNL A   1      38.660  34.361  39.025  1.00  0.00     0.198 A 
ATOM     78  C   UNL A   1      40.113  36.016  38.068  1.00  0.00     0.198 A 
ATOM     79  F   UNL A   1      41.036  35.670  35.928  1.00  0.00    -0.203 F 
ATOM     80  F   UNL A   1      37.869  33.950  40.025  1.00  0.00    -0.200 F 
ATOM     81  C   UNL A   1      39.310  35.584  39.113  1.00  0.00     0.200 A 
ATOM     82  F   UNL A   1      40.747  37.193  38.154  1.00  0.00    -0.200 F 
ATOM     83  F   UNL A   1      39.160  36.346  40.205  1.00  0.00    -0.200 F 
ENDBRANCH  49  73
BRANCH  61  84
ATOM     84  C   UNL A   1      43.864  28.687  35.316  1.00  0.00     0.064 A 
ATOM     85  C   UNL A   1      43.585  27.611  36.171  1.00  0.00     0.173 A 
ATOM     86  C   UNL A   1      45.198  29.092  35.171  1.00  0.00     0.173 A 
ATOM     87  F   UNL A   1      42.321  27.203  36.352  1.00  0.00    -0.203 F 
ATOM     88  C   UNL A   1      44.608  26.971  36.865  1.00  0.00     0.198 A 
ATOM     89  C   UNL A   1      46.220  28.439  35.856  1.00  0.00     0.198 A 
ATOM     90  F   UNL A   1      45.509  30.116  34.364  1.00  0.00    -0.203 F 
ATOM     91  F   UNL A   1      44.320  25.962  37.699  1.00  0.00    -0.200 F 
ATOM     92  C   UNL A   1      45.923  27.381  36.703  1.00  0.00     0.200 A 
ATOM     93  F   UNL A   1      47.490  28.833  35.696  1.00  0.00    -0.200 F 
ATOM     94  F   UNL A   1      46.907  26.761  37.370  1.00  0.00    -0.200 F 
ENDBRANCH  61  84
ENDBRANCH  35  36
ENDBRANCH  27  30
ENDBRANCH  25  26
ENDBRANCH  24  25
ENDBRANCH   1  24
TORSDOF 16
ENDMDL
MODEL 3
REMARK VINA RESULT:     -10.2      5.917     11.070
REMARK SMILES C=CCN(CC(=O)NCCCNC(=O)c1ccc(-c2c3nc(c(-c4c(F)c(F)c(F)c(F)c4F)c4ccc([nH]4)c(-c4c(F)c(F)c(F)c(F)c4F)c4nc(c(-c5c(F)c(F)c(F)c(F)c5F)c5ccc2[nH]5)C=C4)C=C3)cc1)C(=O)c1cn(C2C[NH2+]C2)nn1
REMARK SMILES IDX 9 1 8 2 6 3 7 4 5 6 4 7 3 8 2 9 1 10 78 11 79 12 80 13 81 14
REMARK SMILES IDX 88 15 82 16 87 17 83 18 84 19 86 20 85 21 10 24 11 25 12 26
REMARK SMILES IDX 13 27 14 29 15 30 16 31 77 32 17 33 76 34 18 35 19 36 20 37
REMARK SMILES IDX 70 38 21 39 75 40 69 41 71 42 22 43 74 44 68 45 67 46 23 48
REMARK SMILES IDX 55 49 35 50 54 51 36 52 39 53 53 54 72 55 37 56 38 57 52 59
REMARK SMILES IDX 73 60 40 61 24 62 25 63 33 64 26 65 27 66 31 67 34 68 28 69
REMARK SMILES IDX 29 70 32 71 30 72 56 73 57 74 65 75 58 76 59 77 63 78 66 79
REMARK SMILES IDX 60 80 61 81 64 82 62 83 41 84 42 85 50 86 43 87 44 88 48 89
REMARK SMILES IDX 51 90 45 91 46 92 49 93 47 94
REMARK H PARENT 8 5 85 22 85 23 12 28 71 47 39 58
REMARK Flexibility Score: inf
ROOT
ATOM      1  C   UNL A   1      31.700  30.311  26.529  1.00  0.00     0.117 C 
ENDROOT
BRANCH   1   2
ATOM      2  N   UNL A   1      32.597  30.061  25.418  1.00  0.00    -0.354 N 
ATOM      3  C   UNL A   1      32.811  28.930  24.688  1.00  0.00     0.239 C 
ATOM      4  O   UNL A   1      33.397  29.067  23.609  1.00  0.00    -0.273 OA
ATOM      5  H   UNL A   1      33.141  30.836  25.145  1.00  0.00     0.163 HD
BRANCH   3   6
ATOM      6  C   UNL A   1      32.257  27.554  25.100  1.00  0.00     0.220 C 
BRANCH   6   7
ATOM      7  N   UNL A   1      31.715  26.740  24.008  1.00  0.00    -0.324 N 
BRANCH   7   8
ATOM      8  C   UNL A   1      32.542  25.668  23.474  1.00  0.00     0.147 C 
BRANCH   8   9
ATOM      9  C   UNL A   1      33.121  26.086  22.156  1.00  0.00    -0.014 C 
ATOM     10  C   UNL A   1      32.631  25.695  20.972  1.00  0.00     0.006 C 
ENDBRANCH   8   9
ENDBRANCH   7   8
BRANCH   7  11
ATOM     11  C   UNL A   1      30.375  26.798  23.596  1.00  0.00     0.276 C 
ATOM     12  O   UNL A   1      29.595  25.862  23.778  1.00  0.00    -0.267 OA
BRANCH  11  13
ATOM     13  C   UNL A   1      29.932  27.997  22.906  1.00  0.00     0.170 A 
ATOM     14  C   UNL A   1      28.813  28.763  23.162  1.00  0.00     0.145 A 
ATOM     15  N   UNL A   1      30.629  28.562  21.867  1.00  0.00    -0.125 NA
ATOM     16  N   UNL A   1      28.862  29.754  22.220  1.00  0.00    -0.237 N 
ATOM     17  N   UNL A   1      29.966  29.637  21.460  1.00  0.00    -0.066 NA
BRANCH  16  18
ATOM     18  C   UNL A   1      27.912  30.802  21.990  1.00  0.00     0.218 C 
ATOM     19  C   UNL A   1      28.297  32.126  22.687  1.00  0.00     0.294 C 
ATOM     20  C   UNL A   1      28.126  31.611  20.693  1.00  0.00     0.294 C 
ATOM     21  N   UNL A   1      27.894  32.854  21.461  1.00  0.00    -0.342 N 
ATOM     22  H   UNL A   1      28.510  33.626  21.208  1.00  0.00     0.346 HD
ATOM     23  H   UNL A   1      27.004  33.348  21.409  1.00  0.00     0.346 HD
ENDBRANCH  16  18
ENDBRANCH  11  13
ENDBRANCH   7  11
ENDBRANCH   6   7
ENDBRANCH   3   6
ENDBRANCH   1   2
BRANCH   1  24
ATOM     24  C   UNL A   1      31.452  31.791  26.813  1.00  0.00     0.042 C 
BRANCH  24  25
ATOM     25  C   UNL A   1      32.710  32.651  26.909  1.00  0.00     0.118 C 
BRANCH  25  26
ATOM     26  N   UNL A   1      32.458  33.963  27.484  1.00  0.00    -0.352 N 
ATOM     27  C   UNL A   1      33.036  34.619  28.543  1.00  0.00     0.251 C 
ATOM     28  H   UNL A   1      31.745  34.472  27.034  1.00  0.00     0.163 HD
ATOM     29  O   UNL A   1      32.516  35.655  28.952  1.00  0.00    -0.269 OA
BRANCH  27  30
ATOM     30  C   UNL A   1      34.254  34.109  29.218  1.00  0.00     0.039 A 
ATOM     31  C   UNL A   1      34.095  33.233  30.300  1.00  0.00     0.014 A 
ATOM     32  C   UNL A   1      35.536  34.538  28.867  1.00  0.00     0.014 A 
ATOM     33  C   UNL A   1      35.212  32.737  30.979  1.00  0.00     0.010 A 
ATOM     34  C   UNL A   1      36.656  34.002  29.509  1.00  0.00     0.010 A 
ATOM     35  C   UNL A   1      36.505  33.092  30.567  1.00  0.00    -0.014 A 
BRANCH  35  36
ATOM     36  C   UNL A   1      37.709  32.507  31.211  1.00  0.00     0.031 A 
ATOM     37  C   UNL A   1      38.476  31.404  30.540  1.00  0.00     0.074 A 
ATOM     38  C   UNL A   1      38.070  32.917  32.442  1.00  0.00     0.049 A 
ATOM     39  N   UNL A   1      39.464  30.680  31.005  1.00  0.00    -0.248 NA
ATOM     40  C   UNL A   1      38.071  31.057  29.169  1.00  0.00     0.031 C 
ATOM     41  C   UNL A   1      37.399  33.963  33.215  1.00  0.00     0.029 A 
ATOM     42  N   UNL A   1      39.080  32.487  33.268  1.00  0.00    -0.354 N 
ATOM     43  C   UNL A   1      39.778  29.776  30.001  1.00  0.00     0.074 A 
ATOM     44  C   UNL A   1      38.868  30.031  28.902  1.00  0.00     0.031 C 
ATOM     45  C   UNL A   1      38.016  34.096  34.400  1.00  0.00     0.029 A 
ATOM     46  C   UNL A   1      39.098  33.120  34.486  1.00  0.00     0.049 A 
ATOM     47  H   UNL A   1      39.727  31.791  33.011  1.00  0.00     0.167 HD
ATOM     48  C   UNL A   1      40.740  28.824  29.992  1.00  0.00     0.037 A 
ATOM     49  C   UNL A   1      39.883  32.923  35.562  1.00  0.00     0.037 A 
ATOM     50  C   UNL A   1      41.676  28.592  31.062  1.00  0.00     0.049 A 
ATOM     51  C   UNL A   1      40.941  31.857  35.527  1.00  0.00     0.074 A 
ATOM     52  C   UNL A   1      42.733  27.699  31.106  1.00  0.00     0.029 A 
ATOM     53  N   UNL A   1      41.665  29.260  32.276  1.00  0.00    -0.354 N 
ATOM     54  N   UNL A   1      41.247  31.030  34.560  1.00  0.00    -0.248 NA
ATOM     55  C   UNL A   1      41.756  31.694  36.740  1.00  0.00     0.031 C 
ATOM     56  C   UNL A   1      43.349  27.809  32.358  1.00  0.00     0.029 A 
ATOM     57  C   UNL A   1      42.687  28.786  33.083  1.00  0.00     0.049 A 
ATOM     58  H   UNL A   1      41.027  29.965  32.527  1.00  0.00     0.167 HD
ATOM     59  C   UNL A   1      42.294  30.256  35.038  1.00  0.00     0.074 A 
ATOM     60  C   UNL A   1      42.579  30.718  36.381  1.00  0.00     0.031 C 
ATOM     61  C   UNL A   1      42.957  29.252  34.418  1.00  0.00     0.037 A 
BRANCH  48  62
ATOM     62  C   UNL A   1      40.835  27.947  28.781  1.00  0.00     0.064 A 
ATOM     63  C   UNL A   1      40.055  26.791  28.652  1.00  0.00     0.173 A 
ATOM     64  C   UNL A   1      41.682  28.296  27.719  1.00  0.00     0.173 A 
ATOM     65  F   UNL A   1      39.239  26.413  29.648  1.00  0.00    -0.203 F 
ATOM     66  C   UNL A   1      40.130  26.004  27.507  1.00  0.00     0.198 A 
ATOM     67  C   UNL A   1      41.741  27.516  26.567  1.00  0.00     0.198 A 
ATOM     68  F   UNL A   1      42.444  29.398  27.795  1.00  0.00    -0.203 F 
ATOM     69  F   UNL A   1      39.397  24.885  27.414  1.00  0.00    -0.200 F 
ATOM     70  C   UNL A   1      40.969  26.369  26.464  1.00  0.00     0.200 A 
ATOM     71  F   UNL A   1      42.548  27.874  25.558  1.00  0.00    -0.200 F 
ATOM     72  F   UNL A   1      41.036  25.613  25.360  1.00  0.00    -0.200 F 
ENDBRANCH  48  62
BRANCH  49  73
ATOM     73  C   UNL A   1      39.691  33.757  36.771  1.00  0.00     0.064 A 
ATOM     74  C   UNL A   1      40.313  35.007  36.884  1.00  0.00     0.173 A 
ATOM     75  C   UNL A   1      38.873  33.331  37.827  1.00  0.00     0.173 A 
ATOM     76  F   UNL A   1      41.121  35.442  35.906  1.00  0.00    -0.203 F 
ATOM     77  C   UNL A   1      40.129  35.800  38.014  1.00  0.00     0.198 A 
ATOM     78  C   UNL A   1      38.676  34.132  38.948  1.00  0.00     0.198 A 
ATOM     79  F   UNL A   1      38.258  32.141  37.761  1.00  0.00    -0.203 F 
ATOM     80  F   UNL A   1      40.754  36.981  38.110  1.00  0.00    -0.200 F 
ATOM     81  C   UNL A   1      39.306  35.364  39.043  1.00  0.00     0.200 A 
ATOM     82  F   UNL A   1      37.876  33.713  39.938  1.00  0.00    -0.200 F 
ATOM     83  F   UNL A   1      39.125  36.131  40.127  1.00  0.00    -0.200 F 
ENDBRANCH  49  73
BRANCH  61  84
ATOM     84  C   UNL A   1      44.065  28.593  35.179  1.00  0.00     0.064 A 
ATOM     85  C   UNL A   1      43.819  27.490  36.009  1.00  0.00     0.173 A 
ATOM     86  C   UNL A   1      45.386  29.043  35.048  1.00  0.00     0.173 A 
ATOM     87  F   UNL A   1      42.568  27.037  36.176  1.00  0.00    -0.203 F 
ATOM     88  C   UNL A   1      44.860  26.867  36.691  1.00  0.00     0.198 A 
ATOM     89  C   UNL A   1      46.427  28.408  35.720  1.00  0.00     0.198 A 
ATOM     90  F   UNL A   1      45.667  30.095  34.264  1.00  0.00    -0.203 F 
ATOM     91  F   UNL A   1      44.603  25.831  37.502  1.00  0.00    -0.200 F 
ATOM     92  C   UNL A   1      46.162  27.322  36.542  1.00  0.00     0.200 A 
ATOM     93  F   UNL A   1      47.684  28.846  35.573  1.00  0.00    -0.200 F 
ATOM     94  F   UNL A   1      47.164  26.719  37.199  1.00  0.00    -0.200 F 
ENDBRANCH  61  84
ENDBRANCH  35  36
ENDBRANCH  27  30
ENDBRANCH  25  26
ENDBRANCH  24  25
ENDBRANCH   1  24
TORSDOF 16
ENDMDL
