MODEL 1
REMARK VINA RESULT:     -13.5      0.000      0.000
REMARK SMILES CC1(C)[C@H](C(=O)Nc2ccc(NC(=O)C[NH+]3CCCCC3)cc2)[C@@H]1C(=O)NCCCNC(=O)c1ccc(-c2c3nc(c(-c4c(F)c(F)c(F)c(F)c4F)c4ccc([nH]4)c(-c4c(F)c(F)c(F)c(F)c4F)c4nc(c(-c5c(F)c(F)c(F)c(F)c5F)c5ccc2[nH]5)C=C4)C=C3)cc1
REMARK SMILES IDX 25 1 26 2 27 3 24 5 1 6 2 7 3 8 4 9 5 10 6 11 7 12 8 14 9 15
REMARK SMILES IDX 23 16 10 17 22 18 11 19 12 20 13 21 14 23 15 24 16 25 17 26
REMARK SMILES IDX 21 27 18 29 20 30 19 31 28 32 29 33 30 34 31 35 32 36 33 38
REMARK SMILES IDX 34 39 35 40 96 41 36 42 95 43 37 44 38 45 39 46 89 47 40 48
REMARK SMILES IDX 94 49 88 50 90 51 41 52 93 53 87 54 86 55 42 57 74 58 54 59
REMARK SMILES IDX 73 60 55 61 58 62 72 63 91 64 56 65 57 66 71 68 92 69 59 70
REMARK SMILES IDX 43 71 44 72 52 73 45 74 46 75 50 76 53 77 47 78 48 79 51 80
REMARK SMILES IDX 49 81 75 82 76 83 84 84 77 85 78 86 82 87 85 88 79 89 80 90
REMARK SMILES IDX 83 91 81 92 60 93 61 94 69 95 62 96 63 97 67 98 70 99 64 100
REMARK SMILES IDX 65 101 68 102 66 103
REMARK H PARENT 27 4 7 13 12 22 16 28 31 37 90 56 58 67
REMARK Flexibility Score: inf
ROOT
ATOM      1  C   UNL A   1      32.254  29.278  24.532  1.00  0.00     0.224 C 
ATOM      2  O   UNL A   1      32.884  29.153  23.492  1.00  0.00    -0.275 OA
ATOM      3  N   UNL A   1      32.645  30.214  25.451  1.00  0.00    -0.356 N 
ATOM      4  H   UNL A   1      33.441  30.742  25.213  1.00  0.00     0.163 HD
ENDROOT
BRANCH   1   5
ATOM      5  C   UNL A   1      31.176  28.341  24.901  1.00  0.00     0.098 C 
ATOM      6  C   UNL A   1      30.556  26.391  26.510  1.00  0.00     0.013 C 
ATOM      7  C   UNL A   1      31.422  26.901  25.371  1.00  0.00    -0.011 C 
ATOM      8  C   UNL A   1      32.802  26.322  25.433  1.00  0.00     0.013 C 
ATOM      9  C   UNL A   1      30.681  27.179  24.081  1.00  0.00     0.098 C 
BRANCH   9  10
ATOM     10  C   UNL A   1      30.924  26.880  22.638  1.00  0.00     0.228 C 
ATOM     11  O   UNL A   1      30.554  27.755  21.848  1.00  0.00    -0.274 OA
ATOM     12  N   UNL A   1      31.701  25.898  22.085  1.00  0.00    -0.326 N 
ATOM     13  H   UNL A   1      32.090  26.148  21.216  1.00  0.00     0.169 HD
BRANCH  12  14
ATOM     14  C   UNL A   1      32.051  24.622  22.498  1.00  0.00     0.041 A 
ATOM     15  C   UNL A   1      31.124  23.893  23.230  1.00  0.00     0.028 A 
ATOM     16  C   UNL A   1      33.329  24.115  22.315  1.00  0.00     0.028 A 
ATOM     17  C   UNL A   1      31.391  22.567  23.561  1.00  0.00     0.028 A 
ATOM     18  C   UNL A   1      33.615  22.800  22.702  1.00  0.00     0.028 A 
ATOM     19  C   UNL A   1      32.638  22.004  23.310  1.00  0.00     0.041 A 
BRANCH  19  20
ATOM     20  N   UNL A   1      32.969  20.667  23.585  1.00  0.00    -0.321 N 
ATOM     21  C   UNL A   1      33.456  20.043  24.703  1.00  0.00     0.279 C 
ATOM     22  H   UNL A   1      32.823  20.059  22.824  1.00  0.00     0.170 HD
ATOM     23  O   UNL A   1      33.484  18.806  24.703  1.00  0.00    -0.268 OA
BRANCH  21  24
ATOM     24  C   UNL A   1      33.999  20.821  25.911  1.00  0.00     0.363 C 
BRANCH  24  25
ATOM     25  N   UNL A   1      35.013  21.800  25.488  1.00  0.00    -0.327 N 
ATOM     26  C   UNL A   1      35.072  22.984  26.345  1.00  0.00     0.262 C 
ATOM     27  C   UNL A   1      36.337  21.197  25.310  1.00  0.00     0.262 C 
ATOM     28  H   UNL A   1      34.704  22.126  24.572  1.00  0.00     0.348 HD
ATOM     29  C   UNL A   1      35.931  24.049  25.662  1.00  0.00     0.062 C 
ATOM     30  C   UNL A   1      37.279  22.192  24.632  1.00  0.00     0.062 C 
ATOM     31  C   UNL A   1      37.334  23.523  25.377  1.00  0.00     0.012 C 
ENDBRANCH  24  25
ENDBRANCH  21  24
ENDBRANCH  19  20
ENDBRANCH  12  14
ENDBRANCH   9  10
ENDBRANCH   1   5
BRANCH   3  32
ATOM     32  C   UNL A   1      32.040  30.528  26.730  1.00  0.00     0.117 C 
BRANCH  32  33
ATOM     33  C   UNL A   1      31.704  32.003  26.873  1.00  0.00     0.042 C 
BRANCH  33  34
ATOM     34  C   UNL A   1      32.882  32.893  27.251  1.00  0.00     0.118 C 
BRANCH  34  35
ATOM     35  N   UNL A   1      32.502  34.234  27.679  1.00  0.00    -0.352 N 
ATOM     36  C   UNL A   1      33.020  35.046  28.661  1.00  0.00     0.251 C 
ATOM     37  H   UNL A   1      31.747  34.623  27.181  1.00  0.00     0.163 HD
ATOM     38  O   UNL A   1      32.472  36.116  28.914  1.00  0.00    -0.269 OA
BRANCH  36  39
ATOM     39  C   UNL A   1      34.200  34.622  29.443  1.00  0.00     0.039 A 
ATOM     40  C   UNL A   1      34.009  34.106  30.728  1.00  0.00     0.014 A 
ATOM     41  C   UNL A   1      35.487  34.706  28.913  1.00  0.00     0.014 A 
ATOM     42  C   UNL A   1      35.094  33.580  31.433  1.00  0.00     0.010 A 
ATOM     43  C   UNL A   1      36.546  34.084  29.567  1.00  0.00     0.010 A 
ATOM     44  C   UNL A   1      36.361  33.510  30.832  1.00  0.00    -0.014 A 
BRANCH  44  45
ATOM     45  C   UNL A   1      37.501  32.829  31.498  1.00  0.00     0.031 A 
ATOM     46  C   UNL A   1      38.176  31.658  30.838  1.00  0.00     0.074 A 
ATOM     47  C   UNL A   1      37.863  33.198  32.743  1.00  0.00     0.049 A 
ATOM     48  N   UNL A   1      39.118  30.874  31.301  1.00  0.00    -0.248 NA
ATOM     49  C   UNL A   1      37.700  31.292  29.496  1.00  0.00     0.031 C 
ATOM     50  C   UNL A   1      37.237  34.266  33.525  1.00  0.00     0.029 A 
ATOM     51  N   UNL A   1      38.836  32.704  33.576  1.00  0.00    -0.354 N 
ATOM     52  C   UNL A   1      39.320  29.909  30.324  1.00  0.00     0.074 A 
ATOM     53  C   UNL A   1      38.366  30.171  29.267  1.00  0.00     0.031 C 
ATOM     54  C   UNL A   1      37.855  34.362  34.712  1.00  0.00     0.029 A 
ATOM     55  C   UNL A   1      38.895  33.342  34.791  1.00  0.00     0.049 A 
ATOM     56  H   UNL A   1      39.434  31.964  33.327  1.00  0.00     0.167 HD
ATOM     57  C   UNL A   1      40.236  28.912  30.295  1.00  0.00     0.037 A 
ATOM     58  C   UNL A   1      39.693  33.126  35.854  1.00  0.00     0.037 A 
ATOM     59  C   UNL A   1      41.213  28.682  31.327  1.00  0.00     0.049 A 
ATOM     60  C   UNL A   1      40.732  32.041  35.784  1.00  0.00     0.074 A 
ATOM     61  C   UNL A   1      42.248  27.765  31.348  1.00  0.00     0.029 A 
ATOM     62  N   UNL A   1      41.273  29.381  32.525  1.00  0.00    -0.354 N 
ATOM     63  N   UNL A   1      40.976  31.192  34.815  1.00  0.00    -0.248 NA
ATOM     64  C   UNL A   1      41.612  31.890  36.951  1.00  0.00     0.031 C 
ATOM     65  C   UNL A   1      42.906  27.876  32.578  1.00  0.00     0.029 A 
ATOM     66  C   UNL A   1      42.311  28.896  33.304  1.00  0.00     0.049 A 
ATOM     67  H   UNL A   1      40.667  30.113  32.783  1.00  0.00     0.167 HD
ATOM     68  C   UNL A   1      42.045  30.419  35.244  1.00  0.00     0.074 A 
ATOM     69  C   UNL A   1      42.416  30.913  36.556  1.00  0.00     0.031 C 
ATOM     70  C   UNL A   1      42.664  29.393  34.610  1.00  0.00     0.037 A 
BRANCH  57  71
ATOM     71  C   UNL A   1      40.220  27.994  29.106  1.00  0.00     0.064 A 
ATOM     72  C   UNL A   1      39.500  26.789  29.112  1.00  0.00     0.173 A 
ATOM     73  C   UNL A   1      40.928  28.327  27.942  1.00  0.00     0.173 A 
ATOM     74  F   UNL A   1      38.816  26.417  30.204  1.00  0.00    -0.203 F 
ATOM     75  C   UNL A   1      39.525  25.932  28.015  1.00  0.00     0.198 A 
ATOM     76  C   UNL A   1      40.923  27.484  26.834  1.00  0.00     0.198 A 
ATOM     77  F   UNL A   1      41.628  29.470  27.879  1.00  0.00    -0.203 F 
ATOM     78  F   UNL A   1      38.884  24.757  28.070  1.00  0.00    -0.200 F 
ATOM     79  C   UNL A   1      40.233  26.282  26.875  1.00  0.00     0.200 A 
ATOM     80  F   UNL A   1      41.598  27.829  25.728  1.00  0.00    -0.200 F 
ATOM     81  F   UNL A   1      40.258  25.457  25.819  1.00  0.00    -0.200 F 
ENDBRANCH  57  71
BRANCH  58  82
ATOM     82  C   UNL A   1      39.560  33.984  37.058  1.00  0.00     0.064 A 
ATOM     83  C   UNL A   1      40.184  35.238  37.120  1.00  0.00     0.173 A 
ATOM     84  C   UNL A   1      38.781  33.586  38.155  1.00  0.00     0.173 A 
ATOM     85  F   UNL A   1      40.953  35.652  36.103  1.00  0.00    -0.203 F 
ATOM     86  C   UNL A   1      40.043  36.056  38.239  1.00  0.00     0.198 A 
ATOM     87  C   UNL A   1      38.621  34.417  39.263  1.00  0.00     0.198 A 
ATOM     88  F   UNL A   1      38.157  32.399  38.141  1.00  0.00    -0.203 F 
ATOM     89  F   UNL A   1      40.675  37.237  38.284  1.00  0.00    -0.200 F 
ATOM     90  C   UNL A   1      39.256  35.649  39.305  1.00  0.00     0.200 A 
ATOM     91  F   UNL A   1      37.847  34.027  40.284  1.00  0.00    -0.200 F 
ATOM     92  F   UNL A   1      39.110  36.443  40.375  1.00  0.00    -0.200 F 
ENDBRANCH  58  82
BRANCH  70  93
ATOM     93  C   UNL A   1      43.817  28.745  35.317  1.00  0.00     0.064 A 
ATOM     94  C   UNL A   1      45.138  29.166  35.107  1.00  0.00     0.173 A 
ATOM     95  C   UNL A   1      43.594  27.717  36.247  1.00  0.00     0.173 A 
ATOM     96  F   UNL A   1      45.404  30.134  34.218  1.00  0.00    -0.203 F 
ATOM     97  C   UNL A   1      46.197  28.565  35.784  1.00  0.00     0.198 A 
ATOM     98  C   UNL A   1      44.651  27.138  36.942  1.00  0.00     0.198 A 
ATOM     99  F   UNL A   1      42.348  27.282  36.487  1.00  0.00    -0.203 F 
ATOM    100  F   UNL A   1      47.455  28.953  35.535  1.00  0.00    -0.200 F 
ATOM    101  C   UNL A   1      45.952  27.558  36.706  1.00  0.00     0.200 A 
ATOM    102  F   UNL A   1      44.412  26.174  37.842  1.00  0.00    -0.200 F 
ATOM    103  F   UNL A   1      46.971  26.987  37.362  1.00  0.00    -0.200 F 
ENDBRANCH  70  93
ENDBRANCH  44  45
ENDBRANCH  36  39
ENDBRANCH  34  35
ENDBRANCH  33  34
ENDBRANCH  32  33
ENDBRANCH   3  32
TORSDOF 15
ENDMDL
MODEL 2
REMARK VINA RESULT:     -13.1      4.904     10.940
REMARK SMILES CC1(C)[C@H](C(=O)Nc2ccc(NC(=O)C[NH+]3CCCCC3)cc2)[C@@H]1C(=O)NCCCNC(=O)c1ccc(-c2c3nc(c(-c4c(F)c(F)c(F)c(F)c4F)c4ccc([nH]4)c(-c4c(F)c(F)c(F)c(F)c4F)c4nc(c(-c5c(F)c(F)c(F)c(F)c5F)c5ccc2[nH]5)C=C4)C=C3)cc1
REMARK SMILES IDX 25 1 26 2 27 3 24 5 1 6 2 7 3 8 4 9 5 10 6 11 7 12 8 14 9 15
REMARK SMILES IDX 23 16 10 17 22 18 11 19 12 20 13 21 14 23 15 24 16 25 17 26
REMARK SMILES IDX 21 27 18 29 20 30 19 31 28 32 29 33 30 34 31 35 32 36 33 38
REMARK SMILES IDX 34 39 35 40 96 41 36 42 95 43 37 44 38 45 39 46 89 47 40 48
REMARK SMILES IDX 94 49 88 50 90 51 41 52 93 53 87 54 86 55 42 57 74 58 54 59
REMARK SMILES IDX 73 60 55 61 58 62 72 63 91 64 56 65 57 66 71 68 92 69 59 70
REMARK SMILES IDX 43 71 44 72 52 73 45 74 46 75 50 76 53 77 47 78 48 79 51 80
REMARK SMILES IDX 49 81 75 82 76 83 84 84 77 85 78 86 82 87 85 88 79 89 80 90
REMARK SMILES IDX 83 91 81 92 60 93 61 94 69 95 62 96 63 97 67 98 70 99 64 100
REMARK SMILES IDX 65 101 68 102 66 103
REMARK H PARENT 27 4 7 13 12 22 16 28 31 37 90 56 58 67
REMARK Flexibility Score: inf
ROOT
ATOM      1  C   UNL A   1      34.605  33.904  32.514  1.00  0.00     0.224 C 
ATOM      2  O   UNL A   1      34.147  33.163  33.371  1.00  0.00    -0.275 OA
ATOM      3  N   UNL A   1      33.889  34.143  31.372  1.00  0.00    -0.356 N 
ATOM      4  H   UNL A   1      33.022  33.682  31.305  1.00  0.00     0.163 HD
ENDROOT
BRANCH   1   5
ATOM      5  C   UNL A   1      35.982  34.427  32.599  1.00  0.00     0.098 C 
ATOM      6  C   UNL A   1      38.260  34.543  31.346  1.00  0.00     0.013 C 
ATOM      7  C   UNL A   1      37.209  33.694  32.040  1.00  0.00    -0.011 C 
ATOM      8  C   UNL A   1      37.092  32.344  31.403  1.00  0.00     0.013 C 
ATOM      9  C   UNL A   1      37.067  33.943  33.525  1.00  0.00     0.098 C 
BRANCH   9  10
ATOM     10  C   UNL A   1      36.947  33.074  34.734  1.00  0.00     0.228 C 
ATOM     11  O   UNL A   1      36.148  33.468  35.590  1.00  0.00    -0.274 OA
ATOM     12  N   UNL A   1      37.411  31.800  34.924  1.00  0.00    -0.326 N 
ATOM     13  H   UNL A   1      36.857  31.268  35.541  1.00  0.00     0.169 HD
BRANCH  12  14
ATOM     14  C   UNL A   1      38.501  31.105  34.425  1.00  0.00     0.041 A 
ATOM     15  C   UNL A   1      38.263  29.957  33.682  1.00  0.00     0.028 A 
ATOM     16  C   UNL A   1      39.804  31.447  34.755  1.00  0.00     0.028 A 
ATOM     17  C   UNL A   1      39.322  29.299  33.064  1.00  0.00     0.028 A 
ATOM     18  C   UNL A   1      40.872  30.747  34.180  1.00  0.00     0.028 A 
ATOM     19  C   UNL A   1      40.639  29.677  33.308  1.00  0.00     0.041 A 
BRANCH  19  20
ATOM     20  N   UNL A   1      41.756  29.083  32.698  1.00  0.00    -0.321 N 
ATOM     21  C   UNL A   1      42.595  28.071  33.083  1.00  0.00     0.279 C 
ATOM     22  H   UNL A   1      41.980  29.470  31.820  1.00  0.00     0.170 HD
ATOM     23  O   UNL A   1      43.397  27.640  32.245  1.00  0.00    -0.268 OA
BRANCH  21  24
ATOM     24  C   UNL A   1      42.598  27.500  34.510  1.00  0.00     0.363 C 
BRANCH  24  25
ATOM     25  N   UNL A   1      42.913  26.063  34.495  1.00  0.00    -0.327 N 
ATOM     26  C   UNL A   1      44.337  25.778  34.671  1.00  0.00     0.262 C 
ATOM     27  C   UNL A   1      42.089  25.298  35.435  1.00  0.00     0.262 C 
ATOM     28  H   UNL A   1      42.673  25.746  33.555  1.00  0.00     0.348 HD
ATOM     29  C   UNL A   1      44.592  24.304  34.350  1.00  0.00     0.062 C 
ATOM     30  C   UNL A   1      42.277  23.798  35.195  1.00  0.00     0.062 C 
ATOM     31  C   UNL A   1      43.748  23.395  35.239  1.00  0.00     0.012 C 
ENDBRANCH  24  25
ENDBRANCH  21  24
ENDBRANCH  19  20
ENDBRANCH  12  14
ENDBRANCH   9  10
ENDBRANCH   1   5
BRANCH   3  32
ATOM     32  C   UNL A   1      34.243  34.987  30.247  1.00  0.00     0.117 C 
BRANCH  32  33
ATOM     33  C   UNL A   1      34.160  34.256  28.917  1.00  0.00     0.042 C 
BRANCH  33  34
ATOM     34  C   UNL A   1      34.845  32.895  28.893  1.00  0.00     0.118 C 
BRANCH  34  35
ATOM     35  N   UNL A   1      34.011  31.818  28.373  1.00  0.00    -0.352 N 
ATOM     36  C   UNL A   1      34.325  30.526  28.022  1.00  0.00     0.251 C 
ATOM     37  H   UNL A   1      33.064  32.056  28.254  1.00  0.00     0.163 HD
ATOM     38  O   UNL A   1      33.468  29.812  27.509  1.00  0.00    -0.269 OA
BRANCH  36  39
ATOM     39  C   UNL A   1      35.696  30.006  28.213  1.00  0.00     0.039 A 
ATOM     40  C   UNL A   1      36.621  30.141  27.174  1.00  0.00     0.014 A 
ATOM     41  C   UNL A   1      36.081  29.410  29.413  1.00  0.00     0.014 A 
ATOM     42  C   UNL A   1      37.953  29.775  27.379  1.00  0.00     0.010 A 
ATOM     43  C   UNL A   1      37.426  29.149  29.654  1.00  0.00     0.010 A 
ATOM     44  C   UNL A   1      38.378  29.333  28.642  1.00  0.00    -0.014 A 
BRANCH  44  45
ATOM     45  C   UNL A   1      39.812  29.073  28.932  1.00  0.00     0.031 A 
ATOM     46  C   UNL A   1      40.657  30.128  29.593  1.00  0.00     0.074 A 
ATOM     47  C   UNL A   1      40.381  27.926  28.510  1.00  0.00     0.049 A 
ATOM     48  N   UNL A   1      41.943  30.127  29.838  1.00  0.00    -0.248 NA
ATOM     49  C   UNL A   1      39.972  31.367  29.991  1.00  0.00     0.031 C 
ATOM     50  C   UNL A   1      39.691  26.856  27.787  1.00  0.00     0.029 A 
ATOM     51  N   UNL A   1      41.673  27.477  28.611  1.00  0.00    -0.354 N 
ATOM     52  C   UNL A   1      42.223  31.371  30.387  1.00  0.00     0.074 A 
ATOM     53  C   UNL A   1      40.985  32.121  30.387  1.00  0.00     0.031 C 
ATOM     54  C   UNL A   1      40.559  25.866  27.531  1.00  0.00     0.029 A 
ATOM     55  C   UNL A   1      41.874  26.244  28.038  1.00  0.00     0.049 A 
ATOM     56  H   UNL A   1      42.389  27.988  29.053  1.00  0.00     0.167 HD
ATOM     57  C   UNL A   1      43.398  31.838  30.872  1.00  0.00     0.037 A 
ATOM     58  C   UNL A   1      42.994  25.504  27.927  1.00  0.00     0.037 A 
ATOM     59  C   UNL A   1      44.617  31.072  30.912  1.00  0.00     0.049 A 
ATOM     60  C   UNL A   1      44.278  26.022  28.512  1.00  0.00     0.074 A 
ATOM     61  C   UNL A   1      45.833  31.414  31.474  1.00  0.00     0.029 A 
ATOM     62  N   UNL A   1      44.770  29.806  30.364  1.00  0.00    -0.354 N 
ATOM     63  N   UNL A   1      44.511  27.164  29.112  1.00  0.00    -0.248 NA
ATOM     64  C   UNL A   1      45.453  25.145  28.412  1.00  0.00     0.031 C 
ATOM     65  C   UNL A   1      46.737  30.375  31.225  1.00  0.00     0.029 A 
ATOM     66  C   UNL A   1      46.070  29.364  30.551  1.00  0.00     0.049 A 
ATOM     67  H   UNL A   1      44.060  29.297  29.909  1.00  0.00     0.167 HD
ATOM     68  C   UNL A   1      45.849  27.138  29.477  1.00  0.00     0.074 A 
ATOM     69  C   UNL A   1      46.374  25.857  29.046  1.00  0.00     0.031 C 
ATOM     70  C   UNL A   1      46.578  28.090  30.111  1.00  0.00     0.037 A 
BRANCH  57  71
ATOM     71  C   UNL A   1      43.418  33.244  31.400  1.00  0.00     0.064 A 
ATOM     72  C   UNL A   1      43.376  33.518  32.777  1.00  0.00     0.173 A 
ATOM     73  C   UNL A   1      43.488  34.333  30.519  1.00  0.00     0.173 A 
ATOM     74  F   UNL A   1      43.296  32.513  33.662  1.00  0.00    -0.203 F 
ATOM     75  C   UNL A   1      43.359  34.827  33.248  1.00  0.00     0.198 A 
ATOM     76  C   UNL A   1      43.505  35.641  30.996  1.00  0.00     0.198 A 
ATOM     77  F   UNL A   1      43.538  34.129  29.194  1.00  0.00    -0.203 F 
ATOM     78  F   UNL A   1      43.252  35.063  34.563  1.00  0.00    -0.200 F 
ATOM     79  C   UNL A   1      43.429  35.888  32.358  1.00  0.00     0.200 A 
ATOM     80  F   UNL A   1      43.585  36.665  30.135  1.00  0.00    -0.200 F 
ATOM     81  F   UNL A   1      43.411  37.149  32.812  1.00  0.00    -0.200 F 
ENDBRANCH  57  71
BRANCH  58  82
ATOM     82  C   UNL A   1      42.932  24.177  27.265  1.00  0.00     0.064 A 
ATOM     83  C   UNL A   1      43.285  24.029  25.916  1.00  0.00     0.173 A 
ATOM     84  C   UNL A   1      42.554  23.025  27.971  1.00  0.00     0.173 A 
ATOM     85  F   UNL A   1      43.636  25.104  25.196  1.00  0.00    -0.203 F 
ATOM     86  C   UNL A   1      43.251  22.782  25.296  1.00  0.00     0.198 A 
ATOM     87  C   UNL A   1      42.544  21.775  27.356  1.00  0.00     0.198 A 
ATOM     88  F   UNL A   1      42.215  23.113  29.266  1.00  0.00    -0.203 F 
ATOM     89  F   UNL A   1      43.564  22.675  23.997  1.00  0.00    -0.200 F 
ATOM     90  C   UNL A   1      42.889  21.655  26.018  1.00  0.00     0.200 A 
ATOM     91  F   UNL A   1      42.209  20.686  28.062  1.00  0.00    -0.200 F 
ATOM     92  F   UNL A   1      42.869  20.454  25.424  1.00  0.00    -0.200 F 
ENDBRANCH  58  82
BRANCH  70  93
ATOM     93  C   UNL A   1      48.018  27.776  30.392  1.00  0.00     0.064 A 
ATOM     94  C   UNL A   1      48.410  27.116  31.566  1.00  0.00     0.173 A 
ATOM     95  C   UNL A   1      49.014  28.103  29.458  1.00  0.00     0.173 A 
ATOM     96  F   UNL A   1      47.499  26.796  32.497  1.00  0.00    -0.203 F 
ATOM     97  C   UNL A   1      49.749  26.817  31.806  1.00  0.00     0.198 A 
ATOM     98  C   UNL A   1      50.347  27.777  29.688  1.00  0.00     0.198 A 
ATOM     99  F   UNL A   1      48.690  28.730  28.318  1.00  0.00    -0.203 F 
ATOM    100  F   UNL A   1      50.106  26.226  32.954  1.00  0.00    -0.200 F 
ATOM    101  C   UNL A   1      50.715  27.140  30.864  1.00  0.00     0.200 A 
ATOM    102  F   UNL A   1      51.277  28.079  28.771  1.00  0.00    -0.200 F 
ATOM    103  F   UNL A   1      52.001  26.845  31.093  1.00  0.00    -0.200 F 
ENDBRANCH  70  93
ENDBRANCH  44  45
ENDBRANCH  36  39
ENDBRANCH  34  35
ENDBRANCH  33  34
ENDBRANCH  32  33
ENDBRANCH   3  32
TORSDOF 15
ENDMDL
MODEL 3
REMARK VINA RESULT:     -13.0      1.050      2.197
REMARK SMILES CC1(C)[C@H](C(=O)Nc2ccc(NC(=O)C[NH+]3CCCCC3)cc2)[C@@H]1C(=O)NCCCNC(=O)c1ccc(-c2c3nc(c(-c4c(F)c(F)c(F)c(F)c4F)c4ccc([nH]4)c(-c4c(F)c(F)c(F)c(F)c4F)c4nc(c(-c5c(F)c(F)c(F)c(F)c5F)c5ccc2[nH]5)C=C4)C=C3)cc1
REMARK SMILES IDX 25 1 26 2 27 3 24 5 1 6 2 7 3 8 4 9 5 10 6 11 7 12 8 14 9 15
REMARK SMILES IDX 23 16 10 17 22 18 11 19 12 20 13 21 14 23 15 24 16 25 17 26
REMARK SMILES IDX 21 27 18 29 20 30 19 31 28 32 29 33 30 34 31 35 32 36 33 38
REMARK SMILES IDX 34 39 35 40 96 41 36 42 95 43 37 44 38 45 39 46 89 47 40 48
REMARK SMILES IDX 94 49 88 50 90 51 41 52 93 53 87 54 86 55 42 57 74 58 54 59
REMARK SMILES IDX 73 60 55 61 58 62 72 63 91 64 56 65 57 66 71 68 92 69 59 70
REMARK SMILES IDX 43 71 44 72 52 73 45 74 46 75 50 76 53 77 47 78 48 79 51 80
REMARK SMILES IDX 49 81 75 82 76 83 84 84 77 85 78 86 82 87 85 88 79 89 80 90
REMARK SMILES IDX 83 91 81 92 60 93 61 94 69 95 62 96 63 97 67 98 70 99 64 100
REMARK SMILES IDX 65 101 68 102 66 103
REMARK H PARENT 27 4 7 13 12 22 16 28 31 37 90 56 58 67
REMARK Flexibility Score: inf
ROOT
ATOM      1  C   UNL A   1      31.070  29.275  24.153  1.00  0.00     0.224 C 
ATOM      2  O   UNL A   1      30.215  29.158  23.287  1.00  0.00    -0.275 OA
ATOM      3  N   UNL A   1      31.032  30.350  25.001  1.00  0.00    -0.356 N 
ATOM      4  H   UNL A   1      30.298  30.988  24.851  1.00  0.00     0.163 HD
ENDROOT
BRANCH   1   5
ATOM      5  C   UNL A   1      32.237  28.376  24.215  1.00  0.00     0.098 C 
ATOM      6  C   UNL A   1      33.495  26.485  22.943  1.00  0.00     0.013 C 
ATOM      7  C   UNL A   1      32.240  26.943  23.667  1.00  0.00    -0.011 C 
ATOM      8  C   UNL A   1      31.011  26.331  23.068  1.00  0.00     0.013 C 
ATOM      9  C   UNL A   1      32.418  27.206  25.146  1.00  0.00     0.098 C 
BRANCH   9  10
ATOM     10  C   UNL A   1      31.647  26.863  26.379  1.00  0.00     0.228 C 
ATOM     11  O   UNL A   1      31.275  27.829  27.054  1.00  0.00    -0.274 OA
ATOM     12  N   UNL A   1      31.097  25.662  26.741  1.00  0.00    -0.326 N 
ATOM     13  H   UNL A   1      30.287  25.753  27.293  1.00  0.00     0.169 HD
BRANCH  12  14
ATOM     14  C   UNL A   1      31.448  24.346  26.489  1.00  0.00     0.041 A 
ATOM     15  C   UNL A   1      32.473  23.786  27.239  1.00  0.00     0.028 A 
ATOM     16  C   UNL A   1      30.902  23.628  25.435  1.00  0.00     0.028 A 
ATOM     17  C   UNL A   1      32.774  22.434  27.100  1.00  0.00     0.028 A 
ATOM     18  C   UNL A   1      31.250  22.284  25.258  1.00  0.00     0.028 A 
ATOM     19  C   UNL A   1      32.176  21.666  26.106  1.00  0.00     0.041 A 
BRANCH  19  20
ATOM     20  N   UNL A   1      32.405  20.292  25.925  1.00  0.00    -0.321 N 
ATOM     21  C   UNL A   1      33.313  19.594  25.174  1.00  0.00     0.279 C 
ATOM     22  H   UNL A   1      31.792  19.717  26.440  1.00  0.00     0.170 HD
ATOM     23  O   UNL A   1      33.389  18.372  25.355  1.00  0.00    -0.268 OA
BRANCH  21  24
ATOM     24  C   UNL A   1      34.188  20.265  24.104  1.00  0.00     0.363 C 
BRANCH  24  25
ATOM     25  N   UNL A   1      34.952  21.382  24.682  1.00  0.00    -0.327 N 
ATOM     26  C   UNL A   1      36.360  21.064  24.915  1.00  0.00     0.262 C 
ATOM     27  C   UNL A   1      34.799  22.623  23.918  1.00  0.00     0.262 C 
ATOM     28  H   UNL A   1      34.540  21.540  25.602  1.00  0.00     0.348 HD
ATOM     29  C   UNL A   1      36.984  22.166  25.773  1.00  0.00     0.062 C 
ATOM     30  C   UNL A   1      35.398  23.795  24.697  1.00  0.00     0.062 C 
ATOM     31  C   UNL A   1      36.845  23.529  25.102  1.00  0.00     0.012 C 
ENDBRANCH  24  25
ENDBRANCH  21  24
ENDBRANCH  19  20
ENDBRANCH  12  14
ENDBRANCH   9  10
ENDBRANCH   1   5
BRANCH   3  32
ATOM     32  C   UNL A   1      31.933  30.670  26.090  1.00  0.00     0.117 C 
BRANCH  32  33
ATOM     33  C   UNL A   1      31.563  31.964  26.795  1.00  0.00     0.042 C 
BRANCH  33  34
ATOM     34  C   UNL A   1      32.747  32.766  27.322  1.00  0.00     0.118 C 
BRANCH  34  35
ATOM     35  N   UNL A   1      32.428  34.147  27.659  1.00  0.00    -0.352 N 
ATOM     36  C   UNL A   1      32.987  35.002  28.581  1.00  0.00     0.251 C 
ATOM     37  H   UNL A   1      31.687  34.534  27.140  1.00  0.00     0.163 HD
ATOM     38  O   UNL A   1      32.488  36.108  28.763  1.00  0.00    -0.269 OA
BRANCH  36  39
ATOM     39  C   UNL A   1      34.154  34.581  29.385  1.00  0.00     0.039 A 
ATOM     40  C   UNL A   1      33.937  33.990  30.633  1.00  0.00     0.014 A 
ATOM     41  C   UNL A   1      35.455  34.742  28.910  1.00  0.00     0.014 A 
ATOM     42  C   UNL A   1      35.016  33.469  31.351  1.00  0.00     0.010 A 
ATOM     43  C   UNL A   1      36.513  34.127  29.571  1.00  0.00     0.010 A 
ATOM     44  C   UNL A   1      36.306  33.480  30.796  1.00  0.00    -0.014 A 
BRANCH  44  45
ATOM     45  C   UNL A   1      37.447  32.807  31.469  1.00  0.00     0.031 A 
ATOM     46  C   UNL A   1      38.136  31.642  30.813  1.00  0.00     0.074 A 
ATOM     47  C   UNL A   1      37.799  33.179  32.716  1.00  0.00     0.049 A 
ATOM     48  N   UNL A   1      39.081  30.866  31.282  1.00  0.00    -0.248 NA
ATOM     49  C   UNL A   1      37.671  31.273  29.468  1.00  0.00     0.031 C 
ATOM     50  C   UNL A   1      37.159  34.241  33.495  1.00  0.00     0.029 A 
ATOM     51  N   UNL A   1      38.770  32.693  33.555  1.00  0.00    -0.354 N 
ATOM     52  C   UNL A   1      39.298  29.903  30.305  1.00  0.00     0.074 A 
ATOM     53  C   UNL A   1      38.348  30.158  29.243  1.00  0.00     0.031 C 
ATOM     54  C   UNL A   1      37.768  34.342  34.686  1.00  0.00     0.029 A 
ATOM     55  C   UNL A   1      38.816  33.331  34.772  1.00  0.00     0.049 A 
ATOM     56  H   UNL A   1      39.376  31.957  33.310  1.00  0.00     0.167 HD
ATOM     57  C   UNL A   1      40.221  28.913  30.282  1.00  0.00     0.037 A 
ATOM     58  C   UNL A   1      39.609  33.120  35.839  1.00  0.00     0.037 A 
ATOM     59  C   UNL A   1      41.194  28.691  31.321  1.00  0.00     0.049 A 
ATOM     60  C   UNL A   1      40.657  32.044  35.776  1.00  0.00     0.074 A 
ATOM     61  C   UNL A   1      42.236  27.783  31.347  1.00  0.00     0.029 A 
ATOM     62  N   UNL A   1      41.241  29.390  32.519  1.00  0.00    -0.354 N 
ATOM     63  N   UNL A   1      40.914  31.198  34.808  1.00  0.00    -0.248 NA
ATOM     64  C   UNL A   1      41.531  31.900  36.948  1.00  0.00     0.031 C 
ATOM     65  C   UNL A   1      42.885  27.898  32.581  1.00  0.00     0.029 A 
ATOM     66  C   UNL A   1      42.278  28.913  33.304  1.00  0.00     0.049 A 
ATOM     67  H   UNL A   1      40.626  30.117  32.774  1.00  0.00     0.167 HD
ATOM     68  C   UNL A   1      41.987  30.433  35.243  1.00  0.00     0.074 A 
ATOM     69  C   UNL A   1      42.345  30.929  36.557  1.00  0.00     0.031 C 
ATOM     70  C   UNL A   1      42.618  29.413  34.612  1.00  0.00     0.037 A 
BRANCH  57  71
ATOM     71  C   UNL A   1      40.221  27.996  29.093  1.00  0.00     0.064 A 
ATOM     72  C   UNL A   1      40.918  28.312  27.915  1.00  0.00     0.173 A 
ATOM     73  C   UNL A   1      39.522  26.780  29.133  1.00  0.00     0.173 A 
ATOM     74  F   UNL A   1      41.592  29.468  27.820  1.00  0.00    -0.203 F 
ATOM     75  C   UNL A   1      40.878  27.468  26.809  1.00  0.00     0.198 A 
ATOM     76  C   UNL A   1      39.513  25.922  28.036  1.00  0.00     0.198 A 
ATOM     77  F   UNL A   1      38.845  26.425  30.235  1.00  0.00    -0.203 F 
ATOM     78  F   UNL A   1      41.496  27.823  25.675  1.00  0.00    -0.200 F 
ATOM     79  C   UNL A   1      40.180  26.271  26.872  1.00  0.00     0.200 A 
ATOM     80  F   UNL A   1      38.847  24.761  28.102  1.00  0.00    -0.200 F 
ATOM     81  F   UNL A   1      40.141  25.460  25.806  1.00  0.00    -0.200 F 
ENDBRANCH  57  71
BRANCH  58  82
ATOM     82  C   UNL A   1      39.461  33.976  37.043  1.00  0.00     0.064 A 
ATOM     83  C   UNL A   1      38.737  33.530  38.158  1.00  0.00     0.173 A 
ATOM     84  C   UNL A   1      40.065  35.240  37.119  1.00  0.00     0.173 A 
ATOM     85  F   UNL A   1      38.126  32.337  38.124  1.00  0.00    -0.203 F 
ATOM     86  C   UNL A   1      38.613  34.321  39.298  1.00  0.00     0.198 A 
ATOM     87  C   UNL A   1      39.962  36.019  38.270  1.00  0.00     0.198 A 
ATOM     88  F   UNL A   1      40.775  35.708  36.082  1.00  0.00    -0.203 F 
ATOM     89  F   UNL A   1      37.890  33.883  40.338  1.00  0.00    -0.200 F 
ATOM     90  C   UNL A   1      39.233  35.560  39.357  1.00  0.00     0.200 A 
ATOM     91  F   UNL A   1      40.575  37.209  38.328  1.00  0.00    -0.200 F 
ATOM     92  F   UNL A   1      39.125  36.314  40.459  1.00  0.00    -0.200 F 
ENDBRANCH  58  82
BRANCH  70  93
ATOM     93  C   UNL A   1      43.772  28.773  35.327  1.00  0.00     0.064 A 
ATOM     94  C   UNL A   1      45.087  29.227  35.151  1.00  0.00     0.173 A 
ATOM     95  C   UNL A   1      43.554  27.720  36.230  1.00  0.00     0.173 A 
ATOM     96  F   UNL A   1      45.348  30.220  34.288  1.00  0.00    -0.203 F 
ATOM     97  C   UNL A   1      46.146  28.634  35.834  1.00  0.00     0.198 A 
ATOM     98  C   UNL A   1      44.611  27.149  36.932  1.00  0.00     0.198 A 
ATOM     99  F   UNL A   1      42.314  27.254  36.437  1.00  0.00    -0.203 F 
ATOM    100  F   UNL A   1      47.399  29.054  35.616  1.00  0.00    -0.200 F 
ATOM    101  C   UNL A   1      45.907  27.602  36.729  1.00  0.00     0.200 A 
ATOM    102  F   UNL A   1      44.377  26.161  37.806  1.00  0.00    -0.200 F 
ATOM    103  F   UNL A   1      46.925  27.038  37.391  1.00  0.00    -0.200 F 
ENDBRANCH  70  93
ENDBRANCH  44  45
ENDBRANCH  36  39
ENDBRANCH  34  35
ENDBRANCH  33  34
ENDBRANCH  32  33
ENDBRANCH   3  32
TORSDOF 15
ENDMDL
