MODEL 1
REMARK VINA RESULT:     -12.7      0.000      0.000
REMARK SMILES CC(C)c1cc(OCC(=O)NCCCNC(=O)c2ccc(-c3c4nc(c(-c5c(F)c(F)c(F)c(F)c5F)c5ccc([nH]5)c(-c5c(F)c(F)c(F)c(F)c5F)c5nc(c(-c6c(F)c(F)c(F)c(F)c6F)c6ccc3[nH]6)C=C5)C=C4)cc2)nc(Nc2ccc(F)cc2F)n1
REMARK SMILES IDX 12 1 11 2 9 3 10 4 8 6 7 7 6 8 4 9 5 10 92 11 82 12 81 13
REMARK SMILES IDX 2 14 1 15 3 16 83 17 84 19 85 20 90 21 86 22 89 23 91 24
REMARK SMILES IDX 87 25 88 26 13 27 14 28 15 29 16 30 17 32 18 33 19 34 80 35
REMARK SMILES IDX 20 36 79 37 21 38 22 39 23 40 73 41 24 42 78 43 72 44 74 45
REMARK SMILES IDX 25 46 77 47 71 48 70 49 26 51 58 52 38 53 57 54 39 55 42 56
REMARK SMILES IDX 56 57 75 58 40 59 41 60 55 62 76 63 43 64 27 65 28 66 36 67
REMARK SMILES IDX 29 68 30 69 34 70 37 71 31 72 32 73 35 74 33 75 59 76 60 77
REMARK SMILES IDX 68 78 61 79 62 80 66 81 69 82 63 83 64 84 67 85 65 86 44 87
REMARK SMILES IDX 45 88 53 89 46 90 47 91 51 92 54 93 48 94 49 95 52 96 50 97
REMARK H PARENT 11 5 83 18 15 31 74 50 42 61
REMARK Flexibility Score: inf
ROOT
ATOM      1  C   UNL A   1      36.740  20.494  25.158  1.00  0.00     0.117 C 
ENDROOT
BRANCH   1   2
ATOM      2  N   UNL A   1      37.071  21.849  25.560  1.00  0.00    -0.353 N 
ATOM      3  C   UNL A   1      36.957  23.000  24.840  1.00  0.00     0.258 C 
ATOM      4  O   UNL A   1      37.266  24.067  25.376  1.00  0.00    -0.271 OA
ATOM      5  H   UNL A   1      37.423  21.948  26.474  1.00  0.00     0.163 HD
BRANCH   3   6
ATOM      6  C   UNL A   1      36.441  22.954  23.399  1.00  0.00     0.331 C 
BRANCH   6   7
ATOM      7  O   UNL A   1      35.337  23.790  23.106  1.00  0.00    -0.467 OA
BRANCH   7   8
ATOM      8  C   UNL A   1      34.247  23.738  23.928  1.00  0.00     0.218 A 
ATOM      9  C   UNL A   1      32.600  24.559  25.378  1.00  0.00     0.052 A 
ATOM     10  C   UNL A   1      33.744  24.798  24.650  1.00  0.00     0.092 A 
ATOM     11  N   UNL A   1      32.033  23.343  25.410  1.00  0.00    -0.217 NA
ATOM     12  C   UNL A   1      32.586  22.357  24.692  1.00  0.00     0.230 A 
ATOM     13  N   UNL A   1      33.690  22.514  23.954  1.00  0.00    -0.177 NA
BRANCH   9  14
ATOM     14  C   UNL A   1      31.965  25.664  26.200  1.00  0.00     0.032 C 
ATOM     15  C   UNL A   1      32.762  26.972  26.143  1.00  0.00     0.014 C 
ATOM     16  C   UNL A   1      30.524  25.905  25.749  1.00  0.00     0.014 C 
ENDBRANCH   9  14
BRANCH  12  17
ATOM     17  N   UNL A   1      32.055  21.074  24.778  1.00  0.00    -0.322 N 
ATOM     18  H   UNL A   1      31.178  20.995  25.217  1.00  0.00     0.170 HD
BRANCH  17  19
ATOM     19  C   UNL A   1      32.622  19.881  24.313  1.00  0.00     0.077 A 
ATOM     20  C   UNL A   1      33.333  19.063  25.204  1.00  0.00     0.032 A 
ATOM     21  C   UNL A   1      32.407  19.404  23.007  1.00  0.00     0.149 A 
ATOM     22  C   UNL A   1      33.792  17.806  24.801  1.00  0.00     0.041 A 
ATOM     23  C   UNL A   1      32.875  18.161  22.593  1.00  0.00     0.080 A 
ATOM     24  F   UNL A   1      31.778  20.171  22.102  1.00  0.00    -0.205 F 
ATOM     25  C   UNL A   1      33.556  17.368  23.502  1.00  0.00     0.126 A 
ATOM     26  F   UNL A   1      33.992  16.159  23.125  1.00  0.00    -0.207 F 
ENDBRANCH  17  19
ENDBRANCH  12  17
ENDBRANCH   7   8
ENDBRANCH   6   7
ENDBRANCH   3   6
ENDBRANCH   1   2
BRANCH   1  27
ATOM     27  C   UNL A   1      37.969  19.605  25.001  1.00  0.00     0.042 C 
BRANCH  27  28
ATOM     28  C   UNL A   1      39.211  20.086  25.751  1.00  0.00     0.118 C 
BRANCH  28  29
ATOM     29  N   UNL A   1      40.256  19.074  25.841  1.00  0.00    -0.352 N 
ATOM     30  C   UNL A   1      41.604  19.190  26.060  1.00  0.00     0.251 C 
ATOM     31  H   UNL A   1      39.939  18.148  25.726  1.00  0.00     0.163 HD
ATOM     32  O   UNL A   1      42.321  18.193  25.945  1.00  0.00    -0.269 OA
BRANCH  30  33
ATOM     33  C   UNL A   1      42.221  20.489  26.403  1.00  0.00     0.039 A 
ATOM     34  C   UNL A   1      42.788  21.252  25.376  1.00  0.00     0.014 A 
ATOM     35  C   UNL A   1      42.277  20.949  27.720  1.00  0.00     0.014 A 
ATOM     36  C   UNL A   1      43.326  22.510  25.655  1.00  0.00     0.010 A 
ATOM     37  C   UNL A   1      42.754  22.231  27.989  1.00  0.00     0.010 A 
ATOM     38  C   UNL A   1      43.268  23.032  26.958  1.00  0.00    -0.014 A 
BRANCH  38  39
ATOM     39  C   UNL A   1      43.687  24.428  27.248  1.00  0.00     0.031 A 
ATOM     40  C   UNL A   1      42.691  25.445  27.726  1.00  0.00     0.074 A 
ATOM     41  C   UNL A   1      44.958  24.797  26.997  1.00  0.00     0.049 A 
ATOM     42  N   UNL A   1      42.852  26.728  27.931  1.00  0.00    -0.248 NA
ATOM     43  C   UNL A   1      41.328  24.961  27.989  1.00  0.00     0.031 C 
ATOM     44  C   UNL A   1      46.010  23.913  26.492  1.00  0.00     0.029 A 
ATOM     45  N   UNL A   1      45.577  26.018  27.111  1.00  0.00    -0.354 N 
ATOM     46  C   UNL A   1      41.613  27.206  28.334  1.00  0.00     0.074 A 
ATOM     47  C   UNL A   1      40.699  26.084  28.306  1.00  0.00     0.031 C 
ATOM     48  C   UNL A   1      47.145  24.615  26.351  1.00  0.00     0.029 A 
ATOM     49  C   UNL A   1      46.890  26.007  26.711  1.00  0.00     0.049 A 
ATOM     50  H   UNL A   1      45.122  26.823  27.448  1.00  0.00     0.167 HD
ATOM     51  C   UNL A   1      41.274  28.464  28.707  1.00  0.00     0.037 A 
ATOM     52  C   UNL A   1      47.786  27.009  26.623  1.00  0.00     0.037 A 
ATOM     53  C   UNL A   1      42.189  29.576  28.749  1.00  0.00     0.049 A 
ATOM     54  C   UNL A   1      47.376  28.400  27.018  1.00  0.00     0.074 A 
ATOM     55  C   UNL A   1      41.956  30.872  29.178  1.00  0.00     0.029 A 
ATOM     56  N   UNL A   1      43.514  29.526  28.339  1.00  0.00    -0.354 N 
ATOM     57  N   UNL A   1      46.219  28.827  27.461  1.00  0.00    -0.248 NA
ATOM     58  C   UNL A   1      48.398  29.450  26.898  1.00  0.00     0.031 C 
ATOM     59  C   UNL A   1      43.123  31.617  28.981  1.00  0.00     0.029 A 
ATOM     60  C   UNL A   1      44.100  30.775  28.476  1.00  0.00     0.049 A 
ATOM     61  H   UNL A   1      43.971  28.722  28.000  1.00  0.00     0.167 HD
ATOM     62  C   UNL A   1      46.377  30.186  27.691  1.00  0.00     0.074 A 
ATOM     63  C   UNL A   1      47.748  30.511  27.358  1.00  0.00     0.031 C 
ATOM     64  C   UNL A   1      45.466  31.086  28.136  1.00  0.00     0.037 A 
BRANCH  51  65
ATOM     65  C   UNL A   1      39.848  28.712  29.103  1.00  0.00     0.064 A 
ATOM     66  C   UNL A   1      39.414  28.556  30.428  1.00  0.00     0.173 A 
ATOM     67  C   UNL A   1      38.913  29.157  28.155  1.00  0.00     0.173 A 
ATOM     68  F   UNL A   1      40.265  28.126  31.371  1.00  0.00    -0.203 F 
ATOM     69  C   UNL A   1      38.093  28.813  30.785  1.00  0.00     0.198 A 
ATOM     70  C   UNL A   1      37.600  29.440  28.521  1.00  0.00     0.198 A 
ATOM     71  F   UNL A   1      39.276  29.330  26.876  1.00  0.00    -0.203 F 
ATOM     72  F   UNL A   1      37.691  28.617  32.049  1.00  0.00    -0.200 F 
ATOM     73  C   UNL A   1      37.189  29.261  29.834  1.00  0.00     0.200 A 
ATOM     74  F   UNL A   1      36.730  29.886  27.604  1.00  0.00    -0.200 F 
ATOM     75  F   UNL A   1      35.920  29.516  30.180  1.00  0.00    -0.200 F 
ENDBRANCH  51  65
BRANCH  52  76
ATOM     76  C   UNL A   1      49.165  26.729  26.145  1.00  0.00     0.064 A 
ATOM     77  C   UNL A   1      49.514  26.929  24.803  1.00  0.00     0.173 A 
ATOM     78  C   UNL A   1      50.158  26.255  27.015  1.00  0.00     0.173 A 
ATOM     79  F   UNL A   1      48.592  27.359  23.928  1.00  0.00    -0.203 F 
ATOM     80  C   UNL A   1      50.800  26.650  24.345  1.00  0.00     0.198 A 
ATOM     81  C   UNL A   1      51.451  26.004  26.563  1.00  0.00     0.198 A 
ATOM     82  F   UNL A   1      49.875  26.050  28.310  1.00  0.00    -0.203 F 
ATOM     83  F   UNL A   1      51.096  26.809  23.048  1.00  0.00    -0.200 F 
ATOM     84  C   UNL A   1      51.769  26.195  25.226  1.00  0.00     0.200 A 
ATOM     85  F   UNL A   1      52.389  25.578  27.419  1.00  0.00    -0.200 F 
ATOM     86  F   UNL A   1      53.007  25.932  24.786  1.00  0.00    -0.200 F 
ENDBRANCH  52  76
BRANCH  64  87
ATOM     87  C   UNL A   1      45.928  32.504  28.305  1.00  0.00     0.064 A 
ATOM     88  C   UNL A   1      45.792  33.447  27.277  1.00  0.00     0.173 A 
ATOM     89  C   UNL A   1      46.486  32.931  29.521  1.00  0.00     0.173 A 
ATOM     90  F   UNL A   1      45.282  33.084  26.090  1.00  0.00    -0.203 F 
ATOM     91  C   UNL A   1      46.221  34.761  27.451  1.00  0.00     0.198 A 
ATOM     92  C   UNL A   1      46.886  34.252  29.700  1.00  0.00     0.198 A 
ATOM     93  F   UNL A   1      46.634  32.068  30.537  1.00  0.00    -0.203 F 
ATOM     94  F   UNL A   1      46.125  35.634  26.438  1.00  0.00    -0.200 F 
ATOM     95  C   UNL A   1      46.760  35.164  28.663  1.00  0.00     0.200 A 
ATOM     96  F   UNL A   1      47.395  34.642  30.876  1.00  0.00    -0.200 F 
ATOM     97  F   UNL A   1      47.165  36.430  28.830  1.00  0.00    -0.200 F 
ENDBRANCH  64  87
ENDBRANCH  38  39
ENDBRANCH  30  33
ENDBRANCH  28  29
ENDBRANCH  27  28
ENDBRANCH   1  27
TORSDOF 15
ENDMDL
MODEL 2
REMARK VINA RESULT:     -12.4      0.763      7.385
REMARK SMILES CC(C)c1cc(OCC(=O)NCCCNC(=O)c2ccc(-c3c4nc(c(-c5c(F)c(F)c(F)c(F)c5F)c5ccc([nH]5)c(-c5c(F)c(F)c(F)c(F)c5F)c5nc(c(-c6c(F)c(F)c(F)c(F)c6F)c6ccc3[nH]6)C=C5)C=C4)cc2)nc(Nc2ccc(F)cc2F)n1
REMARK SMILES IDX 12 1 11 2 9 3 10 4 8 6 7 7 6 8 4 9 5 10 92 11 82 12 81 13
REMARK SMILES IDX 2 14 1 15 3 16 83 17 84 19 85 20 90 21 86 22 89 23 91 24
REMARK SMILES IDX 87 25 88 26 13 27 14 28 15 29 16 30 17 32 18 33 19 34 80 35
REMARK SMILES IDX 20 36 79 37 21 38 22 39 23 40 73 41 24 42 78 43 72 44 74 45
REMARK SMILES IDX 25 46 77 47 71 48 70 49 26 51 58 52 38 53 57 54 39 55 42 56
REMARK SMILES IDX 56 57 75 58 40 59 41 60 55 62 76 63 43 64 27 65 28 66 36 67
REMARK SMILES IDX 29 68 30 69 34 70 37 71 31 72 32 73 35 74 33 75 59 76 60 77
REMARK SMILES IDX 68 78 61 79 62 80 66 81 69 82 63 83 64 84 67 85 65 86 44 87
REMARK SMILES IDX 45 88 53 89 46 90 47 91 51 92 54 93 48 94 49 95 52 96 50 97
REMARK H PARENT 11 5 83 18 15 31 74 50 42 61
REMARK Flexibility Score: inf
ROOT
ATOM      1  C   UNL A   1      36.832  20.365  24.918  1.00  0.00     0.117 C 
ENDROOT
BRANCH   1   2
ATOM      2  N   UNL A   1      37.182  21.723  25.290  1.00  0.00    -0.353 N 
ATOM      3  C   UNL A   1      36.955  22.878  24.604  1.00  0.00     0.258 C 
ATOM      4  O   UNL A   1      37.307  23.946  25.108  1.00  0.00    -0.271 OA
ATOM      5  H   UNL A   1      37.645  21.822  26.154  1.00  0.00     0.163 HD
BRANCH   3   6
ATOM      6  C   UNL A   1      36.263  22.832  23.238  1.00  0.00     0.331 C 
BRANCH   6   7
ATOM      7  O   UNL A   1      35.190  23.737  23.055  1.00  0.00    -0.467 OA
BRANCH   7   8
ATOM      8  C   UNL A   1      34.135  23.679  23.921  1.00  0.00     0.218 A 
ATOM      9  C   UNL A   1      32.536  24.494  25.428  1.00  0.00     0.052 A 
ATOM     10  C   UNL A   1      33.646  24.741  24.651  1.00  0.00     0.092 A 
ATOM     11  N   UNL A   1      31.991  23.270  25.499  1.00  0.00    -0.217 NA
ATOM     12  C   UNL A   1      32.530  22.283  24.771  1.00  0.00     0.230 A 
ATOM     13  N   UNL A   1      33.600  22.447  23.986  1.00  0.00    -0.177 NA
BRANCH   9  14
ATOM     14  C   UNL A   1      31.918  25.600  26.262  1.00  0.00     0.032 C 
ATOM     15  C   UNL A   1      32.832  26.823  26.388  1.00  0.00     0.014 C 
ATOM     16  C   UNL A   1      30.564  26.012  25.683  1.00  0.00     0.014 C 
ENDBRANCH   9  14
BRANCH  12  17
ATOM     17  N   UNL A   1      32.024  20.993  24.895  1.00  0.00    -0.322 N 
ATOM     18  H   UNL A   1      31.180  20.903  25.394  1.00  0.00     0.170 HD
BRANCH  17  19
ATOM     19  C   UNL A   1      32.573  19.807  24.393  1.00  0.00     0.077 A 
ATOM     20  C   UNL A   1      33.280  18.957  25.256  1.00  0.00     0.032 A 
ATOM     21  C   UNL A   1      32.343  19.368  23.076  1.00  0.00     0.149 A 
ATOM     22  C   UNL A   1      33.722  17.706  24.815  1.00  0.00     0.041 A 
ATOM     23  C   UNL A   1      32.793  18.132  22.625  1.00  0.00     0.080 A 
ATOM     24  F   UNL A   1      31.717  20.168  22.197  1.00  0.00    -0.205 F 
ATOM     25  C   UNL A   1      33.472  17.307  23.506  1.00  0.00     0.126 A 
ATOM     26  F   UNL A   1      33.890  16.104  23.093  1.00  0.00    -0.207 F 
ENDBRANCH  17  19
ENDBRANCH  12  17
ENDBRANCH   7   8
ENDBRANCH   6   7
ENDBRANCH   3   6
ENDBRANCH   1   2
BRANCH   1  27
ATOM     27  C   UNL A   1      38.007  19.399  25.022  1.00  0.00     0.042 C 
BRANCH  27  28
ATOM     28  C   UNL A   1      39.234  19.954  25.744  1.00  0.00     0.118 C 
BRANCH  28  29
ATOM     29  N   UNL A   1      40.318  18.986  25.864  1.00  0.00    -0.352 N 
ATOM     30  C   UNL A   1      41.654  19.158  26.113  1.00  0.00     0.251 C 
ATOM     31  H   UNL A   1      40.042  18.047  25.748  1.00  0.00     0.163 HD
ATOM     32  O   UNL A   1      42.414  18.191  26.019  1.00  0.00    -0.269 OA
BRANCH  30  33
ATOM     33  C   UNL A   1      42.210  20.484  26.461  1.00  0.00     0.039 A 
ATOM     34  C   UNL A   1      42.751  21.272  25.440  1.00  0.00     0.014 A 
ATOM     35  C   UNL A   1      42.233  20.944  27.779  1.00  0.00     0.014 A 
ATOM     36  C   UNL A   1      43.230  22.553  25.724  1.00  0.00     0.010 A 
ATOM     37  C   UNL A   1      42.651  22.247  28.053  1.00  0.00     0.010 A 
ATOM     38  C   UNL A   1      43.137  23.070  27.027  1.00  0.00    -0.014 A 
BRANCH  38  39
ATOM     39  C   UNL A   1      43.490  24.483  27.321  1.00  0.00     0.031 A 
ATOM     40  C   UNL A   1      44.918  24.945  27.267  1.00  0.00     0.074 A 
ATOM     41  C   UNL A   1      42.524  25.331  27.721  1.00  0.00     0.049 A 
ATOM     42  N   UNL A   1      45.424  26.109  27.590  1.00  0.00    -0.248 NA
ATOM     43  C   UNL A   1      45.913  23.965  26.809  1.00  0.00     0.031 C 
ATOM     44  C   UNL A   1      41.106  24.993  27.854  1.00  0.00     0.029 A 
ATOM     45  N   UNL A   1      42.589  26.646  28.112  1.00  0.00    -0.354 N 
ATOM     46  C   UNL A   1      46.793  25.997  27.387  1.00  0.00     0.074 A 
ATOM     47  C   UNL A   1      47.045  24.640  26.952  1.00  0.00     0.031 C 
ATOM     48  C   UNL A   1      40.434  26.073  28.283  1.00  0.00     0.029 A 
ATOM     49  C   UNL A   1      41.378  27.165  28.499  1.00  0.00     0.049 A 
ATOM     50  H   UNL A   1      43.424  27.168  28.113  1.00  0.00     0.167 HD
ATOM     51  C   UNL A   1      47.749  26.946  27.537  1.00  0.00     0.037 A 
ATOM     52  C   UNL A   1      41.063  28.377  28.993  1.00  0.00     0.037 A 
ATOM     53  C   UNL A   1      47.494  28.301  27.956  1.00  0.00     0.049 A 
ATOM     54  C   UNL A   1      42.148  29.402  29.174  1.00  0.00     0.074 A 
ATOM     55  C   UNL A   1      48.388  29.352  28.071  1.00  0.00     0.029 A 
ATOM     56  N   UNL A   1      46.253  28.790  28.338  1.00  0.00    -0.354 N 
ATOM     57  N   UNL A   1      43.429  29.307  28.916  1.00  0.00    -0.248 NA
ATOM     58  C   UNL A   1      41.742  30.706  29.719  1.00  0.00     0.031 C 
ATOM     59  C   UNL A   1      47.698  30.462  28.569  1.00  0.00     0.029 A 
ATOM     60  C   UNL A   1      46.364  30.119  28.717  1.00  0.00     0.049 A 
ATOM     61  H   UNL A   1      45.416  28.271  28.338  1.00  0.00     0.167 HD
ATOM     62  C   UNL A   1      43.978  30.537  29.246  1.00  0.00     0.074 A 
ATOM     63  C   UNL A   1      42.888  31.372  29.705  1.00  0.00     0.031 C 
ATOM     64  C   UNL A   1      45.271  30.938  29.177  1.00  0.00     0.037 A 
BRANCH  51  65
ATOM     65  C   UNL A   1      49.168  26.555  27.246  1.00  0.00     0.064 A 
ATOM     66  C   UNL A   1      49.684  26.574  25.941  1.00  0.00     0.173 A 
ATOM     67  C   UNL A   1      50.039  26.204  28.290  1.00  0.00     0.173 A 
ATOM     68  F   UNL A   1      48.892  26.894  24.907  1.00  0.00    -0.203 F 
ATOM     69  C   UNL A   1      51.010  26.232  25.689  1.00  0.00     0.198 A 
ATOM     70  C   UNL A   1      51.371  25.890  28.037  1.00  0.00     0.198 A 
ATOM     71  F   UNL A   1      49.600  26.178  29.557  1.00  0.00    -0.203 F 
ATOM     72  F   UNL A   1      51.468  26.215  24.429  1.00  0.00    -0.200 F 
ATOM     73  C   UNL A   1      51.854  25.897  26.737  1.00  0.00     0.200 A 
ATOM     74  F   UNL A   1      52.190  25.580  29.051  1.00  0.00    -0.200 F 
ATOM     75  F   UNL A   1      53.132  25.576  26.493  1.00  0.00    -0.200 F 
ENDBRANCH  51  65
BRANCH  52  76
ATOM     76  C   UNL A   1      39.654  28.690  29.347  1.00  0.00     0.064 A 
ATOM     77  C   UNL A   1      39.192  28.536  30.661  1.00  0.00     0.173 A 
ATOM     78  C   UNL A   1      38.742  29.145  28.382  1.00  0.00     0.173 A 
ATOM     79  F   UNL A   1      40.020  28.081  31.612  1.00  0.00    -0.203 F 
ATOM     80  C   UNL A   1      37.867  28.809  30.993  1.00  0.00     0.198 A 
ATOM     81  C   UNL A   1      37.426  29.446  28.722  1.00  0.00     0.198 A 
ATOM     82  F   UNL A   1      39.136  29.313  27.111  1.00  0.00    -0.203 F 
ATOM     83  F   UNL A   1      37.440  28.611  32.248  1.00  0.00    -0.200 F 
ATOM     84  C   UNL A   1      36.987  29.270  30.026  1.00  0.00     0.200 A 
ATOM     85  F   UNL A   1      36.582  29.904  27.788  1.00  0.00    -0.200 F 
ATOM     86  F   UNL A   1      35.714  29.538  30.349  1.00  0.00    -0.200 F 
ENDBRANCH  52  76
BRANCH  64  87
ATOM     87  C   UNL A   1      45.574  32.348  29.593  1.00  0.00     0.064 A 
ATOM     88  C   UNL A   1      45.942  32.662  30.909  1.00  0.00     0.173 A 
ATOM     89  C   UNL A   1      45.526  33.393  28.656  1.00  0.00     0.173 A 
ATOM     90  F   UNL A   1      45.984  31.703  31.846  1.00  0.00    -0.203 F 
ATOM     91  C   UNL A   1      46.226  33.975  31.278  1.00  0.00     0.198 A 
ATOM     92  C   UNL A   1      45.839  34.698  29.022  1.00  0.00     0.198 A 
ATOM     93  F   UNL A   1      45.184  33.144  27.383  1.00  0.00    -0.203 F 
ATOM     94  F   UNL A   1      46.528  34.260  32.552  1.00  0.00    -0.200 F 
ATOM     95  C   UNL A   1      46.182  34.990  30.334  1.00  0.00     0.200 A 
ATOM     96  F   UNL A   1      45.808  35.675  28.106  1.00  0.00    -0.200 F 
ATOM     97  F   UNL A   1      46.462  36.250  30.690  1.00  0.00    -0.200 F 
ENDBRANCH  64  87
ENDBRANCH  38  39
ENDBRANCH  30  33
ENDBRANCH  28  29
ENDBRANCH  27  28
ENDBRANCH   1  27
TORSDOF 15
ENDMDL
MODEL 3
REMARK VINA RESULT:     -12.3      1.310      3.009
REMARK SMILES CC(C)c1cc(OCC(=O)NCCCNC(=O)c2ccc(-c3c4nc(c(-c5c(F)c(F)c(F)c(F)c5F)c5ccc([nH]5)c(-c5c(F)c(F)c(F)c(F)c5F)c5nc(c(-c6c(F)c(F)c(F)c(F)c6F)c6ccc3[nH]6)C=C5)C=C4)cc2)nc(Nc2ccc(F)cc2F)n1
REMARK SMILES IDX 12 1 11 2 9 3 10 4 8 6 7 7 6 8 4 9 5 10 92 11 82 12 81 13
REMARK SMILES IDX 2 14 1 15 3 16 83 17 84 19 85 20 90 21 86 22 89 23 91 24
REMARK SMILES IDX 87 25 88 26 13 27 14 28 15 29 16 30 17 32 18 33 19 34 80 35
REMARK SMILES IDX 20 36 79 37 21 38 22 39 23 40 73 41 24 42 78 43 72 44 74 45
REMARK SMILES IDX 25 46 77 47 71 48 70 49 26 51 58 52 38 53 57 54 39 55 42 56
REMARK SMILES IDX 56 57 75 58 40 59 41 60 55 62 76 63 43 64 27 65 28 66 36 67
REMARK SMILES IDX 29 68 30 69 34 70 37 71 31 72 32 73 35 74 33 75 59 76 60 77
REMARK SMILES IDX 68 78 61 79 62 80 66 81 69 82 63 83 64 84 67 85 65 86 44 87
REMARK SMILES IDX 45 88 53 89 46 90 47 91 51 92 54 93 48 94 49 95 52 96 50 97
REMARK H PARENT 11 5 83 18 15 31 74 50 42 61
REMARK Flexibility Score: inf
ROOT
ATOM      1  C   UNL A   1      37.460  21.193  24.659  1.00  0.00     0.117 C 
ENDROOT
BRANCH   1   2
ATOM      2  N   UNL A   1      37.939  22.331  25.422  1.00  0.00    -0.353 N 
ATOM      3  C   UNL A   1      37.248  23.433  25.828  1.00  0.00     0.258 C 
ATOM      4  O   UNL A   1      37.832  24.284  26.501  1.00  0.00    -0.271 OA
ATOM      5  H   UNL A   1      38.888  22.301  25.682  1.00  0.00     0.163 HD
BRANCH   3   6
ATOM      6  C   UNL A   1      35.770  23.589  25.457  1.00  0.00     0.331 C 
BRANCH   6   7
ATOM      7  O   UNL A   1      34.876  22.676  26.065  1.00  0.00    -0.467 OA
BRANCH   7   8
ATOM      8  C   UNL A   1      34.035  21.958  25.263  1.00  0.00     0.218 A 
ATOM      9  C   UNL A   1      33.084  20.045  24.300  1.00  0.00     0.052 A 
ATOM     10  C   UNL A   1      34.053  20.589  25.113  1.00  0.00     0.092 A 
ATOM     11  N   UNL A   1      32.196  20.819  23.657  1.00  0.00    -0.217 NA
ATOM     12  C   UNL A   1      32.247  22.145  23.841  1.00  0.00     0.230 A 
ATOM     13  N   UNL A   1      33.153  22.745  24.622  1.00  0.00    -0.177 NA
BRANCH   9  14
ATOM     14  C   UNL A   1      33.016  18.546  24.078  1.00  0.00     0.032 C 
ATOM     15  C   UNL A   1      32.437  18.179  22.708  1.00  0.00     0.014 C 
ATOM     16  C   UNL A   1      34.400  17.918  24.251  1.00  0.00     0.014 C 
ENDBRANCH   9  14
BRANCH  12  17
ATOM     17  N   UNL A   1      31.384  22.965  23.121  1.00  0.00    -0.322 N 
ATOM     18  H   UNL A   1      30.574  22.535  22.763  1.00  0.00     0.170 HD
BRANCH  17  19
ATOM     19  C   UNL A   1      31.533  24.329  22.844  1.00  0.00     0.077 A 
ATOM     20  C   UNL A   1      30.745  25.261  23.534  1.00  0.00     0.032 A 
ATOM     21  C   UNL A   1      32.532  24.818  21.982  1.00  0.00     0.149 A 
ATOM     22  C   UNL A   1      30.966  26.632  23.376  1.00  0.00     0.041 A 
ATOM     23  C   UNL A   1      32.748  26.181  21.807  1.00  0.00     0.080 A 
ATOM     24  F   UNL A   1      33.278  23.967  21.259  1.00  0.00    -0.205 F 
ATOM     25  C   UNL A   1      31.966  27.077  22.517  1.00  0.00     0.126 A 
ATOM     26  F   UNL A   1      32.178  28.392  22.378  1.00  0.00    -0.207 F 
ENDBRANCH  17  19
ENDBRANCH  12  17
ENDBRANCH   7   8
ENDBRANCH   6   7
ENDBRANCH   3   6
ENDBRANCH   1   2
BRANCH   1  27
ATOM     27  C   UNL A   1      38.226  19.910  24.963  1.00  0.00     0.042 C 
BRANCH  27  28
ATOM     28  C   UNL A   1      39.213  20.010  26.126  1.00  0.00     0.118 C 
BRANCH  28  29
ATOM     29  N   UNL A   1      40.291  19.030  26.051  1.00  0.00    -0.352 N 
ATOM     30  C   UNL A   1      41.651  19.184  26.112  1.00  0.00     0.251 C 
ATOM     31  H   UNL A   1      39.989  18.099  25.939  1.00  0.00     0.163 HD
ATOM     32  O   UNL A   1      42.377  18.216  25.873  1.00  0.00    -0.269 OA
BRANCH  30  33
ATOM     33  C   UNL A   1      42.267  20.490  26.428  1.00  0.00     0.039 A 
ATOM     34  C   UNL A   1      42.701  21.299  25.372  1.00  0.00     0.014 A 
ATOM     35  C   UNL A   1      42.452  20.913  27.747  1.00  0.00     0.014 A 
ATOM     36  C   UNL A   1      43.233  22.564  25.633  1.00  0.00     0.010 A 
ATOM     37  C   UNL A   1      42.922  22.200  28.004  1.00  0.00     0.010 A 
ATOM     38  C   UNL A   1      43.301  23.045  26.950  1.00  0.00    -0.014 A 
BRANCH  38  39
ATOM     39  C   UNL A   1      43.712  24.444  27.239  1.00  0.00     0.031 A 
ATOM     40  C   UNL A   1      42.711  25.455  27.718  1.00  0.00     0.074 A 
ATOM     41  C   UNL A   1      44.980  24.821  26.985  1.00  0.00     0.049 A 
ATOM     42  N   UNL A   1      42.864  26.739  27.923  1.00  0.00    -0.248 NA
ATOM     43  C   UNL A   1      41.351  24.963  27.985  1.00  0.00     0.031 C 
ATOM     44  C   UNL A   1      46.036  23.943  26.479  1.00  0.00     0.029 A 
ATOM     45  N   UNL A   1      45.592  26.045  27.098  1.00  0.00    -0.354 N 
ATOM     46  C   UNL A   1      41.623  27.210  28.328  1.00  0.00     0.074 A 
ATOM     47  C   UNL A   1      40.716  26.083  28.302  1.00  0.00     0.031 C 
ATOM     48  C   UNL A   1      47.167  24.652  26.335  1.00  0.00     0.029 A 
ATOM     49  C   UNL A   1      46.905  26.042  26.695  1.00  0.00     0.049 A 
ATOM     50  H   UNL A   1      45.133  26.848  27.436  1.00  0.00     0.167 HD
ATOM     51  C   UNL A   1      41.278  28.466  28.701  1.00  0.00     0.037 A 
ATOM     52  C   UNL A   1      47.794  27.049  26.605  1.00  0.00     0.037 A 
ATOM     53  C   UNL A   1      42.186  29.583  28.741  1.00  0.00     0.049 A 
ATOM     54  C   UNL A   1      47.376  28.438  27.000  1.00  0.00     0.074 A 
ATOM     55  C   UNL A   1      41.945  30.878  29.170  1.00  0.00     0.029 A 
ATOM     56  N   UNL A   1      43.510  29.542  28.328  1.00  0.00    -0.354 N 
ATOM     57  N   UNL A   1      46.218  28.858  27.445  1.00  0.00    -0.248 NA
ATOM     58  C   UNL A   1      48.392  29.494  26.878  1.00  0.00     0.031 C 
ATOM     59  C   UNL A   1      43.108  31.630  28.970  1.00  0.00     0.029 A 
ATOM     60  C   UNL A   1      44.089  30.794  28.463  1.00  0.00     0.049 A 
ATOM     61  H   UNL A   1      43.971  28.740  27.988  1.00  0.00     0.167 HD
ATOM     62  C   UNL A   1      46.368  30.218  27.674  1.00  0.00     0.074 A 
ATOM     63  C   UNL A   1      47.736  30.551  27.339  1.00  0.00     0.031 C 
ATOM     64  C   UNL A   1      45.452  31.113  28.121  1.00  0.00     0.037 A 
BRANCH  51  65
ATOM     65  C   UNL A   1      39.851  28.705  29.099  1.00  0.00     0.064 A 
ATOM     66  C   UNL A   1      39.419  28.543  30.425  1.00  0.00     0.173 A 
ATOM     67  C   UNL A   1      38.912  29.150  28.154  1.00  0.00     0.173 A 
ATOM     68  F   UNL A   1      40.274  28.113  31.364  1.00  0.00    -0.203 F 
ATOM     69  C   UNL A   1      38.097  28.792  30.785  1.00  0.00     0.198 A 
ATOM     70  C   UNL A   1      37.599  29.425  28.523  1.00  0.00     0.198 A 
ATOM     71  F   UNL A   1      39.274  29.329  26.876  1.00  0.00    -0.203 F 
ATOM     72  F   UNL A   1      37.698  28.588  32.048  1.00  0.00    -0.200 F 
ATOM     73  C   UNL A   1      37.190  29.238  29.836  1.00  0.00     0.200 A 
ATOM     74  F   UNL A   1      36.726  29.870  27.609  1.00  0.00    -0.200 F 
ATOM     75  F   UNL A   1      35.920  29.486  30.185  1.00  0.00    -0.200 F 
ENDBRANCH  51  65
BRANCH  52  76
ATOM     76  C   UNL A   1      49.174  26.777  26.124  1.00  0.00     0.064 A 
ATOM     77  C   UNL A   1      49.519  26.976  24.780  1.00  0.00     0.173 A 
ATOM     78  C   UNL A   1      50.172  26.313  26.994  1.00  0.00     0.173 A 
ATOM     79  F   UNL A   1      48.592  27.397  23.907  1.00  0.00    -0.203 F 
ATOM     80  C   UNL A   1      50.805  26.705  24.320  1.00  0.00     0.198 A 
ATOM     81  C   UNL A   1      51.466  26.070  26.538  1.00  0.00     0.198 A 
ATOM     82  F   UNL A   1      49.894  26.110  28.290  1.00  0.00    -0.203 F 
ATOM     83  F   UNL A   1      51.096  26.862  23.022  1.00  0.00    -0.200 F 
ATOM     84  C   UNL A   1      51.779  26.258  25.200  1.00  0.00     0.200 A 
ATOM     85  F   UNL A   1      52.408  25.652  27.394  1.00  0.00    -0.200 F 
ATOM     86  F   UNL A   1      53.018  26.003  24.758  1.00  0.00    -0.200 F 
ENDBRANCH  52  76
BRANCH  64  87
ATOM     87  C   UNL A   1      45.906  32.534  28.288  1.00  0.00     0.064 A 
ATOM     88  C   UNL A   1      45.761  33.476  27.260  1.00  0.00     0.173 A 
ATOM     89  C   UNL A   1      46.465  32.964  29.502  1.00  0.00     0.173 A 
ATOM     90  F   UNL A   1      45.250  33.110  26.075  1.00  0.00    -0.203 F 
ATOM     91  C   UNL A   1      46.182  34.792  27.433  1.00  0.00     0.198 A 
ATOM     92  C   UNL A   1      46.858  34.288  29.680  1.00  0.00     0.198 A 
ATOM     93  F   UNL A   1      46.621  32.102  30.518  1.00  0.00    -0.203 F 
ATOM     94  F   UNL A   1      46.078  35.665  26.420  1.00  0.00    -0.200 F 
ATOM     95  C   UNL A   1      46.723  35.199  28.644  1.00  0.00     0.200 A 
ATOM     96  F   UNL A   1      47.368  34.681  30.854  1.00  0.00    -0.200 F 
ATOM     97  F   UNL A   1      47.121  36.467  28.809  1.00  0.00    -0.200 F 
ENDBRANCH  64  87
ENDBRANCH  38  39
ENDBRANCH  30  33
ENDBRANCH  28  29
ENDBRANCH  27  28
ENDBRANCH   1  27
TORSDOF 15
ENDMDL
