MODEL 1
REMARK VINA RESULT:     -14.0      0.000      0.000
REMARK SMILES Cc1c(/C=C/C(=O)NCCCNC(=O)c2ccc(-c3c4nc(c(-c5c(F)c(F)c(F)c(F)c5F)c5ccc([nH]5)c(-c5c(F)c(F)c(F)c(F)c5F)c5nc(c(-c6c(F)c(F)c(F)c(F)c6F)c6ccc3[nH]6)C=C5)C=C4)cc2)cccc1C(=O)N1C[C@@H](C)[C@@H](C)C1
REMARK SMILES IDX 9 1 8 2 6 3 7 4 5 6 4 7 3 8 1 9 2 10 81 11 78 12 80 13 79 14
REMARK SMILES IDX 82 15 83 16 84 17 85 18 90 19 86 20 88 21 87 22 89 23 10 24
REMARK SMILES IDX 11 25 12 26 13 27 14 29 15 30 16 31 77 32 17 33 76 34 18 35
REMARK SMILES IDX 19 36 20 37 70 38 21 39 75 40 69 41 71 42 22 43 74 44 68 45
REMARK SMILES IDX 67 46 23 48 55 49 35 50 54 51 36 52 39 53 53 54 72 55 37 56
REMARK SMILES IDX 38 57 52 59 73 60 40 61 24 62 25 63 33 64 26 65 27 66 31 67
REMARK SMILES IDX 34 68 28 69 29 70 32 71 30 72 56 73 57 74 65 75 58 76 59 77
REMARK SMILES IDX 63 78 66 79 60 80 61 81 64 82 62 83 41 84 42 85 50 86 43 87
REMARK SMILES IDX 44 88 48 89 51 90 45 91 46 92 49 93 47 94
REMARK H PARENT 8 5 12 28 71 47 39 58
REMARK Flexibility Score: inf
ROOT
ATOM      1  C   UNL A   1      31.561  29.990  26.012  1.00  0.00     0.118 C 
ENDROOT
BRANCH   1   2
ATOM      2  N   UNL A   1      31.042  30.311  24.687  1.00  0.00    -0.352 N 
ATOM      3  C   UNL A   1      30.469  29.471  23.772  1.00  0.00     0.244 C 
ATOM      4  O   UNL A   1      29.976  29.902  22.736  1.00  0.00    -0.270 OA
ATOM      5  H   UNL A   1      31.112  31.255  24.417  1.00  0.00     0.163 HD
BRANCH   3   6
ATOM      6  C   UNL A   1      30.404  28.031  24.101  1.00  0.00     0.072 C 
ATOM      7  C   UNL A   1      31.381  27.210  23.690  1.00  0.00     0.014 C 
BRANCH   7   8
ATOM      8  C   UNL A   1      31.488  25.792  24.075  1.00  0.00    -0.022 A 
ATOM      9  C   UNL A   1      33.294  26.356  25.765  1.00  0.00     0.046 C 
ATOM     10  C   UNL A   1      32.406  25.358  25.073  1.00  0.00    -0.031 A 
ATOM     11  C   UNL A   1      32.465  23.982  25.400  1.00  0.00     0.043 A 
ATOM     12  C   UNL A   1      30.719  24.847  23.380  1.00  0.00     0.008 A 
ATOM     13  C   UNL A   1      31.674  23.064  24.692  1.00  0.00     0.014 A 
ATOM     14  C   UNL A   1      30.810  23.492  23.685  1.00  0.00     0.001 A 
BRANCH  11  15
ATOM     15  C   UNL A   1      33.553  23.397  26.235  1.00  0.00     0.254 C 
ATOM     16  O   UNL A   1      33.267  23.133  27.404  1.00  0.00    -0.269 OA
BRANCH  15  17
ATOM     17  N   UNL A   1      34.783  23.064  25.696  1.00  0.00    -0.338 N 
ATOM     18  C   UNL A   1      35.231  21.688  25.772  1.00  0.00     0.123 C 
ATOM     19  C   UNL A   1      35.823  23.939  25.173  1.00  0.00     0.123 C 
ATOM     20  C   UNL A   1      36.730  21.724  25.512  1.00  0.00     0.010 C 
ATOM     21  C   UNL A   1      36.928  22.996  24.658  1.00  0.00     0.010 C 
ATOM     22  C   UNL A   1      37.229  20.412  24.922  1.00  0.00     0.010 C 
ATOM     23  C   UNL A   1      36.839  22.778  23.148  1.00  0.00     0.010 C 
ENDBRANCH  15  17
ENDBRANCH  11  15
ENDBRANCH   7   8
ENDBRANCH   3   6
ENDBRANCH   1   2
BRANCH   1  24
ATOM     24  C   UNL A   1      33.086  29.997  26.045  1.00  0.00     0.042 C 
BRANCH  24  25
ATOM     25  C   UNL A   1      33.670  29.798  27.430  1.00  0.00     0.118 C 
BRANCH  25  26
ATOM     26  N   UNL A   1      34.244  31.009  28.010  1.00  0.00    -0.352 N 
ATOM     27  C   UNL A   1      35.438  31.182  28.694  1.00  0.00     0.251 C 
ATOM     28  H   UNL A   1      33.702  31.824  27.900  1.00  0.00     0.163 HD
ATOM     29  O   UNL A   1      35.727  32.270  29.157  1.00  0.00    -0.269 OA
BRANCH  27  30
ATOM     30  C   UNL A   1      36.410  30.063  28.745  1.00  0.00     0.039 A 
ATOM     31  C   UNL A   1      36.566  29.362  29.949  1.00  0.00     0.014 A 
ATOM     32  C   UNL A   1      37.288  29.842  27.693  1.00  0.00     0.014 A 
ATOM     33  C   UNL A   1      37.733  28.632  30.174  1.00  0.00     0.010 A 
ATOM     34  C   UNL A   1      38.496  29.242  27.960  1.00  0.00     0.010 A 
ATOM     35  C   UNL A   1      38.743  28.674  29.217  1.00  0.00    -0.014 A 
BRANCH  35  36
ATOM     36  C   UNL A   1      40.117  28.219  29.405  1.00  0.00     0.031 A 
ATOM     37  C   UNL A   1      40.532  26.898  28.876  1.00  0.00     0.074 A 
ATOM     38  C   UNL A   1      41.052  29.117  29.787  1.00  0.00     0.049 A 
ATOM     39  N   UNL A   1      41.705  26.385  29.019  1.00  0.00    -0.248 NA
ATOM     40  C   UNL A   1      39.614  26.022  28.160  1.00  0.00     0.031 C 
ATOM     41  C   UNL A   1      42.489  29.054  29.527  1.00  0.00     0.029 A 
ATOM     42  N   UNL A   1      40.907  30.207  30.662  1.00  0.00    -0.354 N 
ATOM     43  C   UNL A   1      41.789  25.267  28.218  1.00  0.00     0.074 A 
ATOM     44  C   UNL A   1      40.438  25.051  27.760  1.00  0.00     0.031 C 
ATOM     45  C   UNL A   1      43.127  29.833  30.413  1.00  0.00     0.029 A 
ATOM     46  C   UNL A   1      42.135  30.269  31.377  1.00  0.00     0.049 A 
ATOM     47  H   UNL A   1      40.126  30.798  30.760  1.00  0.00     0.167 HD
ATOM     48  C   UNL A   1      43.022  24.728  27.977  1.00  0.00     0.037 A 
ATOM     49  C   UNL A   1      42.188  30.008  32.717  1.00  0.00     0.037 A 
ATOM     50  C   UNL A   1      44.038  25.358  28.825  1.00  0.00     0.049 A 
ATOM     51  C   UNL A   1      43.077  28.850  33.118  1.00  0.00     0.074 A 
ATOM     52  C   UNL A   1      45.015  26.321  28.643  1.00  0.00     0.029 A 
ATOM     53  N   UNL A   1      43.949  25.161  30.190  1.00  0.00    -0.354 N 
ATOM     54  N   UNL A   1      43.670  28.051  32.277  1.00  0.00    -0.248 NA
ATOM     55  C   UNL A   1      43.273  28.433  34.509  1.00  0.00     0.031 C 
ATOM     56  C   UNL A   1      45.504  26.704  29.927  1.00  0.00     0.029 A 
ATOM     57  C   UNL A   1      44.823  25.971  30.882  1.00  0.00     0.049 A 
ATOM     58  H   UNL A   1      43.336  24.519  30.617  1.00  0.00     0.167 HD
ATOM     59  C   UNL A   1      44.225  27.005  32.961  1.00  0.00     0.074 A 
ATOM     60  C   UNL A   1      43.971  27.295  34.358  1.00  0.00     0.031 C 
ATOM     61  C   UNL A   1      44.797  25.942  32.332  1.00  0.00     0.037 A 
BRANCH  48  62
ATOM     62  C   UNL A   1      43.387  23.735  26.888  1.00  0.00     0.064 A 
ATOM     63  C   UNL A   1      42.980  22.383  26.997  1.00  0.00     0.173 A 
ATOM     64  C   UNL A   1      44.169  24.004  25.749  1.00  0.00     0.173 A 
ATOM     65  F   UNL A   1      42.163  21.973  27.976  1.00  0.00    -0.203 F 
ATOM     66  C   UNL A   1      43.394  21.390  26.102  1.00  0.00     0.198 A 
ATOM     67  C   UNL A   1      44.604  23.008  24.868  1.00  0.00     0.198 A 
ATOM     68  F   UNL A   1      44.513  25.242  25.395  1.00  0.00    -0.203 F 
ATOM     69  F   UNL A   1      42.981  20.127  26.275  1.00  0.00    -0.200 F 
ATOM     70  C   UNL A   1      44.226  21.699  25.050  1.00  0.00     0.200 A 
ATOM     71  F   UNL A   1      45.392  23.341  23.835  1.00  0.00    -0.200 F 
ATOM     72  F   UNL A   1      44.643  20.748  24.205  1.00  0.00    -0.200 F 
ENDBRANCH  48  62
BRANCH  49  73
ATOM     73  C   UNL A   1      40.926  30.370  33.411  1.00  0.00     0.064 A 
ATOM     74  C   UNL A   1      40.692  31.726  33.710  1.00  0.00     0.173 A 
ATOM     75  C   UNL A   1      39.826  29.506  33.388  1.00  0.00     0.173 A 
ATOM     76  F   UNL A   1      41.716  32.594  33.737  1.00  0.00    -0.203 F 
ATOM     77  C   UNL A   1      39.397  32.217  33.846  1.00  0.00     0.198 A 
ATOM     78  C   UNL A   1      38.531  30.000  33.540  1.00  0.00     0.198 A 
ATOM     79  F   UNL A   1      39.988  28.209  33.090  1.00  0.00    -0.203 F 
ATOM     80  F   UNL A   1      39.194  33.533  34.003  1.00  0.00    -0.200 F 
ATOM     81  C   UNL A   1      38.317  31.358  33.729  1.00  0.00     0.200 A 
ATOM     82  F   UNL A   1      37.484  29.175  33.399  1.00  0.00    -0.200 F 
ATOM     83  F   UNL A   1      37.068  31.843  33.750  1.00  0.00    -0.200 F 
ENDBRANCH  49  73
BRANCH  61  84
ATOM     84  C   UNL A   1      45.360  24.762  33.059  1.00  0.00     0.064 A 
ATOM     85  C   UNL A   1      44.572  23.653  33.399  1.00  0.00     0.173 A 
ATOM     86  C   UNL A   1      46.681  24.773  33.552  1.00  0.00     0.173 A 
ATOM     87  F   UNL A   1      43.298  23.570  32.985  1.00  0.00    -0.203 F 
ATOM     88  C   UNL A   1      45.079  22.615  34.183  1.00  0.00     0.198 A 
ATOM     89  C   UNL A   1      47.168  23.761  34.374  1.00  0.00     0.198 A 
ATOM     90  F   UNL A   1      47.535  25.755  33.227  1.00  0.00    -0.203 F 
ATOM     91  F   UNL A   1      44.310  21.553  34.459  1.00  0.00    -0.200 F 
ATOM     92  C   UNL A   1      46.368  22.679  34.686  1.00  0.00     0.200 A 
ATOM     93  F   UNL A   1      48.415  23.841  34.860  1.00  0.00    -0.200 F 
ATOM     94  F   UNL A   1      46.842  21.696  35.463  1.00  0.00    -0.200 F 
ENDBRANCH  61  84
ENDBRANCH  35  36
ENDBRANCH  27  30
ENDBRANCH  25  26
ENDBRANCH  24  25
ENDBRANCH   1  24
TORSDOF 13
ENDMDL
MODEL 2
REMARK VINA RESULT:     -13.8      1.297      1.814
REMARK SMILES Cc1c(/C=C/C(=O)NCCCNC(=O)c2ccc(-c3c4nc(c(-c5c(F)c(F)c(F)c(F)c5F)c5ccc([nH]5)c(-c5c(F)c(F)c(F)c(F)c5F)c5nc(c(-c6c(F)c(F)c(F)c(F)c6F)c6ccc3[nH]6)C=C5)C=C4)cc2)cccc1C(=O)N1C[C@@H](C)[C@@H](C)C1
REMARK SMILES IDX 9 1 8 2 6 3 7 4 5 6 4 7 3 8 1 9 2 10 81 11 78 12 80 13 79 14
REMARK SMILES IDX 82 15 83 16 84 17 85 18 90 19 86 20 88 21 87 22 89 23 10 24
REMARK SMILES IDX 11 25 12 26 13 27 14 29 15 30 16 31 77 32 17 33 76 34 18 35
REMARK SMILES IDX 19 36 20 37 70 38 21 39 75 40 69 41 71 42 22 43 74 44 68 45
REMARK SMILES IDX 67 46 23 48 55 49 35 50 54 51 36 52 39 53 53 54 72 55 37 56
REMARK SMILES IDX 38 57 52 59 73 60 40 61 24 62 25 63 33 64 26 65 27 66 31 67
REMARK SMILES IDX 34 68 28 69 29 70 32 71 30 72 56 73 57 74 65 75 58 76 59 77
REMARK SMILES IDX 63 78 66 79 60 80 61 81 64 82 62 83 41 84 42 85 50 86 43 87
REMARK SMILES IDX 44 88 48 89 51 90 45 91 46 92 49 93 47 94
REMARK H PARENT 8 5 12 28 71 47 39 58
REMARK Flexibility Score: inf
ROOT
ATOM      1  C   UNL A   1      31.876  29.649  25.467  1.00  0.00     0.118 C 
ENDROOT
BRANCH   1   2
ATOM      2  N   UNL A   1      32.986  29.679  24.522  1.00  0.00    -0.352 N 
ATOM      3  C   UNL A   1      33.606  28.628  23.903  1.00  0.00     0.244 C 
ATOM      4  O   UNL A   1      34.459  28.811  23.043  1.00  0.00    -0.270 OA
ATOM      5  H   UNL A   1      33.334  30.572  24.299  1.00  0.00     0.163 HD
BRANCH   3   6
ATOM      6  C   UNL A   1      33.167  27.261  24.258  1.00  0.00     0.072 C 
ATOM      7  C   UNL A   1      33.665  26.665  25.352  1.00  0.00     0.014 C 
BRANCH   7   8
ATOM      8  C   UNL A   1      33.199  25.368  25.873  1.00  0.00    -0.022 A 
ATOM      9  C   UNL A   1      35.371  24.269  25.159  1.00  0.00     0.046 C 
ATOM     10  C   UNL A   1      34.006  24.199  25.789  1.00  0.00    -0.031 A 
ATOM     11  C   UNL A   1      33.504  22.979  26.306  1.00  0.00     0.043 A 
ATOM     12  C   UNL A   1      31.898  25.280  26.390  1.00  0.00     0.008 A 
ATOM     13  C   UNL A   1      32.202  22.928  26.826  1.00  0.00     0.014 A 
ATOM     14  C   UNL A   1      31.401  24.069  26.864  1.00  0.00     0.001 A 
BRANCH  11  15
ATOM     15  C   UNL A   1      34.154  21.664  26.042  1.00  0.00     0.254 C 
ATOM     16  O   UNL A   1      35.214  21.446  26.632  1.00  0.00    -0.269 OA
BRANCH  15  17
ATOM     17  N   UNL A   1      33.542  20.694  25.267  1.00  0.00    -0.338 N 
ATOM     18  C   UNL A   1      33.152  21.025  23.912  1.00  0.00     0.123 C 
ATOM     19  C   UNL A   1      33.063  19.375  25.658  1.00  0.00     0.123 C 
ATOM     20  C   UNL A   1      32.154  19.954  23.494  1.00  0.00     0.010 C 
ATOM     21  C   UNL A   1      32.536  18.733  24.359  1.00  0.00     0.010 C 
ATOM     22  C   UNL A   1      32.145  19.754  21.984  1.00  0.00     0.010 C 
ATOM     23  C   UNL A   1      33.560  17.791  23.728  1.00  0.00     0.010 C 
ENDBRANCH  15  17
ENDBRANCH  11  15
ENDBRANCH   7   8
ENDBRANCH   3   6
ENDBRANCH   1   2
BRANCH   1  24
ATOM     24  C   UNL A   1      32.288  30.149  26.848  1.00  0.00     0.042 C 
BRANCH  24  25
ATOM     25  C   UNL A   1      33.781  30.092  27.102  1.00  0.00     0.118 C 
BRANCH  25  26
ATOM     26  N   UNL A   1      34.291  31.211  27.888  1.00  0.00    -0.352 N 
ATOM     27  C   UNL A   1      35.415  31.284  28.697  1.00  0.00     0.251 C 
ATOM     28  H   UNL A   1      33.757  32.037  27.837  1.00  0.00     0.163 HD
ATOM     29  O   UNL A   1      35.653  32.299  29.325  1.00  0.00    -0.269 OA
BRANCH  27  30
ATOM     30  C   UNL A   1      36.385  30.162  28.690  1.00  0.00     0.039 A 
ATOM     31  C   UNL A   1      36.500  29.365  29.838  1.00  0.00     0.014 A 
ATOM     32  C   UNL A   1      37.297  30.025  27.654  1.00  0.00     0.014 A 
ATOM     33  C   UNL A   1      37.659  28.616  30.042  1.00  0.00     0.010 A 
ATOM     34  C   UNL A   1      38.496  29.402  27.912  1.00  0.00     0.010 A 
ATOM     35  C   UNL A   1      38.700  28.733  29.126  1.00  0.00    -0.014 A 
BRANCH  35  36
ATOM     36  C   UNL A   1      40.067  28.260  29.323  1.00  0.00     0.031 A 
ATOM     37  C   UNL A   1      40.467  26.932  28.799  1.00  0.00     0.074 A 
ATOM     38  C   UNL A   1      41.012  29.146  29.706  1.00  0.00     0.049 A 
ATOM     39  N   UNL A   1      41.632  26.404  28.949  1.00  0.00    -0.248 NA
ATOM     40  C   UNL A   1      39.541  26.066  28.080  1.00  0.00     0.031 C 
ATOM     41  C   UNL A   1      42.449  29.064  29.454  1.00  0.00     0.029 A 
ATOM     42  N   UNL A   1      40.876  30.240  30.578  1.00  0.00    -0.354 N 
ATOM     43  C   UNL A   1      41.706  25.283  28.152  1.00  0.00     0.074 A 
ATOM     44  C   UNL A   1      40.354  25.083  27.687  1.00  0.00     0.031 C 
ATOM     45  C   UNL A   1      43.093  29.836  30.341  1.00  0.00     0.029 A 
ATOM     46  C   UNL A   1      42.102  30.288  31.299  1.00  0.00     0.049 A 
ATOM     47  H   UNL A   1      40.103  30.842  30.670  1.00  0.00     0.167 HD
ATOM     48  C   UNL A   1      42.932  24.727  27.919  1.00  0.00     0.037 A 
ATOM     49  C   UNL A   1      42.144  30.030  32.640  1.00  0.00     0.037 A 
ATOM     50  C   UNL A   1      43.952  25.345  28.771  1.00  0.00     0.049 A 
ATOM     51  C   UNL A   1      43.016  28.861  33.049  1.00  0.00     0.074 A 
ATOM     52  C   UNL A   1      44.943  26.295  28.590  1.00  0.00     0.029 A 
ATOM     53  N   UNL A   1      43.853  25.153  30.135  1.00  0.00    -0.354 N 
ATOM     54  N   UNL A   1      43.602  28.052  32.213  1.00  0.00    -0.248 NA
ATOM     55  C   UNL A   1      43.198  28.446  34.442  1.00  0.00     0.031 C 
ATOM     56  C   UNL A   1      45.430  26.674  29.877  1.00  0.00     0.029 A 
ATOM     57  C   UNL A   1      44.735  25.954  30.830  1.00  0.00     0.049 A 
ATOM     58  H   UNL A   1      43.230  24.521  30.560  1.00  0.00     0.167 HD
ATOM     59  C   UNL A   1      44.140  27.001  32.903  1.00  0.00     0.074 A 
ATOM     60  C   UNL A   1      43.882  27.298  34.298  1.00  0.00     0.031 C 
ATOM     61  C   UNL A   1      44.700  25.928  32.280  1.00  0.00     0.037 A 
BRANCH  48  62
ATOM     62  C   UNL A   1      43.290  23.726  26.835  1.00  0.00     0.064 A 
ATOM     63  C   UNL A   1      42.888  22.374  26.958  1.00  0.00     0.173 A 
ATOM     64  C   UNL A   1      44.060  23.988  25.686  1.00  0.00     0.173 A 
ATOM     65  F   UNL A   1      42.081  21.969  27.948  1.00  0.00    -0.203 F 
ATOM     66  C   UNL A   1      43.296  21.375  26.067  1.00  0.00     0.198 A 
ATOM     67  C   UNL A   1      44.489  22.986  24.809  1.00  0.00     0.198 A 
ATOM     68  F   UNL A   1      44.397  25.224  25.318  1.00  0.00    -0.203 F 
ATOM     69  F   UNL A   1      42.888  20.112  26.254  1.00  0.00    -0.200 F 
ATOM     70  C   UNL A   1      44.117  21.677  25.005  1.00  0.00     0.200 A 
ATOM     71  F   UNL A   1      45.266  23.313  23.765  1.00  0.00    -0.200 F 
ATOM     72  F   UNL A   1      44.529  20.721  24.163  1.00  0.00    -0.200 F 
ENDBRANCH  48  62
BRANCH  49  73
ATOM     73  C   UNL A   1      40.884  30.411  33.327  1.00  0.00     0.064 A 
ATOM     74  C   UNL A   1      40.665  31.771  33.619  1.00  0.00     0.173 A 
ATOM     75  C   UNL A   1      39.773  29.560  33.302  1.00  0.00     0.173 A 
ATOM     76  F   UNL A   1      41.699  32.626  33.646  1.00  0.00    -0.203 F 
ATOM     77  C   UNL A   1      39.375  32.278  33.746  1.00  0.00     0.198 A 
ATOM     78  C   UNL A   1      38.484  30.071  33.447  1.00  0.00     0.198 A 
ATOM     79  F   UNL A   1      39.921  28.260  33.011  1.00  0.00    -0.203 F 
ATOM     80  F   UNL A   1      39.188  33.598  33.896  1.00  0.00    -0.200 F 
ATOM     81  C   UNL A   1      38.285  31.432  33.628  1.00  0.00     0.200 A 
ATOM     82  F   UNL A   1      37.428  29.258  33.304  1.00  0.00    -0.200 F 
ATOM     83  F   UNL A   1      37.042  31.933  33.641  1.00  0.00    -0.200 F 
ENDBRANCH  49  73
BRANCH  61  84
ATOM     84  C   UNL A   1      45.244  24.743  33.013  1.00  0.00     0.064 A 
ATOM     85  C   UNL A   1      44.445  23.637  33.333  1.00  0.00     0.173 A 
ATOM     86  C   UNL A   1      46.555  24.746  33.531  1.00  0.00     0.173 A 
ATOM     87  F   UNL A   1      43.179  23.561  32.895  1.00  0.00    -0.203 F 
ATOM     88  C   UNL A   1      44.932  22.594  34.123  1.00  0.00     0.198 A 
ATOM     89  C   UNL A   1      47.022  23.728  34.358  1.00  0.00     0.198 A 
ATOM     90  F   UNL A   1      47.421  25.725  33.226  1.00  0.00    -0.203 F 
ATOM     91  F   UNL A   1      44.152  21.534  34.380  1.00  0.00    -0.200 F 
ATOM     92  C   UNL A   1      46.211  22.649  34.651  1.00  0.00     0.200 A 
ATOM     93  F   UNL A   1      48.259  23.801  34.868  1.00  0.00    -0.200 F 
ATOM     94  F   UNL A   1      46.665  21.661  35.433  1.00  0.00    -0.200 F 
ENDBRANCH  61  84
ENDBRANCH  35  36
ENDBRANCH  27  30
ENDBRANCH  25  26
ENDBRANCH  24  25
ENDBRANCH   1  24
TORSDOF 13
ENDMDL
MODEL 3
REMARK VINA RESULT:     -13.6      3.363      9.628
REMARK SMILES Cc1c(/C=C/C(=O)NCCCNC(=O)c2ccc(-c3c4nc(c(-c5c(F)c(F)c(F)c(F)c5F)c5ccc([nH]5)c(-c5c(F)c(F)c(F)c(F)c5F)c5nc(c(-c6c(F)c(F)c(F)c(F)c6F)c6ccc3[nH]6)C=C5)C=C4)cc2)cccc1C(=O)N1C[C@@H](C)[C@@H](C)C1
REMARK SMILES IDX 9 1 8 2 6 3 7 4 5 6 4 7 3 8 1 9 2 10 81 11 78 12 80 13 79 14
REMARK SMILES IDX 82 15 83 16 84 17 85 18 90 19 86 20 88 21 87 22 89 23 10 24
REMARK SMILES IDX 11 25 12 26 13 27 14 29 15 30 16 31 77 32 17 33 76 34 18 35
REMARK SMILES IDX 19 36 20 37 70 38 21 39 75 40 69 41 71 42 22 43 74 44 68 45
REMARK SMILES IDX 67 46 23 48 55 49 35 50 54 51 36 52 39 53 53 54 72 55 37 56
REMARK SMILES IDX 38 57 52 59 73 60 40 61 24 62 25 63 33 64 26 65 27 66 31 67
REMARK SMILES IDX 34 68 28 69 29 70 32 71 30 72 56 73 57 74 65 75 58 76 59 77
REMARK SMILES IDX 63 78 66 79 60 80 61 81 64 82 62 83 41 84 42 85 50 86 43 87
REMARK SMILES IDX 44 88 48 89 51 90 45 91 46 92 49 93 47 94
REMARK H PARENT 8 5 12 28 71 47 39 58
REMARK Flexibility Score: inf
ROOT
ATOM      1  C   UNL A   1      36.029  21.084  25.724  1.00  0.00     0.118 C 
ENDROOT
BRANCH   1   2
ATOM      2  N   UNL A   1      35.277  19.940  25.223  1.00  0.00    -0.352 N 
ATOM      3  C   UNL A   1      34.011  19.915  24.705  1.00  0.00     0.244 C 
ATOM      4  O   UNL A   1      33.544  18.891  24.218  1.00  0.00    -0.270 OA
ATOM      5  H   UNL A   1      35.741  19.073  25.261  1.00  0.00     0.163 HD
BRANCH   3   6
ATOM      6  C   UNL A   1      33.244  21.179  24.691  1.00  0.00     0.072 C 
ATOM      7  C   UNL A   1      33.414  22.049  23.684  1.00  0.00     0.014 C 
BRANCH   7   8
ATOM      8  C   UNL A   1      32.608  23.268  23.499  1.00  0.00    -0.022 A 
ATOM      9  C   UNL A   1      34.681  24.710  23.738  1.00  0.00     0.046 C 
ATOM     10  C   UNL A   1      33.199  24.563  23.522  1.00  0.00    -0.031 A 
ATOM     11  C   UNL A   1      32.373  25.698  23.340  1.00  0.00     0.043 A 
ATOM     12  C   UNL A   1      31.216  23.142  23.376  1.00  0.00     0.008 A 
ATOM     13  C   UNL A   1      30.985  25.536  23.209  1.00  0.00     0.014 A 
ATOM     14  C   UNL A   1      30.409  24.267  23.232  1.00  0.00     0.001 A 
BRANCH  11  15
ATOM     15  C   UNL A   1      32.845  27.088  23.597  1.00  0.00     0.254 C 
ATOM     16  O   UNL A   1      33.059  27.790  22.606  1.00  0.00    -0.269 OA
BRANCH  15  17
ATOM     17  N   UNL A   1      32.930  27.601  24.880  1.00  0.00    -0.338 N 
ATOM     18  C   UNL A   1      33.379  28.967  25.059  1.00  0.00     0.123 C 
ATOM     19  C   UNL A   1      32.783  26.911  26.155  1.00  0.00     0.123 C 
ATOM     20  C   UNL A   1      33.777  29.084  26.524  1.00  0.00     0.010 C 
ATOM     21  C   UNL A   1      32.920  28.009  27.229  1.00  0.00     0.010 C 
ATOM     22  C   UNL A   1      33.642  30.514  27.030  1.00  0.00     0.010 C 
ATOM     23  C   UNL A   1      31.562  28.494  27.731  1.00  0.00     0.010 C 
ENDBRANCH  15  17
ENDBRANCH  11  15
ENDBRANCH   7   8
ENDBRANCH   3   6
ENDBRANCH   1   2
BRANCH   1  24
ATOM     24  C   UNL A   1      37.355  21.263  24.991  1.00  0.00     0.042 C 
BRANCH  24  25
ATOM     25  C   UNL A   1      38.136  22.487  25.426  1.00  0.00     0.118 C 
BRANCH  25  26
ATOM     26  N   UNL A   1      39.469  22.186  25.940  1.00  0.00    -0.352 N 
ATOM     27  C   UNL A   1      40.402  23.029  26.524  1.00  0.00     0.251 C 
ATOM     28  H   UNL A   1      39.747  21.245  25.859  1.00  0.00     0.163 HD
ATOM     29  O   UNL A   1      41.496  22.603  26.847  1.00  0.00    -0.269 OA
BRANCH  27  30
ATOM     30  C   UNL A   1      40.009  24.417  26.865  1.00  0.00     0.039 A 
ATOM     31  C   UNL A   1      40.605  25.476  26.165  1.00  0.00     0.014 A 
ATOM     32  C   UNL A   1      39.225  24.675  27.981  1.00  0.00     0.014 A 
ATOM     33  C   UNL A   1      40.610  26.754  26.725  1.00  0.00     0.010 A 
ATOM     34  C   UNL A   1      39.346  25.896  28.602  1.00  0.00     0.010 A 
ATOM     35  C   UNL A   1      40.077  26.928  27.999  1.00  0.00    -0.014 A 
BRANCH  35  36
ATOM     36  C   UNL A   1      40.252  28.105  28.843  1.00  0.00     0.031 A 
ATOM     37  C   UNL A   1      39.295  29.232  28.739  1.00  0.00     0.074 A 
ATOM     38  C   UNL A   1      41.090  28.029  29.901  1.00  0.00     0.049 A 
ATOM     39  N   UNL A   1      39.377  30.331  29.407  1.00  0.00    -0.248 NA
ATOM     40  C   UNL A   1      38.165  29.213  27.818  1.00  0.00     0.031 C 
ATOM     41  C   UNL A   1      41.027  28.815  31.132  1.00  0.00     0.029 A 
ATOM     42  N   UNL A   1      42.303  27.326  30.001  1.00  0.00    -0.354 N 
ATOM     43  C   UNL A   1      38.211  31.041  29.219  1.00  0.00     0.074 A 
ATOM     44  C   UNL A   1      37.523  30.330  28.168  1.00  0.00     0.031 C 
ATOM     45  C   UNL A   1      42.232  28.799  31.721  1.00  0.00     0.029 A 
ATOM     46  C   UNL A   1      43.143  28.157  30.793  1.00  0.00     0.049 A 
ATOM     47  H   UNL A   1      42.524  26.451  29.609  1.00  0.00     0.167 HD
ATOM     48  C   UNL A   1      37.944  32.090  30.052  1.00  0.00     0.037 A 
ATOM     49  C   UNL A   1      44.255  28.749  30.264  1.00  0.00     0.037 A 
ATOM     50  C   UNL A   1      39.106  32.393  30.893  1.00  0.00     0.049 A 
ATOM     51  C   UNL A   1      44.270  30.263  30.310  1.00  0.00     0.074 A 
ATOM     52  C   UNL A   1      39.467  32.138  32.205  1.00  0.00     0.029 A 
ATOM     53  N   UNL A   1      40.247  32.862  30.270  1.00  0.00    -0.354 N 
ATOM     54  N   UNL A   1      43.267  30.997  30.701  1.00  0.00    -0.248 NA
ATOM     55  C   UNL A   1      45.384  31.070  29.807  1.00  0.00     0.031 C 
ATOM     56  C   UNL A   1      40.850  32.455  32.352  1.00  0.00     0.029 A 
ATOM     57  C   UNL A   1      41.321  32.901  31.132  1.00  0.00     0.049 A 
ATOM     58  H   UNL A   1      40.288  33.134  29.324  1.00  0.00     0.167 HD
ATOM     59  C   UNL A   1      43.537  32.310  30.433  1.00  0.00     0.074 A 
ATOM     60  C   UNL A   1      44.882  32.313  29.892  1.00  0.00     0.031 C 
ATOM     61  C   UNL A   1      42.616  33.297  30.610  1.00  0.00     0.037 A 
BRANCH  48  62
ATOM     62  C   UNL A   1      36.608  32.783  30.249  1.00  0.00     0.064 A 
ATOM     63  C   UNL A   1      36.042  33.544  29.197  1.00  0.00     0.173 A 
ATOM     64  C   UNL A   1      35.851  32.802  31.436  1.00  0.00     0.173 A 
ATOM     65  F   UNL A   1      36.590  33.567  27.974  1.00  0.00    -0.203 F 
ATOM     66  C   UNL A   1      34.885  34.315  29.352  1.00  0.00     0.198 A 
ATOM     67  C   UNL A   1      34.708  33.592  31.600  1.00  0.00     0.198 A 
ATOM     68  F   UNL A   1      36.138  32.026  32.479  1.00  0.00    -0.203 F 
ATOM     69  F   UNL A   1      34.414  35.022  28.316  1.00  0.00    -0.200 F 
ATOM     70  C   UNL A   1      34.230  34.358  30.562  1.00  0.00     0.200 A 
ATOM     71  F   UNL A   1      34.073  33.594  32.781  1.00  0.00    -0.200 F 
ATOM     72  F   UNL A   1      33.136  35.112  30.723  1.00  0.00    -0.200 F 
ENDBRANCH  48  62
BRANCH  49  73
ATOM     73  C   UNL A   1      44.856  27.942  29.171  1.00  0.00     0.064 A 
ATOM     74  C   UNL A   1      45.664  26.842  29.517  1.00  0.00     0.173 A 
ATOM     75  C   UNL A   1      44.318  27.979  27.879  1.00  0.00     0.173 A 
ATOM     76  F   UNL A   1      46.194  26.761  30.747  1.00  0.00    -0.203 F 
ATOM     77  C   UNL A   1      45.813  25.762  28.652  1.00  0.00     0.198 A 
ATOM     78  C   UNL A   1      44.485  26.901  27.010  1.00  0.00     0.198 A 
ATOM     79  F   UNL A   1      43.526  28.993  27.502  1.00  0.00    -0.203 F 
ATOM     80  F   UNL A   1      46.481  24.671  29.055  1.00  0.00    -0.200 F 
ATOM     81  C   UNL A   1      45.197  25.780  27.412  1.00  0.00     0.200 A 
ATOM     82  F   UNL A   1      43.865  26.904  25.822  1.00  0.00    -0.200 F 
ATOM     83  F   UNL A   1      45.248  24.699  26.622  1.00  0.00    -0.200 F 
ENDBRANCH  49  73
BRANCH  61  84
ATOM     84  C   UNL A   1      42.871  34.731  30.271  1.00  0.00     0.064 A 
ATOM     85  C   UNL A   1      42.794  35.209  28.955  1.00  0.00     0.173 A 
ATOM     86  C   UNL A   1      43.332  35.639  31.246  1.00  0.00     0.173 A 
ATOM     87  F   UNL A   1      42.381  34.406  27.962  1.00  0.00    -0.203 F 
ATOM     88  C   UNL A   1      43.154  36.520  28.636  1.00  0.00     0.198 A 
ATOM     89  C   UNL A   1      43.736  36.930  30.917  1.00  0.00     0.198 A 
ATOM     90  F   UNL A   1      43.377  35.301  32.543  1.00  0.00    -0.203 F 
ATOM     91  F   UNL A   1      43.033  36.954  27.374  1.00  0.00    -0.200 F 
ATOM     92  C   UNL A   1      43.643  37.372  29.612  1.00  0.00     0.200 A 
ATOM     93  F   UNL A   1      44.215  37.739  31.872  1.00  0.00    -0.200 F 
ATOM     94  F   UNL A   1      44.016  38.619  29.298  1.00  0.00    -0.200 F 
ENDBRANCH  61  84
ENDBRANCH  35  36
ENDBRANCH  27  30
ENDBRANCH  25  26
ENDBRANCH  24  25
ENDBRANCH   1  24
TORSDOF 13
ENDMDL
