MODEL 1
REMARK VINA RESULT:     -14.2      0.000      0.000
REMARK SMILES Cc1cc(C)n(-c2nc(C)c(C)c(Oc3cccc(C(=O)NCCCNC(=O)c4ccc(-c5c6nc(c(-c7c(F)c(F)c(F)c(F)c7F)c7ccc([nH]7)c(-c7c(F)c(F)c(F)c(F)c7F)c7nc(c(-c8c(F)c(F)c(F)c(F)c8F)c8ccc5[nH]8)C=C7)C=C6)cc4)c3)n2)n1
REMARK SMILES IDX 23 1 22 2 20 3 21 4 19 6 15 7 16 8 92 9 17 10 18 11 14 12
REMARK SMILES IDX 13 13 7 14 8 15 93 16 9 17 10 18 11 19 12 20 6 21 1 22 2 23
REMARK SMILES IDX 3 24 94 25 4 26 5 27 24 28 25 29 26 30 27 31 28 33 29 34
REMARK SMILES IDX 30 35 91 36 31 37 90 38 32 39 33 40 34 41 84 42 35 43 89 44
REMARK SMILES IDX 83 45 85 46 36 47 88 48 82 49 81 50 37 52 69 53 49 54 68 55
REMARK SMILES IDX 50 56 53 57 67 58 86 59 51 60 52 61 66 63 87 64 54 65 38 66
REMARK SMILES IDX 39 67 47 68 40 69 41 70 45 71 48 72 42 73 43 74 46 75 44 76
REMARK SMILES IDX 70 77 71 78 79 79 72 80 73 81 77 82 80 83 74 84 75 85 78 86
REMARK SMILES IDX 76 87 55 88 56 89 64 90 57 91 58 92 62 93 65 94 59 95 60 96
REMARK SMILES IDX 63 97 61 98
REMARK H PARENT 22 5 26 32 85 51 53 62
REMARK Flexibility Score: inf
ROOT
ATOM      1  C   UNL A   1      36.219  22.161  25.199  1.00  0.00     0.118 C 
ENDROOT
BRANCH   1   2
ATOM      2  N   UNL A   1      35.524  21.934  26.455  1.00  0.00    -0.352 N 
ATOM      3  C   UNL A   1      34.227  22.148  26.851  1.00  0.00     0.251 C 
ATOM      4  O   UNL A   1      33.937  21.821  28.005  1.00  0.00    -0.269 OA
ATOM      5  H   UNL A   1      36.094  21.551  27.160  1.00  0.00     0.163 HD
BRANCH   3   6
ATOM      6  C   UNL A   1      33.162  22.705  25.965  1.00  0.00     0.043 A 
ATOM      7  C   UNL A   1      31.374  24.248  25.403  1.00  0.00     0.130 A 
ATOM      8  C   UNL A   1      31.296  23.718  24.119  1.00  0.00     0.047 A 
ATOM      9  C   UNL A   1      32.242  23.685  26.341  1.00  0.00     0.061 A 
ATOM     10  C   UNL A   1      32.143  22.678  23.749  1.00  0.00     0.005 A 
ATOM     11  C   UNL A   1      33.084  22.191  24.660  1.00  0.00     0.014 A 
BRANCH   7  12
ATOM     12  O   UNL A   1      30.498  25.260  25.716  1.00  0.00    -0.439 OA
BRANCH  12  13
ATOM     13  C   UNL A   1      30.840  26.577  25.389  1.00  0.00     0.227 A 
ATOM     14  C   UNL A   1      32.039  28.493  25.748  1.00  0.00     0.254 A 
ATOM     15  N   UNL A   1      31.426  29.119  24.719  1.00  0.00    -0.216 NA
ATOM     16  N   UNL A   1      31.798  27.214  26.096  1.00  0.00    -0.175 NA
ATOM     17  C   UNL A   1      30.569  28.408  23.957  1.00  0.00     0.050 A 
ATOM     18  C   UNL A   1      30.163  29.085  22.680  1.00  0.00     0.067 C 
ATOM     19  C   UNL A   1      30.184  27.120  24.291  1.00  0.00     0.033 A 
ATOM     20  C   UNL A   1      29.162  26.359  23.506  1.00  0.00     0.052 C 
BRANCH  14  21
ATOM     21  N   UNL A   1      33.010  29.265  26.483  1.00  0.00    -0.203 N 
ATOM     22  C   UNL A   1      36.403  29.734  27.455  1.00  0.00     0.069 C 
ATOM     23  C   UNL A   1      34.944  29.832  27.203  1.00  0.00     0.060 A 
ATOM     24  C   UNL A   1      34.136  30.979  27.325  1.00  0.00     0.049 A 
ATOM     25  N   UNL A   1      34.238  28.763  26.815  1.00  0.00    -0.170 NA
ATOM     26  C   UNL A   1      32.888  30.590  26.892  1.00  0.00     0.045 A 
ATOM     27  C   UNL A   1      31.612  31.349  26.874  1.00  0.00     0.067 C 
ENDBRANCH  14  21
ENDBRANCH  12  13
ENDBRANCH   7  12
ENDBRANCH   3   6
ENDBRANCH   1   2
BRANCH   1  28
ATOM     28  C   UNL A   1      37.640  21.577  25.235  1.00  0.00     0.042 C 
BRANCH  28  29
ATOM     29  C   UNL A   1      38.631  22.567  25.820  1.00  0.00     0.118 C 
BRANCH  29  30
ATOM     30  N   UNL A   1      39.534  21.935  26.788  1.00  0.00    -0.352 N 
ATOM     31  C   UNL A   1      40.556  22.510  27.525  1.00  0.00     0.251 C 
ATOM     32  H   UNL A   1      39.395  20.971  26.934  1.00  0.00     0.163 HD
ATOM     33  O   UNL A   1      41.433  21.829  28.026  1.00  0.00    -0.269 OA
BRANCH  31  34
ATOM     34  C   UNL A   1      40.547  23.971  27.695  1.00  0.00     0.039 A 
ATOM     35  C   UNL A   1      39.430  24.747  27.378  1.00  0.00     0.014 A 
ATOM     36  C   UNL A   1      41.690  24.551  28.233  1.00  0.00     0.014 A 
ATOM     37  C   UNL A   1      39.461  26.104  27.682  1.00  0.00     0.010 A 
ATOM     38  C   UNL A   1      41.628  25.817  28.739  1.00  0.00     0.010 A 
ATOM     39  C   UNL A   1      40.563  26.624  28.385  1.00  0.00    -0.014 A 
BRANCH  39  40
ATOM     40  C   UNL A   1      40.597  28.002  28.844  1.00  0.00     0.031 A 
ATOM     41  C   UNL A   1      41.702  28.802  28.264  1.00  0.00     0.074 A 
ATOM     42  C   UNL A   1      39.609  28.556  29.581  1.00  0.00     0.049 A 
ATOM     43  N   UNL A   1      42.754  29.232  28.875  1.00  0.00    -0.248 NA
ATOM     44  C   UNL A   1      41.729  29.008  26.807  1.00  0.00     0.031 C 
ATOM     45  C   UNL A   1      38.319  27.983  29.987  1.00  0.00     0.029 A 
ATOM     46  N   UNL A   1      39.540  29.816  30.085  1.00  0.00    -0.354 N 
ATOM     47  C   UNL A   1      43.483  29.942  27.927  1.00  0.00     0.074 A 
ATOM     48  C   UNL A   1      42.910  29.612  26.650  1.00  0.00     0.031 C 
ATOM     49  C   UNL A   1      37.521  28.954  30.485  1.00  0.00     0.029 A 
ATOM     50  C   UNL A   1      38.302  30.169  30.608  1.00  0.00     0.049 A 
ATOM     51  H   UNL A   1      40.308  30.432  30.081  1.00  0.00     0.167 HD
ATOM     52  C   UNL A   1      44.330  30.934  28.318  1.00  0.00     0.037 A 
ATOM     53  C   UNL A   1      37.954  31.377  31.118  1.00  0.00     0.037 A 
ATOM     54  C   UNL A   1      44.651  30.807  29.720  1.00  0.00     0.049 A 
ATOM     55  C   UNL A   1      39.217  32.057  31.495  1.00  0.00     0.074 A 
ATOM     56  C   UNL A   1      45.263  29.834  30.489  1.00  0.00     0.029 A 
ATOM     57  N   UNL A   1      43.965  31.598  30.611  1.00  0.00    -0.354 N 
ATOM     58  N   UNL A   1      40.001  31.639  32.451  1.00  0.00    -0.248 NA
ATOM     59  C   UNL A   1      39.844  32.902  30.493  1.00  0.00     0.031 C 
ATOM     60  C   UNL A   1      44.517  29.800  31.705  1.00  0.00     0.029 A 
ATOM     61  C   UNL A   1      43.546  30.801  31.645  1.00  0.00     0.049 A 
ATOM     62  H   UNL A   1      43.802  32.565  30.521  1.00  0.00     0.167 HD
ATOM     63  C   UNL A   1      41.285  31.802  31.952  1.00  0.00     0.074 A 
ATOM     64  C   UNL A   1      41.127  32.652  30.771  1.00  0.00     0.031 C 
ATOM     65  C   UNL A   1      42.311  31.004  32.368  1.00  0.00     0.037 A 
BRANCH  52  66
ATOM     66  C   UNL A   1      44.540  32.224  27.556  1.00  0.00     0.064 A 
ATOM     67  C   UNL A   1      45.738  32.395  26.831  1.00  0.00     0.173 A 
ATOM     68  C   UNL A   1      43.780  33.398  27.747  1.00  0.00     0.173 A 
ATOM     69  F   UNL A   1      46.549  31.352  26.592  1.00  0.00    -0.203 F 
ATOM     70  C   UNL A   1      46.184  33.654  26.422  1.00  0.00     0.198 A 
ATOM     71  C   UNL A   1      44.202  34.645  27.291  1.00  0.00     0.198 A 
ATOM     72  F   UNL A   1      42.656  33.419  28.470  1.00  0.00    -0.203 F 
ATOM     73  F   UNL A   1      47.392  33.780  25.858  1.00  0.00    -0.200 F 
ATOM     74  C   UNL A   1      45.420  34.780  26.662  1.00  0.00     0.200 A 
ATOM     75  F   UNL A   1      43.453  35.727  27.549  1.00  0.00    -0.200 F 
ATOM     76  F   UNL A   1      45.873  35.996  26.331  1.00  0.00    -0.200 F 
ENDBRANCH  52  66
BRANCH  53  77
ATOM     77  C   UNL A   1      36.664  32.095  30.988  1.00  0.00     0.064 A 
ATOM     78  C   UNL A   1      35.847  32.331  32.106  1.00  0.00     0.173 A 
ATOM     79  C   UNL A   1      36.353  32.823  29.822  1.00  0.00     0.173 A 
ATOM     80  F   UNL A   1      36.105  31.715  33.269  1.00  0.00    -0.203 F 
ATOM     81  C   UNL A   1      34.799  33.257  32.068  1.00  0.00     0.198 A 
ATOM     82  C   UNL A   1      35.307  33.747  29.786  1.00  0.00     0.198 A 
ATOM     83  F   UNL A   1      37.121  32.724  28.728  1.00  0.00    -0.203 F 
ATOM     84  F   UNL A   1      34.081  33.502  33.175  1.00  0.00    -0.200 F 
ATOM     85  C   UNL A   1      34.538  33.975  30.913  1.00  0.00     0.200 A 
ATOM     86  F   UNL A   1      35.092  34.465  28.674  1.00  0.00    -0.200 F 
ATOM     87  F   UNL A   1      33.578  34.910  30.896  1.00  0.00    -0.200 F 
ENDBRANCH  53  77
BRANCH  65  88
ATOM     88  C   UNL A   1      42.063  30.091  33.542  1.00  0.00     0.064 A 
ATOM     89  C   UNL A   1      41.627  28.760  33.424  1.00  0.00     0.173 A 
ATOM     90  C   UNL A   1      42.458  30.524  34.813  1.00  0.00     0.173 A 
ATOM     91  F   UNL A   1      41.311  28.240  32.234  1.00  0.00    -0.203 F 
ATOM     92  C   UNL A   1      41.573  27.911  34.530  1.00  0.00     0.198 A 
ATOM     93  C   UNL A   1      42.434  29.667  35.910  1.00  0.00     0.198 A 
ATOM     94  F   UNL A   1      42.929  31.770  34.980  1.00  0.00    -0.203 F 
ATOM     95  F   UNL A   1      41.160  26.642  34.386  1.00  0.00    -0.200 F 
ATOM     96  C   UNL A   1      41.989  28.362  35.770  1.00  0.00     0.200 A 
ATOM     97  F   UNL A   1      42.881  30.095  37.099  1.00  0.00    -0.200 F 
ATOM     98  F   UNL A   1      41.990  27.534  36.824  1.00  0.00    -0.200 F 
ENDBRANCH  65  88
ENDBRANCH  39  40
ENDBRANCH  31  34
ENDBRANCH  29  30
ENDBRANCH  28  29
ENDBRANCH   1  28
TORSDOF 13
ENDMDL
MODEL 2
REMARK VINA RESULT:     -14.0      1.164      2.500
REMARK SMILES Cc1cc(C)n(-c2nc(C)c(C)c(Oc3cccc(C(=O)NCCCNC(=O)c4ccc(-c5c6nc(c(-c7c(F)c(F)c(F)c(F)c7F)c7ccc([nH]7)c(-c7c(F)c(F)c(F)c(F)c7F)c7nc(c(-c8c(F)c(F)c(F)c(F)c8F)c8ccc5[nH]8)C=C7)C=C6)cc4)c3)n2)n1
REMARK SMILES IDX 23 1 22 2 20 3 21 4 19 6 15 7 16 8 92 9 17 10 18 11 14 12
REMARK SMILES IDX 13 13 7 14 8 15 93 16 9 17 10 18 11 19 12 20 6 21 1 22 2 23
REMARK SMILES IDX 3 24 94 25 4 26 5 27 24 28 25 29 26 30 27 31 28 33 29 34
REMARK SMILES IDX 30 35 91 36 31 37 90 38 32 39 33 40 34 41 84 42 35 43 89 44
REMARK SMILES IDX 83 45 85 46 36 47 88 48 82 49 81 50 37 52 69 53 49 54 68 55
REMARK SMILES IDX 50 56 53 57 67 58 86 59 51 60 52 61 66 63 87 64 54 65 38 66
REMARK SMILES IDX 39 67 47 68 40 69 41 70 45 71 48 72 42 73 43 74 46 75 44 76
REMARK SMILES IDX 70 77 71 78 79 79 72 80 73 81 77 82 80 83 74 84 75 85 78 86
REMARK SMILES IDX 76 87 55 88 56 89 64 90 57 91 58 92 62 93 65 94 59 95 60 96
REMARK SMILES IDX 63 97 61 98
REMARK H PARENT 22 5 26 32 85 51 53 62
REMARK Flexibility Score: inf
ROOT
ATOM      1  C   UNL A   1      36.903  22.310  25.269  1.00  0.00     0.118 C 
ENDROOT
BRANCH   1   2
ATOM      2  N   UNL A   1      35.907  22.145  26.316  1.00  0.00    -0.352 N 
ATOM      3  C   UNL A   1      34.649  22.665  26.491  1.00  0.00     0.251 C 
ATOM      4  O   UNL A   1      34.034  22.304  27.497  1.00  0.00    -0.269 OA
ATOM      5  H   UNL A   1      36.190  21.542  27.040  1.00  0.00     0.163 HD
BRANCH   3   6
ATOM      6  C   UNL A   1      33.983  23.592  25.528  1.00  0.00     0.043 A 
ATOM      7  C   UNL A   1      33.712  25.704  24.362  1.00  0.00     0.130 A 
ATOM      8  C   UNL A   1      32.704  25.159  23.572  1.00  0.00     0.047 A 
ATOM      9  C   UNL A   1      34.283  24.949  25.387  1.00  0.00     0.061 A 
ATOM     10  C   UNL A   1      32.325  23.833  23.755  1.00  0.00     0.005 A 
ATOM     11  C   UNL A   1      32.976  23.050  24.711  1.00  0.00     0.014 A 
BRANCH   7  12
ATOM     12  O   UNL A   1      34.028  27.025  24.148  1.00  0.00    -0.439 OA
BRANCH  12  13
ATOM     13  C   UNL A   1      33.101  28.010  24.503  1.00  0.00     0.227 A 
ATOM     14  C   UNL A   1      31.120  29.115  24.194  1.00  0.00     0.254 A 
ATOM     15  N   UNL A   1      31.376  29.947  25.227  1.00  0.00    -0.216 NA
ATOM     16  N   UNL A   1      31.941  28.114  23.820  1.00  0.00    -0.175 NA
ATOM     17  C   UNL A   1      32.484  29.730  25.966  1.00  0.00     0.050 A 
ATOM     18  C   UNL A   1      32.538  30.506  27.250  1.00  0.00     0.067 C 
ATOM     19  C   UNL A   1      33.435  28.790  25.603  1.00  0.00     0.033 A 
ATOM     20  C   UNL A   1      34.712  28.608  26.362  1.00  0.00     0.052 C 
BRANCH  14  21
ATOM     21  N   UNL A   1      29.884  29.330  23.486  1.00  0.00    -0.203 N 
ATOM     22  C   UNL A   1      28.017  31.288  21.170  1.00  0.00     0.069 C 
ATOM     23  C   UNL A   1      28.529  30.270  22.120  1.00  0.00     0.060 A 
ATOM     24  C   UNL A   1      28.038  28.964  22.314  1.00  0.00     0.049 A 
ATOM     25  N   UNL A   1      29.568  30.535  22.921  1.00  0.00    -0.170 NA
ATOM     26  C   UNL A   1      28.898  28.384  23.220  1.00  0.00     0.045 A 
ATOM     27  C   UNL A   1      28.833  27.049  23.866  1.00  0.00     0.067 C 
ENDBRANCH  14  21
ENDBRANCH  12  13
ENDBRANCH   7  12
ENDBRANCH   3   6
ENDBRANCH   1   2
BRANCH   1  28
ATOM     28  C   UNL A   1      38.197  21.553  25.606  1.00  0.00     0.042 C 
BRANCH  28  29
ATOM     29  C   UNL A   1      39.093  22.369  26.521  1.00  0.00     0.118 C 
BRANCH  29  30
ATOM     30  N   UNL A   1      40.514  22.194  26.197  1.00  0.00    -0.352 N 
ATOM     31  C   UNL A   1      41.524  23.141  26.190  1.00  0.00     0.251 C 
ATOM     32  H   UNL A   1      40.786  21.281  25.952  1.00  0.00     0.163 HD
ATOM     33  O   UNL A   1      42.565  22.949  25.588  1.00  0.00    -0.269 OA
BRANCH  31  34
ATOM     34  C   UNL A   1      41.307  24.388  26.940  1.00  0.00     0.039 A 
ATOM     35  C   UNL A   1      41.932  24.633  28.165  1.00  0.00     0.014 A 
ATOM     36  C   UNL A   1      40.484  25.343  26.355  1.00  0.00     0.014 A 
ATOM     37  C   UNL A   1      41.770  25.886  28.750  1.00  0.00     0.010 A 
ATOM     38  C   UNL A   1      40.518  26.630  26.806  1.00  0.00     0.010 A 
ATOM     39  C   UNL A   1      41.075  26.885  28.046  1.00  0.00    -0.014 A 
BRANCH  39  40
ATOM     40  C   UNL A   1      40.982  28.247  28.544  1.00  0.00     0.031 A 
ATOM     41  C   UNL A   1      42.064  29.138  28.060  1.00  0.00     0.074 A 
ATOM     42  C   UNL A   1      39.914  28.709  29.228  1.00  0.00     0.049 A 
ATOM     43  N   UNL A   1      43.042  29.620  28.751  1.00  0.00    -0.248 NA
ATOM     44  C   UNL A   1      42.170  29.391  26.614  1.00  0.00     0.031 C 
ATOM     45  C   UNL A   1      38.643  28.038  29.533  1.00  0.00     0.029 A 
ATOM     46  N   UNL A   1      39.724  29.946  29.760  1.00  0.00    -0.354 N 
ATOM     47  C   UNL A   1      43.779  30.407  27.873  1.00  0.00     0.074 A 
ATOM     48  C   UNL A   1      43.313  30.079  26.552  1.00  0.00     0.031 C 
ATOM     49  C   UNL A   1      37.748  28.936  30.003  1.00  0.00     0.029 A 
ATOM     50  C   UNL A   1      38.433  30.197  30.210  1.00  0.00     0.049 A 
ATOM     51  H   UNL A   1      40.446  30.612  29.824  1.00  0.00     0.167 HD
ATOM     52  C   UNL A   1      44.528  31.442  28.345  1.00  0.00     0.037 A 
ATOM     53  C   UNL A   1      37.969  31.361  30.728  1.00  0.00     0.037 A 
ATOM     54  C   UNL A   1      44.766  31.292  29.762  1.00  0.00     0.049 A 
ATOM     55  C   UNL A   1      39.155  32.114  31.206  1.00  0.00     0.074 A 
ATOM     56  C   UNL A   1      45.394  30.340  30.543  1.00  0.00     0.029 A 
ATOM     57  N   UNL A   1      43.971  32.007  30.626  1.00  0.00    -0.354 N 
ATOM     58  N   UNL A   1      39.904  31.720  32.201  1.00  0.00    -0.248 NA
ATOM     59  C   UNL A   1      39.785  33.031  30.270  1.00  0.00     0.031 C 
ATOM     60  C   UNL A   1      44.576  30.217  31.706  1.00  0.00     0.029 A 
ATOM     61  C   UNL A   1      43.543  31.151  31.609  1.00  0.00     0.049 A 
ATOM     62  H   UNL A   1      43.747  32.963  30.552  1.00  0.00     0.167 HD
ATOM     63  C   UNL A   1      41.202  31.986  31.791  1.00  0.00     0.074 A 
ATOM     64  C   UNL A   1      41.061  32.860  30.626  1.00  0.00     0.031 C 
ATOM     65  C   UNL A   1      42.253  31.246  32.253  1.00  0.00     0.037 A 
BRANCH  52  66
ATOM     66  C   UNL A   1      44.696  32.766  27.634  1.00  0.00     0.064 A 
ATOM     67  C   UNL A   1      45.878  32.995  26.900  1.00  0.00     0.173 A 
ATOM     68  C   UNL A   1      43.912  33.912  27.884  1.00  0.00     0.173 A 
ATOM     69  F   UNL A   1      46.709  31.983  26.606  1.00  0.00    -0.203 F 
ATOM     70  C   UNL A   1      46.288  34.280  26.536  1.00  0.00     0.198 A 
ATOM     71  C   UNL A   1      44.297  35.187  27.474  1.00  0.00     0.198 A 
ATOM     72  F   UNL A   1      42.799  33.877  28.624  1.00  0.00    -0.203 F 
ATOM     73  F   UNL A   1      47.484  34.458  25.961  1.00  0.00    -0.200 F 
ATOM     74  C   UNL A   1      45.502  35.377  26.833  1.00  0.00     0.200 A 
ATOM     75  F   UNL A   1      43.527  36.239  27.787  1.00  0.00    -0.200 F 
ATOM     76  F   UNL A   1      45.921  36.616  26.546  1.00  0.00    -0.200 F 
ENDBRANCH  52  66
BRANCH  53  77
ATOM     77  C   UNL A   1      36.644  31.994  30.532  1.00  0.00     0.064 A 
ATOM     78  C   UNL A   1      35.774  32.210  31.614  1.00  0.00     0.173 A 
ATOM     79  C   UNL A   1      36.331  32.668  29.335  1.00  0.00     0.173 A 
ATOM     80  F   UNL A   1      36.027  31.644  32.803  1.00  0.00    -0.203 F 
ATOM     81  C   UNL A   1      34.673  33.068  31.512  1.00  0.00     0.198 A 
ATOM     82  C   UNL A   1      35.232  33.524  29.234  1.00  0.00     0.198 A 
ATOM     83  F   UNL A   1      37.143  32.586  28.271  1.00  0.00    -0.203 F 
ATOM     84  F   UNL A   1      33.902  33.298  32.585  1.00  0.00    -0.200 F 
ATOM     85  C   UNL A   1      34.411  33.735  30.327  1.00  0.00     0.200 A 
ATOM     86  F   UNL A   1      35.014  34.196  28.095  1.00  0.00    -0.200 F 
ATOM     87  F   UNL A   1      33.397  34.608  30.249  1.00  0.00    -0.200 F 
ENDBRANCH  53  77
BRANCH  65  88
ATOM     88  C   UNL A   1      41.995  30.283  33.383  1.00  0.00     0.064 A 
ATOM     89  C   UNL A   1      41.695  28.921  33.202  1.00  0.00     0.173 A 
ATOM     90  C   UNL A   1      42.241  30.714  34.692  1.00  0.00     0.173 A 
ATOM     91  F   UNL A   1      41.529  28.408  31.979  1.00  0.00    -0.203 F 
ATOM     92  C   UNL A   1      41.629  28.040  34.282  1.00  0.00     0.198 A 
ATOM     93  C   UNL A   1      42.206  29.828  35.765  1.00  0.00     0.198 A 
ATOM     94  F   UNL A   1      42.579  31.992  34.923  1.00  0.00    -0.203 F 
ATOM     95  F   UNL A   1      41.349  26.744  34.078  1.00  0.00    -0.200 F 
ATOM     96  C   UNL A   1      41.897  28.493  35.562  1.00  0.00     0.200 A 
ATOM     97  F   UNL A   1      42.511  30.262  36.996  1.00  0.00    -0.200 F 
ATOM     98  F   UNL A   1      41.888  27.638  36.595  1.00  0.00    -0.200 F 
ENDBRANCH  65  88
ENDBRANCH  39  40
ENDBRANCH  31  34
ENDBRANCH  29  30
ENDBRANCH  28  29
ENDBRANCH   1  28
TORSDOF 13
ENDMDL
MODEL 3
REMARK VINA RESULT:     -13.9      3.102      8.969
REMARK SMILES Cc1cc(C)n(-c2nc(C)c(C)c(Oc3cccc(C(=O)NCCCNC(=O)c4ccc(-c5c6nc(c(-c7c(F)c(F)c(F)c(F)c7F)c7ccc([nH]7)c(-c7c(F)c(F)c(F)c(F)c7F)c7nc(c(-c8c(F)c(F)c(F)c(F)c8F)c8ccc5[nH]8)C=C7)C=C6)cc4)c3)n2)n1
REMARK SMILES IDX 23 1 22 2 20 3 21 4 19 6 15 7 16 8 92 9 17 10 18 11 14 12
REMARK SMILES IDX 13 13 7 14 8 15 93 16 9 17 10 18 11 19 12 20 6 21 1 22 2 23
REMARK SMILES IDX 3 24 94 25 4 26 5 27 24 28 25 29 26 30 27 31 28 33 29 34
REMARK SMILES IDX 30 35 91 36 31 37 90 38 32 39 33 40 34 41 84 42 35 43 89 44
REMARK SMILES IDX 83 45 85 46 36 47 88 48 82 49 81 50 37 52 69 53 49 54 68 55
REMARK SMILES IDX 50 56 53 57 67 58 86 59 51 60 52 61 66 63 87 64 54 65 38 66
REMARK SMILES IDX 39 67 47 68 40 69 41 70 45 71 48 72 42 73 43 74 46 75 44 76
REMARK SMILES IDX 70 77 71 78 79 79 72 80 73 81 77 82 80 83 74 84 75 85 78 86
REMARK SMILES IDX 76 87 55 88 56 89 64 90 57 91 58 92 62 93 65 94 59 95 60 96
REMARK SMILES IDX 63 97 61 98
REMARK H PARENT 22 5 26 32 85 51 53 62
REMARK Flexibility Score: inf
ROOT
ATOM      1  C   UNL A   1      33.556  27.797  26.476  1.00  0.00     0.118 C 
ENDROOT
BRANCH   1   2
ATOM      2  N   UNL A   1      32.226  27.231  26.633  1.00  0.00    -0.352 N 
ATOM      3  C   UNL A   1      31.390  26.569  25.769  1.00  0.00     0.251 C 
ATOM      4  O   UNL A   1      30.310  26.186  26.225  1.00  0.00    -0.269 OA
ATOM      5  H   UNL A   1      31.852  27.345  27.536  1.00  0.00     0.163 HD
BRANCH   3   6
ATOM      6  C   UNL A   1      31.730  26.255  24.349  1.00  0.00     0.043 A 
ATOM      7  C   UNL A   1      32.788  24.957  22.592  1.00  0.00     0.130 A 
ATOM      8  C   UNL A   1      32.157  25.726  21.619  1.00  0.00     0.047 A 
ATOM      9  C   UNL A   1      32.640  25.277  23.942  1.00  0.00     0.061 A 
ATOM     10  C   UNL A   1      31.315  26.766  22.000  1.00  0.00     0.005 A 
ATOM     11  C   UNL A   1      31.087  27.014  23.356  1.00  0.00     0.014 A 
BRANCH   7  12
ATOM     12  O   UNL A   1      33.623  23.957  22.154  1.00  0.00    -0.439 OA
BRANCH  12  13
ATOM     13  C   UNL A   1      34.132  23.043  23.082  1.00  0.00     0.227 A 
ATOM     14  C   UNL A   1      35.767  22.330  24.515  1.00  0.00     0.254 A 
ATOM     15  N   UNL A   1      35.059  21.226  24.841  1.00  0.00    -0.216 NA
ATOM     16  N   UNL A   1      35.327  23.277  23.666  1.00  0.00    -0.175 NA
ATOM     17  C   UNL A   1      33.815  21.092  24.336  1.00  0.00     0.050 A 
ATOM     18  C   UNL A   1      33.000  20.003  24.971  1.00  0.00     0.067 C 
ATOM     19  C   UNL A   1      33.313  21.961  23.382  1.00  0.00     0.033 A 
ATOM     20  C   UNL A   1      31.972  21.766  22.746  1.00  0.00     0.052 C 
BRANCH  14  21
ATOM     21  N   UNL A   1      37.057  22.475  25.144  1.00  0.00    -0.203 N 
ATOM     22  C   UNL A   1      39.187  24.346  27.298  1.00  0.00     0.069 C 
ATOM     23  C   UNL A   1      38.551  23.346  26.404  1.00  0.00     0.060 A 
ATOM     24  C   UNL A   1      38.942  22.007  26.212  1.00  0.00     0.049 A 
ATOM     25  N   UNL A   1      37.485  23.666  25.660  1.00  0.00    -0.170 NA
ATOM     26  C   UNL A   1      37.992  21.469  25.373  1.00  0.00     0.045 A 
ATOM     27  C   UNL A   1      37.928  20.121  24.756  1.00  0.00     0.067 C 
ENDBRANCH  14  21
ENDBRANCH  12  13
ENDBRANCH   7  12
ENDBRANCH   3   6
ENDBRANCH   1   2
BRANCH   1  28
ATOM     28  C   UNL A   1      33.505  29.331  26.402  1.00  0.00     0.042 C 
BRANCH  28  29
ATOM     29  C   UNL A   1      33.934  29.964  27.713  1.00  0.00     0.118 C 
BRANCH  29  30
ATOM     30  N   UNL A   1      34.439  31.328  27.526  1.00  0.00    -0.352 N 
ATOM     31  C   UNL A   1      35.611  31.891  28.004  1.00  0.00     0.251 C 
ATOM     32  H   UNL A   1      33.870  31.924  26.988  1.00  0.00     0.163 HD
ATOM     33  O   UNL A   1      35.750  33.100  28.067  1.00  0.00    -0.269 OA
BRANCH  31  34
ATOM     34  C   UNL A   1      36.691  30.986  28.426  1.00  0.00     0.039 A 
ATOM     35  C   UNL A   1      36.633  29.609  28.202  1.00  0.00     0.014 A 
ATOM     36  C   UNL A   1      37.805  31.566  29.021  1.00  0.00     0.014 A 
ATOM     37  C   UNL A   1      37.748  28.840  28.522  1.00  0.00     0.010 A 
ATOM     38  C   UNL A   1      38.966  30.857  29.112  1.00  0.00     0.010 A 
ATOM     39  C   UNL A   1      38.920  29.483  28.959  1.00  0.00    -0.014 A 
BRANCH  39  40
ATOM     40  C   UNL A   1      40.155  28.751  29.184  1.00  0.00     0.031 A 
ATOM     41  C   UNL A   1      40.517  28.610  30.615  1.00  0.00     0.074 A 
ATOM     42  C   UNL A   1      40.813  28.099  28.202  1.00  0.00     0.049 A 
ATOM     43  N   UNL A   1      41.487  29.195  31.233  1.00  0.00    -0.248 NA
ATOM     44  C   UNL A   1      39.604  27.868  31.500  1.00  0.00     0.031 C 
ATOM     45  C   UNL A   1      40.430  27.901  26.798  1.00  0.00     0.029 A 
ATOM     46  N   UNL A   1      41.979  27.405  28.285  1.00  0.00    -0.354 N 
ATOM     47  C   UNL A   1      41.435  28.738  32.545  1.00  0.00     0.074 A 
ATOM     48  C   UNL A   1      40.162  28.085  32.693  1.00  0.00     0.031 C 
ATOM     49  C   UNL A   1      41.231  26.973  26.228  1.00  0.00     0.029 A 
ATOM     50  C   UNL A   1      42.294  26.653  27.160  1.00  0.00     0.049 A 
ATOM     51  H   UNL A   1      42.558  27.435  29.081  1.00  0.00     0.167 HD
ATOM     52  C   UNL A   1      42.562  28.722  33.309  1.00  0.00     0.037 A 
ATOM     53  C   UNL A   1      43.364  25.833  27.008  1.00  0.00     0.037 A 
ATOM     54  C   UNL A   1      43.569  29.593  32.749  1.00  0.00     0.049 A 
ATOM     55  C   UNL A   1      44.377  26.272  27.999  1.00  0.00     0.074 A 
ATOM     56  C   UNL A   1      43.638  30.948  32.483  1.00  0.00     0.029 A 
ATOM     57  N   UNL A   1      44.565  29.021  31.993  1.00  0.00    -0.354 N 
ATOM     58  N   UNL A   1      44.983  27.428  27.944  1.00  0.00    -0.248 NA
ATOM     59  C   UNL A   1      44.350  25.639  29.307  1.00  0.00     0.031 C 
ATOM     60  C   UNL A   1      44.319  31.045  31.232  1.00  0.00     0.029 A 
ATOM     61  C   UNL A   1      44.695  29.758  30.844  1.00  0.00     0.049 A 
ATOM     62  H   UNL A   1      45.089  28.222  32.233  1.00  0.00     0.167 HD
ATOM     63  C   UNL A   1      45.031  27.863  29.260  1.00  0.00     0.074 A 
ATOM     64  C   UNL A   1      44.692  26.687  30.062  1.00  0.00     0.031 C 
ATOM     65  C   UNL A   1      45.057  29.194  29.563  1.00  0.00     0.037 A 
BRANCH  52  66
ATOM     66  C   UNL A   1      42.898  27.639  34.310  1.00  0.00     0.064 A 
ATOM     67  C   UNL A   1      43.048  27.992  35.667  1.00  0.00     0.173 A 
ATOM     68  C   UNL A   1      43.374  26.354  33.967  1.00  0.00     0.173 A 
ATOM     69  F   UNL A   1      42.640  29.191  36.112  1.00  0.00    -0.203 F 
ATOM     70  C   UNL A   1      43.710  27.167  36.580  1.00  0.00     0.198 A 
ATOM     71  C   UNL A   1      43.987  25.512  34.892  1.00  0.00     0.198 A 
ATOM     72  F   UNL A   1      43.369  25.895  32.712  1.00  0.00    -0.203 F 
ATOM     73  F   UNL A   1      43.947  27.607  37.822  1.00  0.00    -0.200 F 
ATOM     74  C   UNL A   1      44.189  25.931  36.189  1.00  0.00     0.200 A 
ATOM     75  F   UNL A   1      44.458  24.324  34.487  1.00  0.00    -0.200 F 
ATOM     76  F   UNL A   1      44.882  25.166  37.041  1.00  0.00    -0.200 F 
ENDBRANCH  52  66
BRANCH  53  77
ATOM     77  C   UNL A   1      43.431  24.523  26.320  1.00  0.00     0.064 A 
ATOM     78  C   UNL A   1      44.295  24.316  25.232  1.00  0.00     0.173 A 
ATOM     79  C   UNL A   1      42.873  23.367  26.903  1.00  0.00     0.173 A 
ATOM     80  F   UNL A   1      44.906  25.359  24.651  1.00  0.00    -0.203 F 
ATOM     81  C   UNL A   1      44.602  23.031  24.771  1.00  0.00     0.198 A 
ATOM     82  C   UNL A   1      43.180  22.086  26.442  1.00  0.00     0.198 A 
ATOM     83  F   UNL A   1      42.098  23.457  27.993  1.00  0.00    -0.203 F 
ATOM     84  F   UNL A   1      45.481  22.871  23.770  1.00  0.00    -0.200 F 
ATOM     85  C   UNL A   1      44.056  21.916  25.385  1.00  0.00     0.200 A 
ATOM     86  F   UNL A   1      42.678  21.014  27.072  1.00  0.00    -0.200 F 
ATOM     87  F   UNL A   1      44.402  20.684  24.988  1.00  0.00    -0.200 F 
ENDBRANCH  53  77
BRANCH  65  88
ATOM     88  C   UNL A   1      45.254  30.171  28.432  1.00  0.00     0.064 A 
ATOM     89  C   UNL A   1      44.201  30.769  27.717  1.00  0.00     0.173 A 
ATOM     90  C   UNL A   1      46.546  30.654  28.191  1.00  0.00     0.173 A 
ATOM     91  F   UNL A   1      42.930  30.427  27.947  1.00  0.00    -0.203 F 
ATOM     92  C   UNL A   1      44.436  31.789  26.794  1.00  0.00     0.198 A 
ATOM     93  C   UNL A   1      46.775  31.693  27.292  1.00  0.00     0.198 A 
ATOM     94  F   UNL A   1      47.586  30.156  28.877  1.00  0.00    -0.203 F 
ATOM     95  F   UNL A   1      43.410  32.347  26.132  1.00  0.00    -0.200 F 
ATOM     96  C   UNL A   1      45.721  32.258  26.591  1.00  0.00     0.200 A 
ATOM     97  F   UNL A   1      48.016  32.175  27.134  1.00  0.00    -0.200 F 
ATOM     98  F   UNL A   1      45.943  33.274  25.745  1.00  0.00    -0.200 F 
ENDBRANCH  65  88
ENDBRANCH  39  40
ENDBRANCH  31  34
ENDBRANCH  29  30
ENDBRANCH  28  29
ENDBRANCH   1  28
TORSDOF 13
ENDMDL
