MODEL 1
REMARK VINA RESULT:     -11.5      0.000      0.000
REMARK SMILES CCOC[C@@H](O)C[C@]1(C(=O)NCCCNC(=O)c2ccc(-c3c4nc(c(-c5c(F)c(F)c(F)c(F)c5F)c5ccc([nH]5)c(-c5c(F)c(F)c(F)c(F)c5F)c5nc(c(-c6c(F)c(F)c(F)c(F)c6F)c6ccc3[nH]6)C=C5)C=C4)cc2)CCc2ccccc21
REMARK SMILES IDX 9 1 10 2 11 3 8 5 81 6 88 7 82 8 83 9 87 10 84 11 86 12
REMARK SMILES IDX 85 13 7 14 5 15 4 16 3 17 2 18 1 19 6 20 12 22 13 23 14 24
REMARK SMILES IDX 15 25 16 26 17 28 18 29 19 30 80 31 20 32 79 33 21 34 22 35
REMARK SMILES IDX 23 36 73 37 24 38 78 39 72 40 74 41 25 42 77 43 71 44 70 45
REMARK SMILES IDX 26 47 58 48 38 49 57 50 39 51 42 52 56 53 75 54 40 55 41 56
REMARK SMILES IDX 55 58 76 59 43 60 27 61 28 62 36 63 29 64 30 65 34 66 37 67
REMARK SMILES IDX 31 68 32 69 35 70 33 71 59 72 60 73 68 74 61 75 62 76 66 77
REMARK SMILES IDX 69 78 63 79 64 80 67 81 65 82 44 83 45 84 53 85 46 86 47 87
REMARK SMILES IDX 51 88 54 89 48 90 49 91 52 92 50 93
REMARK H PARENT 11 4 6 21 15 27 74 46 42 57
REMARK Flexibility Score: inf
ROOT
ATOM      1  C   UNL A   1      31.616  28.394  26.915  1.00  0.00     0.230 C 
ATOM      2  O   UNL A   1      31.251  27.909  27.995  1.00  0.00    -0.274 OA
ATOM      3  N   UNL A   1      31.765  29.740  26.927  1.00  0.00    -0.355 N 
ATOM      4  H   UNL A   1      32.063  30.106  27.791  1.00  0.00     0.163 HD
ENDROOT
BRANCH   1   5
ATOM      5  C   UNL A   1      31.871  27.479  25.707  1.00  0.00     0.077 C 
ATOM      6  C   UNL A   1      33.404  27.526  25.381  1.00  0.00     0.026 C 
ATOM      7  C   UNL A   1      31.662  25.988  25.880  1.00  0.00    -0.029 A 
ATOM      8  C   UNL A   1      34.050  26.241  25.897  1.00  0.00     0.037 C 
ATOM      9  C   UNL A   1      32.889  25.304  25.930  1.00  0.00    -0.044 A 
ATOM     10  C   UNL A   1      30.478  25.279  26.039  1.00  0.00     0.005 A 
ATOM     11  C   UNL A   1      32.952  23.931  26.121  1.00  0.00     0.004 A 
ATOM     12  C   UNL A   1      30.532  23.892  26.210  1.00  0.00     0.000 A 
ATOM     13  C   UNL A   1      31.760  23.222  26.249  1.00  0.00     0.000 A 
BRANCH   5  14
ATOM     14  C   UNL A   1      31.122  28.057  24.462  1.00  0.00     0.056 C 
BRANCH  14  15
ATOM     15  C   UNL A   1      31.753  27.980  23.054  1.00  0.00     0.141 C 
BRANCH  15  16
ATOM     16  C   UNL A   1      31.256  26.829  22.161  1.00  0.00     0.191 C 
BRANCH  16  17
ATOM     17  O   UNL A   1      32.288  26.159  21.432  1.00  0.00    -0.379 OA
BRANCH  17  18
ATOM     18  C   UNL A   1      33.216  25.368  22.167  1.00  0.00     0.157 C 
ATOM     19  C   UNL A   1      32.774  23.950  22.491  1.00  0.00     0.035 C 
ENDBRANCH  17  18
ENDBRANCH  16  17
ENDBRANCH  15  16
BRANCH  15  20
ATOM     20  O   UNL A   1      31.448  29.242  22.437  1.00  0.00    -0.391 OA
ATOM     21  H   UNL A   1      32.271  29.722  22.258  1.00  0.00     0.211 HD
ENDBRANCH  15  20
ENDBRANCH  14  15
ENDBRANCH   5  14
ENDBRANCH   1   5
BRANCH   3  22
ATOM     22  C   UNL A   1      31.563  30.734  25.893  1.00  0.00     0.117 C 
BRANCH  22  23
ATOM     23  C   UNL A   1      31.357  32.109  26.524  1.00  0.00     0.042 C 
BRANCH  23  24
ATOM     24  C   UNL A   1      32.627  32.670  27.153  1.00  0.00     0.118 C 
BRANCH  24  25
ATOM     25  N   UNL A   1      32.463  34.057  27.556  1.00  0.00    -0.352 N 
ATOM     26  C   UNL A   1      33.055  34.741  28.586  1.00  0.00     0.251 C 
ATOM     27  H   UNL A   1      31.833  34.582  27.011  1.00  0.00     0.163 HD
ATOM     28  O   UNL A   1      32.616  35.834  28.928  1.00  0.00    -0.269 OA
BRANCH  26  29
ATOM     29  C   UNL A   1      34.223  34.165  29.286  1.00  0.00     0.039 A 
ATOM     30  C   UNL A   1      35.506  34.494  28.838  1.00  0.00     0.014 A 
ATOM     31  C   UNL A   1      34.057  33.266  30.344  1.00  0.00     0.014 A 
ATOM     32  C   UNL A   1      36.622  33.943  29.469  1.00  0.00     0.010 A 
ATOM     33  C   UNL A   1      35.170  32.776  31.019  1.00  0.00     0.010 A 
ATOM     34  C   UNL A   1      36.462  33.092  30.575  1.00  0.00    -0.014 A 
BRANCH  34  35
ATOM     35  C   UNL A   1      37.631  32.478  31.247  1.00  0.00     0.031 A 
ATOM     36  C   UNL A   1      38.391  31.375  30.561  1.00  0.00     0.074 A 
ATOM     37  C   UNL A   1      37.975  32.871  32.487  1.00  0.00     0.049 A 
ATOM     38  N   UNL A   1      39.390  30.656  31.004  1.00  0.00    -0.248 NA
ATOM     39  C   UNL A   1      37.947  31.015  29.204  1.00  0.00     0.031 C 
ATOM     40  C   UNL A   1      37.293  33.905  33.265  1.00  0.00     0.029 A 
ATOM     41  N   UNL A   1      38.983  32.440  33.312  1.00  0.00    -0.354 N 
ATOM     42  C   UNL A   1      39.679  29.749  29.993  1.00  0.00     0.074 A 
ATOM     43  C   UNL A   1      38.717  29.972  28.936  1.00  0.00     0.031 C 
ATOM     44  C   UNL A   1      37.915  34.045  34.446  1.00  0.00     0.029 A 
ATOM     45  C   UNL A   1      39.017  33.090  34.520  1.00  0.00     0.049 A 
ATOM     46  H   UNL A   1      39.620  31.734  33.061  1.00  0.00     0.167 HD
ATOM     47  C   UNL A   1      40.672  28.829  29.939  1.00  0.00     0.037 A 
ATOM     48  C   UNL A   1      39.847  32.929  35.569  1.00  0.00     0.037 A 
ATOM     49  C   UNL A   1      41.645  28.633  30.981  1.00  0.00     0.049 A 
ATOM     50  C   UNL A   1      40.946  31.907  35.483  1.00  0.00     0.074 A 
ATOM     51  C   UNL A   1      42.716  27.757  31.011  1.00  0.00     0.029 A 
ATOM     52  N   UNL A   1      41.664  29.330  32.181  1.00  0.00    -0.354 N 
ATOM     53  N   UNL A   1      41.240  31.087  34.503  1.00  0.00    -0.248 NA
ATOM     54  C   UNL A   1      41.834  31.793  36.648  1.00  0.00     0.031 C 
ATOM     55  C   UNL A   1      43.365  27.903  32.242  1.00  0.00     0.029 A 
ATOM     56  C   UNL A   1      42.725  28.899  32.961  1.00  0.00     0.049 A 
ATOM     57  H   UNL A   1      41.020  30.028  32.439  1.00  0.00     0.167 HD
ATOM     58  C   UNL A   1      42.366  30.387  34.916  1.00  0.00     0.074 A 
ATOM     59  C   UNL A   1      42.705  30.883  36.234  1.00  0.00     0.031 C 
ATOM     60  C   UNL A   1      43.056  29.421  34.263  1.00  0.00     0.037 A 
BRANCH  47  61
ATOM     61  C   UNL A   1      40.754  27.972  28.710  1.00  0.00     0.064 A 
ATOM     62  C   UNL A   1      41.546  28.337  27.611  1.00  0.00     0.173 A 
ATOM     63  C   UNL A   1      40.042  26.765  28.633  1.00  0.00     0.173 A 
ATOM     64  F   UNL A   1      42.234  29.488  27.628  1.00  0.00    -0.203 F 
ATOM     65  C   UNL A   1      41.596  27.544  26.467  1.00  0.00     0.198 A 
ATOM     66  C   UNL A   1      40.119  25.958  27.500  1.00  0.00     0.198 A 
ATOM     67  F   UNL A   1      39.273  26.365  29.657  1.00  0.00    -0.203 F 
ATOM     68  F   UNL A   1      42.316  27.941  25.409  1.00  0.00    -0.200 F 
ATOM     69  C   UNL A   1      40.888  26.353  26.416  1.00  0.00     0.200 A 
ATOM     70  F   UNL A   1      39.444  24.803  27.455  1.00  0.00    -0.200 F 
ATOM     71  F   UNL A   1      40.938  25.589  25.315  1.00  0.00    -0.200 F 
ENDBRANCH  47  61
BRANCH  48  72
ATOM     72  C   UNL A   1      39.695  33.790  36.771  1.00  0.00     0.064 A 
ATOM     73  C   UNL A   1      40.353  35.025  36.852  1.00  0.00     0.173 A 
ATOM     74  C   UNL A   1      38.893  33.402  37.853  1.00  0.00     0.173 A 
ATOM     75  F   UNL A   1      41.145  35.428  35.849  1.00  0.00    -0.203 F 
ATOM     76  C   UNL A   1      40.228  35.834  37.979  1.00  0.00     0.198 A 
ATOM     77  C   UNL A   1      38.749  34.224  38.969  1.00  0.00     0.198 A 
ATOM     78  F   UNL A   1      38.239  32.232  37.820  1.00  0.00    -0.203 F 
ATOM     79  F   UNL A   1      40.898  36.992  38.048  1.00  0.00    -0.200 F 
ATOM     80  C   UNL A   1      39.421  35.435  39.034  1.00  0.00     0.200 A 
ATOM     81  F   UNL A   1      37.958  33.842  39.981  1.00  0.00    -0.200 F 
ATOM     82  F   UNL A   1      39.297  36.215  40.117  1.00  0.00    -0.200 F 
ENDBRANCH  48  72
BRANCH  60  83
ATOM     83  C   UNL A   1      44.277  28.873  34.940  1.00  0.00     0.064 A 
ATOM     84  C   UNL A   1      44.217  27.743  35.767  1.00  0.00     0.173 A 
ATOM     85  C   UNL A   1      45.529  29.470  34.728  1.00  0.00     0.173 A 
ATOM     86  F   UNL A   1      43.040  27.148  36.014  1.00  0.00    -0.203 F 
ATOM     87  C   UNL A   1      45.364  27.244  36.379  1.00  0.00     0.198 A 
ATOM     88  C   UNL A   1      46.678  28.951  35.318  1.00  0.00     0.198 A 
ATOM     89  F   UNL A   1      45.639  30.549  33.939  1.00  0.00    -0.203 F 
ATOM     90  F   UNL A   1      45.278  26.191  37.202  1.00  0.00    -0.200 F 
ATOM     91  C   UNL A   1      46.594  27.844  36.148  1.00  0.00     0.200 A 
ATOM     92  F   UNL A   1      47.866  29.524  35.085  1.00  0.00    -0.200 F 
ATOM     93  F   UNL A   1      47.697  27.358  36.733  1.00  0.00    -0.200 F 
ENDBRANCH  60  83
ENDBRANCH  34  35
ENDBRANCH  26  29
ENDBRANCH  24  25
ENDBRANCH  23  24
ENDBRANCH  22  23
ENDBRANCH   3  22
TORSDOF 16
ENDMDL
MODEL 2
REMARK VINA RESULT:     -11.4      5.670     10.930
REMARK SMILES CCOC[C@@H](O)C[C@]1(C(=O)NCCCNC(=O)c2ccc(-c3c4nc(c(-c5c(F)c(F)c(F)c(F)c5F)c5ccc([nH]5)c(-c5c(F)c(F)c(F)c(F)c5F)c5nc(c(-c6c(F)c(F)c(F)c(F)c6F)c6ccc3[nH]6)C=C5)C=C4)cc2)CCc2ccccc21
REMARK SMILES IDX 9 1 10 2 11 3 8 5 81 6 88 7 82 8 83 9 87 10 84 11 86 12
REMARK SMILES IDX 85 13 7 14 5 15 4 16 3 17 2 18 1 19 6 20 12 22 13 23 14 24
REMARK SMILES IDX 15 25 16 26 17 28 18 29 19 30 80 31 20 32 79 33 21 34 22 35
REMARK SMILES IDX 23 36 73 37 24 38 78 39 72 40 74 41 25 42 77 43 71 44 70 45
REMARK SMILES IDX 26 47 58 48 38 49 57 50 39 51 42 52 56 53 75 54 40 55 41 56
REMARK SMILES IDX 55 58 76 59 43 60 27 61 28 62 36 63 29 64 30 65 34 66 37 67
REMARK SMILES IDX 31 68 32 69 35 70 33 71 59 72 60 73 68 74 61 75 62 76 66 77
REMARK SMILES IDX 69 78 63 79 64 80 67 81 65 82 44 83 45 84 53 85 46 86 47 87
REMARK SMILES IDX 51 88 54 89 48 90 49 91 52 92 50 93
REMARK H PARENT 11 4 6 21 15 27 74 46 42 57
REMARK Flexibility Score: inf
ROOT
ATOM      1  C   UNL A   1      36.162  22.549  23.695  1.00  0.00     0.230 C 
ATOM      2  O   UNL A   1      36.587  23.079  22.659  1.00  0.00    -0.274 OA
ATOM      3  N   UNL A   1      37.006  21.645  24.247  1.00  0.00    -0.355 N 
ATOM      4  H   UNL A   1      37.960  21.850  24.119  1.00  0.00     0.163 HD
ENDROOT
BRANCH   1   5
ATOM      5  C   UNL A   1      34.787  22.944  24.255  1.00  0.00     0.077 C 
ATOM      6  C   UNL A   1      35.014  23.652  25.636  1.00  0.00     0.026 C 
ATOM      7  C   UNL A   1      33.991  24.003  23.520  1.00  0.00    -0.029 A 
ATOM      8  C   UNL A   1      34.847  25.158  25.443  1.00  0.00     0.037 C 
ATOM      9  C   UNL A   1      33.988  25.219  24.223  1.00  0.00    -0.044 A 
ATOM     10  C   UNL A   1      33.354  23.926  22.288  1.00  0.00     0.005 A 
ATOM     11  C   UNL A   1      33.353  26.349  23.727  1.00  0.00     0.004 A 
ATOM     12  C   UNL A   1      32.693  25.053  21.790  1.00  0.00     0.000 A 
ATOM     13  C   UNL A   1      32.691  26.257  22.505  1.00  0.00     0.000 A 
BRANCH   5  14
ATOM     14  C   UNL A   1      33.960  21.648  24.537  1.00  0.00     0.056 C 
BRANCH  14  15
ATOM     15  C   UNL A   1      33.139  21.501  25.837  1.00  0.00     0.141 C 
BRANCH  15  16
ATOM     16  C   UNL A   1      31.668  21.946  25.752  1.00  0.00     0.191 C 
BRANCH  16  17
ATOM     17  O   UNL A   1      31.433  23.294  26.172  1.00  0.00    -0.379 OA
BRANCH  17  18
ATOM     18  C   UNL A   1      30.668  24.134  25.313  1.00  0.00     0.157 C 
ATOM     19  C   UNL A   1      30.469  25.565  25.785  1.00  0.00     0.035 C 
ENDBRANCH  17  18
ENDBRANCH  16  17
ENDBRANCH  15  16
BRANCH  15  20
ATOM     20  O   UNL A   1      33.206  20.103  26.168  1.00  0.00    -0.391 OA
ATOM     21  H   UNL A   1      34.134  19.826  26.215  1.00  0.00     0.211 HD
ENDBRANCH  15  20
ENDBRANCH  14  15
ENDBRANCH   5  14
ENDBRANCH   1   5
BRANCH   3  22
ATOM     22  C   UNL A   1      36.751  20.429  24.992  1.00  0.00     0.117 C 
BRANCH  22  23
ATOM     23  C   UNL A   1      37.988  19.534  24.970  1.00  0.00     0.042 C 
BRANCH  23  24
ATOM     24  C   UNL A   1      39.129  20.078  25.821  1.00  0.00     0.118 C 
BRANCH  24  25
ATOM     25  N   UNL A   1      40.202  19.108  25.968  1.00  0.00    -0.352 N 
ATOM     26  C   UNL A   1      41.552  19.313  26.094  1.00  0.00     0.251 C 
ATOM     27  H   UNL A   1      39.919  18.164  25.978  1.00  0.00     0.163 HD
ATOM     28  O   UNL A   1      42.330  18.374  25.962  1.00  0.00    -0.269 OA
BRANCH  26  29
ATOM     29  C   UNL A   1      42.073  20.665  26.390  1.00  0.00     0.039 A 
ATOM     30  C   UNL A   1      42.281  21.030  27.723  1.00  0.00     0.014 A 
ATOM     31  C   UNL A   1      42.306  21.586  25.364  1.00  0.00     0.014 A 
ATOM     32  C   UNL A   1      42.750  22.309  28.024  1.00  0.00     0.010 A 
ATOM     33  C   UNL A   1      42.845  22.834  25.661  1.00  0.00     0.010 A 
ATOM     34  C   UNL A   1      43.050  23.215  26.994  1.00  0.00    -0.014 A 
BRANCH  34  35
ATOM     35  C   UNL A   1      43.528  24.586  27.292  1.00  0.00     0.031 A 
ATOM     36  C   UNL A   1      42.572  25.603  27.854  1.00  0.00     0.074 A 
ATOM     37  C   UNL A   1      44.798  24.930  27.010  1.00  0.00     0.049 A 
ATOM     38  N   UNL A   1      42.767  26.871  28.111  1.00  0.00    -0.248 NA
ATOM     39  C   UNL A   1      41.205  25.136  28.136  1.00  0.00     0.031 C 
ATOM     40  C   UNL A   1      45.805  24.040  26.432  1.00  0.00     0.029 A 
ATOM     41  N   UNL A   1      45.454  26.124  27.166  1.00  0.00    -0.354 N 
ATOM     42  C   UNL A   1      41.547  27.355  28.565  1.00  0.00     0.074 A 
ATOM     43  C   UNL A   1      40.604  26.259  28.497  1.00  0.00     0.031 C 
ATOM     44  C   UNL A   1      46.960  24.713  26.303  1.00  0.00     0.029 A 
ATOM     45  C   UNL A   1      46.764  26.086  26.757  1.00  0.00     0.049 A 
ATOM     46  H   UNL A   1      45.027  26.930  27.536  1.00  0.00     0.167 HD
ATOM     47  C   UNL A   1      41.244  28.595  29.020  1.00  0.00     0.037 A 
ATOM     48  C   UNL A   1      47.699  27.055  26.752  1.00  0.00     0.037 A 
ATOM     49  C   UNL A   1      42.193  29.672  29.113  1.00  0.00     0.049 A 
ATOM     50  C   UNL A   1      47.342  28.422  27.269  1.00  0.00     0.074 A 
ATOM     51  C   UNL A   1      42.002  30.954  29.597  1.00  0.00     0.029 A 
ATOM     52  N   UNL A   1      43.520  29.588  28.715  1.00  0.00    -0.354 N 
ATOM     53  N   UNL A   1      46.198  28.856  27.740  1.00  0.00    -0.248 NA
ATOM     54  C   UNL A   1      48.410  29.431  27.260  1.00  0.00     0.031 C 
ATOM     55  C   UNL A   1      43.205  31.656  29.463  1.00  0.00     0.029 A 
ATOM     56  C   UNL A   1      44.158  30.799  28.936  1.00  0.00     0.049 A 
ATOM     57  H   UNL A   1      43.946  28.787  28.333  1.00  0.00     0.167 HD
ATOM     58  C   UNL A   1      46.416  30.174  28.116  1.00  0.00     0.074 A 
ATOM     59  C   UNL A   1      47.805  30.467  27.824  1.00  0.00     0.031 C 
ATOM     60  C   UNL A   1      45.546  31.062  28.655  1.00  0.00     0.037 A 
BRANCH  47  61
ATOM     61  C   UNL A   1      39.829  28.845  29.453  1.00  0.00     0.064 A 
ATOM     62  C   UNL A   1      38.863  29.332  28.561  1.00  0.00     0.173 A 
ATOM     63  C   UNL A   1      39.430  28.583  30.773  1.00  0.00     0.173 A 
ATOM     64  F   UNL A   1      39.196  29.612  27.292  1.00  0.00    -0.203 F 
ATOM     65  C   UNL A   1      37.558  29.581  28.980  1.00  0.00     0.198 A 
ATOM     66  C   UNL A   1      38.117  28.804  31.182  1.00  0.00     0.198 A 
ATOM     67  F   UNL A   1      40.313  28.112  31.667  1.00  0.00    -0.203 F 
ATOM     68  F   UNL A   1      36.667  30.099  28.124  1.00  0.00    -0.200 F 
ATOM     69  C   UNL A   1      37.186  29.311  30.288  1.00  0.00     0.200 A 
ATOM     70  F   UNL A   1      37.755  28.532  32.442  1.00  0.00    -0.200 F 
ATOM     71  F   UNL A   1      35.929  29.549  30.691  1.00  0.00    -0.200 F 
ENDBRANCH  47  61
BRANCH  48  72
ATOM     72  C   UNL A   1      49.076  26.752  26.281  1.00  0.00     0.064 A 
ATOM     73  C   UNL A   1      50.037  26.242  27.165  1.00  0.00     0.173 A 
ATOM     74  C   UNL A   1      49.456  26.959  24.948  1.00  0.00     0.173 A 
ATOM     75  F   UNL A   1      49.723  26.046  28.454  1.00  0.00    -0.203 F 
ATOM     76  C   UNL A   1      51.333  25.966  26.737  1.00  0.00     0.198 A 
ATOM     77  C   UNL A   1      50.747  26.659  24.515  1.00  0.00     0.198 A 
ATOM     78  F   UNL A   1      48.571  27.439  24.063  1.00  0.00    -0.203 F 
ATOM     79  F   UNL A   1      52.244  25.516  27.611  1.00  0.00    -0.200 F 
ATOM     80  C   UNL A   1      51.686  26.169  25.412  1.00  0.00     0.200 A 
ATOM     81  F   UNL A   1      51.080  26.843  23.231  1.00  0.00    -0.200 F 
ATOM     82  F   UNL A   1      52.931  25.900  24.998  1.00  0.00    -0.200 F 
ENDBRANCH  48  72
BRANCH  60  83
ATOM     83  C   UNL A   1      46.081  32.417  29.013  1.00  0.00     0.064 A 
ATOM     84  C   UNL A   1      46.653  32.676  30.267  1.00  0.00     0.173 A 
ATOM     85  C   UNL A   1      46.051  33.458  28.073  1.00  0.00     0.173 A 
ATOM     86  F   UNL A   1      46.689  31.717  31.204  1.00  0.00    -0.203 F 
ATOM     87  C   UNL A   1      47.154  33.938  30.576  1.00  0.00     0.198 A 
ATOM     88  C   UNL A   1      46.579  34.710  28.376  1.00  0.00     0.198 A 
ATOM     89  F   UNL A   1      45.521  33.257  26.858  1.00  0.00    -0.203 F 
ATOM     90  F   UNL A   1      47.655  34.178  31.795  1.00  0.00    -0.200 F 
ATOM     91  C   UNL A   1      47.123  34.951  29.628  1.00  0.00     0.200 A 
ATOM     92  F   UNL A   1      46.558  35.684  27.456  1.00  0.00    -0.200 F 
ATOM     93  F   UNL A   1      47.610  36.163  29.926  1.00  0.00    -0.200 F 
ENDBRANCH  60  83
ENDBRANCH  34  35
ENDBRANCH  26  29
ENDBRANCH  24  25
ENDBRANCH  23  24
ENDBRANCH  22  23
ENDBRANCH   3  22
TORSDOF 16
ENDMDL
MODEL 3
REMARK VINA RESULT:     -11.4      1.143      2.323
REMARK SMILES CCOC[C@@H](O)C[C@]1(C(=O)NCCCNC(=O)c2ccc(-c3c4nc(c(-c5c(F)c(F)c(F)c(F)c5F)c5ccc([nH]5)c(-c5c(F)c(F)c(F)c(F)c5F)c5nc(c(-c6c(F)c(F)c(F)c(F)c6F)c6ccc3[nH]6)C=C5)C=C4)cc2)CCc2ccccc21
REMARK SMILES IDX 9 1 10 2 11 3 8 5 81 6 88 7 82 8 83 9 87 10 84 11 86 12
REMARK SMILES IDX 85 13 7 14 5 15 4 16 3 17 2 18 1 19 6 20 12 22 13 23 14 24
REMARK SMILES IDX 15 25 16 26 17 28 18 29 19 30 80 31 20 32 79 33 21 34 22 35
REMARK SMILES IDX 23 36 73 37 24 38 78 39 72 40 74 41 25 42 77 43 71 44 70 45
REMARK SMILES IDX 26 47 58 48 38 49 57 50 39 51 42 52 56 53 75 54 40 55 41 56
REMARK SMILES IDX 55 58 76 59 43 60 27 61 28 62 36 63 29 64 30 65 34 66 37 67
REMARK SMILES IDX 31 68 32 69 35 70 33 71 59 72 60 73 68 74 61 75 62 76 66 77
REMARK SMILES IDX 69 78 63 79 64 80 67 81 65 82 44 83 45 84 53 85 46 86 47 87
REMARK SMILES IDX 51 88 54 89 48 90 49 91 52 92 50 93
REMARK H PARENT 11 4 6 21 15 27 74 46 42 57
REMARK Flexibility Score: inf
ROOT
ATOM      1  C   UNL A   1      33.028  29.079  25.349  1.00  0.00     0.230 C 
ATOM      2  O   UNL A   1      34.175  28.688  25.606  1.00  0.00    -0.274 OA
ATOM      3  N   UNL A   1      32.668  30.216  25.991  1.00  0.00    -0.355 N 
ATOM      4  H   UNL A   1      33.410  30.843  26.150  1.00  0.00     0.163 HD
ENDROOT
BRANCH   1   5
ATOM      5  C   UNL A   1      32.148  28.292  24.365  1.00  0.00     0.077 C 
ATOM      6  C   UNL A   1      33.041  27.880  23.144  1.00  0.00     0.026 C 
ATOM      7  C   UNL A   1      31.619  26.941  24.800  1.00  0.00    -0.029 A 
ATOM      8  C   UNL A   1      33.397  26.401  23.280  1.00  0.00     0.037 C 
ATOM      9  C   UNL A   1      32.290  25.895  24.143  1.00  0.00    -0.044 A 
ATOM     10  C   UNL A   1      30.649  26.641  25.748  1.00  0.00     0.005 A 
ATOM     11  C   UNL A   1      32.002  24.563  24.407  1.00  0.00     0.004 A 
ATOM     12  C   UNL A   1      30.338  25.302  26.004  1.00  0.00     0.000 A 
ATOM     13  C   UNL A   1      31.008  24.270  25.337  1.00  0.00     0.000 A 
BRANCH   5  14
ATOM     14  C   UNL A   1      31.030  29.235  23.814  1.00  0.00     0.056 C 
BRANCH  14  15
ATOM     15  C   UNL A   1      30.462  29.042  22.391  1.00  0.00     0.141 C 
BRANCH  15  16
ATOM     16  C   UNL A   1      28.936  29.187  22.254  1.00  0.00     0.191 C 
BRANCH  16  17
ATOM     17  O   UNL A   1      28.518  30.066  21.205  1.00  0.00    -0.379 OA
BRANCH  17  18
ATOM     18  C   UNL A   1      27.807  31.246  21.570  1.00  0.00     0.157 C 
ATOM     19  C   UNL A   1      27.875  31.638  23.037  1.00  0.00     0.035 C 
ENDBRANCH  17  18
ENDBRANCH  16  17
ENDBRANCH  15  16
BRANCH  15  20
ATOM     20  O   UNL A   1      31.120  30.036  21.586  1.00  0.00    -0.391 OA
ATOM     21  H   UNL A   1      31.601  30.651  22.161  1.00  0.00     0.211 HD
ENDBRANCH  15  20
ENDBRANCH  14  15
ENDBRANCH   5  14
ENDBRANCH   1   5
BRANCH   3  22
ATOM     22  C   UNL A   1      31.384  30.671  26.483  1.00  0.00     0.117 C 
BRANCH  22  23
ATOM     23  C   UNL A   1      31.364  32.195  26.558  1.00  0.00     0.042 C 
BRANCH  23  24
ATOM     24  C   UNL A   1      32.645  32.778  27.144  1.00  0.00     0.118 C 
BRANCH  24  25
ATOM     25  N   UNL A   1      32.464  34.154  27.578  1.00  0.00    -0.352 N 
ATOM     26  C   UNL A   1      33.034  34.817  28.633  1.00  0.00     0.251 C 
ATOM     27  H   UNL A   1      31.838  34.687  27.035  1.00  0.00     0.163 HD
ATOM     28  O   UNL A   1      32.582  35.898  28.995  1.00  0.00    -0.269 OA
BRANCH  26  29
ATOM     29  C   UNL A   1      34.197  34.233  29.337  1.00  0.00     0.039 A 
ATOM     30  C   UNL A   1      35.481  34.508  28.858  1.00  0.00     0.014 A 
ATOM     31  C   UNL A   1      34.021  33.379  30.430  1.00  0.00     0.014 A 
ATOM     32  C   UNL A   1      36.590  33.948  29.494  1.00  0.00     0.010 A 
ATOM     33  C   UNL A   1      35.129  32.882  31.107  1.00  0.00     0.010 A 
ATOM     34  C   UNL A   1      36.422  33.143  30.632  1.00  0.00    -0.014 A 
BRANCH  34  35
ATOM     35  C   UNL A   1      37.585  32.520  31.310  1.00  0.00     0.031 A 
ATOM     36  C   UNL A   1      38.338  31.411  30.628  1.00  0.00     0.074 A 
ATOM     37  C   UNL A   1      37.926  32.912  32.551  1.00  0.00     0.049 A 
ATOM     38  N   UNL A   1      39.329  30.684  31.076  1.00  0.00    -0.248 NA
ATOM     39  C   UNL A   1      37.896  31.052  29.270  1.00  0.00     0.031 C 
ATOM     40  C   UNL A   1      37.250  33.952  33.325  1.00  0.00     0.029 A 
ATOM     41  N   UNL A   1      38.927  32.474  33.381  1.00  0.00    -0.354 N 
ATOM     42  C   UNL A   1      39.615  29.773  30.067  1.00  0.00     0.074 A 
ATOM     43  C   UNL A   1      38.658  30.003  29.006  1.00  0.00     0.031 C 
ATOM     44  C   UNL A   1      37.868  34.088  34.509  1.00  0.00     0.029 A 
ATOM     45  C   UNL A   1      38.961  33.125  34.589  1.00  0.00     0.049 A 
ATOM     46  H   UNL A   1      39.560  31.761  33.133  1.00  0.00     0.167 HD
ATOM     47  C   UNL A   1      40.600  28.845  30.019  1.00  0.00     0.037 A 
ATOM     48  C   UNL A   1      39.785  32.958  35.640  1.00  0.00     0.037 A 
ATOM     49  C   UNL A   1      41.567  28.641  31.065  1.00  0.00     0.049 A 
ATOM     50  C   UNL A   1      40.877  31.926  35.560  1.00  0.00     0.074 A 
ATOM     51  C   UNL A   1      42.630  27.757  31.100  1.00  0.00     0.029 A 
ATOM     52  N   UNL A   1      41.587  29.340  32.264  1.00  0.00    -0.354 N 
ATOM     53  N   UNL A   1      41.168  31.103  34.582  1.00  0.00    -0.248 NA
ATOM     54  C   UNL A   1      41.759  31.806  36.729  1.00  0.00     0.031 C 
ATOM     55  C   UNL A   1      43.276  27.898  32.333  1.00  0.00     0.029 A 
ATOM     56  C   UNL A   1      42.641  28.901  33.049  1.00  0.00     0.049 A 
ATOM     57  H   UNL A   1      40.947  30.044  32.518  1.00  0.00     0.167 HD
ATOM     58  C   UNL A   1      42.286  30.394  35.001  1.00  0.00     0.074 A 
ATOM     59  C   UNL A   1      42.624  30.889  36.320  1.00  0.00     0.031 C 
ATOM     60  C   UNL A   1      42.971  29.421  34.351  1.00  0.00     0.037 A 
BRANCH  47  61
ATOM     61  C   UNL A   1      40.679  27.985  28.791  1.00  0.00     0.064 A 
ATOM     62  C   UNL A   1      39.967  26.780  28.691  1.00  0.00     0.173 A 
ATOM     63  C   UNL A   1      41.466  28.375  27.696  1.00  0.00     0.173 A 
ATOM     64  F   UNL A   1      39.213  26.355  29.715  1.00  0.00    -0.203 F 
ATOM     65  C   UNL A   1      40.066  25.980  27.554  1.00  0.00     0.198 A 
ATOM     66  C   UNL A   1      41.538  27.588  26.549  1.00  0.00     0.198 A 
ATOM     67  F   UNL A   1      42.164  29.520  27.737  1.00  0.00    -0.203 F 
ATOM     68  F   UNL A   1      39.421  24.807  27.505  1.00  0.00    -0.200 F 
ATOM     69  C   UNL A   1      40.846  26.388  26.483  1.00  0.00     0.200 A 
ATOM     70  F   UNL A   1      42.282  27.988  25.510  1.00  0.00    -0.200 F 
ATOM     71  F   UNL A   1      40.939  25.618  25.390  1.00  0.00    -0.200 F 
ENDBRANCH  47  61
BRANCH  48  72
ATOM     72  C   UNL A   1      39.636  33.820  36.841  1.00  0.00     0.064 A 
ATOM     73  C   UNL A   1      38.856  33.403  37.928  1.00  0.00     0.173 A 
ATOM     74  C   UNL A   1      40.270  35.067  36.930  1.00  0.00     0.173 A 
ATOM     75  F   UNL A   1      38.216  32.226  37.879  1.00  0.00    -0.203 F 
ATOM     76  C   UNL A   1      38.699  34.209  39.053  1.00  0.00     0.198 A 
ATOM     77  C   UNL A   1      40.133  35.862  38.067  1.00  0.00     0.198 A 
ATOM     78  F   UNL A   1      41.032  35.508  35.920  1.00  0.00    -0.203 F 
ATOM     79  F   UNL A   1      37.916  33.803  40.062  1.00  0.00    -0.200 F 
ATOM     80  C   UNL A   1      39.343  35.435  39.125  1.00  0.00     0.200 A 
ATOM     81  F   UNL A   1      40.768  37.040  38.139  1.00  0.00    -0.200 F 
ATOM     82  F   UNL A   1      39.197  36.209  40.209  1.00  0.00    -0.200 F 
ENDBRANCH  48  72
BRANCH  60  83
ATOM     83  C   UNL A   1      44.185  28.864  35.034  1.00  0.00     0.064 A 
ATOM     84  C   UNL A   1      44.108  27.749  35.880  1.00  0.00     0.173 A 
ATOM     85  C   UNL A   1      45.446  29.437  34.810  1.00  0.00     0.173 A 
ATOM     86  F   UNL A   1      42.922  27.177  36.138  1.00  0.00    -0.203 F 
ATOM     87  C   UNL A   1      45.248  27.240  36.496  1.00  0.00     0.198 A 
ATOM     88  C   UNL A   1      46.587  28.908  35.405  1.00  0.00     0.198 A 
ATOM     89  F   UNL A   1      45.571  30.501  34.004  1.00  0.00    -0.203 F 
ATOM     90  F   UNL A   1      45.147  26.202  37.337  1.00  0.00    -0.200 F 
ATOM     91  C   UNL A   1      46.487  27.816  36.253  1.00  0.00     0.200 A 
ATOM     92  F   UNL A   1      47.785  29.458  35.160  1.00  0.00    -0.200 F 
ATOM     93  F   UNL A   1      47.584  27.322  36.843  1.00  0.00    -0.200 F 
ENDBRANCH  60  83
ENDBRANCH  34  35
ENDBRANCH  26  29
ENDBRANCH  24  25
ENDBRANCH  23  24
ENDBRANCH  22  23
ENDBRANCH   3  22
TORSDOF 16
ENDMDL
