MODEL 1
REMARK VINA RESULT:     -12.9      0.000      0.000
REMARK SMILES C[C@H]1SCCC[C@]1(Nc1ccc(Cl)cc1)C(=O)NCCCNC(=O)c1ccc(-c2c3nc(c(-c4c(F)c(F)c(F)c(F)c4F)c4ccc([nH]4)c(-c4c(F)c(F)c(F)c(F)c4F)c4nc(c(-c5c(F)c(F)c(F)c(F)c5F)c5ccc2[nH]5)C=C4)C=C3)cc1
REMARK SMILES IDX 20 1 19 2 18 3 16 4 17 5 7 7 1 8 2 9 3 10 4 11 6 12 5 13
REMARK SMILES IDX 8 14 9 16 10 17 15 18 11 19 14 20 12 21 13 22 21 23 22 24
REMARK SMILES IDX 23 25 24 27 25 28 26 29 87 30 27 31 86 32 28 33 29 34 30 35
REMARK SMILES IDX 80 36 31 37 85 38 79 39 81 40 32 41 84 42 78 43 77 44 33 46
REMARK SMILES IDX 65 47 45 48 64 49 46 50 49 51 63 52 82 53 47 54 48 55 62 57
REMARK SMILES IDX 83 58 50 59 34 60 35 61 43 62 36 63 37 64 41 65 44 66 38 67
REMARK SMILES IDX 39 68 42 69 40 70 66 71 67 72 75 73 68 74 69 75 73 76 76 77
REMARK SMILES IDX 70 78 71 79 74 80 72 81 51 82 52 83 60 84 53 85 54 86 58 87
REMARK SMILES IDX 61 88 55 89 56 90 59 91 57 92
REMARK H PARENT 18 6 8 15 22 26 81 45 49 56
REMARK Flexibility Score: inf
ROOT
ATOM      1  C   UNL A   1      31.491  32.212  26.540  1.00  0.00     0.042 C 
ENDROOT
BRANCH   1   2
ATOM      2  C   UNL A   1      31.586  30.698  26.454  1.00  0.00     0.117 C 
BRANCH   2   3
ATOM      3  N   UNL A   1      32.628  30.268  25.536  1.00  0.00    -0.354 N 
ATOM      4  C   UNL A   1      32.649  29.325  24.551  1.00  0.00     0.246 C 
ATOM      5  O   UNL A   1      33.696  29.309  23.888  1.00  0.00    -0.272 OA
ATOM      6  H   UNL A   1      33.480  30.749  25.646  1.00  0.00     0.163 HD
BRANCH   4   7
ATOM      7  C   UNL A   1      31.501  28.283  24.276  1.00  0.00     0.128 C 
ATOM      8  C   UNL A   1      31.283  27.632  26.841  1.00  0.00     0.022 C 
ATOM      9  C   UNL A   1      31.534  27.186  25.405  1.00  0.00     0.078 C 
ATOM     10  S   UNL A   1      30.309  25.840  25.112  1.00  0.00    -0.156 SA
ATOM     11  C   UNL A   1      30.974  25.256  23.541  1.00  0.00     0.070 C 
ATOM     12  C   UNL A   1      31.843  27.576  22.919  1.00  0.00     0.040 C 
ATOM     13  C   UNL A   1      30.968  26.383  22.523  1.00  0.00     0.014 C 
BRANCH   7  14
ATOM     14  N   UNL A   1      30.145  28.888  24.155  1.00  0.00    -0.370 N 
ATOM     15  H   UNL A   1      29.435  28.465  24.689  1.00  0.00     0.161 HD
BRANCH  14  16
ATOM     16  C   UNL A   1      29.763  29.970  23.385  1.00  0.00     0.035 A 
ATOM     17  C   UNL A   1      29.183  31.133  23.905  1.00  0.00     0.027 A 
ATOM     18  C   UNL A   1      29.761  29.815  21.988  1.00  0.00     0.027 A 
ATOM     19  C   UNL A   1      28.552  32.068  23.074  1.00  0.00     0.022 A 
ATOM     20  C   UNL A   1      29.108  30.729  21.151  1.00  0.00     0.022 A 
ATOM     21  C   UNL A   1      28.488  31.844  21.704  1.00  0.00     0.041 A 
ATOM     22  Cl  UNL A   1      27.600  32.919  20.699  1.00  0.00    -0.084 Cl
ENDBRANCH  14  16
ENDBRANCH   7  14
ENDBRANCH   4   7
ENDBRANCH   2   3
ENDBRANCH   1   2
BRANCH   1  23
ATOM     23  C   UNL A   1      32.686  32.826  27.248  1.00  0.00     0.118 C 
BRANCH  23  24
ATOM     24  N   UNL A   1      32.457  34.219  27.605  1.00  0.00    -0.352 N 
ATOM     25  C   UNL A   1      33.013  34.975  28.609  1.00  0.00     0.251 C 
ATOM     26  H   UNL A   1      31.804  34.692  27.039  1.00  0.00     0.163 HD
ATOM     27  O   UNL A   1      32.527  36.064  28.897  1.00  0.00    -0.269 OA
BRANCH  25  28
ATOM     28  C   UNL A   1      34.177  34.467  29.370  1.00  0.00     0.039 A 
ATOM     29  C   UNL A   1      33.966  33.855  30.607  1.00  0.00     0.014 A 
ATOM     30  C   UNL A   1      35.475  34.600  28.875  1.00  0.00     0.014 A 
ATOM     31  C   UNL A   1      35.046  33.308  31.305  1.00  0.00     0.010 A 
ATOM     32  C   UNL A   1      36.530  33.955  29.509  1.00  0.00     0.010 A 
ATOM     33  C   UNL A   1      36.332  33.313  30.740  1.00  0.00    -0.014 A 
BRANCH  33  34
ATOM     34  C   UNL A   1      37.486  32.673  31.422  1.00  0.00     0.031 A 
ATOM     35  C   UNL A   1      38.201  31.519  30.770  1.00  0.00     0.074 A 
ATOM     36  C   UNL A   1      37.842  33.077  32.657  1.00  0.00     0.049 A 
ATOM     37  N   UNL A   1      39.165  30.769  31.238  1.00  0.00    -0.248 NA
ATOM     38  C   UNL A   1      37.744  31.131  29.425  1.00  0.00     0.031 C 
ATOM     39  C   UNL A   1      37.188  34.140  33.422  1.00  0.00     0.029 A 
ATOM     40  N   UNL A   1      38.834  32.630  33.494  1.00  0.00    -0.354 N 
ATOM     41  C   UNL A   1      39.409  29.812  30.262  1.00  0.00     0.074 A 
ATOM     42  C   UNL A   1      38.454  30.037  29.200  1.00  0.00     0.031 C 
ATOM     43  C   UNL A   1      37.812  34.281  34.602  1.00  0.00     0.029 A 
ATOM     44  C   UNL A   1      38.880  33.292  34.697  1.00  0.00     0.049 A 
ATOM     45  H   UNL A   1      39.454  31.903  33.255  1.00  0.00     0.167 HD
ATOM     46  C   UNL A   1      40.362  28.850  30.239  1.00  0.00     0.037 A 
ATOM     47  C   UNL A   1      39.687  33.114  35.760  1.00  0.00     0.037 A 
ATOM     48  C   UNL A   1      41.340  28.661  31.278  1.00  0.00     0.049 A 
ATOM     49  C   UNL A   1      40.749  32.049  35.704  1.00  0.00     0.074 A 
ATOM     50  C   UNL A   1      42.403  27.776  31.310  1.00  0.00     0.029 A 
ATOM     51  N   UNL A   1      41.373  29.372  32.468  1.00  0.00    -0.354 N 
ATOM     52  N   UNL A   1      41.023  31.205  34.738  1.00  0.00    -0.248 NA
ATOM     53  C   UNL A   1      41.617  31.915  36.882  1.00  0.00     0.031 C 
ATOM     54  C   UNL A   1      43.050  27.918  32.541  1.00  0.00     0.029 A 
ATOM     55  C   UNL A   1      42.422  28.925  33.254  1.00  0.00     0.049 A 
ATOM     56  H   UNL A   1      40.745  30.088  32.717  1.00  0.00     0.167 HD
ATOM     57  C   UNL A   1      42.104  30.456  35.181  1.00  0.00     0.074 A 
ATOM     58  C   UNL A   1      42.451  30.959  36.495  1.00  0.00     0.031 C 
ATOM     59  C   UNL A   1      42.751  29.440  34.559  1.00  0.00     0.037 A 
BRANCH  46  60
ATOM     60  C   UNL A   1      40.401  27.933  29.050  1.00  0.00     0.064 A 
ATOM     61  C   UNL A   1      39.654  26.746  29.009  1.00  0.00     0.173 A 
ATOM     62  C   UNL A   1      41.165  28.266  27.922  1.00  0.00     0.173 A 
ATOM     63  F   UNL A   1      38.916  26.375  30.067  1.00  0.00    -0.203 F 
ATOM     64  C   UNL A   1      39.693  25.913  27.894  1.00  0.00     0.198 A 
ATOM     65  C   UNL A   1      41.176  27.446  26.797  1.00  0.00     0.198 A 
ATOM     66  F   UNL A   1      41.893  29.393  27.905  1.00  0.00    -0.203 F 
ATOM     67  F   UNL A   1      39.011  24.758  27.899  1.00  0.00    -0.200 F 
ATOM     68  C   UNL A   1      40.447  26.267  26.786  1.00  0.00     0.200 A 
ATOM     69  F   UNL A   1      41.895  27.797  25.721  1.00  0.00    -0.200 F 
ATOM     70  F   UNL A   1      40.478  25.468  25.712  1.00  0.00    -0.200 F 
ENDBRANCH  46  60
BRANCH  47  71
ATOM     71  C   UNL A   1      39.534  33.975  36.963  1.00  0.00     0.064 A 
ATOM     72  C   UNL A   1      38.782  33.546  38.066  1.00  0.00     0.173 A 
ATOM     73  C   UNL A   1      40.131  35.243  37.034  1.00  0.00     0.173 A 
ATOM     74  F   UNL A   1      38.176  32.351  38.037  1.00  0.00    -0.203 F 
ATOM     75  C   UNL A   1      38.616  34.359  39.184  1.00  0.00     0.198 A 
ATOM     76  C   UNL A   1      39.989  36.043  38.166  1.00  0.00     0.198 A 
ATOM     77  F   UNL A   1      40.866  35.698  36.009  1.00  0.00    -0.203 F 
ATOM     78  F   UNL A   1      37.853  33.943  40.205  1.00  0.00    -0.200 F 
ATOM     79  C   UNL A   1      39.223  35.605  39.237  1.00  0.00     0.200 A 
ATOM     80  F   UNL A   1      40.590  37.239  38.218  1.00  0.00    -0.200 F 
ATOM     81  F   UNL A   1      39.066  36.385  40.314  1.00  0.00    -0.200 F 
ENDBRANCH  47  71
BRANCH  59  82
ATOM     82  C   UNL A   1      43.909  28.818  35.282  1.00  0.00     0.064 A 
ATOM     83  C   UNL A   1      45.220  29.281  35.102  1.00  0.00     0.173 A 
ATOM     84  C   UNL A   1      43.698  27.778  36.200  1.00  0.00     0.173 A 
ATOM     85  F   UNL A   1      45.475  30.263  34.224  1.00  0.00    -0.203 F 
ATOM     86  C   UNL A   1      46.282  28.708  35.798  1.00  0.00     0.198 A 
ATOM     87  C   UNL A   1      44.757  27.229  36.916  1.00  0.00     0.198 A 
ATOM     88  F   UNL A   1      42.461  27.304  36.413  1.00  0.00    -0.203 F 
ATOM     89  F   UNL A   1      47.532  29.136  35.576  1.00  0.00    -0.200 F 
ATOM     90  C   UNL A   1      46.049  27.689  36.710  1.00  0.00     0.200 A 
ATOM     91  F   UNL A   1      44.528  26.255  37.808  1.00  0.00    -0.200 F 
ATOM     92  F   UNL A   1      47.071  27.147  37.385  1.00  0.00    -0.200 F 
ENDBRANCH  59  82
ENDBRANCH  33  34
ENDBRANCH  25  28
ENDBRANCH  23  24
ENDBRANCH   1  23
TORSDOF 12
ENDMDL
MODEL 2
REMARK VINA RESULT:     -12.9      6.895     12.062
REMARK SMILES C[C@H]1SCCC[C@]1(Nc1ccc(Cl)cc1)C(=O)NCCCNC(=O)c1ccc(-c2c3nc(c(-c4c(F)c(F)c(F)c(F)c4F)c4ccc([nH]4)c(-c4c(F)c(F)c(F)c(F)c4F)c4nc(c(-c5c(F)c(F)c(F)c(F)c5F)c5ccc2[nH]5)C=C4)C=C3)cc1
REMARK SMILES IDX 20 1 19 2 18 3 16 4 17 5 7 7 1 8 2 9 3 10 4 11 6 12 5 13
REMARK SMILES IDX 8 14 9 16 10 17 15 18 11 19 14 20 12 21 13 22 21 23 22 24
REMARK SMILES IDX 23 25 24 27 25 28 26 29 87 30 27 31 86 32 28 33 29 34 30 35
REMARK SMILES IDX 80 36 31 37 85 38 79 39 81 40 32 41 84 42 78 43 77 44 33 46
REMARK SMILES IDX 65 47 45 48 64 49 46 50 49 51 63 52 82 53 47 54 48 55 62 57
REMARK SMILES IDX 83 58 50 59 34 60 35 61 43 62 36 63 37 64 41 65 44 66 38 67
REMARK SMILES IDX 39 68 42 69 40 70 66 71 67 72 75 73 68 74 69 75 73 76 76 77
REMARK SMILES IDX 70 78 71 79 74 80 72 81 51 82 52 83 60 84 53 85 54 86 58 87
REMARK SMILES IDX 61 88 55 89 56 90 59 91 57 92
REMARK H PARENT 18 6 8 15 22 26 81 45 49 56
REMARK Flexibility Score: inf
ROOT
ATOM      1  C   UNL A   1      38.059  19.578  25.001  1.00  0.00     0.042 C 
ENDROOT
BRANCH   1   2
ATOM      2  C   UNL A   1      37.068  20.680  24.665  1.00  0.00     0.117 C 
BRANCH   2   3
ATOM      3  N   UNL A   1      36.435  21.225  25.854  1.00  0.00    -0.354 N 
ATOM      4  C   UNL A   1      35.145  21.573  26.126  1.00  0.00     0.246 C 
ATOM      5  O   UNL A   1      34.947  21.905  27.304  1.00  0.00    -0.272 OA
ATOM      6  H   UNL A   1      37.053  21.370  26.606  1.00  0.00     0.163 HD
BRANCH   4   7
ATOM      7  C   UNL A   1      33.982  21.626  25.065  1.00  0.00     0.128 C 
ATOM      8  C   UNL A   1      35.460  22.953  23.304  1.00  0.00     0.022 C 
ATOM      9  C   UNL A   1      34.193  22.889  24.148  1.00  0.00     0.078 C 
ATOM     10  S   UNL A   1      32.815  23.121  22.946  1.00  0.00    -0.156 SA
ATOM     11  C   UNL A   1      31.489  23.336  24.148  1.00  0.00     0.070 C 
ATOM     12  C   UNL A   1      32.648  21.837  25.861  1.00  0.00     0.040 C 
ATOM     13  C   UNL A   1      31.387  22.107  25.034  1.00  0.00     0.014 C 
BRANCH   7  14
ATOM     14  N   UNL A   1      33.845  20.388  24.249  1.00  0.00    -0.370 N 
ATOM     15  H   UNL A   1      33.771  20.518  23.276  1.00  0.00     0.161 HD
BRANCH  14  16
ATOM     16  C   UNL A   1      33.809  19.078  24.691  1.00  0.00     0.035 A 
ATOM     17  C   UNL A   1      34.686  18.081  24.251  1.00  0.00     0.027 A 
ATOM     18  C   UNL A   1      32.705  18.675  25.462  1.00  0.00     0.027 A 
ATOM     19  C   UNL A   1      34.432  16.725  24.498  1.00  0.00     0.022 A 
ATOM     20  C   UNL A   1      32.427  17.321  25.691  1.00  0.00     0.022 A 
ATOM     21  C   UNL A   1      33.286  16.350  25.188  1.00  0.00     0.041 A 
ATOM     22  Cl  UNL A   1      32.903  14.685  25.376  1.00  0.00    -0.084 Cl
ENDBRANCH  14  16
ENDBRANCH   7  14
ENDBRANCH   4   7
ENDBRANCH   2   3
ENDBRANCH   1   2
BRANCH   1  23
ATOM     23  C   UNL A   1      39.266  20.097  25.761  1.00  0.00     0.118 C 
BRANCH  23  24
ATOM     24  N   UNL A   1      40.285  19.073  25.939  1.00  0.00    -0.352 N 
ATOM     25  C   UNL A   1      41.641  19.201  26.126  1.00  0.00     0.251 C 
ATOM     26  H   UNL A   1      39.952  18.147  25.925  1.00  0.00     0.163 HD
ATOM     27  O   UNL A   1      42.368  18.218  26.029  1.00  0.00    -0.269 OA
BRANCH  25  28
ATOM     28  C   UNL A   1      42.235  20.527  26.412  1.00  0.00     0.039 A 
ATOM     29  C   UNL A   1      42.761  21.277  25.359  1.00  0.00     0.014 A 
ATOM     30  C   UNL A   1      42.284  21.030  27.713  1.00  0.00     0.014 A 
ATOM     31  C   UNL A   1      43.261  22.560  25.601  1.00  0.00     0.010 A 
ATOM     32  C   UNL A   1      42.670  22.346  27.935  1.00  0.00     0.010 A 
ATOM     33  C   UNL A   1      43.178  23.123  26.885  1.00  0.00    -0.014 A 
BRANCH  33  34
ATOM     34  C   UNL A   1      43.631  24.511  27.159  1.00  0.00     0.031 A 
ATOM     35  C   UNL A   1      42.653  25.534  27.676  1.00  0.00     0.074 A 
ATOM     36  C   UNL A   1      44.896  24.872  26.872  1.00  0.00     0.049 A 
ATOM     37  N   UNL A   1      42.826  26.813  27.889  1.00  0.00    -0.248 NA
ATOM     38  C   UNL A   1      41.286  25.063  27.954  1.00  0.00     0.031 C 
ATOM     39  C   UNL A   1      45.920  23.991  26.307  1.00  0.00     0.029 A 
ATOM     40  N   UNL A   1      45.535  26.080  27.000  1.00  0.00    -0.354 N 
ATOM     41  C   UNL A   1      41.592  27.299  28.298  1.00  0.00     0.074 A 
ATOM     42  C   UNL A   1      40.662  26.193  28.248  1.00  0.00     0.031 C 
ATOM     43  C   UNL A   1      47.063  24.680  26.163  1.00  0.00     0.029 A 
ATOM     44  C   UNL A   1      46.844  26.060  26.584  1.00  0.00     0.049 A 
ATOM     45  H   UNL A   1      45.096  26.886  27.358  1.00  0.00     0.167 HD
ATOM     46  C   UNL A   1      41.267  28.550  28.706  1.00  0.00     0.037 A 
ATOM     47  C   UNL A   1      47.760  27.045  26.537  1.00  0.00     0.037 A 
ATOM     48  C   UNL A   1      42.207  29.635  28.799  1.00  0.00     0.049 A 
ATOM     49  C   UNL A   1      47.379  28.422  27.012  1.00  0.00     0.074 A 
ATOM     50  C   UNL A   1      42.002  30.914  29.285  1.00  0.00     0.029 A 
ATOM     51  N   UNL A   1      43.533  29.567  28.396  1.00  0.00    -0.354 N 
ATOM     52  N   UNL A   1      46.230  28.848  27.476  1.00  0.00    -0.248 NA
ATOM     53  C   UNL A   1      48.425  29.453  26.962  1.00  0.00     0.031 C 
ATOM     54  C   UNL A   1      43.190  31.635  29.131  1.00  0.00     0.029 A 
ATOM     55  C   UNL A   1      44.149  30.791  28.597  1.00  0.00     0.049 A 
ATOM     56  H   UNL A   1      43.970  28.768  28.023  1.00  0.00     0.167 HD
ATOM     57  C   UNL A   1      46.418  30.186  27.792  1.00  0.00     0.074 A 
ATOM     58  C   UNL A   1      47.799  30.497  27.486  1.00  0.00     0.031 C 
ATOM     59  C   UNL A   1      45.526  31.080  28.287  1.00  0.00     0.037 A 
BRANCH  46  60
ATOM     60  C   UNL A   1      39.840  28.810  29.093  1.00  0.00     0.064 A 
ATOM     61  C   UNL A   1      39.390  28.641  30.411  1.00  0.00     0.173 A 
ATOM     62  C   UNL A   1      38.919  29.271  28.141  1.00  0.00     0.173 A 
ATOM     63  F   UNL A   1      40.228  28.190  31.358  1.00  0.00    -0.203 F 
ATOM     64  C   UNL A   1      38.065  28.897  30.755  1.00  0.00     0.198 A 
ATOM     65  C   UNL A   1      37.603  29.556  28.495  1.00  0.00     0.198 A 
ATOM     66  F   UNL A   1      39.297  29.456  26.866  1.00  0.00    -0.203 F 
ATOM     67  F   UNL A   1      37.647  28.679  32.010  1.00  0.00    -0.200 F 
ATOM     68  C   UNL A   1      37.175  29.362  29.800  1.00  0.00     0.200 A 
ATOM     69  F   UNL A   1      36.747  30.019  27.573  1.00  0.00    -0.200 F 
ATOM     70  F   UNL A   1      35.903  29.615  30.134  1.00  0.00    -0.200 F 
ENDBRANCH  46  60
BRANCH  47  71
ATOM     71  C   UNL A   1      49.132  26.763  26.037  1.00  0.00     0.064 A 
ATOM     72  C   UNL A   1      49.470  26.989  24.696  1.00  0.00     0.173 A 
ATOM     73  C   UNL A   1      50.129  26.260  26.886  1.00  0.00     0.173 A 
ATOM     74  F   UNL A   1      48.546  27.450  23.841  1.00  0.00    -0.203 F 
ATOM     75  C   UNL A   1      50.747  26.703  24.217  1.00  0.00     0.198 A 
ATOM     76  C   UNL A   1      51.414  26.002  26.413  1.00  0.00     0.198 A 
ATOM     77  F   UNL A   1      49.859  26.032  28.179  1.00  0.00    -0.203 F 
ATOM     78  F   UNL A   1      51.030  26.883  22.920  1.00  0.00    -0.200 F 
ATOM     79  C   UNL A   1      51.720  26.215  25.077  1.00  0.00     0.200 A 
ATOM     80  F   UNL A   1      52.355  25.546  27.251  1.00  0.00    -0.200 F 
ATOM     81  F   UNL A   1      52.949  25.944  24.617  1.00  0.00    -0.200 F 
ENDBRANCH  47  71
BRANCH  59  82
ATOM     82  C   UNL A   1      46.022  32.473  28.547  1.00  0.00     0.064 A 
ATOM     83  C   UNL A   1      45.927  33.477  27.573  1.00  0.00     0.173 A 
ATOM     84  C   UNL A   1      46.554  32.815  29.799  1.00  0.00     0.173 A 
ATOM     85  F   UNL A   1      45.440  33.195  26.356  1.00  0.00    -0.203 F 
ATOM     86  C   UNL A   1      46.370  34.771  27.837  1.00  0.00     0.198 A 
ATOM     87  C   UNL A   1      46.967  34.116  30.069  1.00  0.00     0.198 A 
ATOM     88  F   UNL A   1      46.659  31.891  30.766  1.00  0.00    -0.203 F 
ATOM     89  F   UNL A   1      46.313  35.704  26.877  1.00  0.00    -0.200 F 
ATOM     90  C   UNL A   1      46.882  35.091  29.086  1.00  0.00     0.200 A 
ATOM     91  F   UNL A   1      47.447  34.427  31.281  1.00  0.00    -0.200 F 
ATOM     92  F   UNL A   1      47.298  36.339  29.340  1.00  0.00    -0.200 F 
ENDBRANCH  59  82
ENDBRANCH  33  34
ENDBRANCH  25  28
ENDBRANCH  23  24
ENDBRANCH   1  23
TORSDOF 12
ENDMDL
MODEL 3
REMARK VINA RESULT:     -12.8      3.103      4.871
REMARK SMILES C[C@H]1SCCC[C@]1(Nc1ccc(Cl)cc1)C(=O)NCCCNC(=O)c1ccc(-c2c3nc(c(-c4c(F)c(F)c(F)c(F)c4F)c4ccc([nH]4)c(-c4c(F)c(F)c(F)c(F)c4F)c4nc(c(-c5c(F)c(F)c(F)c(F)c5F)c5ccc2[nH]5)C=C4)C=C3)cc1
REMARK SMILES IDX 20 1 19 2 18 3 16 4 17 5 7 7 1 8 2 9 3 10 4 11 6 12 5 13
REMARK SMILES IDX 8 14 9 16 10 17 15 18 11 19 14 20 12 21 13 22 21 23 22 24
REMARK SMILES IDX 23 25 24 27 25 28 26 29 87 30 27 31 86 32 28 33 29 34 30 35
REMARK SMILES IDX 80 36 31 37 85 38 79 39 81 40 32 41 84 42 78 43 77 44 33 46
REMARK SMILES IDX 65 47 45 48 64 49 46 50 49 51 63 52 82 53 47 54 48 55 62 57
REMARK SMILES IDX 83 58 50 59 34 60 35 61 43 62 36 63 37 64 41 65 44 66 38 67
REMARK SMILES IDX 39 68 42 69 40 70 66 71 67 72 75 73 68 74 69 75 73 76 76 77
REMARK SMILES IDX 70 78 71 79 74 80 72 81 51 82 52 83 60 84 53 85 54 86 58 87
REMARK SMILES IDX 61 88 55 89 56 90 59 91 57 92
REMARK H PARENT 18 6 8 15 22 26 81 45 49 56
REMARK Flexibility Score: inf
ROOT
ATOM      1  C   UNL A   1      33.237  29.043  23.517  1.00  0.00     0.042 C 
ENDROOT
BRANCH   1   2
ATOM      2  C   UNL A   1      32.192  28.074  22.991  1.00  0.00     0.117 C 
BRANCH   2   3
ATOM      3  N   UNL A   1      32.748  27.145  22.022  1.00  0.00    -0.354 N 
ATOM      4  C   UNL A   1      33.008  25.808  22.080  1.00  0.00     0.246 C 
ATOM      5  O   UNL A   1      33.386  25.318  21.006  1.00  0.00    -0.272 OA
ATOM      6  H   UNL A   1      32.981  27.559  21.160  1.00  0.00     0.163 HD
BRANCH   4   7
ATOM      7  C   UNL A   1      32.913  24.926  23.382  1.00  0.00     0.128 C 
ATOM      8  C   UNL A   1      30.273  24.707  23.213  1.00  0.00     0.022 C 
ATOM      9  C   UNL A   1      31.491  25.129  24.026  1.00  0.00     0.078 C 
ATOM     10  S   UNL A   1      31.315  24.238  25.631  1.00  0.00    -0.156 SA
ATOM     11  C   UNL A   1      32.622  25.101  26.523  1.00  0.00     0.070 C 
ATOM     12  C   UNL A   1      33.975  25.489  24.391  1.00  0.00     0.040 C 
ATOM     13  C   UNL A   1      33.950  24.913  25.810  1.00  0.00     0.014 C 
BRANCH   7  14
ATOM     14  N   UNL A   1      33.203  23.482  23.162  1.00  0.00    -0.370 N 
ATOM     15  H   UNL A   1      32.503  22.968  22.698  1.00  0.00     0.161 HD
BRANCH  14  16
ATOM     16  C   UNL A   1      34.333  22.776  23.529  1.00  0.00     0.035 A 
ATOM     17  C   UNL A   1      34.356  21.811  24.543  1.00  0.00     0.027 A 
ATOM     18  C   UNL A   1      35.569  23.193  23.004  1.00  0.00     0.027 A 
ATOM     19  C   UNL A   1      35.564  21.340  25.073  1.00  0.00     0.022 A 
ATOM     20  C   UNL A   1      36.781  22.748  23.546  1.00  0.00     0.022 A 
ATOM     21  C   UNL A   1      36.771  21.835  24.594  1.00  0.00     0.041 A 
ATOM     22  Cl  UNL A   1      38.249  21.359  25.333  1.00  0.00    -0.084 Cl
ENDBRANCH  14  16
ENDBRANCH   7  14
ENDBRANCH   4   7
ENDBRANCH   2   3
ENDBRANCH   1   2
BRANCH   1  23
ATOM     23  C   UNL A   1      33.319  29.039  25.033  1.00  0.00     0.118 C 
BRANCH  23  24
ATOM     24  N   UNL A   1      32.735  30.238  25.618  1.00  0.00    -0.352 N 
ATOM     25  C   UNL A   1      33.115  30.951  26.730  1.00  0.00     0.251 C 
ATOM     26  H   UNL A   1      31.949  30.592  25.144  1.00  0.00     0.163 HD
ATOM     27  O   UNL A   1      32.364  31.802  27.198  1.00  0.00    -0.269 OA
BRANCH  25  28
ATOM     28  C   UNL A   1      34.412  30.676  27.388  1.00  0.00     0.039 A 
ATOM     29  C   UNL A   1      35.288  31.736  27.633  1.00  0.00     0.014 A 
ATOM     30  C   UNL A   1      34.773  29.379  27.757  1.00  0.00     0.014 A 
ATOM     31  C   UNL A   1      36.485  31.504  28.317  1.00  0.00     0.010 A 
ATOM     32  C   UNL A   1      35.903  29.168  28.539  1.00  0.00     0.010 A 
ATOM     33  C   UNL A   1      36.781  30.225  28.816  1.00  0.00    -0.014 A 
BRANCH  33  34
ATOM     34  C   UNL A   1      38.008  29.962  29.612  1.00  0.00     0.031 A 
ATOM     35  C   UNL A   1      39.059  29.021  29.086  1.00  0.00     0.074 A 
ATOM     36  C   UNL A   1      38.141  30.507  30.837  1.00  0.00     0.049 A 
ATOM     37  N   UNL A   1      40.151  28.590  29.664  1.00  0.00    -0.248 NA
ATOM     38  C   UNL A   1      38.834  28.458  27.744  1.00  0.00     0.031 C 
ATOM     39  C   UNL A   1      37.163  31.383  31.484  1.00  0.00     0.029 A 
ATOM     40  N   UNL A   1      39.146  30.391  31.764  1.00  0.00    -0.354 N 
ATOM     41  C   UNL A   1      40.722  27.692  28.773  1.00  0.00     0.074 A 
ATOM     42  C   UNL A   1      39.830  27.593  27.639  1.00  0.00     0.031 C 
ATOM     43  C   UNL A   1      37.629  31.746  32.690  1.00  0.00     0.029 A 
ATOM     44  C   UNL A   1      38.915  31.097  32.920  1.00  0.00     0.049 A 
ATOM     45  H   UNL A   1      39.958  29.854  31.614  1.00  0.00     0.167 HD
ATOM     46  C   UNL A   1      41.900  27.031  28.876  1.00  0.00     0.037 A 
ATOM     47  C   UNL A   1      39.652  31.200  34.041  1.00  0.00     0.037 A 
ATOM     48  C   UNL A   1      42.806  27.169  29.985  1.00  0.00     0.049 A 
ATOM     49  C   UNL A   1      40.965  30.468  34.125  1.00  0.00     0.074 A 
ATOM     50  C   UNL A   1      44.064  26.615  30.144  1.00  0.00     0.029 A 
ATOM     51  N   UNL A   1      42.550  27.917  31.124  1.00  0.00    -0.354 N 
ATOM     52  N   UNL A   1      41.534  29.688  33.238  1.00  0.00    -0.248 NA
ATOM     53  C   UNL A   1      41.740  30.635  35.362  1.00  0.00     0.031 C 
ATOM     54  C   UNL A   1      44.548  26.988  31.402  1.00  0.00     0.029 A 
ATOM     55  C   UNL A   1      43.614  27.816  32.004  1.00  0.00     0.049 A 
ATOM     56  H   UNL A   1      41.732  28.442  31.284  1.00  0.00     0.167 HD
ATOM     57  C   UNL A   1      42.739  29.289  33.798  1.00  0.00     0.074 A 
ATOM     58  C   UNL A   1      42.830  29.930  35.095  1.00  0.00     0.031 C 
ATOM     59  C   UNL A   1      43.686  28.463  33.289  1.00  0.00     0.037 A 
BRANCH  46  60
ATOM     60  C   UNL A   1      42.282  26.105  27.756  1.00  0.00     0.064 A 
ATOM     61  C   UNL A   1      43.193  26.487  26.760  1.00  0.00     0.173 A 
ATOM     62  C   UNL A   1      41.759  24.804  27.701  1.00  0.00     0.173 A 
ATOM     63  F   UNL A   1      43.712  27.725  26.760  1.00  0.00    -0.203 F 
ATOM     64  C   UNL A   1      43.544  25.613  25.735  1.00  0.00     0.198 A 
ATOM     65  C   UNL A   1      42.137  23.922  26.693  1.00  0.00     0.198 A 
ATOM     66  F   UNL A   1      40.888  24.384  28.632  1.00  0.00    -0.203 F 
ATOM     67  F   UNL A   1      44.377  26.019  24.767  1.00  0.00    -0.200 F 
ATOM     68  C   UNL A   1      43.022  24.329  25.707  1.00  0.00     0.200 A 
ATOM     69  F   UNL A   1      41.643  22.676  26.674  1.00  0.00    -0.200 F 
ATOM     70  F   UNL A   1      43.367  23.486  24.724  1.00  0.00    -0.200 F 
ENDBRANCH  46  60
BRANCH  47  71
ATOM     71  C   UNL A   1      39.175  32.041  35.171  1.00  0.00     0.064 A 
ATOM     72  C   UNL A   1      38.442  31.482  36.227  1.00  0.00     0.173 A 
ATOM     73  C   UNL A   1      39.437  33.418  35.218  1.00  0.00     0.173 A 
ATOM     74  F   UNL A   1      38.148  30.174  36.217  1.00  0.00    -0.203 F 
ATOM     75  C   UNL A   1      37.972  32.270  37.275  1.00  0.00     0.198 A 
ATOM     76  C   UNL A   1      38.992  34.201  36.281  1.00  0.00     0.198 A 
ATOM     77  F   UNL A   1      40.140  34.002  34.236  1.00  0.00    -0.203 F 
ATOM     78  F   UNL A   1      37.233  31.718  38.247  1.00  0.00    -0.200 F 
ATOM     79  C   UNL A   1      38.252  33.628  37.305  1.00  0.00     0.200 A 
ATOM     80  F   UNL A   1      39.279  35.510  36.313  1.00  0.00    -0.200 F 
ATOM     81  F   UNL A   1      37.803  34.385  38.314  1.00  0.00    -0.200 F 
ENDBRANCH  47  71
BRANCH  59  82
ATOM     82  C   UNL A   1      44.908  28.220  34.125  1.00  0.00     0.064 A 
ATOM     83  C   UNL A   1      44.998  27.120  34.990  1.00  0.00     0.173 A 
ATOM     84  C   UNL A   1      46.019  29.071  34.024  1.00  0.00     0.173 A 
ATOM     85  F   UNL A   1      43.957  26.287  35.133  1.00  0.00    -0.203 F 
ATOM     86  C   UNL A   1      46.148  26.895  35.743  1.00  0.00     0.198 A 
ATOM     87  C   UNL A   1      47.177  28.826  34.754  1.00  0.00     0.198 A 
ATOM     88  F   UNL A   1      45.985  30.133  33.204  1.00  0.00    -0.203 F 
ATOM     89  F   UNL A   1      46.194  25.865  36.598  1.00  0.00    -0.200 F 
ATOM     90  C   UNL A   1      47.239  27.743  35.618  1.00  0.00     0.200 A 
ATOM     91  F   UNL A   1      48.236  29.637  34.621  1.00  0.00    -0.200 F 
ATOM     92  F   UNL A   1      48.348  27.518  36.335  1.00  0.00    -0.200 F 
ENDBRANCH  59  82
ENDBRANCH  33  34
ENDBRANCH  25  28
ENDBRANCH  23  24
ENDBRANCH   1  23
TORSDOF 12
ENDMDL
