MODEL 1
REMARK VINA RESULT:     -13.9      0.000      0.000
REMARK SMILES C[C@H](C(=O)Nc1ccc(C(=O)NCCCNC(=O)c2ccc(-c3c4nc(c(-c5c(F)c(F)c(F)c(F)c5F)c5ccc([nH]5)c(-c5c(F)c(F)c(F)c(F)c5F)c5nc(c(-c6c(F)c(F)c(F)c(F)c6F)c6ccc3[nH]6)C=C5)C=C4)cc2)cc1)N1C(=O)/C(=C\c2ccco2)SC1=S
REMARK SMILES IDX 13 1 12 2 10 3 11 4 9 6 6 7 7 8 83 9 8 10 82 11 5 12 3 13
REMARK SMILES IDX 4 14 2 16 1 17 84 18 85 19 95 20 86 21 87 22 94 23 96 24
REMARK SMILES IDX 88 25 89 26 90 27 93 28 91 29 92 30 14 31 15 32 16 33 17 34
REMARK SMILES IDX 18 36 19 37 20 38 81 39 21 40 80 41 22 42 23 43 24 44 74 45
REMARK SMILES IDX 25 46 79 47 73 48 75 49 26 50 78 51 72 52 71 53 27 55 59 56
REMARK SMILES IDX 39 57 58 58 40 59 43 60 57 61 76 62 41 63 42 64 56 66 77 67
REMARK SMILES IDX 44 68 28 69 29 70 37 71 30 72 31 73 35 74 38 75 32 76 33 77
REMARK SMILES IDX 36 78 34 79 60 80 61 81 69 82 62 83 63 84 67 85 70 86 64 87
REMARK SMILES IDX 65 88 68 89 66 90 45 91 46 92 54 93 47 94 48 95 52 96 55 97
REMARK SMILES IDX 49 98 50 99 53 100 51 101
REMARK H PARENT 12 5 5 15 16 35 75 54 43 65
REMARK Flexibility Score: inf
ROOT
ATOM      1  C   UNL A   1      31.875  30.555  26.201  1.00  0.00     0.118 C 
ENDROOT
BRANCH   1   2
ATOM      2  N   UNL A   1      31.306  30.252  24.904  1.00  0.00    -0.352 N 
ATOM      3  C   UNL A   1      31.161  29.033  24.281  1.00  0.00     0.251 C 
ATOM      4  O   UNL A   1      30.474  28.956  23.267  1.00  0.00    -0.269 OA
ATOM      5  H   UNL A   1      30.977  31.029  24.394  1.00  0.00     0.163 HD
BRANCH   3   6
ATOM      6  C   UNL A   1      31.765  27.801  24.855  1.00  0.00     0.039 A 
ATOM      7  C   UNL A   1      32.821  25.578  26.188  1.00  0.00     0.041 A 
ATOM      8  C   UNL A   1      31.439  25.740  26.091  1.00  0.00     0.027 A 
ATOM      9  C   UNL A   1      33.662  26.437  25.485  1.00  0.00     0.027 A 
ATOM     10  C   UNL A   1      30.913  26.864  25.448  1.00  0.00     0.016 A 
ATOM     11  C   UNL A   1      33.136  27.539  24.804  1.00  0.00     0.016 A 
BRANCH   7  12
ATOM     12  N   UNL A   1      33.320  24.485  26.896  1.00  0.00    -0.324 N 
ATOM     13  C   UNL A   1      33.426  23.169  26.520  1.00  0.00     0.247 C 
ATOM     14  O   UNL A   1      33.331  22.325  27.418  1.00  0.00    -0.272 OA
ATOM     15  H   UNL A   1      33.644  24.687  27.802  1.00  0.00     0.170 HD
BRANCH  13  16
ATOM     16  C   UNL A   1      34.092  22.790  25.159  1.00  0.00     0.178 C 
ATOM     17  C   UNL A   1      35.536  22.310  25.370  1.00  0.00     0.042 C 
BRANCH  16  18
ATOM     18  N   UNL A   1      33.374  22.011  24.130  1.00  0.00    -0.280 N 
ATOM     19  C   UNL A   1      33.437  20.619  24.212  1.00  0.00     0.267 C 
ATOM     20  C   UNL A   1      32.601  22.527  23.109  1.00  0.00     0.149 C 
ATOM     21  O   UNL A   1      34.086  19.987  25.030  1.00  0.00    -0.268 OA
ATOM     22  C   UNL A   1      32.625  19.990  23.131  1.00  0.00     0.084 C 
ATOM     23  S   UNL A   1      31.849  21.223  22.209  1.00  0.00    -0.054 SA
ATOM     24  S   UNL A   1      32.325  24.111  22.662  1.00  0.00    -0.052 S 
ATOM     25  C   UNL A   1      32.408  18.692  22.883  1.00  0.00     0.068 C 
BRANCH  25  26
ATOM     26  C   UNL A   1      32.637  17.674  23.842  1.00  0.00     0.127 A 
ATOM     27  C   UNL A   1      33.623  16.696  23.790  1.00  0.00     0.050 A 
ATOM     28  O   UNL A   1      32.010  17.575  25.062  1.00  0.00    -0.465 OA
ATOM     29  C   UNL A   1      33.593  15.983  25.004  1.00  0.00     0.042 A 
ATOM     30  C   UNL A   1      32.581  16.546  25.740  1.00  0.00     0.195 A 
ENDBRANCH  25  26
ENDBRANCH  16  18
ENDBRANCH  13  16
ENDBRANCH   7  12
ENDBRANCH   3   6
ENDBRANCH   1   2
BRANCH   1  31
ATOM     31  C   UNL A   1      31.514  31.948  26.692  1.00  0.00     0.042 C 
BRANCH  31  32
ATOM     32  C   UNL A   1      32.698  32.676  27.309  1.00  0.00     0.118 C 
BRANCH  32  33
ATOM     33  N   UNL A   1      32.394  34.065  27.642  1.00  0.00    -0.352 N 
ATOM     34  C   UNL A   1      32.981  34.894  28.570  1.00  0.00     0.251 C 
ATOM     35  H   UNL A   1      31.660  34.468  27.126  1.00  0.00     0.163 HD
ATOM     36  O   UNL A   1      32.490  35.993  28.807  1.00  0.00    -0.269 OA
BRANCH  34  37
ATOM     37  C   UNL A   1      34.186  34.448  29.305  1.00  0.00     0.039 A 
ATOM     38  C   UNL A   1      34.043  33.925  30.593  1.00  0.00     0.014 A 
ATOM     39  C   UNL A   1      35.449  34.527  28.718  1.00  0.00     0.014 A 
ATOM     40  C   UNL A   1      35.158  33.405  31.257  1.00  0.00     0.010 A 
ATOM     41  C   UNL A   1      36.536  33.921  29.337  1.00  0.00     0.010 A 
ATOM     42  C   UNL A   1      36.405  33.358  30.615  1.00  0.00    -0.014 A 
BRANCH  42  43
ATOM     43  C   UNL A   1      37.601  32.752  31.256  1.00  0.00     0.031 A 
ATOM     44  C   UNL A   1      38.307  31.608  30.579  1.00  0.00     0.074 A 
ATOM     45  C   UNL A   1      37.998  33.164  32.476  1.00  0.00     0.049 A 
ATOM     46  N   UNL A   1      39.267  30.840  31.028  1.00  0.00    -0.248 NA
ATOM     47  C   UNL A   1      37.845  31.259  29.225  1.00  0.00     0.031 C 
ATOM     48  C   UNL A   1      37.378  34.239  33.253  1.00  0.00     0.029 A 
ATOM     49  N   UNL A   1      39.010  32.712  33.287  1.00  0.00    -0.354 N 
ATOM     50  C   UNL A   1      39.505  29.910  30.025  1.00  0.00     0.074 A 
ATOM     51  C   UNL A   1      38.550  30.167  28.970  1.00  0.00     0.031 C 
ATOM     52  C   UNL A   1      38.035  34.378  34.416  1.00  0.00     0.029 A 
ATOM     53  C   UNL A   1      39.088  33.371  34.490  1.00  0.00     0.049 A 
ATOM     54  H   UNL A   1      39.621  31.984  33.031  1.00  0.00     0.167 HD
ATOM     55  C   UNL A   1      40.456  28.947  29.973  1.00  0.00     0.037 A 
ATOM     56  C   UNL A   1      39.910  33.173  35.540  1.00  0.00     0.037 A 
ATOM     57  C   UNL A   1      41.424  28.713  31.011  1.00  0.00     0.049 A 
ATOM     58  C   UNL A   1      40.941  32.077  35.466  1.00  0.00     0.074 A 
ATOM     59  C   UNL A   1      42.449  27.785  31.041  1.00  0.00     0.029 A 
ATOM     60  N   UNL A   1      41.488  29.420  32.203  1.00  0.00    -0.354 N 
ATOM     61  N   UNL A   1      41.189  31.234  34.493  1.00  0.00    -0.248 NA
ATOM     62  C   UNL A   1      41.812  31.908  36.639  1.00  0.00     0.031 C 
ATOM     63  C   UNL A   1      43.110  27.903  32.268  1.00  0.00     0.029 A 
ATOM     64  C   UNL A   1      42.530  28.942  32.979  1.00  0.00     0.049 A 
ATOM     65  H   UNL A   1      40.882  30.153  32.458  1.00  0.00     0.167 HD
ATOM     66  C   UNL A   1      42.267  30.469  34.916  1.00  0.00     0.074 A 
ATOM     67  C   UNL A   1      42.633  30.951  36.230  1.00  0.00     0.031 C 
ATOM     68  C   UNL A   1      42.901  29.458  34.271  1.00  0.00     0.037 A 
BRANCH  55  69
ATOM     69  C   UNL A   1      40.505  28.082  28.747  1.00  0.00     0.064 A 
ATOM     70  C   UNL A   1      41.262  28.446  27.622  1.00  0.00     0.173 A 
ATOM     71  C   UNL A   1      39.820  26.857  28.707  1.00  0.00     0.173 A 
ATOM     72  F   UNL A   1      41.923  29.614  27.603  1.00  0.00    -0.203 F 
ATOM     73  C   UNL A   1      41.309  27.631  26.495  1.00  0.00     0.198 A 
ATOM     74  C   UNL A   1      39.898  26.029  27.590  1.00  0.00     0.198 A 
ATOM     75  F   UNL A   1      39.086  26.458  29.755  1.00  0.00    -0.203 F 
ATOM     76  F   UNL A   1      41.998  28.026  25.414  1.00  0.00    -0.200 F 
ATOM     77  C   UNL A   1      40.635  26.420  26.483  1.00  0.00     0.200 A 
ATOM     78  F   UNL A   1      39.257  24.852  27.585  1.00  0.00    -0.200 F 
ATOM     79  F   UNL A   1      40.691  25.632  25.401  1.00  0.00    -0.200 F 
ENDBRANCH  55  69
BRANCH  56  80
ATOM     80  C   UNL A   1      39.814  34.038  36.746  1.00  0.00     0.064 A 
ATOM     81  C   UNL A   1      38.975  33.689  37.815  1.00  0.00     0.173 A 
ATOM     82  C   UNL A   1      40.525  35.243  36.846  1.00  0.00     0.173 A 
ATOM     83  F   UNL A   1      38.257  32.556  37.759  1.00  0.00    -0.203 F 
ATOM     84  C   UNL A   1      38.825  34.525  38.919  1.00  0.00     0.198 A 
ATOM     85  C   UNL A   1      40.398  36.064  37.965  1.00  0.00     0.198 A 
ATOM     86  F   UNL A   1      41.345  35.623  35.856  1.00  0.00    -0.203 F 
ATOM     87  F   UNL A   1      37.968  34.195  39.895  1.00  0.00    -0.200 F 
ATOM     88  C   UNL A   1      39.539  35.711  38.995  1.00  0.00     0.200 A 
ATOM     89  F   UNL A   1      41.102  37.202  38.041  1.00  0.00    -0.200 F 
ATOM     90  F   UNL A   1      39.391  36.518  40.053  1.00  0.00    -0.200 F 
ENDBRANCH  56  80
BRANCH  68  91
ATOM     91  C   UNL A   1      44.099  28.850  34.943  1.00  0.00     0.064 A 
ATOM     92  C   UNL A   1      45.392  29.354  34.750  1.00  0.00     0.173 A 
ATOM     93  C   UNL A   1      43.936  27.780  35.835  1.00  0.00     0.173 A 
ATOM     94  F   UNL A   1      45.603  30.367  33.896  1.00  0.00    -0.203 F 
ATOM     95  C   UNL A   1      46.483  28.793  35.409  1.00  0.00     0.198 A 
ATOM     96  C   UNL A   1      45.023  27.243  36.517  1.00  0.00     0.198 A 
ATOM     97  F   UNL A   1      42.716  27.266  36.061  1.00  0.00    -0.203 F 
ATOM     98  F   UNL A   1      47.717  29.260  35.174  1.00  0.00    -0.200 F 
ATOM     99  C   UNL A   1      46.297  27.745  36.298  1.00  0.00     0.200 A 
ATOM    100  F   UNL A   1      44.838  26.241  37.388  1.00  0.00    -0.200 F 
ATOM    101  F   UNL A   1      47.346  27.215  36.940  1.00  0.00    -0.200 F 
ENDBRANCH  68  91
ENDBRANCH  42  43
ENDBRANCH  34  37
ENDBRANCH  32  33
ENDBRANCH  31  32
ENDBRANCH   1  31
TORSDOF 14
ENDMDL
MODEL 2
REMARK VINA RESULT:     -13.8      5.315     11.310
REMARK SMILES C[C@H](C(=O)Nc1ccc(C(=O)NCCCNC(=O)c2ccc(-c3c4nc(c(-c5c(F)c(F)c(F)c(F)c5F)c5ccc([nH]5)c(-c5c(F)c(F)c(F)c(F)c5F)c5nc(c(-c6c(F)c(F)c(F)c(F)c6F)c6ccc3[nH]6)C=C5)C=C4)cc2)cc1)N1C(=O)/C(=C\c2ccco2)SC1=S
REMARK SMILES IDX 13 1 12 2 10 3 11 4 9 6 6 7 7 8 83 9 8 10 82 11 5 12 3 13
REMARK SMILES IDX 4 14 2 16 1 17 84 18 85 19 95 20 86 21 87 22 94 23 96 24
REMARK SMILES IDX 88 25 89 26 90 27 93 28 91 29 92 30 14 31 15 32 16 33 17 34
REMARK SMILES IDX 18 36 19 37 20 38 81 39 21 40 80 41 22 42 23 43 24 44 74 45
REMARK SMILES IDX 25 46 79 47 73 48 75 49 26 50 78 51 72 52 71 53 27 55 59 56
REMARK SMILES IDX 39 57 58 58 40 59 43 60 57 61 76 62 41 63 42 64 56 66 77 67
REMARK SMILES IDX 44 68 28 69 29 70 37 71 30 72 31 73 35 74 38 75 32 76 33 77
REMARK SMILES IDX 36 78 34 79 60 80 61 81 69 82 62 83 63 84 67 85 70 86 64 87
REMARK SMILES IDX 65 88 68 89 66 90 45 91 46 92 54 93 47 94 48 95 52 96 55 97
REMARK SMILES IDX 49 98 50 99 53 100 51 101
REMARK H PARENT 12 5 5 15 16 35 75 54 43 65
REMARK Flexibility Score: inf
ROOT
ATOM      1  C   UNL A   1      36.920  20.918  25.008  1.00  0.00     0.118 C 
ENDROOT
BRANCH   1   2
ATOM      2  N   UNL A   1      35.613  20.397  25.352  1.00  0.00    -0.352 N 
ATOM      3  C   UNL A   1      34.380  20.996  25.231  1.00  0.00     0.251 C 
ATOM      4  O   UNL A   1      33.367  20.320  25.390  1.00  0.00    -0.269 OA
ATOM      5  H   UNL A   1      35.606  19.485  25.725  1.00  0.00     0.163 HD
BRANCH   3   6
ATOM      6  C   UNL A   1      34.255  22.427  24.846  1.00  0.00     0.039 A 
ATOM      7  C   UNL A   1      34.249  25.082  23.962  1.00  0.00     0.041 A 
ATOM      8  C   UNL A   1      33.915  24.055  23.080  1.00  0.00     0.027 A 
ATOM      9  C   UNL A   1      34.427  24.795  25.313  1.00  0.00     0.027 A 
ATOM     10  C   UNL A   1      33.944  22.726  23.515  1.00  0.00     0.016 A 
ATOM     11  C   UNL A   1      34.414  23.471  25.760  1.00  0.00     0.016 A 
BRANCH   7  12
ATOM     12  N   UNL A   1      34.282  26.392  23.483  1.00  0.00    -0.324 N 
ATOM     13  C   UNL A   1      33.255  27.280  23.285  1.00  0.00     0.247 C 
ATOM     14  O   UNL A   1      33.393  28.094  22.364  1.00  0.00    -0.272 OA
ATOM     15  H   UNL A   1      35.176  26.730  23.251  1.00  0.00     0.170 HD
BRANCH  13  16
ATOM     16  C   UNL A   1      32.221  27.556  24.423  1.00  0.00     0.178 C 
ATOM     17  C   UNL A   1      32.550  28.866  25.155  1.00  0.00     0.042 C 
BRANCH  16  18
ATOM     18  N   UNL A   1      30.771  27.360  24.223  1.00  0.00    -0.280 N 
ATOM     19  C   UNL A   1      30.031  28.444  23.747  1.00  0.00     0.267 C 
ATOM     20  C   UNL A   1      30.074  26.184  24.420  1.00  0.00     0.149 C 
ATOM     21  O   UNL A   1      30.470  29.562  23.537  1.00  0.00    -0.268 OA
ATOM     22  C   UNL A   1      28.601  28.062  23.560  1.00  0.00     0.084 C 
ATOM     23  S   UNL A   1      28.399  26.394  23.943  1.00  0.00    -0.054 SA
ATOM     24  S   UNL A   1      30.588  24.713  25.017  1.00  0.00    -0.052 S 
ATOM     25  C   UNL A   1      27.583  28.802  23.101  1.00  0.00     0.068 C 
BRANCH  25  26
ATOM     26  C   UNL A   1      27.769  29.999  22.365  1.00  0.00     0.127 A 
ATOM     27  C   UNL A   1      27.702  31.294  22.865  1.00  0.00     0.050 A 
ATOM     28  O   UNL A   1      28.192  30.073  21.060  1.00  0.00    -0.465 OA
ATOM     29  C   UNL A   1      28.090  32.178  21.839  1.00  0.00     0.042 A 
ATOM     30  C   UNL A   1      28.363  31.385  20.752  1.00  0.00     0.195 A 
ENDBRANCH  25  26
ENDBRANCH  16  18
ENDBRANCH  13  16
ENDBRANCH   7  12
ENDBRANCH   3   6
ENDBRANCH   1   2
BRANCH   1  31
ATOM     31  C   UNL A   1      37.996  19.843  24.983  1.00  0.00     0.042 C 
BRANCH  31  32
ATOM     32  C   UNL A   1      39.249  20.252  25.739  1.00  0.00     0.118 C 
BRANCH  32  33
ATOM     33  N   UNL A   1      40.218  19.165  25.852  1.00  0.00    -0.352 N 
ATOM     34  C   UNL A   1      41.574  19.218  26.083  1.00  0.00     0.251 C 
ATOM     35  H   UNL A   1      39.847  18.260  25.747  1.00  0.00     0.163 HD
ATOM     36  O   UNL A   1      42.249  18.196  26.002  1.00  0.00    -0.269 OA
BRANCH  34  37
ATOM     37  C   UNL A   1      42.222  20.510  26.398  1.00  0.00     0.039 A 
ATOM     38  C   UNL A   1      42.710  21.300  25.353  1.00  0.00     0.014 A 
ATOM     39  C   UNL A   1      42.331  20.951  27.717  1.00  0.00     0.014 A 
ATOM     40  C   UNL A   1      43.231  22.568  25.628  1.00  0.00     0.010 A 
ATOM     41  C   UNL A   1      42.756  22.248  27.978  1.00  0.00     0.010 A 
ATOM     42  C   UNL A   1      43.215  23.070  26.939  1.00  0.00    -0.014 A 
BRANCH  42  43
ATOM     43  C   UNL A   1      43.695  24.437  27.266  1.00  0.00     0.031 A 
ATOM     44  C   UNL A   1      42.720  25.462  27.782  1.00  0.00     0.074 A 
ATOM     45  C   UNL A   1      44.973  24.785  27.018  1.00  0.00     0.049 A 
ATOM     46  N   UNL A   1      42.890  26.744  27.985  1.00  0.00    -0.248 NA
ATOM     47  C   UNL A   1      41.359  24.984  28.078  1.00  0.00     0.031 C 
ATOM     48  C   UNL A   1      46.007  23.897  26.486  1.00  0.00     0.029 A 
ATOM     49  N   UNL A   1      45.616  25.989  27.165  1.00  0.00    -0.354 N 
ATOM     50  C   UNL A   1      41.658  27.224  28.409  1.00  0.00     0.074 A 
ATOM     51  C   UNL A   1      40.734  26.113  28.374  1.00  0.00     0.031 C 
ATOM     52  C   UNL A   1      47.158  24.578  26.372  1.00  0.00     0.029 A 
ATOM     53  C   UNL A   1      46.934  25.963  26.773  1.00  0.00     0.049 A 
ATOM     54  H   UNL A   1      45.176  26.797  27.517  1.00  0.00     0.167 HD
ATOM     55  C   UNL A   1      41.333  28.473  28.819  1.00  0.00     0.037 A 
ATOM     56  C   UNL A   1      47.850  26.949  26.730  1.00  0.00     0.037 A 
ATOM     57  C   UNL A   1      42.263  29.569  28.880  1.00  0.00     0.049 A 
ATOM     58  C   UNL A   1      47.454  28.336  27.167  1.00  0.00     0.074 A 
ATOM     59  C   UNL A   1      42.043  30.864  29.313  1.00  0.00     0.029 A 
ATOM     60  N   UNL A   1      43.595  29.494  28.500  1.00  0.00    -0.354 N 
ATOM     61  N   UNL A   1      46.299  28.768  27.611  1.00  0.00    -0.248 NA
ATOM     62  C   UNL A   1      48.495  29.373  27.102  1.00  0.00     0.031 C 
ATOM     63  C   UNL A   1      43.231  31.585  29.158  1.00  0.00     0.029 A 
ATOM     64  C   UNL A   1      44.206  30.724  28.681  1.00  0.00     0.049 A 
ATOM     65  H   UNL A   1      44.040  28.687  28.154  1.00  0.00     0.167 HD
ATOM     66  C   UNL A   1      46.485  30.109  27.919  1.00  0.00     0.074 A 
ATOM     67  C   UNL A   1      47.866  30.419  27.619  1.00  0.00     0.031 C 
ATOM     68  C   UNL A   1      45.592  31.005  28.408  1.00  0.00     0.037 A 
BRANCH  55  69
ATOM     69  C   UNL A   1      39.916  28.718  29.248  1.00  0.00     0.064 A 
ATOM     70  C   UNL A   1      38.940  29.159  28.340  1.00  0.00     0.173 A 
ATOM     71  C   UNL A   1      39.517  28.473  30.571  1.00  0.00     0.173 A 
ATOM     72  F   UNL A   1      39.273  29.422  27.066  1.00  0.00    -0.203 F 
ATOM     73  C   UNL A   1      37.626  29.372  28.746  1.00  0.00     0.198 A 
ATOM     74  C   UNL A   1      38.193  28.655  30.965  1.00  0.00     0.198 A 
ATOM     75  F   UNL A   1      40.406  28.047  31.479  1.00  0.00    -0.203 F 
ATOM     76  F   UNL A   1      36.725  29.842  27.872  1.00  0.00    -0.200 F 
ATOM     77  C   UNL A   1      37.251  29.111  30.055  1.00  0.00     0.200 A 
ATOM     78  F   UNL A   1      37.829  28.389  32.228  1.00  0.00    -0.200 F 
ATOM     79  F   UNL A   1      35.983  29.306  30.442  1.00  0.00    -0.200 F 
ENDBRANCH  55  69
BRANCH  56  80
ATOM     80  C   UNL A   1      49.239  26.669  26.276  1.00  0.00     0.064 A 
ATOM     81  C   UNL A   1      50.200  26.174  27.170  1.00  0.00     0.173 A 
ATOM     82  C   UNL A   1      49.645  26.921  24.958  1.00  0.00     0.173 A 
ATOM     83  F   UNL A   1      49.865  25.937  28.448  1.00  0.00    -0.203 F 
ATOM     84  C   UNL A   1      51.520  25.974  26.773  1.00  0.00     0.198 A 
ATOM     85  C   UNL A   1      50.960  26.690  24.553  1.00  0.00     0.198 A 
ATOM     86  F   UNL A   1      48.767  27.389  24.060  1.00  0.00    -0.203 F 
ATOM     87  F   UNL A   1      52.430  25.561  27.666  1.00  0.00    -0.200 F 
ATOM     88  C   UNL A   1      51.898  26.229  25.464  1.00  0.00     0.200 A 
ATOM     89  F   UNL A   1      51.318  26.924  23.284  1.00  0.00    -0.200 F 
ATOM     90  F   UNL A   1      53.169  26.043  25.083  1.00  0.00    -0.200 F 
ENDBRANCH  56  80
BRANCH  68  91
ATOM     91  C   UNL A   1      46.094  32.385  28.720  1.00  0.00     0.064 A 
ATOM     92  C   UNL A   1      46.027  33.427  27.784  1.00  0.00     0.173 A 
ATOM     93  C   UNL A   1      46.599  32.678  29.996  1.00  0.00     0.173 A 
ATOM     94  F   UNL A   1      45.566  33.195  26.546  1.00  0.00    -0.203 F 
ATOM     95  C   UNL A   1      46.470  34.707  28.107  1.00  0.00     0.198 A 
ATOM     96  C   UNL A   1      47.010  33.965  30.326  1.00  0.00     0.198 A 
ATOM     97  F   UNL A   1      46.676  31.718  30.930  1.00  0.00    -0.203 F 
ATOM     98  F   UNL A   1      46.440  35.677  27.183  1.00  0.00    -0.200 F 
ATOM     99  C   UNL A   1      46.952  34.977  29.380  1.00  0.00     0.200 A 
ATOM    100  F   UNL A   1      47.460  34.228  31.561  1.00  0.00    -0.200 F 
ATOM    101  F   UNL A   1      47.367  36.212  29.692  1.00  0.00    -0.200 F 
ENDBRANCH  68  91
ENDBRANCH  42  43
ENDBRANCH  34  37
ENDBRANCH  32  33
ENDBRANCH  31  32
ENDBRANCH   1  31
TORSDOF 14
ENDMDL
MODEL 3
REMARK VINA RESULT:     -13.6      0.492      7.140
REMARK SMILES C[C@H](C(=O)Nc1ccc(C(=O)NCCCNC(=O)c2ccc(-c3c4nc(c(-c5c(F)c(F)c(F)c(F)c5F)c5ccc([nH]5)c(-c5c(F)c(F)c(F)c(F)c5F)c5nc(c(-c6c(F)c(F)c(F)c(F)c6F)c6ccc3[nH]6)C=C5)C=C4)cc2)cc1)N1C(=O)/C(=C\c2ccco2)SC1=S
REMARK SMILES IDX 13 1 12 2 10 3 11 4 9 6 6 7 7 8 83 9 8 10 82 11 5 12 3 13
REMARK SMILES IDX 4 14 2 16 1 17 84 18 85 19 95 20 86 21 87 22 94 23 96 24
REMARK SMILES IDX 88 25 89 26 90 27 93 28 91 29 92 30 14 31 15 32 16 33 17 34
REMARK SMILES IDX 18 36 19 37 20 38 81 39 21 40 80 41 22 42 23 43 24 44 74 45
REMARK SMILES IDX 25 46 79 47 73 48 75 49 26 50 78 51 72 52 71 53 27 55 59 56
REMARK SMILES IDX 39 57 58 58 40 59 43 60 57 61 76 62 41 63 42 64 56 66 77 67
REMARK SMILES IDX 44 68 28 69 29 70 37 71 30 72 31 73 35 74 38 75 32 76 33 77
REMARK SMILES IDX 36 78 34 79 60 80 61 81 69 82 62 83 63 84 67 85 70 86 64 87
REMARK SMILES IDX 65 88 68 89 66 90 45 91 46 92 54 93 47 94 48 95 52 96 55 97
REMARK SMILES IDX 49 98 50 99 53 100 51 101
REMARK H PARENT 12 5 5 15 16 35 75 54 43 65
REMARK Flexibility Score: inf
ROOT
ATOM      1  C   UNL A   1      31.560  30.548  26.154  1.00  0.00     0.118 C 
ENDROOT
BRANCH   1   2
ATOM      2  N   UNL A   1      31.137  30.254  24.800  1.00  0.00    -0.352 N 
ATOM      3  C   UNL A   1      31.101  29.043  24.145  1.00  0.00     0.251 C 
ATOM      4  O   UNL A   1      30.523  28.963  23.065  1.00  0.00    -0.269 OA
ATOM      5  H   UNL A   1      30.832  31.028  24.274  1.00  0.00     0.163 HD
BRANCH   3   6
ATOM      6  C   UNL A   1      31.689  27.821  24.756  1.00  0.00     0.039 A 
ATOM      7  C   UNL A   1      32.716  25.626  26.155  1.00  0.00     0.041 A 
ATOM      8  C   UNL A   1      31.337  25.802  26.053  1.00  0.00     0.027 A 
ATOM      9  C   UNL A   1      33.568  26.453  25.428  1.00  0.00     0.027 A 
ATOM     10  C   UNL A   1      30.824  26.913  25.376  1.00  0.00     0.016 A 
ATOM     11  C   UNL A   1      33.057  27.541  24.715  1.00  0.00     0.016 A 
BRANCH   7  12
ATOM     12  N   UNL A   1      33.201  24.548  26.896  1.00  0.00    -0.324 N 
ATOM     13  C   UNL A   1      33.326  23.227  26.546  1.00  0.00     0.247 C 
ATOM     14  O   UNL A   1      33.209  22.397  27.455  1.00  0.00    -0.272 OA
ATOM     15  H   UNL A   1      33.497  24.767  27.808  1.00  0.00     0.170 HD
BRANCH  13  16
ATOM     16  C   UNL A   1      34.034  22.830  25.211  1.00  0.00     0.178 C 
ATOM     17  C   UNL A   1      35.467  22.343  25.475  1.00  0.00     0.042 C 
BRANCH  16  18
ATOM     18  N   UNL A   1      33.345  22.043  24.168  1.00  0.00    -0.280 N 
ATOM     19  C   UNL A   1      33.422  20.652  24.250  1.00  0.00     0.267 C 
ATOM     20  C   UNL A   1      32.586  22.552  23.133  1.00  0.00     0.149 C 
ATOM     21  O   UNL A   1      34.062  20.027  25.080  1.00  0.00    -0.268 OA
ATOM     22  C   UNL A   1      32.638  20.016  23.152  1.00  0.00     0.084 C 
ATOM     23  S   UNL A   1      31.867  21.240  22.216  1.00  0.00    -0.054 SA
ATOM     24  S   UNL A   1      32.301  24.133  22.681  1.00  0.00    -0.052 S 
ATOM     25  C   UNL A   1      32.441  18.715  22.899  1.00  0.00     0.068 C 
BRANCH  25  26
ATOM     26  C   UNL A   1      32.662  17.699  23.862  1.00  0.00     0.127 A 
ATOM     27  C   UNL A   1      33.679  16.752  23.845  1.00  0.00     0.050 A 
ATOM     28  O   UNL A   1      31.989  17.573  25.054  1.00  0.00    -0.465 OA
ATOM     29  C   UNL A   1      33.623  16.031  25.054  1.00  0.00     0.042 A 
ATOM     30  C   UNL A   1      32.564  16.557  25.750  1.00  0.00     0.195 A 
ENDBRANCH  25  26
ENDBRANCH  16  18
ENDBRANCH  13  16
ENDBRANCH   7  12
ENDBRANCH   3   6
ENDBRANCH   1   2
BRANCH   1  31
ATOM     31  C   UNL A   1      31.397  32.017  26.515  1.00  0.00     0.042 C 
BRANCH  31  32
ATOM     32  C   UNL A   1      32.632  32.593  27.190  1.00  0.00     0.118 C 
BRANCH  32  33
ATOM     33  N   UNL A   1      32.465  33.994  27.567  1.00  0.00    -0.352 N 
ATOM     34  C   UNL A   1      33.116  34.727  28.533  1.00  0.00     0.251 C 
ATOM     35  H   UNL A   1      31.786  34.488  27.055  1.00  0.00     0.163 HD
ATOM     36  O   UNL A   1      32.735  35.862  28.801  1.00  0.00    -0.269 OA
BRANCH  34  37
ATOM     37  C   UNL A   1      34.254  34.135  29.270  1.00  0.00     0.039 A 
ATOM     38  C   UNL A   1      34.002  33.358  30.404  1.00  0.00     0.014 A 
ATOM     39  C   UNL A   1      35.566  34.330  28.834  1.00  0.00     0.014 A 
ATOM     40  C   UNL A   1      35.059  32.708  31.048  1.00  0.00     0.010 A 
ATOM     41  C   UNL A   1      36.600  33.607  29.414  1.00  0.00     0.010 A 
ATOM     42  C   UNL A   1      36.361  32.792  30.531  1.00  0.00    -0.014 A 
BRANCH  42  43
ATOM     43  C   UNL A   1      37.502  32.063  31.143  1.00  0.00     0.031 A 
ATOM     44  C   UNL A   1      37.989  32.462  32.510  1.00  0.00     0.074 A 
ATOM     45  C   UNL A   1      38.152  31.112  30.444  1.00  0.00     0.049 A 
ATOM     46  N   UNL A   1      39.054  32.067  33.162  1.00  0.00    -0.248 NA
ATOM     47  C   UNL A   1      37.188  33.469  33.226  1.00  0.00     0.031 C 
ATOM     48  C   UNL A   1      37.801  30.658  29.098  1.00  0.00     0.029 A 
ATOM     49  N   UNL A   1      39.261  30.368  30.765  1.00  0.00    -0.354 N 
ATOM     50  C   UNL A   1      39.059  32.790  34.347  1.00  0.00     0.074 A 
ATOM     51  C   UNL A   1      37.930  33.693  34.300  1.00  0.00     0.031 C 
ATOM     52  C   UNL A   1      38.661  29.699  28.718  1.00  0.00     0.029 A 
ATOM     53  C   UNL A   1      39.654  29.507  29.769  1.00  0.00     0.049 A 
ATOM     54  H   UNL A   1      39.730  30.444  31.628  1.00  0.00     0.167 HD
ATOM     55  C   UNL A   1      39.911  32.690  35.395  1.00  0.00     0.037 A 
ATOM     56  C   UNL A   1      40.707  28.668  29.708  1.00  0.00     0.037 A 
ATOM     57  C   UNL A   1      41.015  31.769  35.451  1.00  0.00     0.049 A 
ATOM     58  C   UNL A   1      41.654  28.595  30.879  1.00  0.00     0.074 A 
ATOM     59  C   UNL A   1      41.916  31.565  36.481  1.00  0.00     0.029 A 
ATOM     60  N   UNL A   1      41.364  30.895  34.433  1.00  0.00    -0.354 N 
ATOM     61  N   UNL A   1      41.622  29.249  32.014  1.00  0.00    -0.248 NA
ATOM     62  C   UNL A   1      42.783  27.661  30.759  1.00  0.00     0.031 C 
ATOM     63  C   UNL A   1      42.835  30.595  36.070  1.00  0.00     0.029 A 
ATOM     64  C   UNL A   1      42.474  30.155  34.807  1.00  0.00     0.049 A 
ATOM     65  H   UNL A   1      40.892  30.812  33.572  1.00  0.00     0.167 HD
ATOM     66  C   UNL A   1      42.695  28.775  32.758  1.00  0.00     0.074 A 
ATOM     67  C   UNL A   1      43.354  27.773  31.949  1.00  0.00     0.031 C 
ATOM     68  C   UNL A   1      43.096  29.137  34.002  1.00  0.00     0.037 A 
BRANCH  55  69
ATOM     69  C   UNL A   1      39.673  33.588  36.574  1.00  0.00     0.064 A 
ATOM     70  C   UNL A   1      38.837  33.201  37.635  1.00  0.00     0.173 A 
ATOM     71  C   UNL A   1      40.315  34.832  36.667  1.00  0.00     0.173 A 
ATOM     72  F   UNL A   1      38.188  32.027  37.589  1.00  0.00    -0.203 F 
ATOM     73  C   UNL A   1      38.633  34.037  38.728  1.00  0.00     0.198 A 
ATOM     74  C   UNL A   1      40.134  35.651  37.779  1.00  0.00     0.198 A 
ATOM     75  F   UNL A   1      41.127  35.249  35.686  1.00  0.00    -0.203 F 
ATOM     76  F   UNL A   1      37.791  33.667  39.703  1.00  0.00    -0.200 F 
ATOM     77  C   UNL A   1      39.288  35.257  38.805  1.00  0.00     0.200 A 
ATOM     78  F   UNL A   1      40.779  36.823  37.858  1.00  0.00    -0.200 F 
ATOM     79  F   UNL A   1      39.099  36.055  39.864  1.00  0.00    -0.200 F 
ENDBRANCH  55  69
BRANCH  56  80
ATOM     80  C   UNL A   1      40.920  27.811  28.511  1.00  0.00     0.064 A 
ATOM     81  C   UNL A   1      41.740  28.240  27.458  1.00  0.00     0.173 A 
ATOM     82  C   UNL A   1      40.287  26.566  28.377  1.00  0.00     0.173 A 
ATOM     83  F   UNL A   1      42.352  29.432  27.530  1.00  0.00    -0.203 F 
ATOM     84  C   UNL A   1      41.891  27.476  26.302  1.00  0.00     0.198 A 
ATOM     85  C   UNL A   1      40.464  25.788  27.234  1.00  0.00     0.198 A 
ATOM     86  F   UNL A   1      39.496  26.104  29.356  1.00  0.00    -0.203 F 
ATOM     87  F   UNL A   1      42.631  27.941  25.286  1.00  0.00    -0.200 F 
ATOM     88  C   UNL A   1      41.256  26.248  26.193  1.00  0.00     0.200 A 
ATOM     89  F   UNL A   1      39.860  24.596  27.138  1.00  0.00    -0.200 F 
ATOM     90  F   UNL A   1      41.396  25.516  25.080  1.00  0.00    -0.200 F 
ENDBRANCH  56  80
BRANCH  68  91
ATOM     91  C   UNL A   1      44.260  28.397  34.597  1.00  0.00     0.064 A 
ATOM     92  C   UNL A   1      45.576  28.864  34.475  1.00  0.00     0.173 A 
ATOM     93  C   UNL A   1      44.042  27.231  35.347  1.00  0.00     0.173 A 
ATOM     94  F   UNL A   1      45.838  29.966  33.757  1.00  0.00    -0.203 F 
ATOM     95  C   UNL A   1      46.635  28.177  35.063  1.00  0.00     0.198 A 
ATOM     96  C   UNL A   1      45.098  26.566  35.960  1.00  0.00     0.198 A 
ATOM     97  F   UNL A   1      42.799  26.748  35.500  1.00  0.00    -0.203 F 
ATOM     98  F   UNL A   1      47.890  28.615  34.895  1.00  0.00    -0.200 F 
ATOM     99  C   UNL A   1      46.394  27.035  35.812  1.00  0.00     0.200 A 
ATOM    100  F   UNL A   1      44.861  25.471  36.697  1.00  0.00    -0.200 F 
ATOM    101  F   UNL A   1      47.413  26.382  36.387  1.00  0.00    -0.200 F 
ENDBRANCH  68  91
ENDBRANCH  42  43
ENDBRANCH  34  37
ENDBRANCH  32  33
ENDBRANCH  31  32
ENDBRANCH   1  31
TORSDOF 14
ENDMDL
