MODEL 1
REMARK VINA RESULT:     -13.4      0.000      0.000
REMARK SMILES Cc1cc(F)ccc1S(=O)(=O)N1CCO[C@H](CC(=O)NCCCNC(=O)c2ccc(-c3c4nc(c(-c5c(F)c(F)c(F)c(F)c5F)c5ccc([nH]5)c(-c5c(F)c(F)c(F)c(F)c5F)c5nc(c(-c6c(F)c(F)c(F)c(F)c6F)c6ccc3[nH]6)C=C5)C=C4)cc2)C1
REMARK SMILES IDX 21 1 20 2 18 3 19 4 17 6 16 7 12 8 13 9 90 10 14 11 15 12
REMARK SMILES IDX 9 13 10 14 11 15 8 16 1 17 2 18 3 19 4 20 7 21 5 22 6 23
REMARK SMILES IDX 22 24 23 25 24 26 25 27 26 29 27 30 28 31 89 32 29 33 88 34
REMARK SMILES IDX 30 35 31 36 32 37 82 38 33 39 87 40 81 41 83 42 34 43 86 44
REMARK SMILES IDX 80 45 79 46 35 48 67 49 47 50 66 51 48 52 51 53 65 54 84 55
REMARK SMILES IDX 49 56 50 57 64 59 85 60 52 61 36 62 37 63 45 64 38 65 39 66
REMARK SMILES IDX 43 67 46 68 40 69 41 70 44 71 42 72 68 73 69 74 77 75 70 76
REMARK SMILES IDX 71 77 75 78 78 79 72 80 73 81 76 82 74 83 53 84 54 85 62 86
REMARK SMILES IDX 55 87 56 88 60 89 63 90 57 91 58 92 61 93 59 94
REMARK H PARENT 20 5 24 28 83 47 51 58
REMARK Flexibility Score: inf
ROOT
ATOM      1  C   UNL A   1      31.991  28.009  26.175  1.00  0.00     0.117 C 
ENDROOT
BRANCH   1   2
ATOM      2  N   UNL A   1      31.077  27.003  26.683  1.00  0.00    -0.356 N 
ATOM      3  C   UNL A   1      30.863  25.764  26.165  1.00  0.00     0.222 C 
ATOM      4  O   UNL A   1      29.888  25.107  26.522  1.00  0.00    -0.275 OA
ATOM      5  H   UNL A   1      30.558  27.242  27.485  1.00  0.00     0.163 HD
BRANCH   3   6
ATOM      6  C   UNL A   1      31.886  25.220  25.210  1.00  0.00     0.133 C 
BRANCH   6   7
ATOM      7  C   UNL A   1      31.320  24.742  23.865  1.00  0.00     0.142 C 
ATOM      8  N   UNL A   1      32.734  22.816  23.899  1.00  0.00    -0.193 NA
ATOM      9  C   UNL A   1      33.354  23.048  22.588  1.00  0.00     0.131 C 
ATOM     10  C   UNL A   1      31.310  23.218  23.878  1.00  0.00     0.135 C 
ATOM     11  C   UNL A   1      33.152  24.524  22.175  1.00  0.00     0.177 C 
ATOM     12  O   UNL A   1      32.002  25.222  22.682  1.00  0.00    -0.375 OA
BRANCH   8  13
ATOM     13  S   UNL A   1      33.329  21.706  24.992  1.00  0.00     0.243 S 
ATOM     14  O   UNL A   1      33.159  20.389  24.434  1.00  0.00    -0.207 OA
ATOM     15  O   UNL A   1      32.749  22.061  26.279  1.00  0.00    -0.207 OA
BRANCH  13  16
ATOM     16  C   UNL A   1      35.118  21.934  25.209  1.00  0.00     0.085 A 
ATOM     17  C   UNL A   1      35.233  24.493  25.607  1.00  0.00     0.046 C 
ATOM     18  C   UNL A   1      35.814  23.125  25.502  1.00  0.00    -0.028 A 
ATOM     19  C   UNL A   1      37.223  23.078  25.628  1.00  0.00     0.044 A 
ATOM     20  C   UNL A   1      37.924  21.900  25.424  1.00  0.00     0.123 A 
ATOM     21  C   UNL A   1      35.863  20.750  25.006  1.00  0.00     0.025 A 
ATOM     22  F   UNL A   1      39.260  21.905  25.521  1.00  0.00    -0.207 F 
ATOM     23  C   UNL A   1      37.257  20.736  25.099  1.00  0.00     0.040 A 
ENDBRANCH  13  16
ENDBRANCH   8  13
ENDBRANCH   6   7
ENDBRANCH   3   6
ENDBRANCH   1   2
BRANCH   1  24
ATOM     24  C   UNL A   1      32.770  28.660  27.315  1.00  0.00     0.042 C 
BRANCH  24  25
ATOM     25  C   UNL A   1      34.168  28.986  26.875  1.00  0.00     0.118 C 
BRANCH  25  26
ATOM     26  N   UNL A   1      34.440  30.417  26.987  1.00  0.00    -0.352 N 
ATOM     27  C   UNL A   1      35.404  31.022  27.755  1.00  0.00     0.251 C 
ATOM     28  H   UNL A   1      33.867  31.014  26.454  1.00  0.00     0.163 HD
ATOM     29  O   UNL A   1      35.320  32.200  28.071  1.00  0.00    -0.269 OA
BRANCH  27  30
ATOM     30  C   UNL A   1      36.564  30.212  28.141  1.00  0.00     0.039 A 
ATOM     31  C   UNL A   1      36.615  29.506  29.346  1.00  0.00     0.014 A 
ATOM     32  C   UNL A   1      37.638  30.215  27.260  1.00  0.00     0.014 A 
ATOM     33  C   UNL A   1      37.780  28.814  29.661  1.00  0.00     0.010 A 
ATOM     34  C   UNL A   1      38.648  29.336  27.435  1.00  0.00     0.010 A 
ATOM     35  C   UNL A   1      38.784  28.766  28.696  1.00  0.00    -0.014 A 
BRANCH  35  36
ATOM     36  C   UNL A   1      40.121  28.256  28.883  1.00  0.00     0.031 A 
ATOM     37  C   UNL A   1      40.385  26.865  28.533  1.00  0.00     0.074 A 
ATOM     38  C   UNL A   1      41.038  29.233  29.075  1.00  0.00     0.049 A 
ATOM     39  N   UNL A   1      41.373  26.182  28.980  1.00  0.00    -0.248 NA
ATOM     40  C   UNL A   1      39.509  26.100  27.649  1.00  0.00     0.031 C 
ATOM     41  C   UNL A   1      42.476  29.253  28.886  1.00  0.00     0.029 A 
ATOM     42  N   UNL A   1      40.757  30.523  29.570  1.00  0.00    -0.354 N 
ATOM     43  C   UNL A   1      41.490  25.080  28.159  1.00  0.00     0.074 A 
ATOM     44  C   UNL A   1      40.217  24.978  27.487  1.00  0.00     0.031 C 
ATOM     45  C   UNL A   1      42.981  30.302  29.569  1.00  0.00     0.029 A 
ATOM     46  C   UNL A   1      41.883  30.909  30.309  1.00  0.00     0.049 A 
ATOM     47  H   UNL A   1      39.936  31.046  29.426  1.00  0.00     0.167 HD
ATOM     48  C   UNL A   1      42.734  24.546  27.988  1.00  0.00     0.037 A 
ATOM     49  C   UNL A   1      41.753  30.949  31.669  1.00  0.00     0.037 A 
ATOM     50  C   UNL A   1      43.700  25.330  28.766  1.00  0.00     0.049 A 
ATOM     51  C   UNL A   1      42.559  29.840  32.292  1.00  0.00     0.074 A 
ATOM     52  C   UNL A   1      44.541  26.368  28.397  1.00  0.00     0.029 A 
ATOM     53  N   UNL A   1      43.585  25.387  30.153  1.00  0.00    -0.354 N 
ATOM     54  N   UNL A   1      42.770  28.681  31.727  1.00  0.00    -0.248 NA
ATOM     55  C   UNL A   1      43.287  30.013  33.541  1.00  0.00     0.031 C 
ATOM     56  C   UNL A   1      44.867  27.100  29.570  1.00  0.00     0.029 A 
ATOM     57  C   UNL A   1      44.222  26.511  30.646  1.00  0.00     0.049 A 
ATOM     58  H   UNL A   1      43.116  24.721  30.705  1.00  0.00     0.167 HD
ATOM     59  C   UNL A   1      43.704  27.998  32.458  1.00  0.00     0.074 A 
ATOM     60  C   UNL A   1      43.977  28.862  33.594  1.00  0.00     0.031 C 
ATOM     61  C   UNL A   1      44.237  26.799  32.071  1.00  0.00     0.037 A 
BRANCH  48  62
ATOM     62  C   UNL A   1      43.158  23.579  26.900  1.00  0.00     0.064 A 
ATOM     63  C   UNL A   1      42.866  22.199  27.026  1.00  0.00     0.173 A 
ATOM     64  C   UNL A   1      43.859  23.916  25.726  1.00  0.00     0.173 A 
ATOM     65  F   UNL A   1      42.128  21.728  28.040  1.00  0.00    -0.203 F 
ATOM     66  C   UNL A   1      43.311  21.242  26.110  1.00  0.00     0.198 A 
ATOM     67  C   UNL A   1      44.327  22.954  24.821  1.00  0.00     0.198 A 
ATOM     68  F   UNL A   1      44.072  25.187  25.373  1.00  0.00    -0.203 F 
ATOM     69  F   UNL A   1      43.005  19.950  26.301  1.00  0.00    -0.200 F 
ATOM     70  C   UNL A   1      44.059  21.616  25.018  1.00  0.00     0.200 A 
ATOM     71  F   UNL A   1      45.032  23.341  23.748  1.00  0.00    -0.200 F 
ATOM     72  F   UNL A   1      44.494  20.699  24.143  1.00  0.00    -0.200 F 
ENDBRANCH  48  62
BRANCH  49  73
ATOM     73  C   UNL A   1      40.380  31.403  32.077  1.00  0.00     0.064 A 
ATOM     74  C   UNL A   1      39.503  30.407  32.565  1.00  0.00     0.173 A 
ATOM     75  C   UNL A   1      40.105  32.729  32.443  1.00  0.00     0.173 A 
ATOM     76  F   UNL A   1      39.705  29.121  32.234  1.00  0.00    -0.203 F 
ATOM     77  C   UNL A   1      38.524  30.697  33.514  1.00  0.00     0.198 A 
ATOM     78  C   UNL A   1      39.092  33.019  33.367  1.00  0.00     0.198 A 
ATOM     79  F   UNL A   1      40.879  33.731  32.005  1.00  0.00    -0.203 F 
ATOM     80  F   UNL A   1      37.828  29.701  34.082  1.00  0.00    -0.200 F 
ATOM     81  C   UNL A   1      38.341  32.000  33.939  1.00  0.00     0.200 A 
ATOM     82  F   UNL A   1      38.901  34.284  33.774  1.00  0.00    -0.200 F 
ATOM     83  F   UNL A   1      37.468  32.266  34.920  1.00  0.00    -0.200 F 
ENDBRANCH  49  73
BRANCH  61  84
ATOM     84  C   UNL A   1      44.962  25.855  32.993  1.00  0.00     0.064 A 
ATOM     85  C   UNL A   1      46.355  25.682  32.973  1.00  0.00     0.173 A 
ATOM     86  C   UNL A   1      44.281  25.195  34.044  1.00  0.00     0.173 A 
ATOM     87  F   UNL A   1      47.139  26.386  32.145  1.00  0.00    -0.203 F 
ATOM     88  C   UNL A   1      47.002  24.812  33.850  1.00  0.00     0.198 A 
ATOM     89  C   UNL A   1      44.943  24.394  34.971  1.00  0.00     0.198 A 
ATOM     90  F   UNL A   1      42.960  25.327  34.230  1.00  0.00    -0.203 F 
ATOM     91  F   UNL A   1      48.323  24.618  33.730  1.00  0.00    -0.200 F 
ATOM     92  C   UNL A   1      46.297  24.174  34.851  1.00  0.00     0.200 A 
ATOM     93  F   UNL A   1      44.258  23.852  35.988  1.00  0.00    -0.200 F 
ATOM     94  F   UNL A   1      46.929  23.369  35.715  1.00  0.00    -0.200 F 
ENDBRANCH  61  84
ENDBRANCH  35  36
ENDBRANCH  27  30
ENDBRANCH  25  26
ENDBRANCH  24  25
ENDBRANCH   1  24
TORSDOF 13
ENDMDL
MODEL 2
REMARK VINA RESULT:     -13.4      3.201      9.254
REMARK SMILES Cc1cc(F)ccc1S(=O)(=O)N1CCO[C@H](CC(=O)NCCCNC(=O)c2ccc(-c3c4nc(c(-c5c(F)c(F)c(F)c(F)c5F)c5ccc([nH]5)c(-c5c(F)c(F)c(F)c(F)c5F)c5nc(c(-c6c(F)c(F)c(F)c(F)c6F)c6ccc3[nH]6)C=C5)C=C4)cc2)C1
REMARK SMILES IDX 21 1 20 2 18 3 19 4 17 6 16 7 12 8 13 9 90 10 14 11 15 12
REMARK SMILES IDX 9 13 10 14 11 15 8 16 1 17 2 18 3 19 4 20 7 21 5 22 6 23
REMARK SMILES IDX 22 24 23 25 24 26 25 27 26 29 27 30 28 31 89 32 29 33 88 34
REMARK SMILES IDX 30 35 31 36 32 37 82 38 33 39 87 40 81 41 83 42 34 43 86 44
REMARK SMILES IDX 80 45 79 46 35 48 67 49 47 50 66 51 48 52 51 53 65 54 84 55
REMARK SMILES IDX 49 56 50 57 64 59 85 60 52 61 36 62 37 63 45 64 38 65 39 66
REMARK SMILES IDX 43 67 46 68 40 69 41 70 44 71 42 72 68 73 69 74 77 75 70 76
REMARK SMILES IDX 71 77 75 78 78 79 72 80 73 81 76 82 74 83 53 84 54 85 62 86
REMARK SMILES IDX 55 87 56 88 60 89 63 90 57 91 58 92 61 93 59 94
REMARK H PARENT 20 5 24 28 83 47 51 58
REMARK Flexibility Score: inf
ROOT
ATOM      1  C   UNL A   1      35.007  22.823  25.478  1.00  0.00     0.117 C 
ENDROOT
BRANCH   1   2
ATOM      2  N   UNL A   1      35.077  22.910  24.031  1.00  0.00    -0.356 N 
ATOM      3  C   UNL A   1      34.193  23.541  23.211  1.00  0.00     0.222 C 
ATOM      4  O   UNL A   1      34.215  23.328  22.001  1.00  0.00    -0.275 OA
ATOM      5  H   UNL A   1      35.842  22.467  23.598  1.00  0.00     0.163 HD
BRANCH   3   6
ATOM      6  C   UNL A   1      33.255  24.537  23.830  1.00  0.00     0.133 C 
BRANCH   6   7
ATOM      7  C   UNL A   1      31.799  24.065  23.945  1.00  0.00     0.142 C 
ATOM      8  N   UNL A   1      31.060  26.292  24.390  1.00  0.00    -0.193 NA
ATOM      9  C   UNL A   1      30.365  25.983  25.647  1.00  0.00     0.131 C 
ATOM     10  C   UNL A   1      30.903  25.183  23.424  1.00  0.00     0.135 C 
ATOM     11  C   UNL A   1      30.872  24.631  26.199  1.00  0.00     0.177 C 
ATOM     12  O   UNL A   1      31.366  23.657  25.263  1.00  0.00    -0.375 OA
BRANCH   8  13
ATOM     13  S   UNL A   1      31.391  27.853  23.905  1.00  0.00     0.243 S 
ATOM     14  O   UNL A   1      30.139  28.536  23.700  1.00  0.00    -0.207 OA
ATOM     15  O   UNL A   1      32.373  27.740  22.837  1.00  0.00    -0.207 OA
BRANCH  13  16
ATOM     16  C   UNL A   1      32.245  28.755  25.230  1.00  0.00     0.085 A 
ATOM     17  C   UNL A   1      34.029  27.008  25.931  1.00  0.00     0.046 C 
ATOM     18  C   UNL A   1      33.359  28.338  25.989  1.00  0.00    -0.028 A 
ATOM     19  C   UNL A   1      33.870  29.205  26.983  1.00  0.00     0.044 A 
ATOM     20  C   UNL A   1      33.270  30.426  27.251  1.00  0.00     0.123 A 
ATOM     21  C   UNL A   1      31.656  30.005  25.529  1.00  0.00     0.025 A 
ATOM     22  F   UNL A   1      33.764  31.204  28.222  1.00  0.00    -0.207 F 
ATOM     23  C   UNL A   1      32.155  30.828  26.541  1.00  0.00     0.040 A 
ENDBRANCH  13  16
ENDBRANCH   8  13
ENDBRANCH   6   7
ENDBRANCH   3   6
ENDBRANCH   1   2
BRANCH   1  24
ATOM     24  C   UNL A   1      36.119  23.644  26.125  1.00  0.00     0.042 C 
BRANCH  24  25
ATOM     25  C   UNL A   1      37.379  23.551  25.312  1.00  0.00     0.118 C 
BRANCH  25  26
ATOM     26  N   UNL A   1      38.348  22.656  25.938  1.00  0.00    -0.352 N 
ATOM     27  C   UNL A   1      39.554  22.998  26.502  1.00  0.00     0.251 C 
ATOM     28  H   UNL A   1      38.113  21.701  25.957  1.00  0.00     0.163 HD
ATOM     29  O   UNL A   1      40.440  22.172  26.658  1.00  0.00    -0.269 OA
BRANCH  27  30
ATOM     30  C   UNL A   1      39.716  24.384  26.953  1.00  0.00     0.039 A 
ATOM     31  C   UNL A   1      40.316  25.364  26.157  1.00  0.00     0.014 A 
ATOM     32  C   UNL A   1      39.278  24.668  28.241  1.00  0.00     0.014 A 
ATOM     33  C   UNL A   1      40.487  26.638  26.689  1.00  0.00     0.010 A 
ATOM     34  C   UNL A   1      39.196  25.952  28.650  1.00  0.00     0.010 A 
ATOM     35  C   UNL A   1      39.936  26.894  27.943  1.00  0.00    -0.014 A 
BRANCH  35  36
ATOM     36  C   UNL A   1      40.145  28.079  28.739  1.00  0.00     0.031 A 
ATOM     37  C   UNL A   1      39.170  29.160  28.639  1.00  0.00     0.074 A 
ATOM     38  C   UNL A   1      41.066  27.906  29.715  1.00  0.00     0.049 A 
ATOM     39  N   UNL A   1      39.403  30.376  28.968  1.00  0.00    -0.248 NA
ATOM     40  C   UNL A   1      37.824  28.953  28.111  1.00  0.00     0.031 C 
ATOM     41  C   UNL A   1      41.292  28.612  30.962  1.00  0.00     0.029 A 
ATOM     42  N   UNL A   1      42.097  26.943  29.695  1.00  0.00    -0.354 N 
ATOM     43  C   UNL A   1      38.174  30.991  29.083  1.00  0.00     0.074 A 
ATOM     44  C   UNL A   1      37.260  30.138  28.365  1.00  0.00     0.031 C 
ATOM     45  C   UNL A   1      42.540  28.329  31.392  1.00  0.00     0.029 A 
ATOM     46  C   UNL A   1      43.184  27.524  30.363  1.00  0.00     0.049 A 
ATOM     47  H   UNL A   1      42.060  26.045  29.294  1.00  0.00     0.167 HD
ATOM     48  C   UNL A   1      38.061  32.020  29.974  1.00  0.00     0.037 A 
ATOM     49  C   UNL A   1      44.256  27.897  29.601  1.00  0.00     0.037 A 
ATOM     50  C   UNL A   1      39.357  32.224  30.632  1.00  0.00     0.049 A 
ATOM     51  C   UNL A   1      44.349  29.399  29.551  1.00  0.00     0.074 A 
ATOM     52  C   UNL A   1      39.846  31.767  31.846  1.00  0.00     0.029 A 
ATOM     53  N   UNL A   1      40.464  32.601  29.876  1.00  0.00    -0.354 N 
ATOM     54  N   UNL A   1      43.317  30.199  29.594  1.00  0.00    -0.248 NA
ATOM     55  C   UNL A   1      45.624  30.102  29.575  1.00  0.00     0.031 C 
ATOM     56  C   UNL A   1      41.264  31.797  31.781  1.00  0.00     0.029 A 
ATOM     57  C   UNL A   1      41.635  32.268  30.531  1.00  0.00     0.049 A 
ATOM     58  H   UNL A   1      40.419  33.043  28.997  1.00  0.00     0.167 HD
ATOM     59  C   UNL A   1      43.762  31.485  29.741  1.00  0.00     0.074 A 
ATOM     60  C   UNL A   1      45.210  31.374  29.698  1.00  0.00     0.031 C 
ATOM     61  C   UNL A   1      42.932  32.553  29.940  1.00  0.00     0.037 A 
BRANCH  48  62
ATOM     62  C   UNL A   1      36.772  32.608  30.512  1.00  0.00     0.064 A 
ATOM     63  C   UNL A   1      36.010  33.495  29.713  1.00  0.00     0.173 A 
ATOM     64  C   UNL A   1      36.229  32.370  31.790  1.00  0.00     0.173 A 
ATOM     65  F   UNL A   1      36.343  33.754  28.442  1.00  0.00    -0.203 F 
ATOM     66  C   UNL A   1      34.866  34.146  30.181  1.00  0.00     0.198 A 
ATOM     67  C   UNL A   1      35.097  33.042  32.268  1.00  0.00     0.198 A 
ATOM     68  F   UNL A   1      36.731  31.439  32.607  1.00  0.00    -0.203 F 
ATOM     69  F   UNL A   1      34.201  34.982  29.371  1.00  0.00    -0.200 F 
ATOM     70  C   UNL A   1      34.419  33.937  31.466  1.00  0.00     0.200 A 
ATOM     71  F   UNL A   1      34.661  32.805  33.514  1.00  0.00    -0.200 F 
ATOM     72  F   UNL A   1      33.328  34.567  31.919  1.00  0.00    -0.200 F 
ENDBRANCH  48  62
BRANCH  49  73
ATOM     73  C   UNL A   1      44.481  26.942  28.463  1.00  0.00     0.064 A 
ATOM     74  C   UNL A   1      44.160  27.412  27.170  1.00  0.00     0.173 A 
ATOM     75  C   UNL A   1      45.387  25.874  28.547  1.00  0.00     0.173 A 
ATOM     76  F   UNL A   1      43.284  28.421  27.026  1.00  0.00    -0.203 F 
ATOM     77  C   UNL A   1      44.846  26.969  26.041  1.00  0.00     0.198 A 
ATOM     78  C   UNL A   1      46.045  25.405  27.402  1.00  0.00     0.198 A 
ATOM     79  F   UNL A   1      45.728  25.361  29.736  1.00  0.00    -0.203 F 
ATOM     80  F   UNL A   1      44.635  27.562  24.855  1.00  0.00    -0.200 F 
ATOM     81  C   UNL A   1      45.812  25.987  26.163  1.00  0.00     0.200 A 
ATOM     82  F   UNL A   1      46.975  24.444  27.512  1.00  0.00    -0.200 F 
ATOM     83  F   UNL A   1      46.539  25.629  25.095  1.00  0.00    -0.200 F 
ENDBRANCH  49  73
BRANCH  61  84
ATOM     84  C   UNL A   1      43.333  33.990  29.734  1.00  0.00     0.064 A 
ATOM     85  C   UNL A   1      43.550  34.553  28.466  1.00  0.00     0.173 A 
ATOM     86  C   UNL A   1      43.369  34.900  30.819  1.00  0.00     0.173 A 
ATOM     87  F   UNL A   1      43.371  33.843  27.344  1.00  0.00    -0.203 F 
ATOM     88  C   UNL A   1      43.906  35.890  28.306  1.00  0.00     0.198 A 
ATOM     89  C   UNL A   1      43.640  36.254  30.644  1.00  0.00     0.198 A 
ATOM     90  F   UNL A   1      43.109  34.518  32.077  1.00  0.00    -0.203 F 
ATOM     91  F   UNL A   1      44.187  36.354  27.080  1.00  0.00    -0.200 F 
ATOM     92  C   UNL A   1      43.946  36.741  29.392  1.00  0.00     0.200 A 
ATOM     93  F   UNL A   1      43.589  37.082  31.697  1.00  0.00    -0.200 F 
ATOM     94  F   UNL A   1      44.250  38.035  29.228  1.00  0.00    -0.200 F 
ENDBRANCH  61  84
ENDBRANCH  35  36
ENDBRANCH  27  30
ENDBRANCH  25  26
ENDBRANCH  24  25
ENDBRANCH   1  24
TORSDOF 13
ENDMDL
MODEL 3
REMARK VINA RESULT:     -13.3      0.262      1.149
REMARK SMILES Cc1cc(F)ccc1S(=O)(=O)N1CCO[C@H](CC(=O)NCCCNC(=O)c2ccc(-c3c4nc(c(-c5c(F)c(F)c(F)c(F)c5F)c5ccc([nH]5)c(-c5c(F)c(F)c(F)c(F)c5F)c5nc(c(-c6c(F)c(F)c(F)c(F)c6F)c6ccc3[nH]6)C=C5)C=C4)cc2)C1
REMARK SMILES IDX 21 1 20 2 18 3 19 4 17 6 16 7 12 8 13 9 90 10 14 11 15 12
REMARK SMILES IDX 9 13 10 14 11 15 8 16 1 17 2 18 3 19 4 20 7 21 5 22 6 23
REMARK SMILES IDX 22 24 23 25 24 26 25 27 26 29 27 30 28 31 89 32 29 33 88 34
REMARK SMILES IDX 30 35 31 36 32 37 82 38 33 39 87 40 81 41 83 42 34 43 86 44
REMARK SMILES IDX 80 45 79 46 35 48 67 49 47 50 66 51 48 52 51 53 65 54 84 55
REMARK SMILES IDX 49 56 50 57 64 59 85 60 52 61 36 62 37 63 45 64 38 65 39 66
REMARK SMILES IDX 43 67 46 68 40 69 41 70 44 71 42 72 68 73 69 74 77 75 70 76
REMARK SMILES IDX 71 77 75 78 78 79 72 80 73 81 76 82 74 83 53 84 54 85 62 86
REMARK SMILES IDX 55 87 56 88 60 89 63 90 57 91 58 92 61 93 59 94
REMARK H PARENT 20 5 24 28 83 47 51 58
REMARK Flexibility Score: inf
ROOT
ATOM      1  C   UNL A   1      32.090  27.933  26.135  1.00  0.00     0.117 C 
ENDROOT
BRANCH   1   2
ATOM      2  N   UNL A   1      31.064  27.036  26.636  1.00  0.00    -0.356 N 
ATOM      3  C   UNL A   1      30.779  25.789  26.174  1.00  0.00     0.222 C 
ATOM      4  O   UNL A   1      29.731  25.236  26.501  1.00  0.00    -0.275 OA
ATOM      5  H   UNL A   1      30.518  27.365  27.386  1.00  0.00     0.163 HD
BRANCH   3   6
ATOM      6  C   UNL A   1      31.810  25.108  25.321  1.00  0.00     0.133 C 
BRANCH   6   7
ATOM      7  C   UNL A   1      31.319  24.692  23.927  1.00  0.00     0.142 C 
ATOM      8  N   UNL A   1      32.810  22.826  23.904  1.00  0.00    -0.193 NA
ATOM      9  C   UNL A   1      33.471  23.164  22.636  1.00  0.00     0.131 C 
ATOM     10  C   UNL A   1      31.373  23.171  23.847  1.00  0.00     0.135 C 
ATOM     11  C   UNL A   1      33.224  24.654  22.306  1.00  0.00     0.177 C 
ATOM     12  O   UNL A   1      32.026  25.272  22.806  1.00  0.00    -0.375 OA
BRANCH   8  13
ATOM     13  S   UNL A   1      33.408  21.674  24.951  1.00  0.00     0.243 S 
ATOM     14  O   UNL A   1      33.233  20.379  24.343  1.00  0.00    -0.207 OA
ATOM     15  O   UNL A   1      32.833  21.981  26.253  1.00  0.00    -0.207 OA
BRANCH  13  16
ATOM     16  C   UNL A   1      35.197  21.890  25.169  1.00  0.00     0.085 A 
ATOM     17  C   UNL A   1      35.332  24.453  25.539  1.00  0.00     0.046 C 
ATOM     18  C   UNL A   1      35.903  23.080  25.451  1.00  0.00    -0.028 A 
ATOM     19  C   UNL A   1      37.310  23.023  25.580  1.00  0.00     0.044 A 
ATOM     20  C   UNL A   1      38.003  21.838  25.391  1.00  0.00     0.123 A 
ATOM     21  C   UNL A   1      35.934  20.699  24.981  1.00  0.00     0.025 A 
ATOM     22  F   UNL A   1      39.338  21.833  25.491  1.00  0.00    -0.207 F 
ATOM     23  C   UNL A   1      37.328  20.675  25.077  1.00  0.00     0.040 A 
ENDBRANCH  13  16
ENDBRANCH   8  13
ENDBRANCH   6   7
ENDBRANCH   3   6
ENDBRANCH   1   2
BRANCH   1  24
ATOM     24  C   UNL A   1      32.696  28.752  27.271  1.00  0.00     0.042 C 
BRANCH  24  25
ATOM     25  C   UNL A   1      34.154  29.007  27.013  1.00  0.00     0.118 C 
BRANCH  25  26
ATOM     26  N   UNL A   1      34.460  30.434  27.067  1.00  0.00    -0.352 N 
ATOM     27  C   UNL A   1      35.447  31.045  27.801  1.00  0.00     0.251 C 
ATOM     28  H   UNL A   1      33.896  31.024  26.518  1.00  0.00     0.163 HD
ATOM     29  O   UNL A   1      35.394  32.235  28.073  1.00  0.00    -0.269 OA
BRANCH  27  30
ATOM     30  C   UNL A   1      36.592  30.222  28.206  1.00  0.00     0.039 A 
ATOM     31  C   UNL A   1      36.635  29.551  29.432  1.00  0.00     0.014 A 
ATOM     32  C   UNL A   1      37.661  30.177  27.320  1.00  0.00     0.014 A 
ATOM     33  C   UNL A   1      37.786  28.845  29.761  1.00  0.00     0.010 A 
ATOM     34  C   UNL A   1      38.654  29.282  27.517  1.00  0.00     0.010 A 
ATOM     35  C   UNL A   1      38.784  28.747  28.793  1.00  0.00    -0.014 A 
BRANCH  35  36
ATOM     36  C   UNL A   1      40.111  28.214  28.989  1.00  0.00     0.031 A 
ATOM     37  C   UNL A   1      40.358  26.823  28.627  1.00  0.00     0.074 A 
ATOM     38  C   UNL A   1      41.041  29.175  29.201  1.00  0.00     0.049 A 
ATOM     39  N   UNL A   1      41.330  26.121  29.077  1.00  0.00    -0.248 NA
ATOM     40  C   UNL A   1      39.480  26.081  27.726  1.00  0.00     0.031 C 
ATOM     41  C   UNL A   1      42.481  29.175  29.028  1.00  0.00     0.029 A 
ATOM     42  N   UNL A   1      40.774  30.464  29.707  1.00  0.00    -0.354 N 
ATOM     43  C   UNL A   1      41.439  25.026  28.245  1.00  0.00     0.074 A 
ATOM     44  C   UNL A   1      40.172  24.950  27.559  1.00  0.00     0.031 C 
ATOM     45  C   UNL A   1      42.994  30.209  29.727  1.00  0.00     0.029 A 
ATOM     46  C   UNL A   1      41.897  30.826  30.462  1.00  0.00     0.049 A 
ATOM     47  H   UNL A   1      39.962  31.002  29.559  1.00  0.00     0.167 HD
ATOM     48  C   UNL A   1      42.678  24.475  28.082  1.00  0.00     0.037 A 
ATOM     49  C   UNL A   1      41.753  30.853  31.821  1.00  0.00     0.037 A 
ATOM     50  C   UNL A   1      43.647  25.236  28.879  1.00  0.00     0.049 A 
ATOM     51  C   UNL A   1      42.536  29.725  32.440  1.00  0.00     0.074 A 
ATOM     52  C   UNL A   1      44.507  26.265  28.530  1.00  0.00     0.029 A 
ATOM     53  N   UNL A   1      43.518  25.280  30.265  1.00  0.00    -0.354 N 
ATOM     54  N   UNL A   1      42.735  28.569  31.865  1.00  0.00    -0.248 NA
ATOM     55  C   UNL A   1      43.253  29.874  33.699  1.00  0.00     0.031 C 
ATOM     56  C   UNL A   1      44.831  26.980  29.713  1.00  0.00     0.029 A 
ATOM     57  C   UNL A   1      44.166  26.389  30.777  1.00  0.00     0.049 A 
ATOM     58  H   UNL A   1      43.032  24.615  30.805  1.00  0.00     0.167 HD
ATOM     59  C   UNL A   1      43.651  27.864  32.599  1.00  0.00     0.074 A 
ATOM     60  C   UNL A   1      43.925  28.712  33.747  1.00  0.00     0.031 C 
ATOM     61  C   UNL A   1      44.170  26.662  32.205  1.00  0.00     0.037 A 
BRANCH  48  62
ATOM     62  C   UNL A   1      43.098  23.513  26.988  1.00  0.00     0.064 A 
ATOM     63  C   UNL A   1      42.759  22.142  27.082  1.00  0.00     0.173 A 
ATOM     64  C   UNL A   1      43.840  23.847  25.839  1.00  0.00     0.173 A 
ATOM     65  F   UNL A   1      41.979  21.678  28.068  1.00  0.00    -0.203 F 
ATOM     66  C   UNL A   1      43.196  21.186  26.161  1.00  0.00     0.198 A 
ATOM     67  C   UNL A   1      44.301  22.886  24.930  1.00  0.00     0.198 A 
ATOM     68  F   UNL A   1      44.104  25.116  25.514  1.00  0.00    -0.203 F 
ATOM     69  F   UNL A   1      42.844  19.902  26.320  1.00  0.00    -0.200 F 
ATOM     70  C   UNL A   1      43.985  21.554  25.095  1.00  0.00     0.200 A 
ATOM     71  F   UNL A   1      45.046  23.267  23.882  1.00  0.00    -0.200 F 
ATOM     72  F   UNL A   1      44.412  20.639  24.216  1.00  0.00    -0.200 F 
ENDBRANCH  48  62
BRANCH  49  73
ATOM     73  C   UNL A   1      40.383  31.324  32.220  1.00  0.00     0.064 A 
ATOM     74  C   UNL A   1      39.621  30.444  33.021  1.00  0.00     0.173 A 
ATOM     75  C   UNL A   1      40.036  32.682  32.256  1.00  0.00     0.173 A 
ATOM     76  F   UNL A   1      39.894  29.129  33.015  1.00  0.00    -0.203 F 
ATOM     77  C   UNL A   1      38.694  30.919  33.947  1.00  0.00     0.198 A 
ATOM     78  C   UNL A   1      39.074  33.149  33.161  1.00  0.00     0.198 A 
ATOM     79  F   UNL A   1      40.700  33.575  31.510  1.00  0.00    -0.203 F 
ATOM     80  F   UNL A   1      38.116  30.070  34.811  1.00  0.00    -0.200 F 
ATOM     81  C   UNL A   1      38.445  32.276  34.039  1.00  0.00     0.200 A 
ATOM     82  F   UNL A   1      38.819  34.464  33.246  1.00  0.00    -0.200 F 
ATOM     83  F   UNL A   1      37.626  32.742  34.992  1.00  0.00    -0.200 F 
ENDBRANCH  49  73
BRANCH  61  84
ATOM     84  C   UNL A   1      44.871  25.697  33.124  1.00  0.00     0.064 A 
ATOM     85  C   UNL A   1      44.189  24.850  34.012  1.00  0.00     0.173 A 
ATOM     86  C   UNL A   1      46.268  25.487  33.034  1.00  0.00     0.173 A 
ATOM     87  F   UNL A   1      42.851  24.821  34.066  1.00  0.00    -0.203 F 
ATOM     88  C   UNL A   1      44.864  23.956  34.841  1.00  0.00     0.198 A 
ATOM     89  C   UNL A   1      46.927  24.532  33.803  1.00  0.00     0.198 A 
ATOM     90  F   UNL A   1      47.037  26.173  32.176  1.00  0.00    -0.203 F 
ATOM     91  F   UNL A   1      44.170  23.233  35.732  1.00  0.00    -0.200 F 
ATOM     92  C   UNL A   1      46.230  23.793  34.733  1.00  0.00     0.200 A 
ATOM     93  F   UNL A   1      48.239  24.326  33.623  1.00  0.00    -0.200 F 
ATOM     94  F   UNL A   1      46.869  22.904  35.504  1.00  0.00    -0.200 F 
ENDBRANCH  61  84
ENDBRANCH  35  36
ENDBRANCH  27  30
ENDBRANCH  25  26
ENDBRANCH  24  25
ENDBRANCH   1  24
TORSDOF 13
ENDMDL
