MODEL 1
REMARK VINA RESULT:     -13.1      0.000      0.000
REMARK SMILES Cc1cccc(-c2cc(OCC(=O)NCCCNC(=O)c3ccc(-c4c5nc(c(-c6c(F)c(F)c(F)c(F)c6F)c6ccc([nH]6)c(-c6c(F)c(F)c(F)c(F)c6F)c6nc(c(-c7c(F)c(F)c(F)c(F)c7F)c7ccc4[nH]7)C=C6)C=C5)cc3)ncn2)c1
REMARK SMILES IDX 15 1 14 2 12 3 13 4 11 6 10 7 9 8 7 9 8 10 86 11 85 12 84 13
REMARK SMILES IDX 6 14 1 15 2 16 3 17 87 18 4 19 5 20 16 21 17 22 18 23 19 24
REMARK SMILES IDX 20 26 21 27 22 28 83 29 23 30 82 31 24 32 25 33 26 34 76 35
REMARK SMILES IDX 27 36 81 37 75 38 77 39 28 40 80 41 74 42 73 43 29 45 61 46
REMARK SMILES IDX 41 47 60 48 42 49 45 50 59 51 78 52 43 53 44 54 58 56 79 57
REMARK SMILES IDX 46 58 30 59 31 60 39 61 32 62 33 63 37 64 40 65 34 66 35 67
REMARK SMILES IDX 38 68 36 69 62 70 63 71 71 72 64 73 65 74 69 75 72 76 66 77
REMARK SMILES IDX 67 78 70 79 68 80 47 81 48 82 56 83 49 84 50 85 54 86 57 87
REMARK SMILES IDX 51 88 52 89 55 90 53 91
REMARK H PARENT 14 5 18 25 77 44 45 55
REMARK Flexibility Score: inf
ROOT
ATOM      1  C   UNL A   1      36.151  21.467  24.904  1.00  0.00     0.117 C 
ENDROOT
BRANCH   1   2
ATOM      2  N   UNL A   1      35.900  22.569  23.990  1.00  0.00    -0.353 N 
ATOM      3  C   UNL A   1      34.701  23.133  23.655  1.00  0.00     0.258 C 
ATOM      4  O   UNL A   1      34.689  24.074  22.859  1.00  0.00    -0.271 OA
ATOM      5  H   UNL A   1      36.694  22.958  23.558  1.00  0.00     0.163 HD
BRANCH   3   6
ATOM      6  C   UNL A   1      33.404  22.592  24.274  1.00  0.00     0.331 C 
BRANCH   6   7
ATOM      7  O   UNL A   1      33.099  23.065  25.575  1.00  0.00    -0.467 OA
BRANCH   7   8
ATOM      8  C   UNL A   1      32.413  24.242  25.684  1.00  0.00     0.217 A 
ATOM      9  C   UNL A   1      32.113  26.538  26.077  1.00  0.00     0.077 A 
ATOM     10  C   UNL A   1      32.956  25.442  26.076  1.00  0.00     0.097 A 
ATOM     11  N   UNL A   1      30.807  26.449  25.760  1.00  0.00    -0.236 NA
ATOM     12  C   UNL A   1      30.376  25.231  25.410  1.00  0.00     0.226 A 
ATOM     13  N   UNL A   1      31.120  24.118  25.343  1.00  0.00    -0.202 NA
BRANCH   9  14
ATOM     14  C   UNL A   1      32.628  27.870  26.406  1.00  0.00     0.001 A 
ATOM     15  C   UNL A   1      31.354  31.473  26.497  1.00  0.00     0.044 C 
ATOM     16  C   UNL A   1      32.266  30.287  26.581  1.00  0.00    -0.050 A 
ATOM     17  C   UNL A   1      33.622  30.457  26.875  1.00  0.00     0.003 A 
ATOM     18  C   UNL A   1      31.781  28.993  26.343  1.00  0.00     0.013 A 
ATOM     19  C   UNL A   1      34.471  29.353  26.955  1.00  0.00     0.001 A 
ATOM     20  C   UNL A   1      33.975  28.068  26.732  1.00  0.00     0.010 A 
ENDBRANCH   9  14
ENDBRANCH   7   8
ENDBRANCH   6   7
ENDBRANCH   3   6
ENDBRANCH   1   2
BRANCH   1  21
ATOM     21  C   UNL A   1      37.618  21.351  25.292  1.00  0.00     0.042 C 
BRANCH  21  22
ATOM     22  C   UNL A   1      38.227  22.662  25.765  1.00  0.00     0.118 C 
BRANCH  22  23
ATOM     23  N   UNL A   1      39.628  22.564  26.152  1.00  0.00    -0.352 N 
ATOM     24  C   UNL A   1      40.515  23.534  26.587  1.00  0.00     0.251 C 
ATOM     25  H   UNL A   1      40.007  21.657  26.096  1.00  0.00     0.163 HD
ATOM     26  O   UNL A   1      41.682  23.232  26.772  1.00  0.00    -0.269 OA
BRANCH  24  27
ATOM     27  C   UNL A   1      40.035  24.893  26.961  1.00  0.00     0.039 A 
ATOM     28  C   UNL A   1      40.477  25.980  26.189  1.00  0.00     0.014 A 
ATOM     29  C   UNL A   1      39.313  25.129  28.123  1.00  0.00     0.014 A 
ATOM     30  C   UNL A   1      40.406  27.273  26.706  1.00  0.00     0.010 A 
ATOM     31  C   UNL A   1      39.335  26.386  28.686  1.00  0.00     0.010 A 
ATOM     32  C   UNL A   1      39.940  27.444  28.005  1.00  0.00    -0.014 A 
BRANCH  32  33
ATOM     33  C   UNL A   1      40.155  28.643  28.801  1.00  0.00     0.031 A 
ATOM     34  C   UNL A   1      39.101  29.667  28.931  1.00  0.00     0.074 A 
ATOM     35  C   UNL A   1      41.248  28.680  29.595  1.00  0.00     0.049 A 
ATOM     36  N   UNL A   1      39.311  30.871  29.344  1.00  0.00    -0.248 NA
ATOM     37  C   UNL A   1      37.706  29.412  28.588  1.00  0.00     0.031 C 
ATOM     38  C   UNL A   1      41.483  29.545  30.747  1.00  0.00     0.029 A 
ATOM     39  N   UNL A   1      42.471  28.016  29.403  1.00  0.00    -0.354 N 
ATOM     40  C   UNL A   1      38.085  31.441  29.601  1.00  0.00     0.074 A 
ATOM     41  C   UNL A   1      37.117  30.517  29.056  1.00  0.00     0.031 C 
ATOM     42  C   UNL A   1      42.803  29.597  30.988  1.00  0.00     0.029 A 
ATOM     43  C   UNL A   1      43.458  28.901  29.894  1.00  0.00     0.049 A 
ATOM     44  H   UNL A   1      42.612  27.125  29.010  1.00  0.00     0.167 HD
ATOM     45  C   UNL A   1      38.018  32.561  30.377  1.00  0.00     0.037 A 
ATOM     46  C   UNL A   1      44.377  29.468  29.059  1.00  0.00     0.037 A 
ATOM     47  C   UNL A   1      39.350  33.011  30.773  1.00  0.00     0.049 A 
ATOM     48  C   UNL A   1      44.337  30.977  29.049  1.00  0.00     0.074 A 
ATOM     49  C   UNL A   1      40.091  32.823  31.929  1.00  0.00     0.029 A 
ATOM     50  N   UNL A   1      40.240  33.470  29.806  1.00  0.00    -0.354 N 
ATOM     51  N   UNL A   1      43.291  31.679  29.383  1.00  0.00    -0.248 NA
ATOM     52  C   UNL A   1      45.467  31.807  28.647  1.00  0.00     0.031 C 
ATOM     53  C   UNL A   1      41.441  33.135  31.643  1.00  0.00     0.029 A 
ATOM     54  C   UNL A   1      41.521  33.525  30.318  1.00  0.00     0.049 A 
ATOM     55  H   UNL A   1      39.990  33.720  28.887  1.00  0.00     0.167 HD
ATOM     56  C   UNL A   1      43.574  33.013  29.243  1.00  0.00     0.074 A 
ATOM     57  C   UNL A   1      44.953  33.042  28.792  1.00  0.00     0.031 C 
ATOM     58  C   UNL A   1      42.643  33.978  29.511  1.00  0.00     0.037 A 
BRANCH  45  59
ATOM     59  C   UNL A   1      36.738  33.040  31.023  1.00  0.00     0.064 A 
ATOM     60  C   UNL A   1      35.811  33.833  30.312  1.00  0.00     0.173 A 
ATOM     61  C   UNL A   1      36.397  32.793  32.365  1.00  0.00     0.173 A 
ATOM     62  F   UNL A   1      35.941  34.060  28.999  1.00  0.00    -0.203 F 
ATOM     63  C   UNL A   1      34.710  34.434  30.927  1.00  0.00     0.198 A 
ATOM     64  C   UNL A   1      35.328  33.439  32.995  1.00  0.00     0.198 A 
ATOM     65  F   UNL A   1      37.067  31.890  33.093  1.00  0.00    -0.203 F 
ATOM     66  F   UNL A   1      33.874  35.190  30.200  1.00  0.00    -0.200 F 
ATOM     67  C   UNL A   1      34.492  34.272  32.278  1.00  0.00     0.200 A 
ATOM     68  F   UNL A   1      35.116  33.252  34.306  1.00  0.00    -0.200 F 
ATOM     69  F   UNL A   1      33.469  34.894  32.880  1.00  0.00    -0.200 F 
ENDBRANCH  45  59
BRANCH  46  70
ATOM     70  C   UNL A   1      44.697  28.620  27.880  1.00  0.00     0.064 A 
ATOM     71  C   UNL A   1      45.534  27.503  28.070  1.00  0.00     0.173 A 
ATOM     72  C   UNL A   1      43.912  28.651  26.721  1.00  0.00     0.173 A 
ATOM     73  F   UNL A   1      46.305  27.422  29.167  1.00  0.00    -0.203 F 
ATOM     74  C   UNL A   1      45.496  26.413  27.203  1.00  0.00     0.198 A 
ATOM     75  C   UNL A   1      43.886  27.562  25.847  1.00  0.00     0.198 A 
ATOM     76  F   UNL A   1      43.082  29.678  26.491  1.00  0.00    -0.203 F 
ATOM     77  F   UNL A   1      46.218  25.316  27.475  1.00  0.00    -0.200 F 
ATOM     78  C   UNL A   1      44.649  26.432  26.108  1.00  0.00     0.200 A 
ATOM     79  F   UNL A   1      43.047  27.567  24.802  1.00  0.00    -0.200 F 
ATOM     80  F   UNL A   1      44.537  25.348  25.326  1.00  0.00    -0.200 F 
ENDBRANCH  46  70
BRANCH  58  81
ATOM     81  C   UNL A   1      42.739  35.443  29.155  1.00  0.00     0.064 A 
ATOM     82  C   UNL A   1      42.077  36.035  28.066  1.00  0.00     0.173 A 
ATOM     83  C   UNL A   1      43.409  36.348  30.018  1.00  0.00     0.173 A 
ATOM     84  F   UNL A   1      41.301  35.316  27.246  1.00  0.00    -0.203 F 
ATOM     85  C   UNL A   1      42.141  37.409  27.817  1.00  0.00     0.198 A 
ATOM     86  C   UNL A   1      43.418  37.726  29.801  1.00  0.00     0.198 A 
ATOM     87  F   UNL A   1      44.053  35.929  31.116  1.00  0.00    -0.203 F 
ATOM     88  F   UNL A   1      41.530  37.914  26.737  1.00  0.00    -0.200 F 
ATOM     89  C   UNL A   1      42.800  38.254  28.689  1.00  0.00     0.200 A 
ATOM     90  F   UNL A   1      44.012  38.535  30.688  1.00  0.00    -0.200 F 
ATOM     91  F   UNL A   1      42.816  39.576  28.471  1.00  0.00    -0.200 F 
ENDBRANCH  58  81
ENDBRANCH  32  33
ENDBRANCH  24  27
ENDBRANCH  22  23
ENDBRANCH  21  22
ENDBRANCH   1  21
TORSDOF 13
ENDMDL
MODEL 2
REMARK VINA RESULT:     -13.1      3.730      9.888
REMARK SMILES Cc1cccc(-c2cc(OCC(=O)NCCCNC(=O)c3ccc(-c4c5nc(c(-c6c(F)c(F)c(F)c(F)c6F)c6ccc([nH]6)c(-c6c(F)c(F)c(F)c(F)c6F)c6nc(c(-c7c(F)c(F)c(F)c(F)c7F)c7ccc4[nH]7)C=C6)C=C5)cc3)ncn2)c1
REMARK SMILES IDX 15 1 14 2 12 3 13 4 11 6 10 7 9 8 7 9 8 10 86 11 85 12 84 13
REMARK SMILES IDX 6 14 1 15 2 16 3 17 87 18 4 19 5 20 16 21 17 22 18 23 19 24
REMARK SMILES IDX 20 26 21 27 22 28 83 29 23 30 82 31 24 32 25 33 26 34 76 35
REMARK SMILES IDX 27 36 81 37 75 38 77 39 28 40 80 41 74 42 73 43 29 45 61 46
REMARK SMILES IDX 41 47 60 48 42 49 45 50 59 51 78 52 43 53 44 54 58 56 79 57
REMARK SMILES IDX 46 58 30 59 31 60 39 61 32 62 33 63 37 64 40 65 34 66 35 67
REMARK SMILES IDX 38 68 36 69 62 70 63 71 71 72 64 73 65 74 69 75 72 76 66 77
REMARK SMILES IDX 67 78 70 79 68 80 47 81 48 82 56 83 49 84 50 85 54 86 57 87
REMARK SMILES IDX 51 88 52 89 55 90 53 91
REMARK H PARENT 14 5 18 25 77 44 45 55
REMARK Flexibility Score: inf
ROOT
ATOM      1  C   UNL A   1      31.501  29.617  25.722  1.00  0.00     0.117 C 
ENDROOT
BRANCH   1   2
ATOM      2  N   UNL A   1      31.096  30.091  24.408  1.00  0.00    -0.353 N 
ATOM      3  C   UNL A   1      30.356  29.435  23.465  1.00  0.00     0.258 C 
ATOM      4  O   UNL A   1      30.106  30.008  22.403  1.00  0.00    -0.271 OA
ATOM      5  H   UNL A   1      31.393  30.999  24.168  1.00  0.00     0.163 HD
BRANCH   3   6
ATOM      6  C   UNL A   1      29.852  28.012  23.744  1.00  0.00     0.331 C 
BRANCH   6   7
ATOM      7  O   UNL A   1      30.061  27.070  22.706  1.00  0.00    -0.467 OA
BRANCH   7   8
ATOM      8  C   UNL A   1      31.249  26.394  22.685  1.00  0.00     0.217 A 
ATOM      9  C   UNL A   1      33.058  25.179  23.561  1.00  0.00     0.077 A 
ATOM     10  C   UNL A   1      31.886  25.877  23.787  1.00  0.00     0.097 A 
ATOM     11  N   UNL A   1      33.594  25.041  22.333  1.00  0.00    -0.236 NA
ATOM     12  C   UNL A   1      32.904  25.598  21.332  1.00  0.00     0.226 A 
ATOM     13  N   UNL A   1      31.745  26.261  21.444  1.00  0.00    -0.202 NA
BRANCH   9  14
ATOM     14  C   UNL A   1      33.760  24.527  24.670  1.00  0.00     0.001 A 
ATOM     15  C   UNL A   1      37.355  23.687  25.664  1.00  0.00     0.044 C 
ATOM     16  C   UNL A   1      35.858  23.770  25.683  1.00  0.00    -0.050 A 
ATOM     17  C   UNL A   1      35.129  23.146  26.700  1.00  0.00     0.003 A 
ATOM     18  C   UNL A   1      35.166  24.451  24.673  1.00  0.00     0.013 A 
ATOM     19  C   UNL A   1      33.736  23.225  26.720  1.00  0.00     0.001 A 
ATOM     20  C   UNL A   1      33.057  23.919  25.717  1.00  0.00     0.010 A 
ENDBRANCH   9  14
ENDBRANCH   7   8
ENDBRANCH   6   7
ENDBRANCH   3   6
ENDBRANCH   1   2
BRANCH   1  21
ATOM     21  C   UNL A   1      32.113  30.718  26.577  1.00  0.00     0.042 C 
BRANCH  21  22
ATOM     22  C   UNL A   1      33.403  30.305  27.268  1.00  0.00     0.118 C 
BRANCH  22  23
ATOM     23  N   UNL A   1      34.031  31.367  28.043  1.00  0.00    -0.352 N 
ATOM     24  C   UNL A   1      35.203  31.374  28.780  1.00  0.00     0.251 C 
ATOM     25  H   UNL A   1      33.540  32.220  28.044  1.00  0.00     0.163 HD
ATOM     26  O   UNL A   1      35.489  32.365  29.430  1.00  0.00    -0.269 OA
BRANCH  24  27
ATOM     27  C   UNL A   1      36.176  30.252  28.676  1.00  0.00     0.039 A 
ATOM     28  C   UNL A   1      36.381  29.454  29.815  1.00  0.00     0.014 A 
ATOM     29  C   UNL A   1      36.989  30.077  27.564  1.00  0.00     0.014 A 
ATOM     30  C   UNL A   1      37.533  28.675  29.918  1.00  0.00     0.010 A 
ATOM     31  C   UNL A   1      38.178  29.395  27.700  1.00  0.00     0.010 A 
ATOM     32  C   UNL A   1      38.478  28.749  28.901  1.00  0.00    -0.014 A 
BRANCH  32  33
ATOM     33  C   UNL A   1      39.858  28.308  29.032  1.00  0.00     0.031 A 
ATOM     34  C   UNL A   1      40.275  26.969  28.574  1.00  0.00     0.074 A 
ATOM     35  C   UNL A   1      40.782  29.235  29.368  1.00  0.00     0.049 A 
ATOM     36  N   UNL A   1      41.374  26.394  28.928  1.00  0.00    -0.248 NA
ATOM     37  C   UNL A   1      39.464  26.155  27.675  1.00  0.00     0.031 C 
ATOM     38  C   UNL A   1      42.228  29.161  29.182  1.00  0.00     0.029 A 
ATOM     39  N   UNL A   1      40.588  30.408  30.118  1.00  0.00    -0.354 N 
ATOM     40  C   UNL A   1      41.558  25.308  28.104  1.00  0.00     0.074 A 
ATOM     41  C   UNL A   1      40.313  25.164  27.384  1.00  0.00     0.031 C 
ATOM     42  C   UNL A   1      42.818  30.036  30.011  1.00  0.00     0.029 A 
ATOM     43  C   UNL A   1      41.775  30.573  30.868  1.00  0.00     0.049 A 
ATOM     44  H   UNL A   1      39.795  30.991  30.120  1.00  0.00     0.167 HD
ATOM     45  C   UNL A   1      42.794  24.738  28.015  1.00  0.00     0.037 A 
ATOM     46  C   UNL A   1      41.768  30.476  32.230  1.00  0.00     0.037 A 
ATOM     47  C   UNL A   1      43.745  25.394  28.910  1.00  0.00     0.049 A 
ATOM     48  C   UNL A   1      42.669  29.389  32.764  1.00  0.00     0.074 A 
ATOM     49  C   UNL A   1      44.697  26.377  28.696  1.00  0.00     0.029 A 
ATOM     50  N   UNL A   1      43.567  25.311  30.287  1.00  0.00    -0.354 N 
ATOM     51  N   UNL A   1      43.042  28.349  32.073  1.00  0.00    -0.248 NA
ATOM     52  C   UNL A   1      43.204  29.385  34.122  1.00  0.00     0.031 C 
ATOM     53  C   UNL A   1      45.066  26.914  29.952  1.00  0.00     0.029 A 
ATOM     54  C   UNL A   1      44.348  26.250  30.931  1.00  0.00     0.049 A 
ATOM     55  H   UNL A   1      42.968  24.672  30.738  1.00  0.00     0.167 HD
ATOM     56  C   UNL A   1      43.834  27.544  32.853  1.00  0.00     0.074 A 
ATOM     57  C   UNL A   1      43.915  28.243  34.122  1.00  0.00     0.031 C 
ATOM     58  C   UNL A   1      44.351  26.371  32.381  1.00  0.00     0.037 A 
BRANCH  45  59
ATOM     59  C   UNL A   1      43.194  23.811  26.890  1.00  0.00     0.064 A 
ATOM     60  C   UNL A   1      42.834  22.446  26.904  1.00  0.00     0.173 A 
ATOM     61  C   UNL A   1      43.985  24.202  25.795  1.00  0.00     0.173 A 
ATOM     62  F   UNL A   1      41.994  21.949  27.820  1.00  0.00    -0.203 F 
ATOM     63  C   UNL A   1      43.333  21.528  25.975  1.00  0.00     0.198 A 
ATOM     64  C   UNL A   1      44.530  23.277  24.898  1.00  0.00     0.198 A 
ATOM     65  F   UNL A   1      44.221  25.496  25.541  1.00  0.00    -0.203 F 
ATOM     66  F   UNL A   1      42.966  20.241  26.050  1.00  0.00    -0.200 F 
ATOM     67  C   UNL A   1      44.215  21.936  24.997  1.00  0.00     0.200 A 
ATOM     68  F   UNL A   1      45.368  23.694  23.937  1.00  0.00    -0.200 F 
ATOM     69  F   UNL A   1      44.737  21.048  24.140  1.00  0.00    -0.200 F 
ENDBRANCH  45  59
BRANCH  46  70
ATOM     70  C   UNL A   1      40.473  30.880  32.838  1.00  0.00     0.064 A 
ATOM     71  C   UNL A   1      40.170  32.254  32.909  1.00  0.00     0.173 A 
ATOM     72  C   UNL A   1      39.413  29.975  32.971  1.00  0.00     0.173 A 
ATOM     73  F   UNL A   1      41.149  33.164  32.784  1.00  0.00    -0.203 F 
ATOM     74  C   UNL A   1      38.852  32.702  32.987  1.00  0.00     0.198 A 
ATOM     75  C   UNL A   1      38.095  30.429  33.062  1.00  0.00     0.198 A 
ATOM     76  F   UNL A   1      39.634  28.655  32.895  1.00  0.00    -0.203 F 
ATOM     77  F   UNL A   1      38.589  34.016  32.935  1.00  0.00    -0.200 F 
ATOM     78  C   UNL A   1      37.814  31.788  33.034  1.00  0.00     0.200 A 
ATOM     79  F   UNL A   1      37.087  29.545  33.080  1.00  0.00    -0.200 F 
ATOM     80  F   UNL A   1      36.543  32.213  33.011  1.00  0.00    -0.200 F 
ENDBRANCH  46  70
BRANCH  58  81
ATOM     81  C   UNL A   1      45.009  25.284  33.201  1.00  0.00     0.064 A 
ATOM     82  C   UNL A   1      46.393  25.047  33.227  1.00  0.00     0.173 A 
ATOM     83  C   UNL A   1      44.248  24.522  34.124  1.00  0.00     0.173 A 
ATOM     84  F   UNL A   1      47.243  25.785  32.502  1.00  0.00    -0.203 F 
ATOM     85  C   UNL A   1      46.963  24.075  34.054  1.00  0.00     0.198 A 
ATOM     86  C   UNL A   1      44.828  23.598  34.992  1.00  0.00     0.198 A 
ATOM     87  F   UNL A   1      42.920  24.670  34.235  1.00  0.00    -0.203 F 
ATOM     88  F   UNL A   1      48.284  23.856  34.005  1.00  0.00    -0.200 F 
ATOM     89  C   UNL A   1      46.184  23.360  34.944  1.00  0.00     0.200 A 
ATOM     90  F   UNL A   1      44.065  22.957  35.888  1.00  0.00    -0.200 F 
ATOM     91  F   UNL A   1      46.743  22.464  35.769  1.00  0.00    -0.200 F 
ENDBRANCH  58  81
ENDBRANCH  32  33
ENDBRANCH  24  27
ENDBRANCH  22  23
ENDBRANCH  21  22
ENDBRANCH   1  21
TORSDOF 13
ENDMDL
MODEL 3
REMARK VINA RESULT:     -12.8      4.060     10.252
REMARK SMILES Cc1cccc(-c2cc(OCC(=O)NCCCNC(=O)c3ccc(-c4c5nc(c(-c6c(F)c(F)c(F)c(F)c6F)c6ccc([nH]6)c(-c6c(F)c(F)c(F)c(F)c6F)c6nc(c(-c7c(F)c(F)c(F)c(F)c7F)c7ccc4[nH]7)C=C6)C=C5)cc3)ncn2)c1
REMARK SMILES IDX 15 1 14 2 12 3 13 4 11 6 10 7 9 8 7 9 8 10 86 11 85 12 84 13
REMARK SMILES IDX 6 14 1 15 2 16 3 17 87 18 4 19 5 20 16 21 17 22 18 23 19 24
REMARK SMILES IDX 20 26 21 27 22 28 83 29 23 30 82 31 24 32 25 33 26 34 76 35
REMARK SMILES IDX 27 36 81 37 75 38 77 39 28 40 80 41 74 42 73 43 29 45 61 46
REMARK SMILES IDX 41 47 60 48 42 49 45 50 59 51 78 52 43 53 44 54 58 56 79 57
REMARK SMILES IDX 46 58 30 59 31 60 39 61 32 62 33 63 37 64 40 65 34 66 35 67
REMARK SMILES IDX 38 68 36 69 62 70 63 71 71 72 64 73 65 74 69 75 72 76 66 77
REMARK SMILES IDX 67 78 70 79 68 80 47 81 48 82 56 83 49 84 50 85 54 86 57 87
REMARK SMILES IDX 51 88 52 89 55 90 53 91
REMARK H PARENT 14 5 18 25 77 44 45 55
REMARK Flexibility Score: inf
ROOT
ATOM      1  C   UNL A   1      32.207  29.328  25.863  1.00  0.00     0.117 C 
ENDROOT
BRANCH   1   2
ATOM      2  N   UNL A   1      31.432  29.842  24.745  1.00  0.00    -0.353 N 
ATOM      3  C   UNL A   1      30.645  29.145  23.872  1.00  0.00     0.258 C 
ATOM      4  O   UNL A   1      30.054  29.763  22.984  1.00  0.00    -0.271 OA
ATOM      5  H   UNL A   1      31.480  30.815  24.600  1.00  0.00     0.163 HD
BRANCH   3   6
ATOM      6  C   UNL A   1      30.508  27.623  24.015  1.00  0.00     0.331 C 
BRANCH   6   7
ATOM      7  O   UNL A   1      30.301  26.908  22.808  1.00  0.00    -0.467 OA
BRANCH   7   8
ATOM      8  C   UNL A   1      31.306  26.095  22.365  1.00  0.00     0.217 A 
ATOM      9  C   UNL A   1      32.880  24.355  22.469  1.00  0.00     0.077 A 
ATOM     10  C   UNL A   1      31.915  25.111  23.107  1.00  0.00     0.097 A 
ATOM     11  N   UNL A   1      33.258  24.585  21.197  1.00  0.00    -0.236 NA
ATOM     12  C   UNL A   1      32.615  25.577  20.570  1.00  0.00     0.226 A 
ATOM     13  N   UNL A   1      31.643  26.341  21.089  1.00  0.00    -0.202 NA
BRANCH   9  14
ATOM     14  C   UNL A   1      33.524  23.235  23.161  1.00  0.00     0.001 A 
ATOM     15  C   UNL A   1      32.528  19.863  24.663  1.00  0.00     0.044 C 
ATOM     16  C   UNL A   1      33.346  21.053  24.262  1.00  0.00    -0.050 A 
ATOM     17  C   UNL A   1      34.693  21.141  24.628  1.00  0.00     0.003 A 
ATOM     18  C   UNL A   1      32.772  22.105  23.535  1.00  0.00     0.013 A 
ATOM     19  C   UNL A   1      35.456  22.247  24.253  1.00  0.00     0.001 A 
ATOM     20  C   UNL A   1      34.878  23.282  23.516  1.00  0.00     0.010 A 
ENDBRANCH   9  14
ENDBRANCH   7   8
ENDBRANCH   6   7
ENDBRANCH   3   6
ENDBRANCH   1   2
BRANCH   1  21
ATOM     21  C   UNL A   1      32.803  30.436  26.720  1.00  0.00     0.042 C 
BRANCH  21  22
ATOM     22  C   UNL A   1      34.112  30.048  27.391  1.00  0.00     0.118 C 
BRANCH  22  23
ATOM     23  N   UNL A   1      34.852  31.171  27.950  1.00  0.00    -0.352 N 
ATOM     24  C   UNL A   1      36.079  31.216  28.588  1.00  0.00     0.251 C 
ATOM     25  H   UNL A   1      34.404  32.044  27.859  1.00  0.00     0.163 HD
ATOM     26  O   UNL A   1      36.466  32.272  29.059  1.00  0.00    -0.269 OA
BRANCH  24  27
ATOM     27  C   UNL A   1      36.985  30.035  28.582  1.00  0.00     0.039 A 
ATOM     28  C   UNL A   1      37.074  29.269  29.757  1.00  0.00     0.014 A 
ATOM     29  C   UNL A   1      37.849  29.769  27.527  1.00  0.00     0.014 A 
ATOM     30  C   UNL A   1      38.167  28.427  29.956  1.00  0.00     0.010 A 
ATOM     31  C   UNL A   1      38.984  29.023  27.758  1.00  0.00     0.010 A 
ATOM     32  C   UNL A   1      39.173  28.405  28.996  1.00  0.00    -0.014 A 
BRANCH  32  33
ATOM     33  C   UNL A   1      40.513  27.888  29.225  1.00  0.00     0.031 A 
ATOM     34  C   UNL A   1      40.919  26.571  28.700  1.00  0.00     0.074 A 
ATOM     35  C   UNL A   1      41.435  28.739  29.728  1.00  0.00     0.049 A 
ATOM     36  N   UNL A   1      41.952  25.917  29.111  1.00  0.00    -0.248 NA
ATOM     37  C   UNL A   1      40.172  25.873  27.659  1.00  0.00     0.031 C 
ATOM     38  C   UNL A   1      42.888  28.608  29.680  1.00  0.00     0.029 A 
ATOM     39  N   UNL A   1      41.213  29.856  30.552  1.00  0.00    -0.354 N 
ATOM     40  C   UNL A   1      42.174  24.891  28.220  1.00  0.00     0.074 A 
ATOM     41  C   UNL A   1      41.005  24.868  27.371  1.00  0.00     0.031 C 
ATOM     42  C   UNL A   1      43.425  29.385  30.635  1.00  0.00     0.029 A 
ATOM     43  C   UNL A   1      42.322  29.902  31.427  1.00  0.00     0.049 A 
ATOM     44  H   UNL A   1      40.448  30.476  30.525  1.00  0.00     0.167 HD
ATOM     45  C   UNL A   1      43.389  24.271  28.206  1.00  0.00     0.037 A 
ATOM     46  C   UNL A   1      42.172  29.697  32.768  1.00  0.00     0.037 A 
ATOM     47  C   UNL A   1      44.269  24.805  29.243  1.00  0.00     0.049 A 
ATOM     48  C   UNL A   1      42.968  28.528  33.295  1.00  0.00     0.074 A 
ATOM     49  C   UNL A   1      45.278  25.754  29.209  1.00  0.00     0.029 A 
ATOM     50  N   UNL A   1      43.947  24.621  30.584  1.00  0.00    -0.354 N 
ATOM     51  N   UNL A   1      43.366  27.529  32.559  1.00  0.00    -0.248 NA
ATOM     52  C   UNL A   1      43.359  28.389  34.694  1.00  0.00     0.031 C 
ATOM     53  C   UNL A   1      45.537  26.170  30.536  1.00  0.00     0.029 A 
ATOM     54  C   UNL A   1      44.696  25.466  31.379  1.00  0.00     0.049 A 
ATOM     55  H   UNL A   1      43.280  23.979  30.918  1.00  0.00     0.167 HD
ATOM     56  C   UNL A   1      44.040  26.627  33.343  1.00  0.00     0.074 A 
ATOM     57  C   UNL A   1      44.020  27.217  34.668  1.00  0.00     0.031 C 
ATOM     58  C   UNL A   1      44.555  25.470  32.827  1.00  0.00     0.037 A 
BRANCH  45  59
ATOM     59  C   UNL A   1      43.864  23.417  27.052  1.00  0.00     0.064 A 
ATOM     60  C   UNL A   1      44.778  23.916  26.100  1.00  0.00     0.173 A 
ATOM     61  C   UNL A   1      43.405  22.112  26.802  1.00  0.00     0.173 A 
ATOM     62  F   UNL A   1      45.386  25.098  26.261  1.00  0.00    -0.203 F 
ATOM     63  C   UNL A   1      45.101  23.221  24.932  1.00  0.00     0.198 A 
ATOM     64  C   UNL A   1      43.683  21.437  25.608  1.00  0.00     0.198 A 
ATOM     65  F   UNL A   1      42.706  21.436  27.725  1.00  0.00    -0.203 F 
ATOM     66  F   UNL A   1      45.965  23.756  24.057  1.00  0.00    -0.200 F 
ATOM     67  C   UNL A   1      44.520  21.999  24.665  1.00  0.00     0.200 A 
ATOM     68  F   UNL A   1      43.128  20.239  25.374  1.00  0.00    -0.200 F 
ATOM     69  F   UNL A   1      44.786  21.357  23.519  1.00  0.00    -0.200 F 
ENDBRANCH  45  59
BRANCH  46  70
ATOM     70  C   UNL A   1      40.838  30.115  33.277  1.00  0.00     0.064 A 
ATOM     71  C   UNL A   1      40.577  31.493  33.409  1.00  0.00     0.173 A 
ATOM     72  C   UNL A   1      39.741  29.246  33.252  1.00  0.00     0.173 A 
ATOM     73  F   UNL A   1      41.594  32.368  33.435  1.00  0.00    -0.203 F 
ATOM     74  C   UNL A   1      39.274  31.988  33.391  1.00  0.00     0.198 A 
ATOM     75  C   UNL A   1      38.436  29.746  33.248  1.00  0.00     0.198 A 
ATOM     76  F   UNL A   1      39.922  27.926  33.112  1.00  0.00    -0.203 F 
ATOM     77  F   UNL A   1      39.062  33.312  33.399  1.00  0.00    -0.200 F 
ATOM     78  C   UNL A   1      38.205  31.114  33.281  1.00  0.00     0.200 A 
ATOM     79  F   UNL A   1      37.401  28.904  33.114  1.00  0.00    -0.200 F 
ATOM     80  F   UNL A   1      36.958  31.590  33.167  1.00  0.00    -0.200 F 
ENDBRANCH  46  70
BRANCH  58  81
ATOM     81  C   UNL A   1      45.080  24.291  33.613  1.00  0.00     0.064 A 
ATOM     82  C   UNL A   1      44.354  23.111  33.843  1.00  0.00     0.173 A 
ATOM     83  C   UNL A   1      46.431  24.262  34.046  1.00  0.00     0.173 A 
ATOM     84  F   UNL A   1      43.110  22.953  33.373  1.00  0.00    -0.203 F 
ATOM     85  C   UNL A   1      44.907  22.019  34.517  1.00  0.00     0.198 A 
ATOM     86  C   UNL A   1      46.998  23.148  34.662  1.00  0.00     0.198 A 
ATOM     87  F   UNL A   1      47.253  25.304  33.859  1.00  0.00    -0.203 F 
ATOM     88  F   UNL A   1      44.154  20.936  34.753  1.00  0.00    -0.200 F 
ATOM     89  C   UNL A   1      46.231  22.032  34.915  1.00  0.00     0.200 A 
ATOM     90  F   UNL A   1      48.298  23.157  34.989  1.00  0.00    -0.200 F 
ATOM     91  F   UNL A   1      46.769  20.964  35.518  1.00  0.00    -0.200 F 
ENDBRANCH  58  81
ENDBRANCH  32  33
ENDBRANCH  24  27
ENDBRANCH  22  23
ENDBRANCH  21  22
ENDBRANCH   1  21
TORSDOF 13
ENDMDL
