MODEL 1
REMARK VINA RESULT:     -11.9      0.000      0.000
REMARK SMILES O=C(NCCCNC(=O)c1cnc(Nc2ccccc2)nc1)c1ccc(-c2c3nc(c(-c4c(F)c(F)c(F)c(F)c4F)c4ccc([nH]4)c(-c4c(F)c(F)c(F)c(F)c4F)c4nc(c(-c5c(F)c(F)c(F)c(F)c5F)c5ccc2[nH]5)C=C4)C=C3)cc1
REMARK SMILES IDX 5 1 4 2 3 3 1 4 2 5 23 7 24 8 85 9 25 10 84 11 26 12 27 13
REMARK SMILES IDX 28 14 78 15 29 16 83 17 77 18 79 19 30 20 82 21 76 22 75 23
REMARK SMILES IDX 31 25 63 26 43 27 62 28 44 29 47 30 61 31 80 32 45 33 46 34
REMARK SMILES IDX 60 36 81 37 48 38 32 39 33 40 41 41 34 42 35 43 39 44 42 45
REMARK SMILES IDX 36 46 37 47 40 48 38 49 64 50 65 51 73 52 66 53 67 54 71 55
REMARK SMILES IDX 74 56 68 57 69 58 72 59 70 60 49 61 50 62 58 63 51 64 52 65
REMARK SMILES IDX 56 66 59 67 53 68 54 69 57 70 55 71 6 72 7 73 8 74 9 76
REMARK SMILES IDX 10 77 11 78 22 79 12 80 21 81 13 82 14 83 15 85 16 86 20 87
REMARK SMILES IDX 17 88 19 89 18 90
REMARK H PARENT 3 6 79 24 47 35 7 75 14 84
REMARK Flexibility Score: inf
ROOT
ATOM      1  C   UNL A   1      31.246  31.851  26.443  1.00  0.00     0.042 C 
ENDROOT
BRANCH   1   2
ATOM      2  C   UNL A   1      32.565  32.478  26.863  1.00  0.00     0.118 C 
BRANCH   2   3
ATOM      3  N   UNL A   1      32.409  33.828  27.389  1.00  0.00    -0.352 N 
ATOM      4  O   UNL A   1      32.677  35.554  28.813  1.00  0.00    -0.269 OA
ATOM      5  C   UNL A   1      33.075  34.466  28.408  1.00  0.00     0.251 C 
ATOM      6  H   UNL A   1      31.718  34.370  26.944  1.00  0.00     0.163 HD
BRANCH   5   7
ATOM      7  C   UNL A   1      34.257  33.835  29.032  1.00  0.00     0.039 A 
ATOM      8  C   UNL A   1      34.115  32.712  29.847  1.00  0.00     0.014 A 
ATOM      9  C   UNL A   1      35.529  34.360  28.785  1.00  0.00     0.014 A 
ATOM     10  C   UNL A   1      35.206  32.228  30.554  1.00  0.00     0.010 A 
ATOM     11  C   UNL A   1      36.648  33.794  29.404  1.00  0.00     0.010 A 
ATOM     12  C   UNL A   1      36.491  32.741  30.317  1.00  0.00    -0.014 A 
BRANCH  12  13
ATOM     13  C   UNL A   1      37.653  32.090  30.974  1.00  0.00     0.031 A 
ATOM     14  C   UNL A   1      38.066  32.446  32.373  1.00  0.00     0.074 A 
ATOM     15  C   UNL A   1      38.316  31.136  30.291  1.00  0.00     0.049 A 
ATOM     16  N   UNL A   1      39.043  31.952  33.094  1.00  0.00    -0.248 NA
ATOM     17  C   UNL A   1      37.292  33.495  33.054  1.00  0.00     0.031 C 
ATOM     18  C   UNL A   1      38.011  30.718  28.920  1.00  0.00     0.029 A 
ATOM     19  N   UNL A   1      39.366  30.332  30.655  1.00  0.00    -0.354 N 
ATOM     20  C   UNL A   1      39.011  32.636  34.302  1.00  0.00     0.074 A 
ATOM     21  C   UNL A   1      37.938  33.603  34.208  1.00  0.00     0.031 C 
ATOM     22  C   UNL A   1      38.815  29.702  28.579  1.00  0.00     0.029 A 
ATOM     23  C   UNL A   1      39.745  29.451  29.672  1.00  0.00     0.049 A 
ATOM     24  H   UNL A   1      39.805  30.382  31.534  1.00  0.00     0.167 HD
ATOM     25  C   UNL A   1      39.802  32.463  35.388  1.00  0.00     0.037 A 
ATOM     26  C   UNL A   1      40.747  28.555  29.641  1.00  0.00     0.037 A 
ATOM     27  C   UNL A   1      40.865  31.492  35.471  1.00  0.00     0.049 A 
ATOM     28  C   UNL A   1      41.632  28.417  30.846  1.00  0.00     0.074 A 
ATOM     29  C   UNL A   1      41.701  31.216  36.540  1.00  0.00     0.029 A 
ATOM     30  N   UNL A   1      41.245  30.642  34.441  1.00  0.00    -0.354 N 
ATOM     31  N   UNL A   1      41.566  29.041  31.996  1.00  0.00    -0.248 NA
ATOM     32  C   UNL A   1      42.734  27.453  30.747  1.00  0.00     0.031 C 
ATOM     33  C   UNL A   1      42.623  30.245  36.138  1.00  0.00     0.029 A 
ATOM     34  C   UNL A   1      42.323  29.866  34.840  1.00  0.00     0.049 A 
ATOM     35  H   UNL A   1      40.814  30.598  33.558  1.00  0.00     0.167 HD
ATOM     36  C   UNL A   1      42.601  28.533  32.766  1.00  0.00     0.074 A 
ATOM     37  C   UNL A   1      43.264  27.528  31.959  1.00  0.00     0.031 C 
ATOM     38  C   UNL A   1      42.972  28.869  34.025  1.00  0.00     0.037 A 
BRANCH  25  39
ATOM     39  C   UNL A   1      39.569  33.354  36.575  1.00  0.00     0.064 A 
ATOM     40  C   UNL A   1      38.701  32.989  37.617  1.00  0.00     0.173 A 
ATOM     41  C   UNL A   1      40.271  34.564  36.704  1.00  0.00     0.173 A 
ATOM     42  F   UNL A   1      37.999  31.849  37.542  1.00  0.00    -0.203 F 
ATOM     43  C   UNL A   1      38.527  33.812  38.728  1.00  0.00     0.198 A 
ATOM     44  C   UNL A   1      40.119  35.368  37.831  1.00  0.00     0.198 A 
ATOM     45  F   UNL A   1      41.120  34.958  35.744  1.00  0.00    -0.203 F 
ATOM     46  F   UNL A   1      37.661  33.462  39.689  1.00  0.00    -0.200 F 
ATOM     47  C   UNL A   1      39.242  34.995  38.839  1.00  0.00     0.200 A 
ATOM     48  F   UNL A   1      40.822  36.503  37.943  1.00  0.00    -0.200 F 
ATOM     49  F   UNL A   1      39.083  35.778  39.914  1.00  0.00    -0.200 F 
ENDBRANCH  25  39
BRANCH  26  50
ATOM     50  C   UNL A   1      40.973  27.737  28.421  1.00  0.00     0.064 A 
ATOM     51  C   UNL A   1      41.860  28.156  27.422  1.00  0.00     0.173 A 
ATOM     52  C   UNL A   1      40.305  26.517  28.231  1.00  0.00     0.173 A 
ATOM     53  F   UNL A   1      42.511  29.321  27.549  1.00  0.00    -0.203 F 
ATOM     54  C   UNL A   1      42.053  27.399  26.267  1.00  0.00     0.198 A 
ATOM     55  C   UNL A   1      40.525  25.743  27.094  1.00  0.00     0.198 A 
ATOM     56  F   UNL A   1      39.450  26.065  29.162  1.00  0.00    -0.203 F 
ATOM     57  F   UNL A   1      42.867  27.848  25.303  1.00  0.00    -0.200 F 
ATOM     58  C   UNL A   1      41.390  26.191  26.108  1.00  0.00     0.200 A 
ATOM     59  F   UNL A   1      39.900  24.566  26.957  1.00  0.00    -0.200 F 
ATOM     60  F   UNL A   1      41.581  25.460  25.001  1.00  0.00    -0.200 F 
ENDBRANCH  26  50
BRANCH  38  61
ATOM     61  C   UNL A   1      44.129  28.118  34.618  1.00  0.00     0.064 A 
ATOM     62  C   UNL A   1      43.952  26.901  35.294  1.00  0.00     0.173 A 
ATOM     63  C   UNL A   1      45.436  28.614  34.493  1.00  0.00     0.173 A 
ATOM     64  F   UNL A   1      42.721  26.392  35.456  1.00  0.00    -0.203 F 
ATOM     65  C   UNL A   1      45.036  26.228  35.852  1.00  0.00     0.198 A 
ATOM     66  C   UNL A   1      46.520  27.920  35.020  1.00  0.00     0.198 A 
ATOM     67  F   UNL A   1      45.662  29.772  33.852  1.00  0.00    -0.203 F 
ATOM     68  F   UNL A   1      44.834  25.099  36.545  1.00  0.00    -0.200 F 
ATOM     69  C   UNL A   1      46.319  26.733  35.708  1.00  0.00     0.200 A 
ATOM     70  F   UNL A   1      47.761  28.403  34.867  1.00  0.00    -0.200 F 
ATOM     71  F   UNL A   1      47.361  26.081  36.241  1.00  0.00    -0.200 F 
ENDBRANCH  38  61
ENDBRANCH  12  13
ENDBRANCH   5   7
ENDBRANCH   2   3
ENDBRANCH   1   2
BRANCH   1  72
ATOM     72  C   UNL A   1      31.403  30.505  25.754  1.00  0.00     0.118 C 
BRANCH  72  73
ATOM     73  N   UNL A   1      30.594  30.416  24.541  1.00  0.00    -0.352 N 
ATOM     74  C   UNL A   1      30.631  29.481  23.537  1.00  0.00     0.254 C 
ATOM     75  H   UNL A   1      29.926  31.129  24.427  1.00  0.00     0.163 HD
ATOM     76  O   UNL A   1      30.062  29.689  22.467  1.00  0.00    -0.269 OA
BRANCH  74  77
ATOM     77  C   UNL A   1      31.358  28.233  23.736  1.00  0.00     0.076 A 
ATOM     78  C   UNL A   1      32.624  28.042  23.249  1.00  0.00     0.130 A 
ATOM     79  C   UNL A   1      30.820  27.175  24.426  1.00  0.00     0.130 A 
ATOM     80  N   UNL A   1      33.267  26.867  23.327  1.00  0.00    -0.221 NA
ATOM     81  N   UNL A   1      31.429  25.969  24.519  1.00  0.00    -0.221 NA
ATOM     82  C   UNL A   1      32.636  25.846  23.936  1.00  0.00     0.227 A 
BRANCH  82  83
ATOM     83  N   UNL A   1      33.173  24.565  23.872  1.00  0.00    -0.324 N 
ATOM     84  H   UNL A   1      32.540  23.852  23.624  1.00  0.00     0.170 HD
BRANCH  83  85
ATOM     85  C   UNL A   1      34.486  24.147  24.111  1.00  0.00     0.041 A 
ATOM     86  C   UNL A   1      35.091  24.439  25.340  1.00  0.00     0.026 A 
ATOM     87  C   UNL A   1      35.183  23.328  23.212  1.00  0.00     0.026 A 
ATOM     88  C   UNL A   1      36.351  23.922  25.660  1.00  0.00     0.002 A 
ATOM     89  C   UNL A   1      36.447  22.822  23.520  1.00  0.00     0.002 A 
ATOM     90  C   UNL A   1      37.028  23.114  24.750  1.00  0.00     0.000 A 
ENDBRANCH  83  85
ENDBRANCH  82  83
ENDBRANCH  74  77
ENDBRANCH  72  73
ENDBRANCH   1  72
TORSDOF 12
ENDMDL
MODEL 2
REMARK VINA RESULT:     -11.9      0.267      1.731
REMARK SMILES O=C(NCCCNC(=O)c1cnc(Nc2ccccc2)nc1)c1ccc(-c2c3nc(c(-c4c(F)c(F)c(F)c(F)c4F)c4ccc([nH]4)c(-c4c(F)c(F)c(F)c(F)c4F)c4nc(c(-c5c(F)c(F)c(F)c(F)c5F)c5ccc2[nH]5)C=C4)C=C3)cc1
REMARK SMILES IDX 5 1 4 2 3 3 1 4 2 5 23 7 24 8 85 9 25 10 84 11 26 12 27 13
REMARK SMILES IDX 28 14 78 15 29 16 83 17 77 18 79 19 30 20 82 21 76 22 75 23
REMARK SMILES IDX 31 25 63 26 43 27 62 28 44 29 47 30 61 31 80 32 45 33 46 34
REMARK SMILES IDX 60 36 81 37 48 38 32 39 33 40 41 41 34 42 35 43 39 44 42 45
REMARK SMILES IDX 36 46 37 47 40 48 38 49 64 50 65 51 73 52 66 53 67 54 71 55
REMARK SMILES IDX 74 56 68 57 69 58 72 59 70 60 49 61 50 62 58 63 51 64 52 65
REMARK SMILES IDX 56 66 59 67 53 68 54 69 57 70 55 71 6 72 7 73 8 74 9 76
REMARK SMILES IDX 10 77 11 78 22 79 12 80 21 81 13 82 14 83 15 85 16 86 20 87
REMARK SMILES IDX 17 88 19 89 18 90
REMARK H PARENT 3 6 79 24 47 35 7 75 14 84
REMARK Flexibility Score: inf
ROOT
ATOM      1  C   UNL A   1      31.097  31.757  26.094  1.00  0.00     0.042 C 
ENDROOT
BRANCH   1   2
ATOM      2  C   UNL A   1      32.294  32.221  26.907  1.00  0.00     0.118 C 
BRANCH   2   3
ATOM      3  N   UNL A   1      32.225  33.632  27.266  1.00  0.00    -0.352 N 
ATOM      4  O   UNL A   1      32.644  35.505  28.446  1.00  0.00    -0.269 OA
ATOM      5  C   UNL A   1      32.973  34.358  28.161  1.00  0.00     0.251 C 
ATOM      6  H   UNL A   1      31.531  34.146  26.793  1.00  0.00     0.163 HD
BRANCH   5   7
ATOM      7  C   UNL A   1      34.162  33.753  28.797  1.00  0.00     0.039 A 
ATOM      8  C   UNL A   1      34.029  32.669  29.665  1.00  0.00     0.014 A 
ATOM      9  C   UNL A   1      35.432  34.263  28.509  1.00  0.00     0.014 A 
ATOM     10  C   UNL A   1      35.129  32.215  30.378  1.00  0.00     0.010 A 
ATOM     11  C   UNL A   1      36.558  33.723  29.138  1.00  0.00     0.010 A 
ATOM     12  C   UNL A   1      36.412  32.713  30.101  1.00  0.00    -0.014 A 
BRANCH  12  13
ATOM     13  C   UNL A   1      37.581  32.090  30.771  1.00  0.00     0.031 A 
ATOM     14  C   UNL A   1      37.998  32.491  32.156  1.00  0.00     0.074 A 
ATOM     15  C   UNL A   1      38.248  31.121  30.114  1.00  0.00     0.049 A 
ATOM     16  N   UNL A   1      38.982  32.025  32.887  1.00  0.00    -0.248 NA
ATOM     17  C   UNL A   1      37.221  33.554  32.809  1.00  0.00     0.031 C 
ATOM     18  C   UNL A   1      37.939  30.660  28.757  1.00  0.00     0.029 A 
ATOM     19  N   UNL A   1      39.305  30.335  30.496  1.00  0.00    -0.354 N 
ATOM     20  C   UNL A   1      38.951  32.744  34.074  1.00  0.00     0.074 A 
ATOM     21  C   UNL A   1      37.871  33.701  33.956  1.00  0.00     0.031 C 
ATOM     22  C   UNL A   1      38.748  29.640  28.442  1.00  0.00     0.029 A 
ATOM     23  C   UNL A   1      39.685  29.427  29.538  1.00  0.00     0.049 A 
ATOM     24  H   UNL A   1      39.747  30.414  31.371  1.00  0.00     0.167 HD
ATOM     25  C   UNL A   1      39.749  32.609  35.161  1.00  0.00     0.037 A 
ATOM     26  C   UNL A   1      40.693  28.538  29.528  1.00  0.00     0.037 A 
ATOM     27  C   UNL A   1      40.819  31.648  35.268  1.00  0.00     0.049 A 
ATOM     28  C   UNL A   1      41.584  28.442  30.732  1.00  0.00     0.074 A 
ATOM     29  C   UNL A   1      41.662  31.410  36.340  1.00  0.00     0.029 A 
ATOM     30  N   UNL A   1      41.200  30.771  34.262  1.00  0.00    -0.354 N 
ATOM     31  N   UNL A   1      41.519  29.100  31.864  1.00  0.00    -0.248 NA
ATOM     32  C   UNL A   1      42.693  27.483  30.656  1.00  0.00     0.031 C 
ATOM     33  C   UNL A   1      42.589  30.434  35.962  1.00  0.00     0.029 A 
ATOM     34  C   UNL A   1      42.285  30.014  34.678  1.00  0.00     0.049 A 
ATOM     35  H   UNL A   1      40.764  30.697  33.382  1.00  0.00     0.167 HD
ATOM     36  C   UNL A   1      42.562  28.621  32.643  1.00  0.00     0.074 A 
ATOM     37  C   UNL A   1      43.228  27.598  31.863  1.00  0.00     0.031 C 
ATOM     38  C   UNL A   1      42.937  28.998  33.890  1.00  0.00     0.037 A 
BRANCH  25  39
ATOM     39  C   UNL A   1      39.515  33.534  36.322  1.00  0.00     0.064 A 
ATOM     40  C   UNL A   1      38.740  33.153  37.429  1.00  0.00     0.173 A 
ATOM     41  C   UNL A   1      40.126  34.798  36.357  1.00  0.00     0.173 A 
ATOM     42  F   UNL A   1      38.127  31.959  37.445  1.00  0.00    -0.203 F 
ATOM     43  C   UNL A   1      38.567  34.010  38.514  1.00  0.00     0.198 A 
ATOM     44  C   UNL A   1      39.976  35.639  37.457  1.00  0.00     0.198 A 
ATOM     45  F   UNL A   1      40.884  35.211  35.332  1.00  0.00    -0.203 F 
ATOM     46  F   UNL A   1      37.787  33.640  39.539  1.00  0.00    -0.200 F 
ATOM     47  C   UNL A   1      39.191  35.248  38.531  1.00  0.00     0.200 A 
ATOM     48  F   UNL A   1      40.593  36.828  37.479  1.00  0.00    -0.200 F 
ATOM     49  F   UNL A   1      39.034  36.066  39.581  1.00  0.00    -0.200 F 
ENDBRANCH  25  39
BRANCH  26  50
ATOM     50  C   UNL A   1      40.919  27.685  28.332  1.00  0.00     0.064 A 
ATOM     51  C   UNL A   1      40.299  26.435  28.206  1.00  0.00     0.173 A 
ATOM     52  C   UNL A   1      41.760  28.104  27.290  1.00  0.00     0.173 A 
ATOM     53  F   UNL A   1      39.498  25.983  29.182  1.00  0.00    -0.203 F 
ATOM     54  C   UNL A   1      40.530  25.627  27.095  1.00  0.00     0.198 A 
ATOM     55  C   UNL A   1      41.962  27.312  26.163  1.00  0.00     0.198 A 
ATOM     56  F   UNL A   1      42.372  29.297  27.357  1.00  0.00    -0.203 F 
ATOM     57  F   UNL A   1      39.967  24.414  27.023  1.00  0.00    -0.200 F 
ATOM     58  C   UNL A   1      41.356  26.069  26.072  1.00  0.00     0.200 A 
ATOM     59  F   UNL A   1      42.743  27.753  25.168  1.00  0.00    -0.200 F 
ATOM     60  F   UNL A   1      41.573  25.293  25.001  1.00  0.00    -0.200 F 
ENDBRANCH  26  50
BRANCH  38  61
ATOM     61  C   UNL A   1      44.102  28.272  34.499  1.00  0.00     0.064 A 
ATOM     62  C   UNL A   1      45.415  28.755  34.385  1.00  0.00     0.173 A 
ATOM     63  C   UNL A   1      43.900  27.086  35.221  1.00  0.00     0.173 A 
ATOM     64  F   UNL A   1      45.664  29.874  33.689  1.00  0.00    -0.203 F 
ATOM     65  C   UNL A   1      46.484  28.058  34.942  1.00  0.00     0.198 A 
ATOM     66  C   UNL A   1      44.967  26.413  35.808  1.00  0.00     0.198 A 
ATOM     67  F   UNL A   1      42.664  26.583  35.366  1.00  0.00    -0.203 F 
ATOM     68  F   UNL A   1      47.735  28.506  34.768  1.00  0.00    -0.200 F 
ATOM     69  C   UNL A   1      46.259  26.893  35.659  1.00  0.00     0.200 A 
ATOM     70  F   UNL A   1      44.746  25.295  36.513  1.00  0.00    -0.200 F 
ATOM     71  F   UNL A   1      47.289  26.228  36.199  1.00  0.00    -0.200 F 
ENDBRANCH  38  61
ENDBRANCH  12  13
ENDBRANCH   5   7
ENDBRANCH   2   3
ENDBRANCH   1   2
BRANCH   1  72
ATOM     72  C   UNL A   1      31.321  30.433  25.381  1.00  0.00     0.118 C 
BRANCH  72  73
ATOM     73  N   UNL A   1      30.472  30.299  24.200  1.00  0.00    -0.352 N 
ATOM     74  C   UNL A   1      30.475  29.326  23.233  1.00  0.00     0.254 C 
ATOM     75  H   UNL A   1      29.801  31.009  24.080  1.00  0.00     0.163 HD
ATOM     76  O   UNL A   1      29.870  29.494  22.175  1.00  0.00    -0.269 OA
BRANCH  74  77
ATOM     77  C   UNL A   1      31.205  28.084  23.456  1.00  0.00     0.076 A 
ATOM     78  C   UNL A   1      32.484  27.900  23.002  1.00  0.00     0.130 A 
ATOM     79  C   UNL A   1      30.658  27.026  24.138  1.00  0.00     0.130 A 
ATOM     80  N   UNL A   1      33.134  26.730  23.102  1.00  0.00    -0.221 NA
ATOM     81  N   UNL A   1      31.274  25.825  24.254  1.00  0.00    -0.221 NA
ATOM     82  C   UNL A   1      32.496  25.708  23.701  1.00  0.00     0.227 A 
BRANCH  82  83
ATOM     83  N   UNL A   1      33.043  24.431  23.656  1.00  0.00    -0.324 N 
ATOM     84  H   UNL A   1      32.457  23.731  23.288  1.00  0.00     0.170 HD
BRANCH  83  85
ATOM     85  C   UNL A   1      34.311  24.001  24.063  1.00  0.00     0.041 A 
ATOM     86  C   UNL A   1      35.114  23.278  23.172  1.00  0.00     0.026 A 
ATOM     87  C   UNL A   1      34.866  24.378  25.293  1.00  0.00     0.026 A 
ATOM     88  C   UNL A   1      36.433  22.949  23.501  1.00  0.00     0.002 A 
ATOM     89  C   UNL A   1      36.178  24.041  25.632  1.00  0.00     0.002 A 
ATOM     90  C   UNL A   1      36.964  23.331  24.731  1.00  0.00     0.000 A 
ENDBRANCH  83  85
ENDBRANCH  82  83
ENDBRANCH  74  77
ENDBRANCH  72  73
ENDBRANCH   1  72
TORSDOF 12
ENDMDL
MODEL 3
REMARK VINA RESULT:     -11.9      2.317      3.034
REMARK SMILES O=C(NCCCNC(=O)c1cnc(Nc2ccccc2)nc1)c1ccc(-c2c3nc(c(-c4c(F)c(F)c(F)c(F)c4F)c4ccc([nH]4)c(-c4c(F)c(F)c(F)c(F)c4F)c4nc(c(-c5c(F)c(F)c(F)c(F)c5F)c5ccc2[nH]5)C=C4)C=C3)cc1
REMARK SMILES IDX 5 1 4 2 3 3 1 4 2 5 23 7 24 8 85 9 25 10 84 11 26 12 27 13
REMARK SMILES IDX 28 14 78 15 29 16 83 17 77 18 79 19 30 20 82 21 76 22 75 23
REMARK SMILES IDX 31 25 63 26 43 27 62 28 44 29 47 30 61 31 80 32 45 33 46 34
REMARK SMILES IDX 60 36 81 37 48 38 32 39 33 40 41 41 34 42 35 43 39 44 42 45
REMARK SMILES IDX 36 46 37 47 40 48 38 49 64 50 65 51 73 52 66 53 67 54 71 55
REMARK SMILES IDX 74 56 68 57 69 58 72 59 70 60 49 61 50 62 58 63 51 64 52 65
REMARK SMILES IDX 56 66 59 67 53 68 54 69 57 70 55 71 6 72 7 73 8 74 9 76
REMARK SMILES IDX 10 77 11 78 22 79 12 80 21 81 13 82 14 83 15 85 16 86 20 87
REMARK SMILES IDX 17 88 19 89 18 90
REMARK H PARENT 3 6 79 24 47 35 7 75 14 84
REMARK Flexibility Score: inf
ROOT
ATOM      1  C   UNL A   1      32.517  28.053  25.506  1.00  0.00     0.042 C 
ENDROOT
BRANCH   1   2
ATOM      2  C   UNL A   1      33.551  29.163  25.417  1.00  0.00     0.118 C 
BRANCH   2   3
ATOM      3  N   UNL A   1      33.044  30.450  25.874  1.00  0.00    -0.352 N 
ATOM      4  O   UNL A   1      32.771  32.213  27.251  1.00  0.00    -0.269 OA
ATOM      5  C   UNL A   1      33.442  31.238  26.927  1.00  0.00     0.251 C 
ATOM      6  H   UNL A   1      32.297  30.813  25.345  1.00  0.00     0.163 HD
BRANCH   5   7
ATOM      7  C   UNL A   1      34.667  30.902  27.684  1.00  0.00     0.039 A 
ATOM      8  C   UNL A   1      34.845  29.624  28.214  1.00  0.00     0.014 A 
ATOM      9  C   UNL A   1      35.660  31.871  27.852  1.00  0.00     0.014 A 
ATOM     10  C   UNL A   1      35.918  29.368  29.056  1.00  0.00     0.010 A 
ATOM     11  C   UNL A   1      36.803  31.574  28.601  1.00  0.00     0.010 A 
ATOM     12  C   UNL A   1      36.927  30.329  29.234  1.00  0.00    -0.014 A 
BRANCH  12  13
ATOM     13  C   UNL A   1      38.135  29.960  30.014  1.00  0.00     0.031 A 
ATOM     14  C   UNL A   1      38.346  30.451  31.417  1.00  0.00     0.074 A 
ATOM     15  C   UNL A   1      39.034  29.135  29.441  1.00  0.00     0.049 A 
ATOM     16  N   UNL A   1      39.337  30.199  32.237  1.00  0.00    -0.248 NA
ATOM     17  C   UNL A   1      37.321  31.345  31.975  1.00  0.00     0.031 C 
ATOM     18  C   UNL A   1      38.938  28.606  28.077  1.00  0.00     0.029 A 
ATOM     19  N   UNL A   1      40.189  28.580  29.929  1.00  0.00    -0.354 N 
ATOM     20  C   UNL A   1      39.064  30.913  33.397  1.00  0.00     0.074 A 
ATOM     21  C   UNL A   1      37.830  31.633  33.166  1.00  0.00     0.031 C 
ATOM     22  C   UNL A   1      39.957  27.764  27.858  1.00  0.00     0.029 A 
ATOM     23  C   UNL A   1      40.821  27.756  29.030  1.00  0.00     0.049 A 
ATOM     24  H   UNL A   1      40.532  28.757  30.834  1.00  0.00     0.167 HD
ATOM     25  C   UNL A   1      39.778  30.952  34.548  1.00  0.00     0.037 A 
ATOM     26  C   UNL A   1      41.982  27.085  29.128  1.00  0.00     0.037 A 
ATOM     27  C   UNL A   1      41.003  30.225  34.768  1.00  0.00     0.049 A 
ATOM     28  C   UNL A   1      42.770  27.184  30.402  1.00  0.00     0.074 A 
ATOM     29  C   UNL A   1      41.783  30.173  35.911  1.00  0.00     0.029 A 
ATOM     30  N   UNL A   1      41.635  29.430  33.821  1.00  0.00    -0.354 N 
ATOM     31  N   UNL A   1      42.481  27.828  31.506  1.00  0.00    -0.248 NA
ATOM     32  C   UNL A   1      44.049  26.464  30.443  1.00  0.00     0.031 C 
ATOM     33  C   UNL A   1      42.914  29.397  35.637  1.00  0.00     0.029 A 
ATOM     34  C   UNL A   1      42.809  28.909  34.345  1.00  0.00     0.049 A 
ATOM     35  H   UNL A   1      41.298  29.260  32.912  1.00  0.00     0.167 HD
ATOM     36  C   UNL A   1      43.527  27.577  32.380  1.00  0.00     0.074 A 
ATOM     37  C   UNL A   1      44.447  26.697  31.685  1.00  0.00     0.031 C 
ATOM     38  C   UNL A   1      43.713  28.035  33.642  1.00  0.00     0.037 A 
BRANCH  25  39
ATOM     39  C   UNL A   1      39.268  31.825  35.660  1.00  0.00     0.064 A 
ATOM     40  C   UNL A   1      38.346  31.354  36.609  1.00  0.00     0.173 A 
ATOM     41  C   UNL A   1      39.755  33.133  35.816  1.00  0.00     0.173 A 
ATOM     42  F   UNL A   1      37.842  30.115  36.504  1.00  0.00    -0.203 F 
ATOM     43  C   UNL A   1      37.915  32.167  37.656  1.00  0.00     0.198 A 
ATOM     44  C   UNL A   1      39.345  33.931  36.882  1.00  0.00     0.198 A 
ATOM     45  F   UNL A   1      40.643  33.632  34.945  1.00  0.00    -0.203 F 
ATOM     46  F   UNL A   1      37.002  31.709  38.524  1.00  0.00    -0.200 F 
ATOM     47  C   UNL A   1      38.421  33.450  37.796  1.00  0.00     0.200 A 
ATOM     48  F   UNL A   1      39.847  35.165  37.024  1.00  0.00    -0.200 F 
ATOM     49  F   UNL A   1      38.015  34.226  38.811  1.00  0.00    -0.200 F 
ENDBRANCH  25  39
BRANCH  26  50
ATOM     50  C   UNL A   1      42.473  26.281  27.978  1.00  0.00     0.064 A 
ATOM     51  C   UNL A   1      43.329  26.835  27.019  1.00  0.00     0.173 A 
ATOM     52  C   UNL A   1      42.095  24.939  27.818  1.00  0.00     0.173 A 
ATOM     53  F   UNL A   1      43.707  28.118  27.119  1.00  0.00    -0.203 F 
ATOM     54  C   UNL A   1      43.769  26.086  25.929  1.00  0.00     0.198 A 
ATOM     55  C   UNL A   1      42.564  24.180  26.748  1.00  0.00     0.198 A 
ATOM     56  F   UNL A   1      41.283  24.356  28.714  1.00  0.00    -0.203 F 
ATOM     57  F   UNL A   1      44.544  26.657  24.997  1.00  0.00    -0.200 F 
ATOM     58  C   UNL A   1      43.391  24.759  25.799  1.00  0.00     0.200 A 
ATOM     59  F   UNL A   1      42.215  22.891  26.640  1.00  0.00    -0.200 F 
ATOM     60  F   UNL A   1      43.820  24.037  24.754  1.00  0.00    -0.200 F 
ENDBRANCH  26  50
BRANCH  38  61
ATOM     61  C   UNL A   1      44.943  27.564  34.363  1.00  0.00     0.064 A 
ATOM     62  C   UNL A   1      44.953  26.374  35.108  1.00  0.00     0.173 A 
ATOM     63  C   UNL A   1      46.133  28.304  34.294  1.00  0.00     0.173 A 
ATOM     64  F   UNL A   1      43.836  25.640  35.222  1.00  0.00    -0.203 F 
ATOM     65  C   UNL A   1      46.098  25.963  35.785  1.00  0.00     0.198 A 
ATOM     66  C   UNL A   1      47.286  27.870  34.941  1.00  0.00     0.198 A 
ATOM     67  F   UNL A   1      46.181  29.446  33.590  1.00  0.00    -0.203 F 
ATOM     68  F   UNL A   1      46.066  24.857  36.539  1.00  0.00    -0.200 F 
ATOM     69  C   UNL A   1      47.266  26.706  35.694  1.00  0.00     0.200 A 
ATOM     70  F   UNL A   1      48.417  28.582  34.840  1.00  0.00    -0.200 F 
ATOM     71  F   UNL A   1      48.368  26.306  36.341  1.00  0.00    -0.200 F 
ENDBRANCH  38  61
ENDBRANCH  12  13
ENDBRANCH   5   7
ENDBRANCH   2   3
ENDBRANCH   1   2
BRANCH   1  72
ATOM     72  C   UNL A   1      32.986  26.733  24.915  1.00  0.00     0.118 C 
BRANCH  72  73
ATOM     73  N   UNL A   1      33.095  26.796  23.460  1.00  0.00    -0.352 N 
ATOM     74  C   UNL A   1      33.342  25.789  22.562  1.00  0.00     0.254 C 
ATOM     75  H   UNL A   1      32.974  27.690  23.066  1.00  0.00     0.163 HD
ATOM     76  O   UNL A   1      33.654  26.048  21.401  1.00  0.00    -0.269 OA
BRANCH  74  77
ATOM     77  C   UNL A   1      33.243  24.398  22.987  1.00  0.00     0.076 A 
ATOM     78  C   UNL A   1      32.089  23.674  22.844  1.00  0.00     0.130 A 
ATOM     79  C   UNL A   1      34.299  23.728  23.554  1.00  0.00     0.130 A 
ATOM     80  N   UNL A   1      31.943  22.430  23.326  1.00  0.00    -0.221 NA
ATOM     81  N   UNL A   1      34.192  22.478  24.063  1.00  0.00    -0.221 NA
ATOM     82  C   UNL A   1      32.994  21.873  23.954  1.00  0.00     0.227 A 
BRANCH  82  83
ATOM     83  N   UNL A   1      32.834  20.673  24.638  1.00  0.00    -0.324 N 
ATOM     84  H   UNL A   1      32.405  20.742  25.522  1.00  0.00     0.170 HD
BRANCH  83  85
ATOM     85  C   UNL A   1      33.200  19.381  24.246  1.00  0.00     0.041 A 
ATOM     86  C   UNL A   1      32.477  18.735  23.235  1.00  0.00     0.026 A 
ATOM     87  C   UNL A   1      34.350  18.750  24.740  1.00  0.00     0.026 A 
ATOM     88  C   UNL A   1      32.897  17.500  22.731  1.00  0.00     0.002 A 
ATOM     89  C   UNL A   1      34.765  17.510  24.250  1.00  0.00     0.002 A 
ATOM     90  C   UNL A   1      34.041  16.888  23.239  1.00  0.00     0.000 A 
ENDBRANCH  83  85
ENDBRANCH  82  83
ENDBRANCH  74  77
ENDBRANCH  72  73
ENDBRANCH   1  72
TORSDOF 12
ENDMDL
