MODEL 1
REMARK VINA RESULT:     -12.1      0.000      0.000
REMARK SMILES CC[C@@H](C)[C@H](NC(=O)[C@@H](C)NC(N)=O)C(=O)NCCCNC(=O)c1ccc(-c2c3nc(c(-c4c(F)c(F)c(F)c(F)c4F)c4ccc([nH]4)c(-c4c(F)c(F)c(F)c(F)c4F)c4nc(c(-c5c(F)c(F)c(F)c(F)c5F)c5ccc2[nH]5)C=C4)C=C3)cc1
REMARK SMILES IDX 18 1 17 2 15 3 16 4 5 6 3 7 4 8 2 9 1 10 6 11 7 12 8 14 9 15
REMARK SMILES IDX 10 16 11 17 12 18 13 20 14 21 19 24 20 25 21 26 22 27 23 29
REMARK SMILES IDX 24 30 25 31 86 32 26 33 85 34 27 35 28 36 29 37 79 38 30 39
REMARK SMILES IDX 84 40 78 41 80 42 31 43 83 44 77 45 76 46 32 48 64 49 44 50
REMARK SMILES IDX 63 51 45 52 48 53 62 54 81 55 46 56 47 57 61 59 82 60 49 61
REMARK SMILES IDX 33 62 34 63 42 64 35 65 36 66 40 67 43 68 37 69 38 70 41 71
REMARK SMILES IDX 39 72 65 73 66 74 74 75 67 76 68 77 72 78 75 79 69 80 70 81
REMARK SMILES IDX 73 82 71 83 50 84 51 85 59 86 52 87 53 88 57 89 60 90 54 91
REMARK SMILES IDX 55 92 58 93 56 94
REMARK H PARENT 17 5 6 13 11 19 13 22 13 23 21 28 80 47 48 58
REMARK Flexibility Score: inf
ROOT
ATOM      1  C   UNL A   1      32.177  30.461  26.198  1.00  0.00     0.117 C 
ENDROOT
BRANCH   1   2
ATOM      2  N   UNL A   1      31.791  29.398  27.111  1.00  0.00    -0.354 N 
ATOM      3  C   UNL A   1      31.729  28.052  26.926  1.00  0.00     0.242 C 
ATOM      4  O   UNL A   1      31.379  27.360  27.891  1.00  0.00    -0.273 OA
ATOM      5  H   UNL A   1      31.532  29.703  28.010  1.00  0.00     0.163 HD
BRANCH   3   6
ATOM      6  C   UNL A   1      32.069  27.372  25.583  1.00  0.00     0.174 C 
BRANCH   6   7
ATOM      7  C   UNL A   1      33.582  27.383  25.192  1.00  0.00     0.018 C 
ATOM      8  C   UNL A   1      33.980  28.283  24.020  1.00  0.00     0.010 C 
BRANCH   7   9
ATOM      9  C   UNL A   1      34.096  25.938  24.982  1.00  0.00     0.002 C 
ATOM     10  C   UNL A   1      33.545  24.921  25.976  1.00  0.00     0.004 C 
ENDBRANCH   7   9
ENDBRANCH   6   7
BRANCH   6  11
ATOM     11  N   UNL A   1      31.160  27.829  24.537  1.00  0.00    -0.342 N 
ATOM     12  C   UNL A   1      30.715  27.206  23.408  1.00  0.00     0.243 C 
ATOM     13  H   UNL A   1      30.809  28.740  24.668  1.00  0.00     0.164 HD
ATOM     14  O   UNL A   1      29.941  27.866  22.704  1.00  0.00    -0.273 OA
BRANCH  12  15
ATOM     15  C   UNL A   1      31.234  25.828  22.929  1.00  0.00     0.170 C 
ATOM     16  C   UNL A   1      30.426  24.681  23.528  1.00  0.00     0.041 C 
BRANCH  15  17
ATOM     17  N   UNL A   1      31.353  25.685  21.483  1.00  0.00    -0.327 N 
ATOM     18  C   UNL A   1      32.563  25.647  20.862  1.00  0.00     0.312 C 
ATOM     19  H   UNL A   1      30.534  25.614  20.942  1.00  0.00     0.166 HD
ATOM     20  N   UNL A   1      32.460  25.541  19.518  1.00  0.00    -0.352 N 
ATOM     21  O   UNL A   1      33.652  25.694  21.413  1.00  0.00    -0.249 OA
ATOM     22  H   UNL A   1      31.573  25.505  19.092  1.00  0.00     0.161 HD
ATOM     23  H   UNL A   1      33.274  25.501  18.963  1.00  0.00     0.161 HD
ENDBRANCH  15  17
ENDBRANCH  12  15
ENDBRANCH   6  11
ENDBRANCH   3   6
ENDBRANCH   1   2
BRANCH   1  24
ATOM     24  C   UNL A   1      31.747  31.837  26.661  1.00  0.00     0.042 C 
BRANCH  24  25
ATOM     25  C   UNL A   1      32.826  32.576  27.433  1.00  0.00     0.118 C 
BRANCH  25  26
ATOM     26  N   UNL A   1      32.504  33.983  27.666  1.00  0.00    -0.352 N 
ATOM     27  C   UNL A   1      33.011  34.879  28.576  1.00  0.00     0.251 C 
ATOM     28  H   UNL A   1      31.807  34.349  27.074  1.00  0.00     0.163 HD
ATOM     29  O   UNL A   1      32.469  35.968  28.733  1.00  0.00    -0.269 OA
BRANCH  27  30
ATOM     30  C   UNL A   1      34.188  34.516  29.389  1.00  0.00     0.039 A 
ATOM     31  C   UNL A   1      34.003  33.973  30.663  1.00  0.00     0.014 A 
ATOM     32  C   UNL A   1      35.476  34.678  28.877  1.00  0.00     0.014 A 
ATOM     33  C   UNL A   1      35.105  33.489  31.372  1.00  0.00     0.010 A 
ATOM     34  C   UNL A   1      36.550  34.089  29.526  1.00  0.00     0.010 A 
ATOM     35  C   UNL A   1      36.378  33.485  30.780  1.00  0.00    -0.014 A 
BRANCH  35  36
ATOM     36  C   UNL A   1      37.550  32.849  31.434  1.00  0.00     0.031 A 
ATOM     37  C   UNL A   1      38.228  31.679  30.776  1.00  0.00     0.074 A 
ATOM     38  C   UNL A   1      37.926  33.249  32.665  1.00  0.00     0.049 A 
ATOM     39  N   UNL A   1      39.165  30.894  31.243  1.00  0.00    -0.248 NA
ATOM     40  C   UNL A   1      37.762  31.315  29.427  1.00  0.00     0.031 C 
ATOM     41  C   UNL A   1      37.306  34.333  33.432  1.00  0.00     0.029 A 
ATOM     42  N   UNL A   1      38.907  32.777  33.501  1.00  0.00    -0.354 N 
ATOM     43  C   UNL A   1      39.373  29.931  30.265  1.00  0.00     0.074 A 
ATOM     44  C   UNL A   1      38.433  30.196  29.199  1.00  0.00     0.031 C 
ATOM     45  C   UNL A   1      37.931  34.452  34.613  1.00  0.00     0.029 A 
ATOM     46  C   UNL A   1      38.960  33.424  34.712  1.00  0.00     0.049 A 
ATOM     47  H   UNL A   1      39.514  32.042  33.256  1.00  0.00     0.167 HD
ATOM     48  C   UNL A   1      40.283  28.929  30.251  1.00  0.00     0.037 A 
ATOM     49  C   UNL A   1      39.737  33.198  35.789  1.00  0.00     0.037 A 
ATOM     50  C   UNL A   1      41.248  28.705  31.293  1.00  0.00     0.049 A 
ATOM     51  C   UNL A   1      40.742  32.077  35.740  1.00  0.00     0.074 A 
ATOM     52  C   UNL A   1      42.282  27.787  31.323  1.00  0.00     0.029 A 
ATOM     53  N   UNL A   1      41.292  29.403  32.490  1.00  0.00    -0.354 N 
ATOM     54  N   UNL A   1      41.000  31.237  34.767  1.00  0.00    -0.248 NA
ATOM     55  C   UNL A   1      41.565  31.871  36.941  1.00  0.00     0.031 C 
ATOM     56  C   UNL A   1      42.915  27.888  32.565  1.00  0.00     0.029 A 
ATOM     57  C   UNL A   1      42.313  28.908  33.284  1.00  0.00     0.049 A 
ATOM     58  H   UNL A   1      40.688  30.140  32.738  1.00  0.00     0.167 HD
ATOM     59  C   UNL A   1      42.027  30.425  35.226  1.00  0.00     0.074 A 
ATOM     60  C   UNL A   1      42.360  30.883  36.558  1.00  0.00     0.031 C 
ATOM     61  C   UNL A   1      42.637  29.388  34.602  1.00  0.00     0.037 A 
BRANCH  48  62
ATOM     62  C   UNL A   1      40.288  28.000  29.072  1.00  0.00     0.064 A 
ATOM     63  C   UNL A   1      39.548  26.808  29.064  1.00  0.00     0.173 A 
ATOM     64  C   UNL A   1      40.998  28.338  27.909  1.00  0.00     0.173 A 
ATOM     65  F   UNL A   1      38.861  26.433  30.154  1.00  0.00    -0.203 F 
ATOM     66  C   UNL A   1      39.535  25.980  27.946  1.00  0.00     0.198 A 
ATOM     67  C   UNL A   1      40.957  27.524  26.781  1.00  0.00     0.198 A 
ATOM     68  F   UNL A   1      41.719  29.468  27.861  1.00  0.00    -0.203 F 
ATOM     69  F   UNL A   1      38.855  24.825  27.977  1.00  0.00    -0.200 F 
ATOM     70  C   UNL A   1      40.231  26.342  26.802  1.00  0.00     0.200 A 
ATOM     71  F   UNL A   1      41.619  27.883  25.673  1.00  0.00    -0.200 F 
ATOM     72  F   UNL A   1      40.205  25.551  25.721  1.00  0.00    -0.200 F 
ENDBRANCH  48  62
BRANCH  49  73
ATOM     73  C   UNL A   1      39.603  34.044  37.005  1.00  0.00     0.064 A 
ATOM     74  C   UNL A   1      38.824  33.624  38.092  1.00  0.00     0.173 A 
ATOM     75  C   UNL A   1      40.223  35.299  37.097  1.00  0.00     0.173 A 
ATOM     76  F   UNL A   1      38.193  32.441  38.046  1.00  0.00    -0.203 F 
ATOM     77  C   UNL A   1      38.643  34.439  39.208  1.00  0.00     0.198 A 
ATOM     78  C   UNL A   1      40.070  36.099  38.228  1.00  0.00     0.198 A 
ATOM     79  F   UNL A   1      40.985  35.748  36.089  1.00  0.00    -0.203 F 
ATOM     80  F   UNL A   1      37.844  34.037  40.206  1.00  0.00    -0.200 F 
ATOM     81  C   UNL A   1      39.270  35.674  39.277  1.00  0.00     0.200 A 
ATOM     82  F   UNL A   1      40.690  37.284  38.299  1.00  0.00    -0.200 F 
ATOM     83  F   UNL A   1      39.094  36.457  40.350  1.00  0.00    -0.200 F 
ENDBRANCH  49  73
BRANCH  61  84
ATOM     84  C   UNL A   1      43.750  28.697  35.336  1.00  0.00     0.064 A 
ATOM     85  C   UNL A   1      45.090  29.068  35.156  1.00  0.00     0.173 A 
ATOM     86  C   UNL A   1      43.463  27.697  36.279  1.00  0.00     0.173 A 
ATOM     87  F   UNL A   1      45.416  30.007  34.255  1.00  0.00    -0.203 F 
ATOM     88  C   UNL A   1      46.106  28.450  35.880  1.00  0.00     0.198 A 
ATOM     89  C   UNL A   1      44.478  27.106  37.025  1.00  0.00     0.198 A 
ATOM     90  F   UNL A   1      42.196  27.313  36.494  1.00  0.00    -0.203 F 
ATOM     91  F   UNL A   1      47.383  28.790  35.662  1.00  0.00    -0.200 F 
ATOM     92  C   UNL A   1      45.798  27.478  36.821  1.00  0.00     0.200 A 
ATOM     93  F   UNL A   1      44.177  26.180  37.945  1.00  0.00    -0.200 F 
ATOM     94  F   UNL A   1      46.776  26.897  37.529  1.00  0.00    -0.200 F 
ENDBRANCH  61  84
ENDBRANCH  35  36
ENDBRANCH  27  30
ENDBRANCH  25  26
ENDBRANCH  24  25
ENDBRANCH   1  24
TORSDOF 15
ENDMDL
MODEL 2
REMARK VINA RESULT:     -11.9      6.264     11.454
REMARK SMILES CC[C@@H](C)[C@H](NC(=O)[C@@H](C)NC(N)=O)C(=O)NCCCNC(=O)c1ccc(-c2c3nc(c(-c4c(F)c(F)c(F)c(F)c4F)c4ccc([nH]4)c(-c4c(F)c(F)c(F)c(F)c4F)c4nc(c(-c5c(F)c(F)c(F)c(F)c5F)c5ccc2[nH]5)C=C4)C=C3)cc1
REMARK SMILES IDX 18 1 17 2 15 3 16 4 5 6 3 7 4 8 2 9 1 10 6 11 7 12 8 14 9 15
REMARK SMILES IDX 10 16 11 17 12 18 13 20 14 21 19 24 20 25 21 26 22 27 23 29
REMARK SMILES IDX 24 30 25 31 86 32 26 33 85 34 27 35 28 36 29 37 79 38 30 39
REMARK SMILES IDX 84 40 78 41 80 42 31 43 83 44 77 45 76 46 32 48 64 49 44 50
REMARK SMILES IDX 63 51 45 52 48 53 62 54 81 55 46 56 47 57 61 59 82 60 49 61
REMARK SMILES IDX 33 62 34 63 42 64 35 65 36 66 40 67 43 68 37 69 38 70 41 71
REMARK SMILES IDX 39 72 65 73 66 74 74 75 67 76 68 77 72 78 75 79 69 80 70 81
REMARK SMILES IDX 73 82 71 83 50 84 51 85 59 86 52 87 53 88 57 89 60 90 54 91
REMARK SMILES IDX 55 92 58 93 56 94
REMARK H PARENT 17 5 6 13 11 19 13 22 13 23 21 28 80 47 48 58
REMARK Flexibility Score: inf
ROOT
ATOM      1  C   UNL A   1      37.276  21.308  24.540  1.00  0.00     0.117 C 
ENDROOT
BRANCH   1   2
ATOM      2  N   UNL A   1      37.646  22.512  25.262  1.00  0.00    -0.354 N 
ATOM      3  C   UNL A   1      36.878  23.523  25.752  1.00  0.00     0.242 C 
ATOM      4  O   UNL A   1      37.455  24.438  26.352  1.00  0.00    -0.273 OA
ATOM      5  H   UNL A   1      38.612  22.615  25.422  1.00  0.00     0.163 HD
BRANCH   3   6
ATOM      6  C   UNL A   1      35.344  23.568  25.585  1.00  0.00     0.174 C 
BRANCH   6   7
ATOM      7  C   UNL A   1      34.780  24.869  24.931  1.00  0.00     0.018 C 
ATOM      8  C   UNL A   1      33.944  25.782  25.831  1.00  0.00     0.010 C 
BRANCH   7   9
ATOM      9  C   UNL A   1      34.022  24.533  23.624  1.00  0.00     0.002 C 
ATOM     10  C   UNL A   1      34.593  23.350  22.849  1.00  0.00     0.004 C 
ENDBRANCH   7   9
ENDBRANCH   6   7
BRANCH   6  11
ATOM     11  N   UNL A   1      34.686  23.167  26.824  1.00  0.00    -0.342 N 
ATOM     12  C   UNL A   1      33.522  22.486  27.035  1.00  0.00     0.243 C 
ATOM     13  H   UNL A   1      35.161  23.431  27.645  1.00  0.00     0.164 HD
ATOM     14  O   UNL A   1      33.221  22.300  28.220  1.00  0.00    -0.273 OA
BRANCH  12  15
ATOM     15  C   UNL A   1      32.545  22.089  25.902  1.00  0.00     0.170 C 
ATOM     16  C   UNL A   1      33.064  20.902  25.098  1.00  0.00     0.041 C 
BRANCH  15  17
ATOM     17  N   UNL A   1      31.167  21.871  26.328  1.00  0.00    -0.327 N 
ATOM     18  C   UNL A   1      30.367  22.896  26.727  1.00  0.00     0.312 C 
ATOM     19  H   UNL A   1      30.807  20.955  26.326  1.00  0.00     0.166 HD
ATOM     20  N   UNL A   1      29.137  22.485  27.111  1.00  0.00    -0.352 N 
ATOM     21  O   UNL A   1      30.675  24.078  26.748  1.00  0.00    -0.249 OA
ATOM     22  H   UNL A   1      28.908  21.528  27.086  1.00  0.00     0.161 HD
ATOM     23  H   UNL A   1      28.471  23.143  27.416  1.00  0.00     0.161 HD
ENDBRANCH  15  17
ENDBRANCH  12  15
ENDBRANCH   6  11
ENDBRANCH   3   6
ENDBRANCH   1   2
BRANCH   1  24
ATOM     24  C   UNL A   1      38.041  20.079  24.987  1.00  0.00     0.042 C 
BRANCH  24  25
ATOM     25  C   UNL A   1      39.302  20.407  25.768  1.00  0.00     0.118 C 
BRANCH  25  26
ATOM     26  N   UNL A   1      40.207  19.268  25.902  1.00  0.00    -0.352 N 
ATOM     27  C   UNL A   1      41.563  19.222  26.119  1.00  0.00     0.251 C 
ATOM     28  H   UNL A   1      39.774  18.387  25.823  1.00  0.00     0.163 HD
ATOM     29  O   UNL A   1      42.166  18.159  26.013  1.00  0.00    -0.269 OA
BRANCH  27  30
ATOM     30  C   UNL A   1      42.298  20.459  26.447  1.00  0.00     0.039 A 
ATOM     31  C   UNL A   1      42.917  21.182  25.424  1.00  0.00     0.014 A 
ATOM     32  C   UNL A   1      42.346  20.924  27.761  1.00  0.00     0.014 A 
ATOM     33  C   UNL A   1      43.483  22.428  25.705  1.00  0.00     0.010 A 
ATOM     34  C   UNL A   1      42.797  22.210  28.016  1.00  0.00     0.010 A 
ATOM     35  C   UNL A   1      43.368  22.980  26.992  1.00  0.00    -0.014 A 
BRANCH  35  36
ATOM     36  C   UNL A   1      43.822  24.359  27.301  1.00  0.00     0.031 A 
ATOM     37  C   UNL A   1      42.825  25.388  27.756  1.00  0.00     0.074 A 
ATOM     38  C   UNL A   1      45.101  24.709  27.062  1.00  0.00     0.049 A 
ATOM     39  N   UNL A   1      42.985  26.675  27.936  1.00  0.00    -0.248 NA
ATOM     40  C   UNL A   1      41.452  24.918  28.004  1.00  0.00     0.031 C 
ATOM     41  C   UNL A   1      46.148  23.815  26.561  1.00  0.00     0.029 A 
ATOM     42  N   UNL A   1      45.738  25.920  27.186  1.00  0.00    -0.354 N 
ATOM     43  C   UNL A   1      41.733  27.166  28.281  1.00  0.00     0.074 A 
ATOM     44  C   UNL A   1      40.812  26.053  28.239  1.00  0.00     0.031 C 
ATOM     45  C   UNL A   1      47.295  24.501  26.438  1.00  0.00     0.029 A 
ATOM     46  C   UNL A   1      47.057  25.893  26.801  1.00  0.00     0.049 A 
ATOM     47  H   UNL A   1      45.290  26.731  27.519  1.00  0.00     0.167 HD
ATOM     48  C   UNL A   1      41.391  28.429  28.624  1.00  0.00     0.037 A 
ATOM     49  C   UNL A   1      47.964  26.886  26.727  1.00  0.00     0.037 A 
ATOM     50  C   UNL A   1      42.324  29.520  28.712  1.00  0.00     0.049 A 
ATOM     51  C   UNL A   1      47.552  28.281  27.118  1.00  0.00     0.074 A 
ATOM     52  C   UNL A   1      42.099  30.811  29.155  1.00  0.00     0.029 A 
ATOM     53  N   UNL A   1      43.660  29.446  28.346  1.00  0.00    -0.354 N 
ATOM     54  N   UNL A   1      46.390  28.713  27.542  1.00  0.00    -0.248 NA
ATOM     55  C   UNL A   1      48.579  29.328  27.019  1.00  0.00     0.031 C 
ATOM     56  C   UNL A   1      43.284  31.535  28.999  1.00  0.00     0.029 A 
ATOM     57  C   UNL A   1      44.262  30.681  28.515  1.00  0.00     0.049 A 
ATOM     58  H   UNL A   1      44.112  28.636  28.015  1.00  0.00     0.167 HD
ATOM     59  C   UNL A   1      46.552  30.070  27.785  1.00  0.00     0.074 A 
ATOM     60  C   UNL A   1      47.931  30.387  27.479  1.00  0.00     0.031 C 
ATOM     61  C   UNL A   1      45.640  30.974  28.218  1.00  0.00     0.037 A 
BRANCH  48  62
ATOM     62  C   UNL A   1      39.949  28.708  28.936  1.00  0.00     0.064 A 
ATOM     63  C   UNL A   1      39.049  29.144  27.952  1.00  0.00     0.173 A 
ATOM     64  C   UNL A   1      39.448  28.477  30.227  1.00  0.00     0.173 A 
ATOM     65  F   UNL A   1      39.478  29.391  26.705  1.00  0.00    -0.203 F 
ATOM     66  C   UNL A   1      37.707  29.359  28.254  1.00  0.00     0.198 A 
ATOM     67  C   UNL A   1      38.100  28.661  30.517  1.00  0.00     0.198 A 
ATOM     68  F   UNL A   1      40.265  28.056  31.203  1.00  0.00    -0.203 F 
ATOM     69  F   UNL A   1      36.875  29.816  27.308  1.00  0.00    -0.200 F 
ATOM     70  C   UNL A   1      37.231  29.109  29.533  1.00  0.00     0.200 A 
ATOM     71  F   UNL A   1      37.640  28.406  31.749  1.00  0.00    -0.200 F 
ATOM     72  F   UNL A   1      35.936  29.301  29.817  1.00  0.00    -0.200 F 
ENDBRANCH  48  62
BRANCH  49  73
ATOM     73  C   UNL A   1      49.351  26.605  26.267  1.00  0.00     0.064 A 
ATOM     74  C   UNL A   1      50.330  26.157  27.165  1.00  0.00     0.173 A 
ATOM     75  C   UNL A   1      49.736  26.805  24.933  1.00  0.00     0.173 A 
ATOM     76  F   UNL A   1      50.019  25.969  28.456  1.00  0.00    -0.203 F 
ATOM     77  C   UNL A   1      51.646  25.951  26.754  1.00  0.00     0.198 A 
ATOM     78  C   UNL A   1      51.044  26.566  24.516  1.00  0.00     0.198 A 
ATOM     79  F   UNL A   1      48.838  27.228  24.031  1.00  0.00    -0.203 F 
ATOM     80  F   UNL A   1      52.574  25.581  27.647  1.00  0.00    -0.200 F 
ATOM     81  C   UNL A   1      52.001  26.152  25.429  1.00  0.00     0.200 A 
ATOM     82  F   UNL A   1      51.379  26.746  23.231  1.00  0.00    -0.200 F 
ATOM     83  F   UNL A   1      53.267  25.956  25.035  1.00  0.00    -0.200 F 
ENDBRANCH  49  73
BRANCH  61  84
ATOM     84  C   UNL A   1      46.107  32.386  28.419  1.00  0.00     0.064 A 
ATOM     85  C   UNL A   1      46.691  32.801  29.625  1.00  0.00     0.173 A 
ATOM     86  C   UNL A   1      46.028  33.315  27.370  1.00  0.00     0.173 A 
ATOM     87  F   UNL A   1      46.774  31.954  30.662  1.00  0.00    -0.203 F 
ATOM     88  C   UNL A   1      47.163  34.102  29.778  1.00  0.00     0.198 A 
ATOM     89  C   UNL A   1      46.532  34.604  27.517  1.00  0.00     0.198 A 
ATOM     90  F   UNL A   1      45.486  32.964  26.194  1.00  0.00    -0.203 F 
ATOM     91  F   UNL A   1      47.679  34.490  30.953  1.00  0.00    -0.200 F 
ATOM     92  C   UNL A   1      47.093  34.998  28.722  1.00  0.00     0.200 A 
ATOM     93  F   UNL A   1      46.479  35.462  26.489  1.00  0.00    -0.200 F 
ATOM     94  F   UNL A   1      47.564  36.244  28.867  1.00  0.00    -0.200 F 
ENDBRANCH  61  84
ENDBRANCH  35  36
ENDBRANCH  27  30
ENDBRANCH  25  26
ENDBRANCH  24  25
ENDBRANCH   1  24
TORSDOF 15
ENDMDL
MODEL 3
REMARK VINA RESULT:     -11.9      0.655      7.467
REMARK SMILES CC[C@@H](C)[C@H](NC(=O)[C@@H](C)NC(N)=O)C(=O)NCCCNC(=O)c1ccc(-c2c3nc(c(-c4c(F)c(F)c(F)c(F)c4F)c4ccc([nH]4)c(-c4c(F)c(F)c(F)c(F)c4F)c4nc(c(-c5c(F)c(F)c(F)c(F)c5F)c5ccc2[nH]5)C=C4)C=C3)cc1
REMARK SMILES IDX 18 1 17 2 15 3 16 4 5 6 3 7 4 8 2 9 1 10 6 11 7 12 8 14 9 15
REMARK SMILES IDX 10 16 11 17 12 18 13 20 14 21 19 24 20 25 21 26 22 27 23 29
REMARK SMILES IDX 24 30 25 31 86 32 26 33 85 34 27 35 28 36 29 37 79 38 30 39
REMARK SMILES IDX 84 40 78 41 80 42 31 43 83 44 77 45 76 46 32 48 64 49 44 50
REMARK SMILES IDX 63 51 45 52 48 53 62 54 81 55 46 56 47 57 61 59 82 60 49 61
REMARK SMILES IDX 33 62 34 63 42 64 35 65 36 66 40 67 43 68 37 69 38 70 41 71
REMARK SMILES IDX 39 72 65 73 66 74 74 75 67 76 68 77 72 78 75 79 69 80 70 81
REMARK SMILES IDX 73 82 71 83 50 84 51 85 59 86 52 87 53 88 57 89 60 90 54 91
REMARK SMILES IDX 55 92 58 93 56 94
REMARK H PARENT 17 5 6 13 11 19 13 22 13 23 21 28 80 47 48 58
REMARK Flexibility Score: inf
ROOT
ATOM      1  C   UNL A   1      31.777  30.680  26.064  1.00  0.00     0.117 C 
ENDROOT
BRANCH   1   2
ATOM      2  N   UNL A   1      31.529  29.629  27.035  1.00  0.00    -0.354 N 
ATOM      3  C   UNL A   1      31.622  28.277  26.919  1.00  0.00     0.242 C 
ATOM      4  O   UNL A   1      31.367  27.599  27.923  1.00  0.00    -0.273 OA
ATOM      5  H   UNL A   1      31.246  29.948  27.922  1.00  0.00     0.163 HD
BRANCH   3   6
ATOM      6  C   UNL A   1      32.023  27.572  25.605  1.00  0.00     0.174 C 
BRANCH   6   7
ATOM      7  C   UNL A   1      33.546  27.613  25.263  1.00  0.00     0.018 C 
ATOM      8  C   UNL A   1      33.955  28.463  24.058  1.00  0.00     0.010 C 
BRANCH   7   9
ATOM      9  C   UNL A   1      34.112  26.177  25.147  1.00  0.00     0.002 C 
ATOM     10  C   UNL A   1      33.392  25.143  26.004  1.00  0.00     0.004 C 
ENDBRANCH   7   9
ENDBRANCH   6   7
BRANCH   6  11
ATOM     11  N   UNL A   1      31.137  27.979  24.520  1.00  0.00    -0.342 N 
ATOM     12  C   UNL A   1      30.705  27.298  23.419  1.00  0.00     0.243 C 
ATOM     13  H   UNL A   1      30.792  28.899  24.594  1.00  0.00     0.164 HD
ATOM     14  O   UNL A   1      29.950  27.925  22.666  1.00  0.00    -0.273 OA
BRANCH  12  15
ATOM     15  C   UNL A   1      31.219  25.891  23.027  1.00  0.00     0.170 C 
ATOM     16  C   UNL A   1      30.403  24.786  23.689  1.00  0.00     0.041 C 
BRANCH  15  17
ATOM     17  N   UNL A   1      31.345  25.662  21.592  1.00  0.00    -0.327 N 
ATOM     18  C   UNL A   1      32.534  25.797  20.944  1.00  0.00     0.312 C 
ATOM     19  H   UNL A   1      30.547  25.401  21.079  1.00  0.00     0.166 HD
ATOM     20  N   UNL A   1      32.436  25.571  19.614  1.00  0.00    -0.352 N 
ATOM     21  O   UNL A   1      33.602  26.083  21.461  1.00  0.00    -0.249 OA
ATOM     22  H   UNL A   1      31.565  25.340  19.216  1.00  0.00     0.161 HD
ATOM     23  H   UNL A   1      33.236  25.636  19.043  1.00  0.00     0.161 HD
ENDBRANCH  15  17
ENDBRANCH  12  15
ENDBRANCH   6  11
ENDBRANCH   3   6
ENDBRANCH   1   2
BRANCH   1  24
ATOM     24  C   UNL A   1      31.489  32.069  26.594  1.00  0.00     0.042 C 
BRANCH  24  25
ATOM     25  C   UNL A   1      32.699  32.732  27.231  1.00  0.00     0.118 C 
BRANCH  25  26
ATOM     26  N   UNL A   1      32.462  34.127  27.597  1.00  0.00    -0.352 N 
ATOM     27  C   UNL A   1      33.005  34.895  28.600  1.00  0.00     0.251 C 
ATOM     28  H   UNL A   1      31.804  34.595  27.033  1.00  0.00     0.163 HD
ATOM     29  O   UNL A   1      32.531  35.997  28.855  1.00  0.00    -0.269 OA
BRANCH  27  30
ATOM     30  C   UNL A   1      34.138  34.377  29.391  1.00  0.00     0.039 A 
ATOM     31  C   UNL A   1      33.891  33.738  30.609  1.00  0.00     0.014 A 
ATOM     32  C   UNL A   1      35.443  34.490  28.912  1.00  0.00     0.014 A 
ATOM     33  C   UNL A   1      34.942  33.115  31.286  1.00  0.00     0.010 A 
ATOM     34  C   UNL A   1      36.461  33.770  29.519  1.00  0.00     0.010 A 
ATOM     35  C   UNL A   1      36.223  33.070  30.712  1.00  0.00    -0.014 A 
BRANCH  35  36
ATOM     36  C   UNL A   1      37.334  32.296  31.320  1.00  0.00     0.031 A 
ATOM     37  C   UNL A   1      37.861  32.685  32.674  1.00  0.00     0.074 A 
ATOM     38  C   UNL A   1      37.939  31.325  30.608  1.00  0.00     0.049 A 
ATOM     39  N   UNL A   1      38.911  32.238  33.314  1.00  0.00    -0.248 NA
ATOM     40  C   UNL A   1      37.134  33.748  33.388  1.00  0.00     0.031 C 
ATOM     41  C   UNL A   1      37.558  30.898  29.259  1.00  0.00     0.029 A 
ATOM     42  N   UNL A   1      39.019  30.533  30.909  1.00  0.00    -0.354 N 
ATOM     43  C   UNL A   1      38.987  32.986  34.482  1.00  0.00     0.074 A 
ATOM     44  C   UNL A   1      37.910  33.949  34.442  1.00  0.00     0.031 C 
ATOM     45  C   UNL A   1      38.378  29.914  28.858  1.00  0.00     0.029 A 
ATOM     46  C   UNL A   1      39.374  29.674  29.896  1.00  0.00     0.049 A 
ATOM     47  H   UNL A   1      39.497  30.577  31.768  1.00  0.00     0.167 HD
ATOM     48  C   UNL A   1      39.866  32.864  35.503  1.00  0.00     0.037 A 
ATOM     49  C   UNL A   1      40.401  28.806  29.807  1.00  0.00     0.037 A 
ATOM     50  C   UNL A   1      40.903  31.869  35.557  1.00  0.00     0.049 A 
ATOM     51  C   UNL A   1      41.360  28.691  30.963  1.00  0.00     0.074 A 
ATOM     52  C   UNL A   1      41.774  31.590  36.594  1.00  0.00     0.029 A 
ATOM     53  N   UNL A   1      41.210  30.994  34.525  1.00  0.00    -0.354 N 
ATOM     54  N   UNL A   1      41.360  29.333  32.106  1.00  0.00    -0.248 NA
ATOM     55  C   UNL A   1      42.464  27.731  30.816  1.00  0.00     0.031 C 
ATOM     56  C   UNL A   1      42.650  30.587  36.168  1.00  0.00     0.029 A 
ATOM     57  C   UNL A   1      42.286  30.200  34.888  1.00  0.00     0.049 A 
ATOM     58  H   UNL A   1      40.734  30.944  33.664  1.00  0.00     0.167 HD
ATOM     59  C   UNL A   1      42.441  28.837  32.822  1.00  0.00     0.074 A 
ATOM     60  C   UNL A   1      43.064  27.827  31.992  1.00  0.00     0.031 C 
ATOM     61  C   UNL A   1      42.882  29.191  34.053  1.00  0.00     0.037 A 
BRANCH  48  62
ATOM     62  C   UNL A   1      39.747  33.821  36.653  1.00  0.00     0.064 A 
ATOM     63  C   UNL A   1      38.948  33.540  37.772  1.00  0.00     0.173 A 
ATOM     64  C   UNL A   1      40.492  35.011  36.662  1.00  0.00     0.173 A 
ATOM     65  F   UNL A   1      38.207  32.422  37.809  1.00  0.00    -0.203 F 
ATOM     66  C   UNL A   1      38.882  34.424  38.845  1.00  0.00     0.198 A 
ATOM     67  C   UNL A   1      40.449  35.876  37.752  1.00  0.00     0.198 A 
ATOM     68  F   UNL A   1      41.275  35.326  35.620  1.00  0.00    -0.203 F 
ATOM     69  F   UNL A   1      38.079  34.154  39.884  1.00  0.00    -0.200 F 
ATOM     70  C   UNL A   1      39.640  35.586  38.839  1.00  0.00     0.200 A 
ATOM     71  F   UNL A   1      41.193  36.991  37.750  1.00  0.00    -0.200 F 
ATOM     72  F   UNL A   1      39.587  36.427  39.881  1.00  0.00    -0.200 F 
ENDBRANCH  48  62
BRANCH  49  73
ATOM     73  C   UNL A   1      40.581  27.976  28.586  1.00  0.00     0.064 A 
ATOM     74  C   UNL A   1      39.989  26.709  28.483  1.00  0.00     0.173 A 
ATOM     75  C   UNL A   1      41.368  28.413  27.511  1.00  0.00     0.173 A 
ATOM     76  F   UNL A   1      39.243  26.235  29.492  1.00  0.00    -0.203 F 
ATOM     77  C   UNL A   1      40.204  25.900  27.369  1.00  0.00     0.198 A 
ATOM     78  C   UNL A   1      41.555  27.618  26.382  1.00  0.00     0.198 A 
ATOM     79  F   UNL A   1      41.954  29.620  27.554  1.00  0.00    -0.203 F 
ATOM     80  F   UNL A   1      39.675  24.670  27.325  1.00  0.00    -0.200 F 
ATOM     81  C   UNL A   1      40.984  26.357  26.317  1.00  0.00     0.200 A 
ATOM     82  F   UNL A   1      42.296  28.069  25.361  1.00  0.00    -0.200 F 
ATOM     83  F   UNL A   1      41.192  25.578  25.247  1.00  0.00    -0.200 F 
ENDBRANCH  49  73
BRANCH  61  84
ATOM     84  C   UNL A   1      44.076  28.459  34.597  1.00  0.00     0.064 A 
ATOM     85  C   UNL A   1      43.942  27.245  35.286  1.00  0.00     0.173 A 
ATOM     86  C   UNL A   1      45.371  28.948  34.366  1.00  0.00     0.173 A 
ATOM     87  F   UNL A   1      42.724  26.746  35.544  1.00  0.00    -0.203 F 
ATOM     88  C   UNL A   1      45.062  26.556  35.741  1.00  0.00     0.198 A 
ATOM     89  C   UNL A   1      46.489  28.239  34.794  1.00  0.00     0.198 A 
ATOM     90  F   UNL A   1      45.552  30.101  33.704  1.00  0.00    -0.203 F 
ATOM     91  F   UNL A   1      44.911  25.419  36.434  1.00  0.00    -0.200 F 
ATOM     92  C   UNL A   1      46.334  27.047  35.485  1.00  0.00     0.200 A 
ATOM     93  F   UNL A   1      47.717  28.706  34.531  1.00  0.00    -0.200 F 
ATOM     94  F   UNL A   1      47.411  26.372  35.910  1.00  0.00    -0.200 F 
ENDBRANCH  61  84
ENDBRANCH  35  36
ENDBRANCH  27  30
ENDBRANCH  25  26
ENDBRANCH  24  25
ENDBRANCH   1  24
TORSDOF 15
ENDMDL
