MODEL 1
REMARK VINA RESULT:     -13.2      0.000      0.000
REMARK SMILES COc1ccc([C@@H](CC(=O)NCCCNC(=O)c2ccc(-c3c4nc(c(-c5c(F)c(F)c(F)c(F)c5F)c5ccc([nH]5)c(-c5c(F)c(F)c(F)c(F)c5F)c5nc(c(-c6c(F)c(F)c(F)c(F)c6F)c6ccc3[nH]6)C=C5)C=C4)cc2)NC(=O)c2ccc(Cl)c([N+](=O)[O-])c2)cc1
REMARK SMILES IDX 12 1 11 2 9 3 10 4 8 6 7 7 6 8 3 9 4 10 95 11 5 12 94 13
REMARK SMILES IDX 2 14 1 15 81 16 82 17 83 19 84 20 85 21 93 22 86 23 89 24
REMARK SMILES IDX 87 25 88 26 90 27 91 28 92 29 13 30 14 31 15 32 16 33 17 35
REMARK SMILES IDX 18 36 19 37 80 38 20 39 79 40 21 41 22 42 23 43 73 44 24 45
REMARK SMILES IDX 78 46 72 47 74 48 25 49 77 50 71 51 70 52 26 54 58 55 38 56
REMARK SMILES IDX 57 57 39 58 42 59 56 60 75 61 40 62 41 63 55 65 76 66 43 67
REMARK SMILES IDX 27 68 28 69 36 70 29 71 30 72 34 73 37 74 31 75 32 76 35 77
REMARK SMILES IDX 33 78 59 79 60 80 68 81 61 82 62 83 66 84 69 85 63 86 64 87
REMARK SMILES IDX 67 88 65 89 44 90 45 91 53 92 46 93 47 94 51 95 54 96 48 97
REMARK SMILES IDX 49 98 52 99 50 100
REMARK H PARENT 11 5 81 18 15 34 74 53 42 64
REMARK Flexibility Score: inf
ROOT
ATOM      1  C   UNL A   1      33.277  30.288  26.633  1.00  0.00     0.117 C 
ENDROOT
BRANCH   1   2
ATOM      2  N   UNL A   1      32.428  29.481  27.497  1.00  0.00    -0.356 N 
ATOM      3  C   UNL A   1      32.042  28.181  27.374  1.00  0.00     0.222 C 
ATOM      4  O   UNL A   1      31.058  27.811  28.018  1.00  0.00    -0.275 OA
ATOM      5  H   UNL A   1      32.080  29.946  28.292  1.00  0.00     0.163 HD
BRANCH   3   6
ATOM      6  C   UNL A   1      32.822  27.199  26.526  1.00  0.00     0.129 C 
BRANCH   6   7
ATOM      7  C   UNL A   1      31.960  26.193  25.738  1.00  0.00     0.122 C 
BRANCH   7   8
ATOM      8  C   UNL A   1      31.234  26.835  24.564  1.00  0.00    -0.025 A 
ATOM      9  C   UNL A   1      29.932  28.369  22.608  1.00  0.00     0.118 A 
ATOM     10  C   UNL A   1      29.209  27.454  23.367  1.00  0.00     0.047 A 
ATOM     11  C   UNL A   1      31.312  28.473  22.753  1.00  0.00     0.047 A 
ATOM     12  C   UNL A   1      29.859  26.678  24.334  1.00  0.00     0.010 A 
ATOM     13  C   UNL A   1      31.960  27.697  23.716  1.00  0.00     0.010 A 
BRANCH   9  14
ATOM     14  O   UNL A   1      29.244  29.299  21.880  1.00  0.00    -0.497 OA
ATOM     15  C   UNL A   1      27.991  29.609  22.478  1.00  0.00     0.278 C 
ENDBRANCH   9  14
ENDBRANCH   7   8
BRANCH   7  16
ATOM     16  N   UNL A   1      31.085  25.404  26.607  1.00  0.00    -0.345 N 
ATOM     17  C   UNL A   1      30.975  24.044  26.741  1.00  0.00     0.252 C 
ATOM     18  H   UNL A   1      30.485  25.930  27.184  1.00  0.00     0.164 HD
ATOM     19  O   UNL A   1      30.015  23.533  27.303  1.00  0.00    -0.269 OA
BRANCH  17  20
ATOM     20  C   UNL A   1      32.040  23.175  26.203  1.00  0.00     0.046 A 
ATOM     21  C   UNL A   1      33.377  23.525  26.399  1.00  0.00     0.016 A 
ATOM     22  C   UNL A   1      31.708  22.021  25.493  1.00  0.00     0.101 A 
ATOM     23  C   UNL A   1      34.392  22.670  25.952  1.00  0.00     0.028 A 
ATOM     24  C   UNL A   1      32.733  21.163  25.075  1.00  0.00     0.288 A 
ATOM     25  C   UNL A   1      34.076  21.467  25.309  1.00  0.00     0.118 A 
ATOM     26  Cl  UNL A   1      35.384  20.415  24.911  1.00  0.00    -0.077 Cl
BRANCH  24  27
ATOM     27  N   UNL A   1      32.334  19.910  24.465  1.00  0.00     0.064 N 
ATOM     28  O   UNL A   1      32.037  18.970  25.211  1.00  0.00    -0.258 OA
ATOM     29  O   UNL A   1      32.377  19.862  23.227  1.00  0.00    -0.258 OA
ENDBRANCH  24  27
ENDBRANCH  17  20
ENDBRANCH   7  16
ENDBRANCH   6   7
ENDBRANCH   3   6
ENDBRANCH   1   2
BRANCH   1  30
ATOM     30  C   UNL A   1      33.376  31.715  27.168  1.00  0.00     0.042 C 
BRANCH  30  31
ATOM     31  C   UNL A   1      32.053  32.465  27.257  1.00  0.00     0.118 C 
BRANCH  31  32
ATOM     32  N   UNL A   1      32.244  33.879  27.526  1.00  0.00    -0.352 N 
ATOM     33  C   UNL A   1      33.076  34.549  28.390  1.00  0.00     0.251 C 
ATOM     34  H   UNL A   1      31.668  34.469  26.988  1.00  0.00     0.163 HD
ATOM     35  O   UNL A   1      32.850  35.745  28.582  1.00  0.00    -0.269 OA
BRANCH  33  36
ATOM     36  C   UNL A   1      34.221  33.918  29.104  1.00  0.00     0.039 A 
ATOM     37  C   UNL A   1      35.515  34.255  28.679  1.00  0.00     0.014 A 
ATOM     38  C   UNL A   1      34.082  32.921  30.073  1.00  0.00     0.014 A 
ATOM     39  C   UNL A   1      36.643  33.635  29.232  1.00  0.00     0.010 A 
ATOM     40  C   UNL A   1      35.212  32.349  30.679  1.00  0.00     0.010 A 
ATOM     41  C   UNL A   1      36.506  32.691  30.260  1.00  0.00    -0.014 A 
BRANCH  41  42
ATOM     42  C   UNL A   1      37.701  32.068  30.902  1.00  0.00     0.031 A 
ATOM     43  C   UNL A   1      38.498  31.004  30.194  1.00  0.00     0.074 A 
ATOM     44  C   UNL A   1      38.056  32.429  32.151  1.00  0.00     0.049 A 
ATOM     45  N   UNL A   1      39.512  30.299  30.633  1.00  0.00    -0.248 NA
ATOM     46  C   UNL A   1      38.097  30.682  28.817  1.00  0.00     0.031 C 
ATOM     47  C   UNL A   1      37.370  33.434  32.957  1.00  0.00     0.029 A 
ATOM     48  N   UNL A   1      39.069  31.983  32.967  1.00  0.00    -0.354 N 
ATOM     49  C   UNL A   1      39.862  29.445  29.596  1.00  0.00     0.074 A 
ATOM     50  C   UNL A   1      38.928  29.693  28.517  1.00  0.00     0.031 C 
ATOM     51  C   UNL A   1      37.982  33.540  34.148  1.00  0.00     0.029 A 
ATOM     52  C   UNL A   1      39.075  32.573  34.208  1.00  0.00     0.049 A 
ATOM     53  H   UNL A   1      39.728  31.307  32.689  1.00  0.00     0.167 HD
ATOM     54  C   UNL A   1      40.876  28.548  29.541  1.00  0.00     0.037 A 
ATOM     55  C   UNL A   1      39.852  32.348  35.286  1.00  0.00     0.037 A 
ATOM     56  C   UNL A   1      41.825  28.314  30.601  1.00  0.00     0.049 A 
ATOM     57  C   UNL A   1      40.934  31.307  35.218  1.00  0.00     0.074 A 
ATOM     58  C   UNL A   1      42.931  27.479  30.600  1.00  0.00     0.029 A 
ATOM     59  N   UNL A   1      41.776  28.907  31.852  1.00  0.00    -0.354 N 
ATOM     60  N   UNL A   1      41.285  30.546  34.212  1.00  0.00    -0.248 NA
ATOM     61  C   UNL A   1      41.725  31.091  36.439  1.00  0.00     0.031 C 
ATOM     62  C   UNL A   1      43.521  27.531  31.867  1.00  0.00     0.029 A 
ATOM     63  C   UNL A   1      42.810  28.429  32.644  1.00  0.00     0.049 A 
ATOM     64  H   UNL A   1      41.106  29.571  32.137  1.00  0.00     0.167 HD
ATOM     65  C   UNL A   1      42.342  29.773  34.670  1.00  0.00     0.074 A 
ATOM     66  C   UNL A   1      42.590  30.168  36.040  1.00  0.00     0.031 C 
ATOM     67  C   UNL A   1      43.044  28.818  34.010  1.00  0.00     0.037 A 
BRANCH  54  68
ATOM     68  C   UNL A   1      41.021  27.738  28.286  1.00  0.00     0.064 A 
ATOM     69  C   UNL A   1      41.826  28.169  27.222  1.00  0.00     0.173 A 
ATOM     70  C   UNL A   1      40.395  26.487  28.170  1.00  0.00     0.173 A 
ATOM     71  F   UNL A   1      42.442  29.360  27.282  1.00  0.00    -0.203 F 
ATOM     72  C   UNL A   1      41.980  27.391  26.078  1.00  0.00     0.198 A 
ATOM     73  C   UNL A   1      40.571  25.700  27.035  1.00  0.00     0.198 A 
ATOM     74  F   UNL A   1      39.623  26.023  29.164  1.00  0.00    -0.203 F 
ATOM     75  F   UNL A   1      42.725  27.840  25.058  1.00  0.00    -0.200 F 
ATOM     76  C   UNL A   1      41.358  26.154  25.988  1.00  0.00     0.200 A 
ATOM     77  F   UNL A   1      39.980  24.500  26.956  1.00  0.00    -0.200 F 
ATOM     78  F   UNL A   1      41.514  25.402  24.889  1.00  0.00    -0.200 F 
ENDBRANCH  54  68
BRANCH  55  79
ATOM     79  C   UNL A   1      39.622  33.119  36.535  1.00  0.00     0.064 A 
ATOM     80  C   UNL A   1      38.704  32.676  37.497  1.00  0.00     0.173 A 
ATOM     81  C   UNL A   1      40.314  34.312  36.792  1.00  0.00     0.173 A 
ATOM     82  F   UNL A   1      38.001  31.554  37.284  1.00  0.00    -0.203 F 
ATOM     83  C   UNL A   1      38.477  33.404  38.663  1.00  0.00     0.198 A 
ATOM     84  C   UNL A   1      40.107  35.024  37.970  1.00  0.00     0.198 A 
ATOM     85  F   UNL A   1      41.204  34.777  35.903  1.00  0.00    -0.203 F 
ATOM     86  F   UNL A   1      37.569  32.978  39.550  1.00  0.00    -0.200 F 
ATOM     87  C   UNL A   1      39.184  34.574  38.902  1.00  0.00     0.200 A 
ATOM     88  F   UNL A   1      40.803  36.146  38.204  1.00  0.00    -0.200 F 
ATOM     89  F   UNL A   1      38.973  35.268  40.028  1.00  0.00    -0.200 F 
ENDBRANCH  55  79
BRANCH  67  90
ATOM     90  C   UNL A   1      44.150  28.135  34.760  1.00  0.00     0.064 A 
ATOM     91  C   UNL A   1      45.441  28.681  34.813  1.00  0.00     0.173 A 
ATOM     92  C   UNL A   1      43.910  26.944  35.459  1.00  0.00     0.173 A 
ATOM     93  F   UNL A   1      45.725  29.808  34.144  1.00  0.00    -0.203 F 
ATOM     94  C   UNL A   1      46.456  28.049  35.527  1.00  0.00     0.198 A 
ATOM     95  C   UNL A   1      44.920  26.328  36.193  1.00  0.00     0.198 A 
ATOM     96  F   UNL A   1      42.692  26.381  35.441  1.00  0.00    -0.203 F 
ATOM     97  F   UNL A   1      47.692  28.567  35.532  1.00  0.00    -0.200 F 
ATOM     98  C   UNL A   1      46.193  26.878  36.222  1.00  0.00     0.200 A 
ATOM     99  F   UNL A   1      44.663  25.200  36.871  1.00  0.00    -0.200 F 
ATOM    100  F   UNL A   1      47.169  26.274  36.914  1.00  0.00    -0.200 F 
ENDBRANCH  67  90
ENDBRANCH  41  42
ENDBRANCH  33  36
ENDBRANCH  31  32
ENDBRANCH  30  31
ENDBRANCH   1  30
TORSDOF 16
ENDMDL
MODEL 2
REMARK VINA RESULT:     -13.0      0.486      1.662
REMARK SMILES COc1ccc([C@@H](CC(=O)NCCCNC(=O)c2ccc(-c3c4nc(c(-c5c(F)c(F)c(F)c(F)c5F)c5ccc([nH]5)c(-c5c(F)c(F)c(F)c(F)c5F)c5nc(c(-c6c(F)c(F)c(F)c(F)c6F)c6ccc3[nH]6)C=C5)C=C4)cc2)NC(=O)c2ccc(Cl)c([N+](=O)[O-])c2)cc1
REMARK SMILES IDX 12 1 11 2 9 3 10 4 8 6 7 7 6 8 3 9 4 10 95 11 5 12 94 13
REMARK SMILES IDX 2 14 1 15 81 16 82 17 83 19 84 20 85 21 93 22 86 23 89 24
REMARK SMILES IDX 87 25 88 26 90 27 91 28 92 29 13 30 14 31 15 32 16 33 17 35
REMARK SMILES IDX 18 36 19 37 80 38 20 39 79 40 21 41 22 42 23 43 73 44 24 45
REMARK SMILES IDX 78 46 72 47 74 48 25 49 77 50 71 51 70 52 26 54 58 55 38 56
REMARK SMILES IDX 57 57 39 58 42 59 56 60 75 61 40 62 41 63 55 65 76 66 43 67
REMARK SMILES IDX 27 68 28 69 36 70 29 71 30 72 34 73 37 74 31 75 32 76 35 77
REMARK SMILES IDX 33 78 59 79 60 80 68 81 61 82 62 83 66 84 69 85 63 86 64 87
REMARK SMILES IDX 67 88 65 89 44 90 45 91 53 92 46 93 47 94 51 95 54 96 48 97
REMARK SMILES IDX 49 98 52 99 50 100
REMARK H PARENT 11 5 81 18 15 34 74 53 42 64
REMARK Flexibility Score: inf
ROOT
ATOM      1  C   UNL A   1      33.346  30.311  26.688  1.00  0.00     0.117 C 
ENDROOT
BRANCH   1   2
ATOM      2  N   UNL A   1      32.461  29.526  27.538  1.00  0.00    -0.356 N 
ATOM      3  C   UNL A   1      32.039  28.238  27.404  1.00  0.00     0.222 C 
ATOM      4  O   UNL A   1      31.036  27.895  28.033  1.00  0.00    -0.275 OA
ATOM      5  H   UNL A   1      32.116  29.999  28.330  1.00  0.00     0.163 HD
BRANCH   3   6
ATOM      6  C   UNL A   1      32.801  27.237  26.563  1.00  0.00     0.129 C 
BRANCH   6   7
ATOM      7  C   UNL A   1      31.921  26.248  25.773  1.00  0.00     0.122 C 
BRANCH   7   8
ATOM      8  C   UNL A   1      31.251  26.892  24.568  1.00  0.00    -0.025 A 
ATOM      9  C   UNL A   1      30.043  28.428  22.554  1.00  0.00     0.118 A 
ATOM     10  C   UNL A   1      29.284  27.512  23.277  1.00  0.00     0.047 A 
ATOM     11  C   UNL A   1      31.414  28.531  22.765  1.00  0.00     0.047 A 
ATOM     12  C   UNL A   1      29.888  26.735  24.274  1.00  0.00     0.010 A 
ATOM     13  C   UNL A   1      32.016  27.754  23.755  1.00  0.00     0.010 A 
BRANCH   9  14
ATOM     14  O   UNL A   1      29.390  29.360  21.796  1.00  0.00    -0.497 OA
ATOM     15  C   UNL A   1      28.181  29.782  22.414  1.00  0.00     0.278 C 
ENDBRANCH   9  14
ENDBRANCH   7   8
BRANCH   7  16
ATOM     16  N   UNL A   1      30.994  25.513  26.636  1.00  0.00    -0.345 N 
ATOM     17  C   UNL A   1      30.788  24.162  26.754  1.00  0.00     0.252 C 
ATOM     18  H   UNL A   1      30.434  26.073  27.220  1.00  0.00     0.164 HD
ATOM     19  O   UNL A   1      29.795  23.713  27.313  1.00  0.00    -0.269 OA
BRANCH  17  20
ATOM     20  C   UNL A   1      31.787  23.227  26.203  1.00  0.00     0.046 A 
ATOM     21  C   UNL A   1      32.723  22.639  27.056  1.00  0.00     0.016 A 
ATOM     22  C   UNL A   1      31.803  22.946  24.836  1.00  0.00     0.101 A 
ATOM     23  C   UNL A   1      33.629  21.698  26.552  1.00  0.00     0.028 A 
ATOM     24  C   UNL A   1      32.697  21.983  24.351  1.00  0.00     0.288 A 
ATOM     25  C   UNL A   1      33.605  21.343  25.197  1.00  0.00     0.118 A 
ATOM     26  Cl  UNL A   1      34.667  20.081  24.691  1.00  0.00    -0.077 Cl
BRANCH  24  27
ATOM     27  N   UNL A   1      32.581  21.624  22.952  1.00  0.00     0.064 N 
ATOM     28  O   UNL A   1      32.945  22.450  22.108  1.00  0.00    -0.258 OA
ATOM     29  O   UNL A   1      32.067  20.522  22.707  1.00  0.00    -0.258 OA
ENDBRANCH  24  27
ENDBRANCH  17  20
ENDBRANCH   7  16
ENDBRANCH   6   7
ENDBRANCH   3   6
ENDBRANCH   1   2
BRANCH   1  30
ATOM     30  C   UNL A   1      33.448  31.743  27.208  1.00  0.00     0.042 C 
BRANCH  30  31
ATOM     31  C   UNL A   1      32.127  32.500  27.279  1.00  0.00     0.118 C 
BRANCH  31  32
ATOM     32  N   UNL A   1      32.322  33.912  27.556  1.00  0.00    -0.352 N 
ATOM     33  C   UNL A   1      33.150  34.575  28.428  1.00  0.00     0.251 C 
ATOM     34  H   UNL A   1      31.752  34.507  27.017  1.00  0.00     0.163 HD
ATOM     35  O   UNL A   1      32.928  35.771  28.625  1.00  0.00    -0.269 OA
BRANCH  33  36
ATOM     36  C   UNL A   1      34.289  33.937  29.147  1.00  0.00     0.039 A 
ATOM     37  C   UNL A   1      35.585  34.220  28.689  1.00  0.00     0.014 A 
ATOM     38  C   UNL A   1      34.137  32.979  30.153  1.00  0.00     0.014 A 
ATOM     39  C   UNL A   1      36.704  33.587  29.247  1.00  0.00     0.010 A 
ATOM     40  C   UNL A   1      35.260  32.396  30.762  1.00  0.00     0.010 A 
ATOM     41  C   UNL A   1      36.557  32.685  30.311  1.00  0.00    -0.014 A 
BRANCH  41  42
ATOM     42  C   UNL A   1      37.744  32.050  30.956  1.00  0.00     0.031 A 
ATOM     43  C   UNL A   1      38.538  30.986  30.247  1.00  0.00     0.074 A 
ATOM     44  C   UNL A   1      38.093  32.401  32.209  1.00  0.00     0.049 A 
ATOM     45  N   UNL A   1      39.545  30.272  30.688  1.00  0.00    -0.248 NA
ATOM     46  C   UNL A   1      38.143  30.674  28.866  1.00  0.00     0.031 C 
ATOM     47  C   UNL A   1      37.409  33.407  33.017  1.00  0.00     0.029 A 
ATOM     48  N   UNL A   1      39.098  31.945  33.029  1.00  0.00    -0.354 N 
ATOM     49  C   UNL A   1      39.895  29.421  29.648  1.00  0.00     0.074 A 
ATOM     50  C   UNL A   1      38.969  29.682  28.565  1.00  0.00     0.031 C 
ATOM     51  C   UNL A   1      38.014  33.501  34.212  1.00  0.00     0.029 A 
ATOM     52  C   UNL A   1      39.101  32.527  34.273  1.00  0.00     0.049 A 
ATOM     53  H   UNL A   1      39.755  31.266  32.751  1.00  0.00     0.167 HD
ATOM     54  C   UNL A   1      40.904  28.518  29.594  1.00  0.00     0.037 A 
ATOM     55  C   UNL A   1      39.870  32.290  35.354  1.00  0.00     0.037 A 
ATOM     56  C   UNL A   1      41.844  28.271  30.658  1.00  0.00     0.049 A 
ATOM     57  C   UNL A   1      40.946  31.243  35.287  1.00  0.00     0.074 A 
ATOM     58  C   UNL A   1      42.945  27.429  30.658  1.00  0.00     0.029 A 
ATOM     59  N   UNL A   1      41.792  28.858  31.912  1.00  0.00    -0.354 N 
ATOM     60  N   UNL A   1      41.298  30.486  34.278  1.00  0.00    -0.248 NA
ATOM     61  C   UNL A   1      41.727  31.014  36.511  1.00  0.00     0.031 C 
ATOM     62  C   UNL A   1      43.528  27.469  31.929  1.00  0.00     0.029 A 
ATOM     63  C   UNL A   1      42.818  28.368  32.707  1.00  0.00     0.049 A 
ATOM     64  H   UNL A   1      41.125  29.524  32.197  1.00  0.00     0.167 HD
ATOM     65  C   UNL A   1      42.347  29.703  34.738  1.00  0.00     0.074 A 
ATOM     66  C   UNL A   1      42.589  30.088  36.112  1.00  0.00     0.031 C 
ATOM     67  C   UNL A   1      43.046  28.748  34.077  1.00  0.00     0.037 A 
BRANCH  54  68
ATOM     68  C   UNL A   1      41.051  27.714  28.334  1.00  0.00     0.064 A 
ATOM     69  C   UNL A   1      41.882  28.136  27.286  1.00  0.00     0.173 A 
ATOM     70  C   UNL A   1      40.400  26.478  28.199  1.00  0.00     0.173 A 
ATOM     71  F   UNL A   1      42.523  29.312  27.365  1.00  0.00    -0.203 F 
ATOM     72  C   UNL A   1      42.037  27.363  26.139  1.00  0.00     0.198 A 
ATOM     73  C   UNL A   1      40.577  25.696  27.060  1.00  0.00     0.198 A 
ATOM     74  F   UNL A   1      39.602  26.024  29.177  1.00  0.00    -0.203 F 
ATOM     75  F   UNL A   1      42.807  27.803  25.134  1.00  0.00    -0.200 F 
ATOM     76  C   UNL A   1      41.390  26.141  26.030  1.00  0.00     0.200 A 
ATOM     77  F   UNL A   1      39.961  24.510  26.963  1.00  0.00    -0.200 F 
ATOM     78  F   UNL A   1      41.547  25.394  24.928  1.00  0.00    -0.200 F 
ENDBRANCH  54  68
BRANCH  55  79
ATOM     79  C   UNL A   1      39.637  33.055  36.607  1.00  0.00     0.064 A 
ATOM     80  C   UNL A   1      40.377  34.209  36.895  1.00  0.00     0.173 A 
ATOM     81  C   UNL A   1      38.672  32.647  37.540  1.00  0.00     0.173 A 
ATOM     82  F   UNL A   1      41.328  34.624  36.045  1.00  0.00    -0.203 F 
ATOM     83  C   UNL A   1      40.170  34.920  38.075  1.00  0.00     0.198 A 
ATOM     84  C   UNL A   1      38.446  33.374  38.705  1.00  0.00     0.198 A 
ATOM     85  F   UNL A   1      37.936  31.550  37.309  1.00  0.00    -0.203 F 
ATOM     86  F   UNL A   1      40.915  36.000  38.344  1.00  0.00    -0.200 F 
ATOM     87  C   UNL A   1      39.199  34.506  38.976  1.00  0.00     0.200 A 
ATOM     88  F   UNL A   1      37.497  32.979  39.566  1.00  0.00    -0.200 F 
ATOM     89  F   UNL A   1      38.993  35.196  40.106  1.00  0.00    -0.200 F 
ENDBRANCH  55  79
BRANCH  67  90
ATOM     90  C   UNL A   1      44.143  28.053  34.829  1.00  0.00     0.064 A 
ATOM     91  C   UNL A   1      43.917  26.839  35.493  1.00  0.00     0.173 A 
ATOM     92  C   UNL A   1      45.440  28.586  34.857  1.00  0.00     0.173 A 
ATOM     93  F   UNL A   1      42.690  26.298  35.513  1.00  0.00    -0.203 F 
ATOM     94  C   UNL A   1      44.946  26.192  36.172  1.00  0.00     0.198 A 
ATOM     95  C   UNL A   1      46.473  27.925  35.515  1.00  0.00     0.198 A 
ATOM     96  F   UNL A   1      45.708  29.746  34.236  1.00  0.00    -0.203 F 
ATOM     97  F   UNL A   1      44.700  25.053  36.834  1.00  0.00    -0.200 F 
ATOM     98  C   UNL A   1      46.225  26.731  36.177  1.00  0.00     0.200 A 
ATOM     99  F   UNL A   1      47.709  28.443  35.511  1.00  0.00    -0.200 F 
ATOM    100  F   UNL A   1      47.216  26.104  36.825  1.00  0.00    -0.200 F 
ENDBRANCH  67  90
ENDBRANCH  41  42
ENDBRANCH  33  36
ENDBRANCH  31  32
ENDBRANCH  30  31
ENDBRANCH   1  30
TORSDOF 16
ENDMDL
MODEL 3
REMARK VINA RESULT:     -13.0      0.529      7.094
REMARK SMILES COc1ccc([C@@H](CC(=O)NCCCNC(=O)c2ccc(-c3c4nc(c(-c5c(F)c(F)c(F)c(F)c5F)c5ccc([nH]5)c(-c5c(F)c(F)c(F)c(F)c5F)c5nc(c(-c6c(F)c(F)c(F)c(F)c6F)c6ccc3[nH]6)C=C5)C=C4)cc2)NC(=O)c2ccc(Cl)c([N+](=O)[O-])c2)cc1
REMARK SMILES IDX 12 1 11 2 9 3 10 4 8 6 7 7 6 8 3 9 4 10 95 11 5 12 94 13
REMARK SMILES IDX 2 14 1 15 81 16 82 17 83 19 84 20 85 21 93 22 86 23 89 24
REMARK SMILES IDX 87 25 88 26 90 27 91 28 92 29 13 30 14 31 15 32 16 33 17 35
REMARK SMILES IDX 18 36 19 37 80 38 20 39 79 40 21 41 22 42 23 43 73 44 24 45
REMARK SMILES IDX 78 46 72 47 74 48 25 49 77 50 71 51 70 52 26 54 58 55 38 56
REMARK SMILES IDX 57 57 39 58 42 59 56 60 75 61 40 62 41 63 55 65 76 66 43 67
REMARK SMILES IDX 27 68 28 69 36 70 29 71 30 72 34 73 37 74 31 75 32 76 35 77
REMARK SMILES IDX 33 78 59 79 60 80 68 81 61 82 62 83 66 84 69 85 63 86 64 87
REMARK SMILES IDX 67 88 65 89 44 90 45 91 53 92 46 93 47 94 51 95 54 96 48 97
REMARK SMILES IDX 49 98 52 99 50 100
REMARK H PARENT 11 5 81 18 15 34 74 53 42 64
REMARK Flexibility Score: inf
ROOT
ATOM      1  C   UNL A   1      33.610  30.068  26.923  1.00  0.00     0.117 C 
ENDROOT
BRANCH   1   2
ATOM      2  N   UNL A   1      32.629  29.278  27.653  1.00  0.00    -0.356 N 
ATOM      3  C   UNL A   1      32.130  28.040  27.381  1.00  0.00     0.222 C 
ATOM      4  O   UNL A   1      31.073  27.716  27.926  1.00  0.00    -0.275 OA
ATOM      5  H   UNL A   1      32.273  29.703  28.466  1.00  0.00     0.163 HD
BRANCH   3   6
ATOM      6  C   UNL A   1      32.869  27.064  26.491  1.00  0.00     0.129 C 
BRANCH   6   7
ATOM      7  C   UNL A   1      31.971  26.074  25.724  1.00  0.00     0.122 C 
BRANCH   7   8
ATOM      8  C   UNL A   1      31.221  26.732  24.574  1.00  0.00    -0.025 A 
ATOM      9  C   UNL A   1      29.883  28.291  22.663  1.00  0.00     0.118 A 
ATOM     10  C   UNL A   1      29.173  27.371  23.428  1.00  0.00     0.047 A 
ATOM     11  C   UNL A   1      31.267  28.387  22.778  1.00  0.00     0.047 A 
ATOM     12  C   UNL A   1      29.841  26.583  24.373  1.00  0.00     0.010 A 
ATOM     13  C   UNL A   1      31.932  27.599  23.718  1.00  0.00     0.010 A 
BRANCH   9  14
ATOM     14  O   UNL A   1      29.184  29.232  21.959  1.00  0.00    -0.497 OA
ATOM     15  C   UNL A   1      27.883  29.428  22.500  1.00  0.00     0.278 C 
ENDBRANCH   9  14
ENDBRANCH   7   8
BRANCH   7  16
ATOM     16  N   UNL A   1      31.109  25.296  26.616  1.00  0.00    -0.345 N 
ATOM     17  C   UNL A   1      31.006  23.937  26.772  1.00  0.00     0.252 C 
ATOM     18  H   UNL A   1      30.513  25.828  27.191  1.00  0.00     0.164 HD
ATOM     19  O   UNL A   1      30.055  23.431  27.353  1.00  0.00    -0.269 OA
BRANCH  17  20
ATOM     20  C   UNL A   1      32.068  23.065  26.237  1.00  0.00     0.046 A 
ATOM     21  C   UNL A   1      33.395  23.286  26.612  1.00  0.00     0.016 A 
ATOM     22  C   UNL A   1      31.747  22.036  25.350  1.00  0.00     0.101 A 
ATOM     23  C   UNL A   1      34.398  22.419  26.162  1.00  0.00     0.028 A 
ATOM     24  C   UNL A   1      32.757  21.162  24.930  1.00  0.00     0.288 A 
ATOM     25  C   UNL A   1      34.082  21.332  25.337  1.00  0.00     0.118 A 
ATOM     26  Cl  UNL A   1      35.359  20.243  24.941  1.00  0.00    -0.077 Cl
BRANCH  24  27
ATOM     27  N   UNL A   1      32.352  20.028  24.123  1.00  0.00     0.064 N 
ATOM     28  O   UNL A   1      32.157  20.213  22.917  1.00  0.00    -0.258 OA
ATOM     29  O   UNL A   1      32.177  18.958  24.725  1.00  0.00    -0.258 OA
ENDBRANCH  24  27
ENDBRANCH  17  20
ENDBRANCH   7  16
ENDBRANCH   6   7
ENDBRANCH   3   6
ENDBRANCH   1   2
BRANCH   1  30
ATOM     30  C   UNL A   1      32.945  31.291  26.295  1.00  0.00     0.042 C 
BRANCH  30  31
ATOM     31  C   UNL A   1      31.963  32.028  27.197  1.00  0.00     0.118 C 
BRANCH  31  32
ATOM     32  N   UNL A   1      32.287  33.438  27.320  1.00  0.00    -0.352 N 
ATOM     33  C   UNL A   1      33.274  34.101  28.007  1.00  0.00     0.251 C 
ATOM     34  H   UNL A   1      31.685  34.031  26.814  1.00  0.00     0.163 HD
ATOM     35  O   UNL A   1      33.161  35.322  28.127  1.00  0.00    -0.269 OA
BRANCH  33  36
ATOM     36  C   UNL A   1      34.460  33.435  28.615  1.00  0.00     0.039 A 
ATOM     37  C   UNL A   1      34.229  32.531  29.663  1.00  0.00     0.014 A 
ATOM     38  C   UNL A   1      35.782  33.754  28.296  1.00  0.00     0.014 A 
ATOM     39  C   UNL A   1      35.294  31.935  30.353  1.00  0.00     0.010 A 
ATOM     40  C   UNL A   1      36.850  33.105  28.937  1.00  0.00     0.010 A 
ATOM     41  C   UNL A   1      36.620  32.195  29.979  1.00  0.00    -0.014 A 
BRANCH  41  42
ATOM     42  C   UNL A   1      37.762  31.520  30.663  1.00  0.00     0.031 A 
ATOM     43  C   UNL A   1      38.175  31.912  32.057  1.00  0.00     0.074 A 
ATOM     44  C   UNL A   1      38.466  30.571  30.015  1.00  0.00     0.049 A 
ATOM     45  N   UNL A   1      39.192  31.489  32.769  1.00  0.00    -0.248 NA
ATOM     46  C   UNL A   1      37.346  32.918  32.735  1.00  0.00     0.031 C 
ATOM     47  C   UNL A   1      38.185  30.101  28.661  1.00  0.00     0.029 A 
ATOM     48  N   UNL A   1      39.566  29.841  30.398  1.00  0.00    -0.354 N 
ATOM     49  C   UNL A   1      39.132  32.183  33.970  1.00  0.00     0.074 A 
ATOM     50  C   UNL A   1      38.000  33.083  33.878  1.00  0.00     0.031 C 
ATOM     51  C   UNL A   1      39.080  29.158  28.325  1.00  0.00     0.029 A 
ATOM     52  C   UNL A   1      40.029  28.991  29.424  1.00  0.00     0.049 A 
ATOM     53  H   UNL A   1      39.984  29.920  31.286  1.00  0.00     0.167 HD
ATOM     54  C   UNL A   1      39.935  32.071  35.056  1.00  0.00     0.037 A 
ATOM     55  C   UNL A   1      41.109  28.184  29.398  1.00  0.00     0.037 A 
ATOM     56  C   UNL A   1      41.047  31.160  35.165  1.00  0.00     0.049 A 
ATOM     57  C   UNL A   1      42.017  28.120  30.595  1.00  0.00     0.074 A 
ATOM     58  C   UNL A   1      41.866  30.926  36.258  1.00  0.00     0.029 A 
ATOM     59  N   UNL A   1      41.502  30.340  34.145  1.00  0.00    -0.354 N 
ATOM     60  N   UNL A   1      41.915  28.743  31.742  1.00  0.00    -0.248 NA
ATOM     61  C   UNL A   1      43.193  27.244  30.490  1.00  0.00     0.031 C 
ATOM     62  C   UNL A   1      42.846  30.001  35.882  1.00  0.00     0.029 A 
ATOM     63  C   UNL A   1      42.613  29.627  34.570  1.00  0.00     0.049 A 
ATOM     64  H   UNL A   1      41.096  30.274  33.250  1.00  0.00     0.167 HD
ATOM     65  C   UNL A   1      43.000  28.327  32.499  1.00  0.00     0.074 A 
ATOM     66  C   UNL A   1      43.741  27.382  31.690  1.00  0.00     0.031 C 
ATOM     67  C   UNL A   1      43.351  28.697  33.755  1.00  0.00     0.037 A 
BRANCH  54  68
ATOM     68  C   UNL A   1      39.647  32.961  36.230  1.00  0.00     0.064 A 
ATOM     69  C   UNL A   1      40.262  34.214  36.370  1.00  0.00     0.173 A 
ATOM     70  C   UNL A   1      38.701  32.582  37.195  1.00  0.00     0.173 A 
ATOM     71  F   UNL A   1      41.177  34.619  35.478  1.00  0.00    -0.203 F 
ATOM     72  C   UNL A   1      39.958  35.044  37.445  1.00  0.00     0.198 A 
ATOM     73  C   UNL A   1      38.381  33.426  38.255  1.00  0.00     0.198 A 
ATOM     74  F   UNL A   1      38.076  31.399  37.100  1.00  0.00    -0.203 F 
ATOM     75  F   UNL A   1      40.585  36.221  37.580  1.00  0.00    -0.200 F 
ATOM     76  C   UNL A   1      39.014  34.653  38.383  1.00  0.00     0.200 A 
ATOM     77  F   UNL A   1      37.459  33.052  39.153  1.00  0.00    -0.200 F 
ATOM     78  F   UNL A   1      38.716  35.458  39.413  1.00  0.00    -0.200 F 
ENDBRANCH  54  68
BRANCH  55  79
ATOM     79  C   UNL A   1      41.400  27.379  28.184  1.00  0.00     0.064 A 
ATOM     80  C   UNL A   1      42.230  27.876  27.171  1.00  0.00     0.173 A 
ATOM     81  C   UNL A   1      40.855  26.097  28.013  1.00  0.00     0.173 A 
ATOM     82  F   UNL A   1      42.754  29.106  27.279  1.00  0.00    -0.203 F 
ATOM     83  C   UNL A   1      42.494  27.128  26.026  1.00  0.00     0.198 A 
ATOM     84  C   UNL A   1      41.142  25.339  26.882  1.00  0.00     0.198 A 
ATOM     85  F   UNL A   1      40.056  25.576  28.956  1.00  0.00    -0.203 F 
ATOM     86  F   UNL A   1      43.262  27.641  25.056  1.00  0.00    -0.200 F 
ATOM     87  C   UNL A   1      41.956  25.857  25.885  1.00  0.00     0.200 A 
ATOM     88  F   UNL A   1      40.632  24.106  26.756  1.00  0.00    -0.200 F 
ATOM     89  F   UNL A   1      42.218  25.134  24.789  1.00  0.00    -0.200 F 
ENDBRANCH  55  79
BRANCH  67  90
ATOM     90  C   UNL A   1      44.589  28.078  34.335  1.00  0.00     0.064 A 
ATOM     91  C   UNL A   1      45.836  28.714  34.241  1.00  0.00     0.173 A 
ATOM     92  C   UNL A   1      44.523  26.857  35.022  1.00  0.00     0.173 A 
ATOM     93  F   UNL A   1      45.954  29.873  33.577  1.00  0.00    -0.203 F 
ATOM     94  C   UNL A   1      46.975  28.141  34.800  1.00  0.00     0.198 A 
ATOM     95  C   UNL A   1      45.660  26.298  35.601  1.00  0.00     0.198 A 
ATOM     96  F   UNL A   1      43.354  26.209  35.140  1.00  0.00    -0.203 F 
ATOM     97  F   UNL A   1      48.163  28.745  34.664  1.00  0.00    -0.200 F 
ATOM     98  C   UNL A   1      46.885  26.937  35.485  1.00  0.00     0.200 A 
ATOM     99  F   UNL A   1      45.570  25.140  36.270  1.00  0.00    -0.200 F 
ATOM    100  F   UNL A   1      47.981  26.390  36.027  1.00  0.00    -0.200 F 
ENDBRANCH  67  90
ENDBRANCH  41  42
ENDBRANCH  33  36
ENDBRANCH  31  32
ENDBRANCH  30  31
ENDBRANCH   1  30
TORSDOF 16
ENDMDL
