MODEL 1
REMARK VINA RESULT:     -13.0      0.000      0.000
REMARK SMILES O=C(NCCCNC(=O)c1cc(-c2ccccn2)nc2ccc(F)cc12)c1ccc(-c2c3nc(c(-c4c(F)c(F)c(F)c(F)c4F)c4ccc([nH]4)c(-c4c(F)c(F)c(F)c(F)c4F)c4nc(c(-c5c(F)c(F)c(F)c(F)c5F)c5ccc2[nH]5)C=C4)C=C3)cc1
REMARK SMILES IDX 4 1 3 2 1 3 2 4 27 6 28 7 89 8 29 9 88 10 30 11 31 12 32 13
REMARK SMILES IDX 82 14 33 15 87 16 81 17 83 18 34 19 86 20 80 21 79 22 35 24
REMARK SMILES IDX 67 25 47 26 66 27 48 28 51 29 65 30 84 31 49 32 50 33 64 35
REMARK SMILES IDX 85 36 52 37 36 38 37 39 45 40 38 41 39 42 43 43 46 44 40 45
REMARK SMILES IDX 41 46 44 47 42 48 68 49 69 50 77 51 70 52 71 53 75 54 78 55
REMARK SMILES IDX 72 56 73 57 76 58 74 59 53 60 54 61 62 62 55 63 56 64 60 65
REMARK SMILES IDX 63 66 57 67 58 68 61 69 59 70 5 71 6 72 7 73 8 74 9 76 10 77
REMARK SMILES IDX 11 78 26 79 12 80 20 81 25 82 19 83 21 84 23 85 22 86 24 87
REMARK SMILES IDX 13 88 14 89 18 90 15 91 17 92 16 93
REMARK H PARENT 3 5 83 23 51 34 7 75
REMARK Flexibility Score: inf
ROOT
ATOM      1  C   UNL A   1      33.257  29.033  24.888  1.00  0.00     0.118 C 
ENDROOT
BRANCH   1   2
ATOM      2  N   UNL A   1      32.648  30.202  25.503  1.00  0.00    -0.352 N 
ATOM      3  O   UNL A   1      32.220  31.776  27.040  1.00  0.00    -0.269 OA
ATOM      4  C   UNL A   1      32.987  30.909  26.628  1.00  0.00     0.251 C 
ATOM      5  H   UNL A   1      31.857  30.546  25.029  1.00  0.00     0.163 HD
BRANCH   4   6
ATOM      6  C   UNL A   1      34.245  30.642  27.364  1.00  0.00     0.039 A 
ATOM      7  C   UNL A   1      34.464  29.351  27.859  1.00  0.00     0.014 A 
ATOM      8  C   UNL A   1      35.170  31.652  27.640  1.00  0.00     0.014 A 
ATOM      9  C   UNL A   1      35.621  29.067  28.591  1.00  0.00     0.010 A 
ATOM     10  C   UNL A   1      36.363  31.349  28.296  1.00  0.00     0.010 A 
ATOM     11  C   UNL A   1      36.589  30.060  28.800  1.00  0.00    -0.014 A 
BRANCH  11  12
ATOM     12  C   UNL A   1      37.810  29.786  29.601  1.00  0.00     0.031 A 
ATOM     13  C   UNL A   1      38.872  28.871  29.056  1.00  0.00     0.074 A 
ATOM     14  C   UNL A   1      37.954  30.334  30.822  1.00  0.00     0.049 A 
ATOM     15  N   UNL A   1      39.977  28.454  29.622  1.00  0.00    -0.248 NA
ATOM     16  C   UNL A   1      38.654  28.332  27.704  1.00  0.00     0.031 C 
ATOM     17  C   UNL A   1      36.986  31.216  31.474  1.00  0.00     0.029 A 
ATOM     18  N   UNL A   1      38.975  30.229  31.734  1.00  0.00    -0.354 N 
ATOM     19  C   UNL A   1      40.568  27.593  28.707  1.00  0.00     0.074 A 
ATOM     20  C   UNL A   1      39.682  27.507  27.568  1.00  0.00     0.031 C 
ATOM     21  C   UNL A   1      37.475  31.602  32.664  1.00  0.00     0.029 A 
ATOM     22  C   UNL A   1      38.775  30.967  32.874  1.00  0.00     0.049 A 
ATOM     23  H   UNL A   1      39.777  29.677  31.584  1.00  0.00     0.167 HD
ATOM     24  C   UNL A   1      41.756  26.951  28.796  1.00  0.00     0.037 A 
ATOM     25  C   UNL A   1      39.551  31.116  33.965  1.00  0.00     0.037 A 
ATOM     26  C   UNL A   1      42.663  27.074  29.904  1.00  0.00     0.049 A 
ATOM     27  C   UNL A   1      40.873  30.400  34.033  1.00  0.00     0.074 A 
ATOM     28  C   UNL A   1      43.911  26.498  30.065  1.00  0.00     0.029 A 
ATOM     29  N   UNL A   1      42.425  27.838  31.035  1.00  0.00    -0.354 N 
ATOM     30  N   UNL A   1      41.431  29.611  33.151  1.00  0.00    -0.248 NA
ATOM     31  C   UNL A   1      41.672  30.598  35.252  1.00  0.00     0.031 C 
ATOM     32  C   UNL A   1      44.420  26.896  31.305  1.00  0.00     0.029 A 
ATOM     33  C   UNL A   1      43.501  27.744  31.901  1.00  0.00     0.049 A 
ATOM     34  H   UNL A   1      41.611  28.369  31.199  1.00  0.00     0.167 HD
ATOM     35  C   UNL A   1      42.653  29.235  33.692  1.00  0.00     0.074 A 
ATOM     36  C   UNL A   1      42.761  29.890  34.979  1.00  0.00     0.031 C 
ATOM     37  C   UNL A   1      43.597  28.418  33.170  1.00  0.00     0.037 A 
BRANCH  24  38
ATOM     38  C   UNL A   1      42.160  26.072  27.651  1.00  0.00     0.064 A 
ATOM     39  C   UNL A   1      43.099  26.498  26.700  1.00  0.00     0.173 A 
ATOM     40  C   UNL A   1      41.648  24.771  27.535  1.00  0.00     0.173 A 
ATOM     41  F   UNL A   1      43.607  27.739  26.762  1.00  0.00    -0.203 F 
ATOM     42  C   UNL A   1      43.498  25.659  25.664  1.00  0.00     0.198 A 
ATOM     43  C   UNL A   1      42.068  23.927  26.511  1.00  0.00     0.198 A 
ATOM     44  F   UNL A   1      40.751  24.316  28.421  1.00  0.00    -0.203 F 
ATOM     45  F   UNL A   1      44.370  26.099  24.746  1.00  0.00    -0.200 F 
ATOM     46  C   UNL A   1      42.989  24.372  25.574  1.00  0.00     0.200 A 
ATOM     47  F   UNL A   1      41.583  22.680  26.432  1.00  0.00    -0.200 F 
ATOM     48  F   UNL A   1      43.384  23.562  24.582  1.00  0.00    -0.200 F 
ENDBRANCH  24  38
BRANCH  25  49
ATOM     49  C   UNL A   1      39.117  32.018  35.061  1.00  0.00     0.064 A 
ATOM     50  C   UNL A   1      38.432  31.509  36.173  1.00  0.00     0.173 A 
ATOM     51  C   UNL A   1      39.387  33.392  35.031  1.00  0.00     0.173 A 
ATOM     52  F   UNL A   1      38.135  30.203  36.235  1.00  0.00    -0.203 F 
ATOM     53  C   UNL A   1      38.026  32.344  37.211  1.00  0.00     0.198 A 
ATOM     54  C   UNL A   1      38.998  34.224  36.079  1.00  0.00     0.198 A 
ATOM     55  F   UNL A   1      40.041  33.925  33.988  1.00  0.00    -0.203 F 
ATOM     56  F   UNL A   1      37.346  31.837  38.249  1.00  0.00    -0.200 F 
ATOM     57  C   UNL A   1      38.315  33.700  37.166  1.00  0.00     0.200 A 
ATOM     58  F   UNL A   1      39.288  35.531  36.037  1.00  0.00    -0.200 F 
ATOM     59  F   UNL A   1      37.930  34.501  38.168  1.00  0.00    -0.200 F 
ENDBRANCH  25  49
BRANCH  37  60
ATOM     60  C   UNL A   1      44.847  28.200  33.968  1.00  0.00     0.064 A 
ATOM     61  C   UNL A   1      44.967  27.119  34.851  1.00  0.00     0.173 A 
ATOM     62  C   UNL A   1      45.961  29.031  33.782  1.00  0.00     0.173 A 
ATOM     63  F   UNL A   1      43.924  26.305  35.069  1.00  0.00    -0.203 F 
ATOM     64  C   UNL A   1      46.161  26.880  35.527  1.00  0.00     0.198 A 
ATOM     65  C   UNL A   1      47.159  28.777  34.442  1.00  0.00     0.198 A 
ATOM     66  F   UNL A   1      45.895  30.073  32.940  1.00  0.00    -0.203 F 
ATOM     67  F   UNL A   1      46.250  25.853  36.384  1.00  0.00    -0.200 F 
ATOM     68  C   UNL A   1      47.258  27.703  35.314  1.00  0.00     0.200 A 
ATOM     69  F   UNL A   1      48.221  29.565  34.228  1.00  0.00    -0.200 F 
ATOM     70  F   UNL A   1      48.411  27.461  35.953  1.00  0.00    -0.200 F 
ENDBRANCH  37  60
ENDBRANCH  11  12
ENDBRANCH   4   6
ENDBRANCH   1   2
BRANCH   1  71
ATOM     71  C   UNL A   1      32.982  28.931  23.394  1.00  0.00     0.042 C 
BRANCH  71  72
ATOM     72  C   UNL A   1      34.081  28.259  22.583  1.00  0.00     0.118 C 
BRANCH  72  73
ATOM     73  N   UNL A   1      33.576  27.240  21.671  1.00  0.00    -0.352 N 
ATOM     74  C   UNL A   1      33.279  25.917  21.890  1.00  0.00     0.252 C 
ATOM     75  H   UNL A   1      33.423  27.550  20.749  1.00  0.00     0.163 HD
ATOM     76  O   UNL A   1      32.921  25.214  20.948  1.00  0.00    -0.269 OA
BRANCH  74  77
ATOM     77  C   UNL A   1      33.361  25.349  23.252  1.00  0.00     0.051 A 
ATOM     78  C   UNL A   1      34.586  24.815  23.647  1.00  0.00     0.045 A 
ATOM     79  C   UNL A   1      32.262  25.357  24.136  1.00  0.00     0.016 A 
ATOM     80  C   UNL A   1      34.668  24.168  24.866  1.00  0.00     0.090 A 
ATOM     81  C   UNL A   1      32.465  24.733  25.385  1.00  0.00     0.072 A 
ATOM     82  C   UNL A   1      30.996  25.930  23.856  1.00  0.00     0.050 A 
ATOM     83  N   UNL A   1      33.622  24.139  25.726  1.00  0.00    -0.246 NA
ATOM     84  C   UNL A   1      31.424  24.716  26.306  1.00  0.00     0.032 A 
ATOM     85  C   UNL A   1      29.982  25.901  24.803  1.00  0.00     0.123 A 
ATOM     86  C   UNL A   1      30.185  25.299  26.032  1.00  0.00     0.041 A 
ATOM     87  F   UNL A   1      28.797  26.460  24.527  1.00  0.00    -0.207 F 
BRANCH  80  88
ATOM     88  C   UNL A   1      35.877  23.406  25.221  1.00  0.00     0.089 A 
ATOM     89  C   UNL A   1      36.948  23.997  25.894  1.00  0.00     0.030 A 
ATOM     90  N   UNL A   1      35.949  22.139  24.734  1.00  0.00    -0.255 NA
ATOM     91  C   UNL A   1      38.123  23.272  26.070  1.00  0.00     0.004 A 
ATOM     92  C   UNL A   1      37.097  21.454  24.931  1.00  0.00     0.112 A 
ATOM     93  C   UNL A   1      38.203  21.977  25.579  1.00  0.00     0.020 A 
ENDBRANCH  80  88
ENDBRANCH  74  77
ENDBRANCH  72  73
ENDBRANCH  71  72
ENDBRANCH   1  71
TORSDOF 11
ENDMDL
MODEL 2
REMARK VINA RESULT:     -12.9      2.749      8.343
REMARK SMILES O=C(NCCCNC(=O)c1cc(-c2ccccn2)nc2ccc(F)cc12)c1ccc(-c2c3nc(c(-c4c(F)c(F)c(F)c(F)c4F)c4ccc([nH]4)c(-c4c(F)c(F)c(F)c(F)c4F)c4nc(c(-c5c(F)c(F)c(F)c(F)c5F)c5ccc2[nH]5)C=C4)C=C3)cc1
REMARK SMILES IDX 4 1 3 2 1 3 2 4 27 6 28 7 89 8 29 9 88 10 30 11 31 12 32 13
REMARK SMILES IDX 82 14 33 15 87 16 81 17 83 18 34 19 86 20 80 21 79 22 35 24
REMARK SMILES IDX 67 25 47 26 66 27 48 28 51 29 65 30 84 31 49 32 50 33 64 35
REMARK SMILES IDX 85 36 52 37 36 38 37 39 45 40 38 41 39 42 43 43 46 44 40 45
REMARK SMILES IDX 41 46 44 47 42 48 68 49 69 50 77 51 70 52 71 53 75 54 78 55
REMARK SMILES IDX 72 56 73 57 76 58 74 59 53 60 54 61 62 62 55 63 56 64 60 65
REMARK SMILES IDX 63 66 57 67 58 68 61 69 59 70 5 71 6 72 7 73 8 74 9 76 10 77
REMARK SMILES IDX 11 78 26 79 12 80 20 81 25 82 19 83 21 84 23 85 22 86 24 87
REMARK SMILES IDX 13 88 14 89 18 90 15 91 17 92 16 93
REMARK H PARENT 3 5 83 23 51 34 7 75
REMARK Flexibility Score: inf
ROOT
ATOM      1  C   UNL A   1      34.071  28.839  25.865  1.00  0.00     0.118 C 
ENDROOT
BRANCH   1   2
ATOM      2  N   UNL A   1      33.819  30.076  26.586  1.00  0.00    -0.352 N 
ATOM      3  O   UNL A   1      34.013  31.657  28.163  1.00  0.00    -0.269 OA
ATOM      4  C   UNL A   1      34.512  30.685  27.601  1.00  0.00     0.251 C 
ATOM      5  H   UNL A   1      33.013  30.561  26.296  1.00  0.00     0.163 HD
BRANCH   4   6
ATOM      6  C   UNL A   1      35.838  30.191  28.043  1.00  0.00     0.039 A 
ATOM      7  C   UNL A   1      35.942  29.615  29.315  1.00  0.00     0.014 A 
ATOM      8  C   UNL A   1      36.986  30.352  27.265  1.00  0.00     0.014 A 
ATOM      9  C   UNL A   1      37.181  29.170  29.785  1.00  0.00     0.010 A 
ATOM     10  C   UNL A   1      38.206  29.833  27.698  1.00  0.00     0.010 A 
ATOM     11  C   UNL A   1      38.321  29.258  28.972  1.00  0.00    -0.014 A 
BRANCH  11  12
ATOM     12  C   UNL A   1      39.651  28.820  29.465  1.00  0.00     0.031 A 
ATOM     13  C   UNL A   1      40.357  29.620  30.526  1.00  0.00     0.074 A 
ATOM     14  C   UNL A   1      40.238  27.726  28.945  1.00  0.00     0.049 A 
ATOM     15  N   UNL A   1      41.547  29.444  31.044  1.00  0.00    -0.248 NA
ATOM     16  C   UNL A   1      39.640  30.789  31.062  1.00  0.00     0.031 C 
ATOM     17  C   UNL A   1      39.672  26.880  27.895  1.00  0.00     0.029 A 
ATOM     18  N   UNL A   1      41.443  27.135  29.233  1.00  0.00    -0.354 N 
ATOM     19  C   UNL A   1      41.725  30.486  31.943  1.00  0.00     0.074 A 
ATOM     20  C   UNL A   1      40.545  31.318  31.872  1.00  0.00     0.031 C 
ATOM     21  C   UNL A   1      40.511  25.859  27.652  1.00  0.00     0.029 A 
ATOM     22  C   UNL A   1      41.690  25.998  28.504  1.00  0.00     0.049 A 
ATOM     23  H   UNL A   1      42.073  27.494  29.901  1.00  0.00     0.167 HD
ATOM     24  C   UNL A   1      42.768  30.716  32.775  1.00  0.00     0.037 A 
ATOM     25  C   UNL A   1      42.745  25.162  28.523  1.00  0.00     0.037 A 
ATOM     26  C   UNL A   1      43.920  29.863  32.885  1.00  0.00     0.049 A 
ATOM     27  C   UNL A   1      43.886  25.433  29.466  1.00  0.00     0.074 A 
ATOM     28  C   UNL A   1      45.007  29.988  33.732  1.00  0.00     0.029 A 
ATOM     29  N   UNL A   1      44.125  28.716  32.134  1.00  0.00    -0.354 N 
ATOM     30  N   UNL A   1      44.030  26.407  30.329  1.00  0.00    -0.248 NA
ATOM     31  C   UNL A   1      45.012  24.487  29.434  1.00  0.00     0.031 C 
ATOM     32  C   UNL A   1      45.883  28.928  33.478  1.00  0.00     0.029 A 
ATOM     33  C   UNL A   1      45.325  28.127  32.495  1.00  0.00     0.049 A 
ATOM     34  H   UNL A   1      43.509  28.372  31.447  1.00  0.00     0.167 HD
ATOM     35  C   UNL A   1      45.246  26.181  30.960  1.00  0.00     0.074 A 
ATOM     36  C   UNL A   1      45.799  24.972  30.386  1.00  0.00     0.031 C 
ATOM     37  C   UNL A   1      45.850  26.914  31.924  1.00  0.00     0.037 A 
BRANCH  24  38
ATOM     38  C   UNL A   1      42.704  31.928  33.653  1.00  0.00     0.064 A 
ATOM     39  C   UNL A   1      43.193  33.170  33.219  1.00  0.00     0.173 A 
ATOM     40  C   UNL A   1      42.099  31.865  34.917  1.00  0.00     0.173 A 
ATOM     41  F   UNL A   1      43.793  33.277  32.023  1.00  0.00    -0.203 F 
ATOM     42  C   UNL A   1      43.094  34.299  34.026  1.00  0.00     0.198 A 
ATOM     43  C   UNL A   1      41.979  33.002  35.710  1.00  0.00     0.198 A 
ATOM     44  F   UNL A   1      41.612  30.702  35.375  1.00  0.00    -0.203 F 
ATOM     45  F   UNL A   1      43.599  35.467  33.605  1.00  0.00    -0.200 F 
ATOM     46  C   UNL A   1      42.480  34.217  35.267  1.00  0.00     0.200 A 
ATOM     47  F   UNL A   1      41.376  32.923  36.905  1.00  0.00    -0.200 F 
ATOM     48  F   UNL A   1      42.374  35.308  36.036  1.00  0.00    -0.200 F 
ENDBRANCH  24  38
BRANCH  25  49
ATOM     49  C   UNL A   1      42.749  23.961  27.651  1.00  0.00     0.064 A 
ATOM     50  C   UNL A   1      42.372  22.710  28.159  1.00  0.00     0.173 A 
ATOM     51  C   UNL A   1      43.109  24.037  26.299  1.00  0.00     0.173 A 
ATOM     52  F   UNL A   1      42.039  22.586  29.452  1.00  0.00    -0.203 F 
ATOM     53  C   UNL A   1      42.365  21.577  27.348  1.00  0.00     0.198 A 
ATOM     54  C   UNL A   1      43.081  22.908  25.483  1.00  0.00     0.198 A 
ATOM     55  F   UNL A   1      43.475  25.213  25.766  1.00  0.00    -0.203 F 
ATOM     56  F   UNL A   1      42.030  20.387  27.866  1.00  0.00    -0.200 F 
ATOM     57  C   UNL A   1      42.713  21.679  26.009  1.00  0.00     0.200 A 
ATOM     58  F   UNL A   1      43.408  23.010  24.188  1.00  0.00    -0.200 F 
ATOM     59  F   UNL A   1      42.698  20.590  25.229  1.00  0.00    -0.200 F 
ENDBRANCH  25  49
BRANCH  37  60
ATOM     60  C   UNL A   1      47.166  26.424  32.449  1.00  0.00     0.064 A 
ATOM     61  C   UNL A   1      47.231  25.476  33.478  1.00  0.00     0.173 A 
ATOM     62  C   UNL A   1      48.366  26.845  31.857  1.00  0.00     0.173 A 
ATOM     63  F   UNL A   1      46.110  25.054  34.080  1.00  0.00    -0.203 F 
ATOM     64  C   UNL A   1      48.457  24.969  33.902  1.00  0.00     0.198 A 
ATOM     65  C   UNL A   1      49.587  26.320  32.270  1.00  0.00     0.198 A 
ATOM     66  F   UNL A   1      48.351  27.746  30.863  1.00  0.00    -0.203 F 
ATOM     67  F   UNL A   1      48.501  24.077  34.903  1.00  0.00    -0.200 F 
ATOM     68  C   UNL A   1      49.632  25.384  33.291  1.00  0.00     0.200 A 
ATOM     69  F   UNL A   1      50.720  26.713  31.671  1.00  0.00    -0.200 F 
ATOM     70  F   UNL A   1      50.808  24.881  33.690  1.00  0.00    -0.200 F 
ENDBRANCH  37  60
ENDBRANCH  11  12
ENDBRANCH   4   6
ENDBRANCH   1   2
BRANCH   1  71
ATOM     71  C   UNL A   1      33.411  27.626  26.508  1.00  0.00     0.042 C 
BRANCH  71  72
ATOM     72  C   UNL A   1      32.060  27.896  27.152  1.00  0.00     0.118 C 
BRANCH  72  73
ATOM     73  N   UNL A   1      31.155  26.756  27.082  1.00  0.00    -0.352 N 
ATOM     74  C   UNL A   1      30.469  26.226  26.016  1.00  0.00     0.252 C 
ATOM     75  H   UNL A   1      31.012  26.289  27.937  1.00  0.00     0.163 HD
ATOM     76  O   UNL A   1      29.700  25.286  26.198  1.00  0.00    -0.269 OA
BRANCH  74  77
ATOM     77  C   UNL A   1      30.676  26.764  24.655  1.00  0.00     0.051 A 
ATOM     78  C   UNL A   1      30.159  28.029  24.384  1.00  0.00     0.045 A 
ATOM     79  C   UNL A   1      31.383  26.049  23.664  1.00  0.00     0.016 A 
ATOM     80  C   UNL A   1      30.227  28.512  23.090  1.00  0.00     0.090 A 
ATOM     81  C   UNL A   1      31.458  26.658  22.394  1.00  0.00     0.072 A 
ATOM     82  C   UNL A   1      32.001  24.787  23.857  1.00  0.00     0.050 A 
ATOM     83  N   UNL A   1      30.879  27.837  22.113  1.00  0.00    -0.246 NA
ATOM     84  C   UNL A   1      32.150  26.009  21.377  1.00  0.00     0.032 A 
ATOM     85  C   UNL A   1      32.690  24.173  22.820  1.00  0.00     0.123 A 
ATOM     86  C   UNL A   1      32.773  24.776  21.577  1.00  0.00     0.041 A 
ATOM     87  F   UNL A   1      33.281  22.989  23.023  1.00  0.00    -0.207 F 
BRANCH  80  88
ATOM     88  C   UNL A   1      29.503  29.740  22.719  1.00  0.00     0.089 A 
ATOM     89  C   UNL A   1      29.137  30.694  23.670  1.00  0.00     0.030 A 
ATOM     90  N   UNL A   1      29.090  29.822  21.426  1.00  0.00    -0.255 NA
ATOM     91  C   UNL A   1      28.326  31.759  23.287  1.00  0.00     0.004 A 
ATOM     92  C   UNL A   1      28.315  30.873  21.080  1.00  0.00     0.112 A 
ATOM     93  C   UNL A   1      27.903  31.851  21.968  1.00  0.00     0.020 A 
ENDBRANCH  80  88
ENDBRANCH  74  77
ENDBRANCH  72  73
ENDBRANCH  71  72
ENDBRANCH   1  71
TORSDOF 11
ENDMDL
MODEL 3
REMARK VINA RESULT:     -12.9      1.982      8.323
REMARK SMILES O=C(NCCCNC(=O)c1cc(-c2ccccn2)nc2ccc(F)cc12)c1ccc(-c2c3nc(c(-c4c(F)c(F)c(F)c(F)c4F)c4ccc([nH]4)c(-c4c(F)c(F)c(F)c(F)c4F)c4nc(c(-c5c(F)c(F)c(F)c(F)c5F)c5ccc2[nH]5)C=C4)C=C3)cc1
REMARK SMILES IDX 4 1 3 2 1 3 2 4 27 6 28 7 89 8 29 9 88 10 30 11 31 12 32 13
REMARK SMILES IDX 82 14 33 15 87 16 81 17 83 18 34 19 86 20 80 21 79 22 35 24
REMARK SMILES IDX 67 25 47 26 66 27 48 28 51 29 65 30 84 31 49 32 50 33 64 35
REMARK SMILES IDX 85 36 52 37 36 38 37 39 45 40 38 41 39 42 43 43 46 44 40 45
REMARK SMILES IDX 41 46 44 47 42 48 68 49 69 50 77 51 70 52 71 53 75 54 78 55
REMARK SMILES IDX 72 56 73 57 76 58 74 59 53 60 54 61 62 62 55 63 56 64 60 65
REMARK SMILES IDX 63 66 57 67 58 68 61 69 59 70 5 71 6 72 7 73 8 74 9 76 10 77
REMARK SMILES IDX 11 78 26 79 12 80 20 81 25 82 19 83 21 84 23 85 22 86 24 87
REMARK SMILES IDX 13 88 14 89 18 90 15 91 17 92 16 93
REMARK H PARENT 3 5 83 23 51 34 7 75
REMARK Flexibility Score: inf
ROOT
ATOM      1  C   UNL A   1      32.977  29.862  26.149  1.00  0.00     0.118 C 
ENDROOT
BRANCH   1   2
ATOM      2  N   UNL A   1      32.817  31.256  26.533  1.00  0.00    -0.352 N 
ATOM      3  O   UNL A   1      33.102  33.156  27.687  1.00  0.00    -0.269 OA
ATOM      4  C   UNL A   1      33.528  32.037  27.408  1.00  0.00     0.251 C 
ATOM      5  H   UNL A   1      32.072  31.718  26.086  1.00  0.00     0.163 HD
BRANCH   4   6
ATOM      6  C   UNL A   1      34.784  31.560  28.033  1.00  0.00     0.039 A 
ATOM      7  C   UNL A   1      34.804  30.275  28.586  1.00  0.00     0.014 A 
ATOM      8  C   UNL A   1      35.910  32.378  28.151  1.00  0.00     0.014 A 
ATOM      9  C   UNL A   1      35.957  29.800  29.218  1.00  0.00     0.010 A 
ATOM     10  C   UNL A   1      37.087  31.876  28.705  1.00  0.00     0.010 A 
ATOM     11  C   UNL A   1      37.115  30.591  29.267  1.00  0.00    -0.014 A 
BRANCH  11  12
ATOM     12  C   UNL A   1      38.340  30.118  29.961  1.00  0.00     0.031 A 
ATOM     13  C   UNL A   1      38.643  30.598  31.354  1.00  0.00     0.074 A 
ATOM     14  C   UNL A   1      39.190  29.282  29.337  1.00  0.00     0.049 A 
ATOM     15  N   UNL A   1      39.688  30.356  32.106  1.00  0.00    -0.248 NA
ATOM     16  C   UNL A   1      37.652  31.490  31.979  1.00  0.00     0.031 C 
ATOM     17  C   UNL A   1      39.025  28.764  27.978  1.00  0.00     0.029 A 
ATOM     18  N   UNL A   1      40.367  28.719  29.765  1.00  0.00    -0.354 N 
ATOM     19  C   UNL A   1      39.488  31.079  33.274  1.00  0.00     0.074 A 
ATOM     20  C   UNL A   1      38.248  31.806  33.119  1.00  0.00     0.031 C 
ATOM     21  C   UNL A   1      40.041  27.931  27.698  1.00  0.00     0.029 A 
ATOM     22  C   UNL A   1      40.948  27.883  28.844  1.00  0.00     0.049 A 
ATOM     23  H   UNL A   1      40.758  28.897  30.652  1.00  0.00     0.167 HD
ATOM     24  C   UNL A   1      40.256  31.114  34.388  1.00  0.00     0.037 A 
ATOM     25  C   UNL A   1      42.081  27.159  28.915  1.00  0.00     0.037 A 
ATOM     26  C   UNL A   1      41.462  30.353  34.565  1.00  0.00     0.049 A 
ATOM     27  C   UNL A   1      42.910  27.206  30.169  1.00  0.00     0.074 A 
ATOM     28  C   UNL A   1      42.285  30.287  35.676  1.00  0.00     0.029 A 
ATOM     29  N   UNL A   1      42.010  29.512  33.609  1.00  0.00    -0.354 N 
ATOM     30  N   UNL A   1      42.696  27.873  31.276  1.00  0.00    -0.248 NA
ATOM     31  C   UNL A   1      44.139  26.398  30.183  1.00  0.00     0.031 C 
ATOM     32  C   UNL A   1      43.345  29.423  35.385  1.00  0.00     0.029 A 
ATOM     33  C   UNL A   1      43.164  28.928  34.104  1.00  0.00     0.049 A 
ATOM     34  H   UNL A   1      41.635  29.354  32.712  1.00  0.00     0.167 HD
ATOM     35  C   UNL A   1      43.746  27.551  32.125  1.00  0.00     0.074 A 
ATOM     36  C   UNL A   1      44.594  26.621  31.410  1.00  0.00     0.031 C 
ATOM     37  C   UNL A   1      43.986  27.990  33.382  1.00  0.00     0.037 A 
BRANCH  24  38
ATOM     38  C   UNL A   1      39.804  31.988  35.518  1.00  0.00     0.064 A 
ATOM     39  C   UNL A   1      40.288  33.296  35.667  1.00  0.00     0.173 A 
ATOM     40  C   UNL A   1      38.836  31.537  36.427  1.00  0.00     0.173 A 
ATOM     41  F   UNL A   1      41.225  33.768  34.829  1.00  0.00    -0.203 F 
ATOM     42  C   UNL A   1      39.832  34.115  36.696  1.00  0.00     0.198 A 
ATOM     43  C   UNL A   1      38.365  32.366  37.440  1.00  0.00     0.198 A 
ATOM     44  F   UNL A   1      38.339  30.295  36.324  1.00  0.00    -0.203 F 
ATOM     45  F   UNL A   1      40.334  35.349  36.840  1.00  0.00    -0.200 F 
ATOM     46  C   UNL A   1      38.865  33.653  37.577  1.00  0.00     0.200 A 
ATOM     47  F   UNL A   1      37.423  31.923  38.284  1.00  0.00    -0.200 F 
ATOM     48  F   UNL A   1      38.419  34.447  38.559  1.00  0.00    -0.200 F 
ENDBRANCH  24  38
BRANCH  25  49
ATOM     49  C   UNL A   1      42.472  26.290  27.777  1.00  0.00     0.064 A 
ATOM     50  C   UNL A   1      43.401  26.736  26.826  1.00  0.00     0.173 A 
ATOM     51  C   UNL A   1      41.945  25.001  27.622  1.00  0.00     0.173 A 
ATOM     52  F   UNL A   1      43.916  27.970  26.922  1.00  0.00    -0.203 F 
ATOM     53  C   UNL A   1      43.781  25.927  25.758  1.00  0.00     0.198 A 
ATOM     54  C   UNL A   1      42.342  24.184  26.566  1.00  0.00     0.198 A 
ATOM     55  F   UNL A   1      41.055  24.529  28.508  1.00  0.00    -0.203 F 
ATOM     56  F   UNL A   1      44.648  26.389  24.846  1.00  0.00    -0.200 F 
ATOM     57  C   UNL A   1      43.256  24.650  25.632  1.00  0.00     0.200 A 
ATOM     58  F   UNL A   1      41.841  22.947  26.452  1.00  0.00    -0.200 F 
ATOM     59  F   UNL A   1      43.628  23.870  24.608  1.00  0.00    -0.200 F 
ENDBRANCH  25  49
BRANCH  37  60
ATOM     60  C   UNL A   1      45.196  27.457  34.087  1.00  0.00     0.064 A 
ATOM     61  C   UNL A   1      46.423  28.130  34.036  1.00  0.00     0.173 A 
ATOM     62  C   UNL A   1      45.101  26.310  34.888  1.00  0.00     0.173 A 
ATOM     63  F   UNL A   1      46.562  29.225  33.274  1.00  0.00    -0.203 F 
ATOM     64  C   UNL A   1      47.520  27.668  34.760  1.00  0.00     0.198 A 
ATOM     65  C   UNL A   1      46.193  25.864  35.627  1.00  0.00     0.198 A 
ATOM     66  F   UNL A   1      43.944  25.637  34.973  1.00  0.00    -0.203 F 
ATOM     67  F   UNL A   1      48.692  28.314  34.683  1.00  0.00    -0.200 F 
ATOM     68  C   UNL A   1      47.401  26.542  35.562  1.00  0.00     0.200 A 
ATOM     69  F   UNL A   1      46.074  24.782  36.409  1.00  0.00    -0.200 F 
ATOM     70  F   UNL A   1      48.452  26.110  36.271  1.00  0.00    -0.200 F 
ENDBRANCH  37  60
ENDBRANCH  11  12
ENDBRANCH   4   6
ENDBRANCH   1   2
BRANCH   1  71
ATOM     71  C   UNL A   1      32.180  28.905  27.025  1.00  0.00     0.042 C 
BRANCH  71  72
ATOM     72  C   UNL A   1      32.574  27.440  26.900  1.00  0.00     0.118 C 
BRANCH  72  73
ATOM     73  N   UNL A   1      31.430  26.537  26.924  1.00  0.00    -0.352 N 
ATOM     74  C   UNL A   1      30.524  26.220  25.940  1.00  0.00     0.252 C 
ATOM     75  H   UNL A   1      31.283  26.080  27.783  1.00  0.00     0.163 HD
ATOM     76  O   UNL A   1      29.587  25.470  26.201  1.00  0.00    -0.269 OA
BRANCH  74  77
ATOM     77  C   UNL A   1      30.692  26.752  24.572  1.00  0.00     0.051 A 
ATOM     78  C   UNL A   1      30.166  28.016  24.311  1.00  0.00     0.045 A 
ATOM     79  C   UNL A   1      31.371  26.034  23.565  1.00  0.00     0.016 A 
ATOM     80  C   UNL A   1      30.196  28.494  23.014  1.00  0.00     0.090 A 
ATOM     81  C   UNL A   1      31.409  26.638  22.290  1.00  0.00     0.072 A 
ATOM     82  C   UNL A   1      31.995  24.774  23.744  1.00  0.00     0.050 A 
ATOM     83  N   UNL A   1      30.820  27.816  22.021  1.00  0.00    -0.246 NA
ATOM     84  C   UNL A   1      32.072  25.986  21.257  1.00  0.00     0.032 A 
ATOM     85  C   UNL A   1      32.655  24.157  22.690  1.00  0.00     0.123 A 
ATOM     86  C   UNL A   1      32.702  24.754  21.444  1.00  0.00     0.041 A 
ATOM     87  F   UNL A   1      33.252  22.974  22.881  1.00  0.00    -0.207 F 
BRANCH  80  88
ATOM     88  C   UNL A   1      29.460  29.720  22.659  1.00  0.00     0.089 A 
ATOM     89  C   UNL A   1      29.147  30.691  23.611  1.00  0.00     0.030 A 
ATOM     90  N   UNL A   1      28.984  29.783  21.387  1.00  0.00    -0.255 NA
ATOM     91  C   UNL A   1      28.323  31.755  23.251  1.00  0.00     0.004 A 
ATOM     92  C   UNL A   1      28.197  30.832  21.062  1.00  0.00     0.112 A 
ATOM     93  C   UNL A   1      27.836  31.828  21.954  1.00  0.00     0.020 A 
ENDBRANCH  80  88
ENDBRANCH  74  77
ENDBRANCH  72  73
ENDBRANCH  71  72
ENDBRANCH   1  71
TORSDOF 11
ENDMDL
