MODEL 1
REMARK VINA RESULT:     -13.5      0.000      0.000
REMARK SMILES Cc1ccc(C(C)C)c(OCC(=O)Nc2nc(CC(=O)NCCCNC(=O)c3ccc(-c4c5nc(c(-c6c(F)c(F)c(F)c(F)c6F)c6ccc([nH]6)c(-c6c(F)c(F)c(F)c(F)c6F)c6nc(c(-c7c(F)c(F)c(F)c(F)c7F)c7ccc4[nH]7)C=C6)C=C5)cc3)cs2)c1
REMARK SMILES IDX 19 1 20 2 21 3 18 5 17 6 15 7 16 8 92 9 91 10 14 11 12 12
REMARK SMILES IDX 13 13 11 15 10 16 9 17 1 18 2 19 3 20 93 21 4 22 5 23 6 24
REMARK SMILES IDX 7 25 8 26 22 27 23 28 24 29 25 30 26 31 27 33 28 34 29 35
REMARK SMILES IDX 90 36 30 37 89 38 31 39 32 40 33 41 83 42 34 43 88 44 82 45
REMARK SMILES IDX 84 46 35 47 87 48 81 49 80 50 36 52 68 53 48 54 67 55 49 56
REMARK SMILES IDX 52 57 66 58 85 59 50 60 51 61 65 63 86 64 53 65 37 66 38 67
REMARK SMILES IDX 46 68 39 69 40 70 44 71 47 72 41 73 42 74 45 75 43 76 69 77
REMARK SMILES IDX 70 78 78 79 71 80 72 81 76 82 79 83 73 84 74 85 77 86 75 87
REMARK SMILES IDX 54 88 55 89 63 90 56 91 57 92 61 93 64 94 58 95 59 96 62 97
REMARK SMILES IDX 60 98
REMARK H PARENT 21 4 14 14 25 32 84 51 52 62
REMARK Flexibility Score: inf
ROOT
ATOM      1  C   UNL A   1      33.516  28.653  23.884  1.00  0.00     0.226 C 
ATOM      2  O   UNL A   1      33.980  28.893  22.767  1.00  0.00    -0.275 OA
ATOM      3  N   UNL A   1      32.877  29.663  24.553  1.00  0.00    -0.356 N 
ATOM      4  H   UNL A   1      32.894  30.544  24.114  1.00  0.00     0.163 HD
ENDROOT
BRANCH   1   5
ATOM      5  C   UNL A   1      33.658  27.276  24.515  1.00  0.00     0.157 C 
BRANCH   5   6
ATOM      6  C   UNL A   1      32.398  26.489  24.373  1.00  0.00     0.063 A 
ATOM      7  C   UNL A   1      30.841  25.161  25.179  1.00  0.00     0.189 A 
ATOM      8  N   UNL A   1      31.812  25.964  25.515  1.00  0.00    -0.224 NA
ATOM      9  S   UNL A   1      30.482  25.052  23.516  1.00  0.00    -0.105 S 
ATOM     10  C   UNL A   1      31.750  26.162  23.193  1.00  0.00     0.093 A 
BRANCH   7  11
ATOM     11  N   UNL A   1      30.092  24.349  25.970  1.00  0.00    -0.299 N 
ATOM     12  C   UNL A   1      30.554  23.396  26.823  1.00  0.00     0.264 C 
ATOM     13  O   UNL A   1      29.713  22.680  27.383  1.00  0.00    -0.271 OA
ATOM     14  H   UNL A   1      29.115  24.461  25.919  1.00  0.00     0.172 HD
BRANCH  12  15
ATOM     15  C   UNL A   1      32.049  23.278  27.180  1.00  0.00     0.329 C 
BRANCH  15  16
ATOM     16  O   UNL A   1      32.839  22.275  26.570  1.00  0.00    -0.483 OA
BRANCH  16  17
ATOM     17  C   UNL A   1      33.924  22.625  25.814  1.00  0.00     0.123 A 
ATOM     18  C   UNL A   1      37.444  24.071  26.080  1.00  0.00     0.044 C 
ATOM     19  C   UNL A   1      36.191  23.474  25.511  1.00  0.00    -0.047 A 
ATOM     20  C   UNL A   1      36.127  23.149  24.158  1.00  0.00     0.004 A 
ATOM     21  C   UNL A   1      35.081  23.221  26.328  1.00  0.00     0.050 A 
ATOM     22  C   UNL A   1      34.964  22.598  23.624  1.00  0.00     0.008 A 
ATOM     23  C   UNL A   1      33.850  22.321  24.436  1.00  0.00    -0.003 A 
BRANCH  23  24
ATOM     24  C   UNL A   1      32.592  21.723  23.813  1.00  0.00     0.017 C 
ATOM     25  C   UNL A   1      32.405  22.198  22.371  1.00  0.00     0.012 C 
ATOM     26  C   UNL A   1      32.588  20.189  23.849  1.00  0.00     0.012 C 
ENDBRANCH  23  24
ENDBRANCH  16  17
ENDBRANCH  15  16
ENDBRANCH  12  15
ENDBRANCH   7  11
ENDBRANCH   5   6
ENDBRANCH   1   5
BRANCH   3  27
ATOM     27  C   UNL A   1      32.177  29.602  25.827  1.00  0.00     0.117 C 
BRANCH  27  28
ATOM     28  C   UNL A   1      32.718  30.555  26.884  1.00  0.00     0.042 C 
BRANCH  28  29
ATOM     29  C   UNL A   1      34.162  30.277  27.259  1.00  0.00     0.118 C 
BRANCH  29  30
ATOM     30  N   UNL A   1      34.848  31.354  27.967  1.00  0.00    -0.352 N 
ATOM     31  C   UNL A   1      36.042  31.321  28.682  1.00  0.00     0.251 C 
ATOM     32  H   UNL A   1      34.402  32.231  27.935  1.00  0.00     0.163 HD
ATOM     33  O   UNL A   1      36.437  32.314  29.266  1.00  0.00    -0.269 OA
BRANCH  31  34
ATOM     34  C   UNL A   1      36.905  30.110  28.609  1.00  0.00     0.039 A 
ATOM     35  C   UNL A   1      37.001  29.288  29.740  1.00  0.00     0.014 A 
ATOM     36  C   UNL A   1      37.783  29.932  27.550  1.00  0.00     0.014 A 
ATOM     37  C   UNL A   1      38.140  28.504  29.920  1.00  0.00     0.010 A 
ATOM     38  C   UNL A   1      38.978  29.294  27.795  1.00  0.00     0.010 A 
ATOM     39  C   UNL A   1      39.182  28.623  29.004  1.00  0.00    -0.014 A 
BRANCH  39  40
ATOM     40  C   UNL A   1      40.556  28.207  29.263  1.00  0.00     0.031 A 
ATOM     41  C   UNL A   1      41.101  26.976  28.648  1.00  0.00     0.074 A 
ATOM     42  C   UNL A   1      41.388  29.065  29.898  1.00  0.00     0.049 A 
ATOM     43  N   UNL A   1      42.161  26.367  29.060  1.00  0.00    -0.248 NA
ATOM     44  C   UNL A   1      40.472  26.309  27.515  1.00  0.00     0.031 C 
ATOM     45  C   UNL A   1      42.849  29.037  29.898  1.00  0.00     0.029 A 
ATOM     46  N   UNL A   1      41.062  30.078  30.817  1.00  0.00    -0.354 N 
ATOM     47  C   UNL A   1      42.518  25.439  28.105  1.00  0.00     0.074 A 
ATOM     48  C   UNL A   1      41.396  25.396  27.199  1.00  0.00     0.031 C 
ATOM     49  C   UNL A   1      43.301  29.751  30.938  1.00  0.00     0.029 A 
ATOM     50  C   UNL A   1      42.144  30.130  31.729  1.00  0.00     0.049 A 
ATOM     51  H   UNL A   1      40.250  30.635  30.826  1.00  0.00     0.167 HD
ATOM     52  C   UNL A   1      43.783  24.924  28.124  1.00  0.00     0.037 A 
ATOM     53  C   UNL A   1      41.984  29.841  33.052  1.00  0.00     0.037 A 
ATOM     54  C   UNL A   1      44.539  25.445  29.262  1.00  0.00     0.049 A 
ATOM     55  C   UNL A   1      42.830  28.690  33.536  1.00  0.00     0.074 A 
ATOM     56  C   UNL A   1      45.484  26.452  29.370  1.00  0.00     0.029 A 
ATOM     57  N   UNL A   1      44.153  25.124  30.558  1.00  0.00    -0.354 N 
ATOM     58  N   UNL A   1      43.337  27.786  32.747  1.00  0.00    -0.248 NA
ATOM     59  C   UNL A   1      43.145  28.446  34.940  1.00  0.00     0.031 C 
ATOM     60  C   UNL A   1      45.652  26.752  30.742  1.00  0.00     0.029 A 
ATOM     61  C   UNL A   1      44.818  25.921  31.469  1.00  0.00     0.049 A 
ATOM     62  H   UNL A   1      43.498  24.428  30.794  1.00  0.00     0.167 HD
ATOM     63  C   UNL A   1      44.009  26.852  33.490  1.00  0.00     0.074 A 
ATOM     64  C   UNL A   1      43.874  27.318  34.857  1.00  0.00     0.031 C 
ATOM     65  C   UNL A   1      44.608  25.773  32.902  1.00  0.00     0.037 A 
BRANCH  52  66
ATOM     66  C   UNL A   1      44.449  24.192  26.970  1.00  0.00     0.064 A 
ATOM     67  C   UNL A   1      44.137  22.838  26.700  1.00  0.00     0.173 A 
ATOM     68  C   UNL A   1      45.438  24.730  26.128  1.00  0.00     0.173 A 
ATOM     69  F   UNL A   1      43.121  22.215  27.314  1.00  0.00    -0.203 F 
ATOM     70  C   UNL A   1      44.848  22.064  25.779  1.00  0.00     0.198 A 
ATOM     71  C   UNL A   1      46.184  23.947  25.239  1.00  0.00     0.198 A 
ATOM     72  F   UNL A   1      45.674  26.044  26.074  1.00  0.00    -0.203 F 
ATOM     73  F   UNL A   1      44.511  20.781  25.586  1.00  0.00    -0.200 F 
ATOM     74  C   UNL A   1      45.900  22.609  25.076  1.00  0.00     0.200 A 
ATOM     75  F   UNL A   1      47.179  24.508  24.534  1.00  0.00    -0.200 F 
ATOM     76  F   UNL A   1      46.611  21.859  24.223  1.00  0.00    -0.200 F 
ENDBRANCH  52  66
BRANCH  53  77
ATOM     77  C   UNL A   1      40.630  30.176  33.560  1.00  0.00     0.064 A 
ATOM     78  C   UNL A   1      40.351  31.522  33.863  1.00  0.00     0.173 A 
ATOM     79  C   UNL A   1      39.544  29.317  33.352  1.00  0.00     0.173 A 
ATOM     80  F   UNL A   1      41.360  32.384  34.069  1.00  0.00    -0.203 F 
ATOM     81  C   UNL A   1      39.048  32.014  33.833  1.00  0.00     0.198 A 
ATOM     82  C   UNL A   1      38.239  29.814  33.332  1.00  0.00     0.198 A 
ATOM     83  F   UNL A   1      39.749  28.030  33.039  1.00  0.00    -0.203 F 
ATOM     84  F   UNL A   1      38.824  33.324  34.011  1.00  0.00    -0.200 F 
ATOM     85  C   UNL A   1      37.996  31.164  33.535  1.00  0.00     0.200 A 
ATOM     86  F   UNL A   1      37.223  29.000  33.012  1.00  0.00    -0.200 F 
ATOM     87  F   UNL A   1      36.756  31.653  33.400  1.00  0.00    -0.200 F 
ENDBRANCH  53  77
BRANCH  65  88
ATOM     88  C   UNL A   1      45.151  24.541  33.593  1.00  0.00     0.064 A 
ATOM     89  C   UNL A   1      44.406  23.375  33.835  1.00  0.00     0.173 A 
ATOM     90  C   UNL A   1      46.531  24.450  33.914  1.00  0.00     0.173 A 
ATOM     91  F   UNL A   1      43.122  23.277  33.468  1.00  0.00    -0.203 F 
ATOM     92  C   UNL A   1      44.977  22.234  34.408  1.00  0.00     0.198 A 
ATOM     93  C   UNL A   1      47.108  23.290  34.429  1.00  0.00     0.198 A 
ATOM     94  F   UNL A   1      47.372  25.473  33.709  1.00  0.00    -0.203 F 
ATOM     95  F   UNL A   1      44.209  21.164  34.656  1.00  0.00    -0.200 F 
ATOM     96  C   UNL A   1      46.328  22.186  34.694  1.00  0.00     0.200 A 
ATOM     97  F   UNL A   1      48.431  23.245  34.646  1.00  0.00    -0.200 F 
ATOM     98  F   UNL A   1      46.878  21.075  35.198  1.00  0.00    -0.200 F 
ENDBRANCH  65  88
ENDBRANCH  39  40
ENDBRANCH  31  34
ENDBRANCH  29  30
ENDBRANCH  28  29
ENDBRANCH  27  28
ENDBRANCH   3  27
TORSDOF 16
ENDMDL
MODEL 2
REMARK VINA RESULT:     -13.4      3.816     10.025
REMARK SMILES Cc1ccc(C(C)C)c(OCC(=O)Nc2nc(CC(=O)NCCCNC(=O)c3ccc(-c4c5nc(c(-c6c(F)c(F)c(F)c(F)c6F)c6ccc([nH]6)c(-c6c(F)c(F)c(F)c(F)c6F)c6nc(c(-c7c(F)c(F)c(F)c(F)c7F)c7ccc4[nH]7)C=C6)C=C5)cc3)cs2)c1
REMARK SMILES IDX 19 1 20 2 21 3 18 5 17 6 15 7 16 8 92 9 91 10 14 11 12 12
REMARK SMILES IDX 13 13 11 15 10 16 9 17 1 18 2 19 3 20 93 21 4 22 5 23 6 24
REMARK SMILES IDX 7 25 8 26 22 27 23 28 24 29 25 30 26 31 27 33 28 34 29 35
REMARK SMILES IDX 90 36 30 37 89 38 31 39 32 40 33 41 83 42 34 43 88 44 82 45
REMARK SMILES IDX 84 46 35 47 87 48 81 49 80 50 36 52 68 53 48 54 67 55 49 56
REMARK SMILES IDX 52 57 66 58 85 59 50 60 51 61 65 63 86 64 53 65 37 66 38 67
REMARK SMILES IDX 46 68 39 69 40 70 44 71 47 72 41 73 42 74 45 75 43 76 69 77
REMARK SMILES IDX 70 78 78 79 71 80 72 81 76 82 79 83 73 84 74 85 77 86 75 87
REMARK SMILES IDX 54 88 55 89 63 90 56 91 57 92 61 93 64 94 58 95 59 96 62 97
REMARK SMILES IDX 60 98
REMARK H PARENT 21 4 14 14 25 32 84 51 52 62
REMARK Flexibility Score: inf
ROOT
ATOM      1  C   UNL A   1      34.381  21.879  26.766  1.00  0.00     0.226 C 
ATOM      2  O   UNL A   1      34.007  22.515  27.754  1.00  0.00    -0.275 OA
ATOM      3  N   UNL A   1      35.703  21.946  26.413  1.00  0.00    -0.356 N 
ATOM      4  H   UNL A   1      36.257  22.563  26.944  1.00  0.00     0.163 HD
ENDROOT
BRANCH   1   5
ATOM      5  C   UNL A   1      33.404  21.050  25.947  1.00  0.00     0.157 C 
BRANCH   5   6
ATOM      6  C   UNL A   1      32.646  21.906  24.989  1.00  0.00     0.063 A 
ATOM      7  C   UNL A   1      32.509  23.100  23.147  1.00  0.00     0.189 A 
ATOM      8  N   UNL A   1      33.224  22.200  23.763  1.00  0.00    -0.224 NA
ATOM      9  S   UNL A   1      31.062  23.579  23.911  1.00  0.00    -0.105 S 
ATOM     10  C   UNL A   1      31.416  22.507  25.204  1.00  0.00     0.093 A 
BRANCH   7  11
ATOM     11  N   UNL A   1      32.776  23.757  21.988  1.00  0.00    -0.299 N 
ATOM     12  C   UNL A   1      33.083  25.076  21.855  1.00  0.00     0.264 C 
ATOM     13  O   UNL A   1      33.190  25.519  20.705  1.00  0.00    -0.271 OA
ATOM     14  H   UNL A   1      32.743  23.225  21.161  1.00  0.00     0.172 HD
BRANCH  12  15
ATOM     15  C   UNL A   1      33.403  25.964  23.073  1.00  0.00     0.329 C 
BRANCH  15  16
ATOM     16  O   UNL A   1      33.342  27.373  22.950  1.00  0.00    -0.483 OA
BRANCH  16  17
ATOM     17  C   UNL A   1      33.074  28.145  24.046  1.00  0.00     0.123 A 
ATOM     18  C   UNL A   1      34.656  29.499  27.242  1.00  0.00     0.044 C 
ATOM     19  C   UNL A   1      33.666  29.235  26.146  1.00  0.00    -0.047 A 
ATOM     20  C   UNL A   1      32.428  29.874  26.159  1.00  0.00     0.004 A 
ATOM     21  C   UNL A   1      33.975  28.362  25.095  1.00  0.00     0.050 A 
ATOM     22  C   UNL A   1      31.503  29.630  25.146  1.00  0.00     0.008 A 
ATOM     23  C   UNL A   1      31.807  28.772  24.074  1.00  0.00    -0.003 A 
BRANCH  23  24
ATOM     24  C   UNL A   1      30.766  28.525  22.987  1.00  0.00     0.017 C 
ATOM     25  C   UNL A   1      29.794  27.414  23.389  1.00  0.00     0.012 C 
ATOM     26  C   UNL A   1      29.974  29.790  22.630  1.00  0.00     0.012 C 
ENDBRANCH  23  24
ENDBRANCH  16  17
ENDBRANCH  15  16
ENDBRANCH  12  15
ENDBRANCH   7  11
ENDBRANCH   5   6
ENDBRANCH   1   5
BRANCH   3  27
ATOM     27  C   UNL A   1      36.394  21.223  25.357  1.00  0.00     0.117 C 
BRANCH  27  28
ATOM     28  C   UNL A   1      37.727  21.835  24.948  1.00  0.00     0.042 C 
BRANCH  28  29
ATOM     29  C   UNL A   1      38.232  22.881  25.926  1.00  0.00     0.118 C 
BRANCH  29  30
ATOM     30  N   UNL A   1      39.625  22.737  26.340  1.00  0.00    -0.352 N 
ATOM     31  C   UNL A   1      40.505  23.699  26.826  1.00  0.00     0.251 C 
ATOM     32  H   UNL A   1      39.995  21.829  26.264  1.00  0.00     0.163 HD
ATOM     33  O   UNL A   1      41.663  23.408  27.066  1.00  0.00    -0.269 OA
BRANCH  31  34
ATOM     34  C   UNL A   1      39.989  25.048  27.187  1.00  0.00     0.039 A 
ATOM     35  C   UNL A   1      40.354  26.140  26.388  1.00  0.00     0.014 A 
ATOM     36  C   UNL A   1      39.376  25.264  28.412  1.00  0.00     0.014 A 
ATOM     37  C   UNL A   1      40.365  27.419  26.944  1.00  0.00     0.010 A 
ATOM     38  C   UNL A   1      39.541  26.490  29.017  1.00  0.00     0.010 A 
ATOM     39  C   UNL A   1      40.088  27.558  28.301  1.00  0.00    -0.014 A 
BRANCH  39  40
ATOM     40  C   UNL A   1      40.453  28.723  29.100  1.00  0.00     0.031 A 
ATOM     41  C   UNL A   1      39.442  29.745  29.451  1.00  0.00     0.074 A 
ATOM     42  C   UNL A   1      41.670  28.751  29.691  1.00  0.00     0.049 A 
ATOM     43  N   UNL A   1      39.726  30.936  29.860  1.00  0.00    -0.248 NA
ATOM     44  C   UNL A   1      38.007  29.512  29.345  1.00  0.00     0.031 C 
ATOM     45  C   UNL A   1      42.079  29.580  30.822  1.00  0.00     0.029 A 
ATOM     46  N   UNL A   1      42.857  28.121  29.277  1.00  0.00    -0.354 N 
ATOM     47  C   UNL A   1      38.569  31.507  30.344  1.00  0.00     0.074 A 
ATOM     48  C   UNL A   1      37.518  30.606  29.936  1.00  0.00     0.031 C 
ATOM     49  C   UNL A   1      43.418  29.649  30.854  1.00  0.00     0.029 A 
ATOM     50  C   UNL A   1      43.906  28.994  29.654  1.00  0.00     0.049 A 
ATOM     51  H   UNL A   1      42.942  27.252  28.821  1.00  0.00     0.167 HD
ATOM     52  C   UNL A   1      38.660  32.603  31.153  1.00  0.00     0.037 A 
ATOM     53  C   UNL A   1      44.719  29.582  28.729  1.00  0.00     0.037 A 
ATOM     54  C   UNL A   1      40.054  33.020  31.307  1.00  0.00     0.049 A 
ATOM     55  C   UNL A   1      44.689  31.090  28.756  1.00  0.00     0.074 A 
ATOM     56  C   UNL A   1      40.981  32.816  32.316  1.00  0.00     0.029 A 
ATOM     57  N   UNL A   1      40.762  33.497  30.210  1.00  0.00    -0.354 N 
ATOM     58  N   UNL A   1      43.717  31.783  29.277  1.00  0.00    -0.248 NA
ATOM     59  C   UNL A   1      45.728  31.934  28.175  1.00  0.00     0.031 C 
ATOM     60  C   UNL A   1      42.259  33.155  31.815  1.00  0.00     0.029 A 
ATOM     61  C   UNL A   1      42.109  33.575  30.505  1.00  0.00     0.049 A 
ATOM     62  H   UNL A   1      40.361  33.744  29.346  1.00  0.00     0.167 HD
ATOM     63  C   UNL A   1      43.960  33.120  29.101  1.00  0.00     0.074 A 
ATOM     64  C   UNL A   1      45.240  33.163  28.419  1.00  0.00     0.031 C 
ATOM     65  C   UNL A   1      43.071  34.065  29.530  1.00  0.00     0.037 A 
BRANCH  52  66
ATOM     66  C   UNL A   1      37.550  33.129  32.049  1.00  0.00     0.064 A 
ATOM     67  C   UNL A   1      36.503  33.915  31.511  1.00  0.00     0.173 A 
ATOM     68  C   UNL A   1      37.476  32.951  33.442  1.00  0.00     0.173 A 
ATOM     69  F   UNL A   1      36.344  34.065  30.189  1.00  0.00    -0.203 F 
ATOM     70  C   UNL A   1      35.565  34.576  32.309  1.00  0.00     0.198 A 
ATOM     71  C   UNL A   1      36.568  33.650  34.247  1.00  0.00     0.198 A 
ATOM     72  F   UNL A   1      38.226  32.043  34.074  1.00  0.00    -0.203 F 
ATOM     73  F   UNL A   1      34.610  35.322  31.734  1.00  0.00    -0.200 F 
ATOM     74  C   UNL A   1      35.622  34.476  33.681  1.00  0.00     0.200 A 
ATOM     75  F   UNL A   1      36.616  33.505  35.580  1.00  0.00    -0.200 F 
ATOM     76  F   UNL A   1      34.750  35.141  34.450  1.00  0.00    -0.200 F 
ENDBRANCH  52  66
BRANCH  53  77
ATOM     77  C   UNL A   1      44.906  28.755  27.511  1.00  0.00     0.064 A 
ATOM     78  C   UNL A   1      45.817  27.684  27.572  1.00  0.00     0.173 A 
ATOM     79  C   UNL A   1      43.945  28.734  26.494  1.00  0.00     0.173 A 
ATOM     80  F   UNL A   1      46.756  27.659  28.532  1.00  0.00    -0.203 F 
ATOM     81  C   UNL A   1      45.693  26.580  26.732  1.00  0.00     0.198 A 
ATOM     82  C   UNL A   1      43.829  27.629  25.648  1.00  0.00     0.198 A 
ATOM     83  F   UNL A   1      43.037  29.716  26.400  1.00  0.00    -0.203 F 
ATOM     84  F   UNL A   1      46.504  25.525  26.890  1.00  0.00    -0.200 F 
ATOM     85  C   UNL A   1      44.677  26.540  25.791  1.00  0.00     0.200 A 
ATOM     86  F   UNL A   1      42.827  27.574  24.759  1.00  0.00    -0.200 F 
ATOM     87  F   UNL A   1      44.487  25.438  25.055  1.00  0.00    -0.200 F 
ENDBRANCH  53  77
BRANCH  65  88
ATOM     88  C   UNL A   1      43.068  35.539  29.182  1.00  0.00     0.064 A 
ATOM     89  C   UNL A   1      42.328  36.104  28.131  1.00  0.00     0.173 A 
ATOM     90  C   UNL A   1      43.728  36.473  30.023  1.00  0.00     0.173 A 
ATOM     91  F   UNL A   1      41.559  35.352  27.334  1.00  0.00    -0.203 F 
ATOM     92  C   UNL A   1      42.299  37.483  27.901  1.00  0.00     0.198 A 
ATOM     93  C   UNL A   1      43.647  37.851  29.826  1.00  0.00     0.198 A 
ATOM     94  F   UNL A   1      44.447  36.083  31.085  1.00  0.00    -0.203 F 
ATOM     95  F   UNL A   1      41.609  37.964  26.856  1.00  0.00    -0.200 F 
ATOM     96  C   UNL A   1      42.947  38.357  28.753  1.00  0.00     0.200 A 
ATOM     97  F   UNL A   1      44.234  38.684  30.697  1.00  0.00    -0.200 F 
ATOM     98  F   UNL A   1      42.875  39.679  28.555  1.00  0.00    -0.200 F 
ENDBRANCH  65  88
ENDBRANCH  39  40
ENDBRANCH  31  34
ENDBRANCH  29  30
ENDBRANCH  28  29
ENDBRANCH  27  28
ENDBRANCH   3  27
TORSDOF 16
ENDMDL
MODEL 3
REMARK VINA RESULT:     -13.3      0.938      1.658
REMARK SMILES Cc1ccc(C(C)C)c(OCC(=O)Nc2nc(CC(=O)NCCCNC(=O)c3ccc(-c4c5nc(c(-c6c(F)c(F)c(F)c(F)c6F)c6ccc([nH]6)c(-c6c(F)c(F)c(F)c(F)c6F)c6nc(c(-c7c(F)c(F)c(F)c(F)c7F)c7ccc4[nH]7)C=C6)C=C5)cc3)cs2)c1
REMARK SMILES IDX 19 1 20 2 21 3 18 5 17 6 15 7 16 8 92 9 91 10 14 11 12 12
REMARK SMILES IDX 13 13 11 15 10 16 9 17 1 18 2 19 3 20 93 21 4 22 5 23 6 24
REMARK SMILES IDX 7 25 8 26 22 27 23 28 24 29 25 30 26 31 27 33 28 34 29 35
REMARK SMILES IDX 90 36 30 37 89 38 31 39 32 40 33 41 83 42 34 43 88 44 82 45
REMARK SMILES IDX 84 46 35 47 87 48 81 49 80 50 36 52 68 53 48 54 67 55 49 56
REMARK SMILES IDX 52 57 66 58 85 59 50 60 51 61 65 63 86 64 53 65 37 66 38 67
REMARK SMILES IDX 46 68 39 69 40 70 44 71 47 72 41 73 42 74 45 75 43 76 69 77
REMARK SMILES IDX 70 78 78 79 71 80 72 81 76 82 79 83 73 84 74 85 77 86 75 87
REMARK SMILES IDX 54 88 55 89 63 90 56 91 57 92 61 93 64 94 58 95 59 96 62 97
REMARK SMILES IDX 60 98
REMARK H PARENT 21 4 14 14 25 32 84 51 52 62
REMARK Flexibility Score: inf
ROOT
ATOM      1  C   UNL A   1      33.271  28.931  24.145  1.00  0.00     0.226 C 
ATOM      2  O   UNL A   1      33.794  29.087  23.039  1.00  0.00    -0.275 OA
ATOM      3  N   UNL A   1      32.578  29.979  24.690  1.00  0.00    -0.356 N 
ATOM      4  H   UNL A   1      32.606  30.821  24.181  1.00  0.00     0.163 HD
ENDROOT
BRANCH   1   5
ATOM      5  C   UNL A   1      33.397  27.614  24.896  1.00  0.00     0.157 C 
BRANCH   5   6
ATOM      6  C   UNL A   1      32.157  26.796  24.756  1.00  0.00     0.063 A 
ATOM      7  C   UNL A   1      30.628  25.440  25.570  1.00  0.00     0.189 A 
ATOM      8  N   UNL A   1      31.579  26.269  25.902  1.00  0.00    -0.224 NA
ATOM      9  S   UNL A   1      30.278  25.306  23.907  1.00  0.00    -0.105 S 
ATOM     10  C   UNL A   1      31.522  26.442  23.577  1.00  0.00     0.093 A 
BRANCH   7  11
ATOM     11  N   UNL A   1      29.894  24.619  26.367  1.00  0.00    -0.299 N 
ATOM     12  C   UNL A   1      30.279  23.410  26.859  1.00  0.00     0.264 C 
ATOM     13  O   UNL A   1      29.431  22.757  27.481  1.00  0.00    -0.271 OA
ATOM     14  H   UNL A   1      28.993  24.930  26.611  1.00  0.00     0.172 HD
BRANCH  12  15
ATOM     15  C   UNL A   1      31.735  22.916  26.758  1.00  0.00     0.329 C 
BRANCH  15  16
ATOM     16  O   UNL A   1      32.296  22.641  25.488  1.00  0.00    -0.483 OA
BRANCH  16  17
ATOM     17  C   UNL A   1      33.005  21.488  25.287  1.00  0.00     0.123 A 
ATOM     18  C   UNL A   1      32.580  17.720  24.874  1.00  0.00     0.044 C 
ATOM     19  C   UNL A   1      33.207  19.081  24.956  1.00  0.00    -0.047 A 
ATOM     20  C   UNL A   1      34.572  19.232  24.721  1.00  0.00     0.004 A 
ATOM     21  C   UNL A   1      32.435  20.210  25.252  1.00  0.00     0.050 A 
ATOM     22  C   UNL A   1      35.161  20.493  24.799  1.00  0.00     0.008 A 
ATOM     23  C   UNL A   1      34.394  21.638  25.076  1.00  0.00    -0.003 A 
BRANCH  23  24
ATOM     24  C   UNL A   1      35.076  23.000  25.160  1.00  0.00     0.017 C 
ATOM     25  C   UNL A   1      36.447  22.897  25.831  1.00  0.00     0.012 C 
ATOM     26  C   UNL A   1      35.231  23.668  23.787  1.00  0.00     0.012 C 
ENDBRANCH  23  24
ENDBRANCH  16  17
ENDBRANCH  15  16
ENDBRANCH  12  15
ENDBRANCH   7  11
ENDBRANCH   5   6
ENDBRANCH   1   5
BRANCH   3  27
ATOM     27  C   UNL A   1      31.808  30.009  25.924  1.00  0.00     0.117 C 
BRANCH  27  28
ATOM     28  C   UNL A   1      32.354  30.959  26.980  1.00  0.00     0.042 C 
BRANCH  28  29
ATOM     29  C   UNL A   1      33.675  30.502  27.572  1.00  0.00     0.118 C 
BRANCH  29  30
ATOM     30  N   UNL A   1      34.408  31.510  28.333  1.00  0.00    -0.352 N 
ATOM     31  C   UNL A   1      35.598  31.387  29.043  1.00  0.00     0.251 C 
ATOM     32  H   UNL A   1      34.002  32.407  28.345  1.00  0.00     0.163 HD
ATOM     33  O   UNL A   1      36.037  32.331  29.676  1.00  0.00    -0.269 OA
BRANCH  31  34
ATOM     34  C   UNL A   1      36.405  30.144  28.910  1.00  0.00     0.039 A 
ATOM     35  C   UNL A   1      36.617  29.358  30.051  1.00  0.00     0.014 A 
ATOM     36  C   UNL A   1      37.137  29.897  27.757  1.00  0.00     0.014 A 
ATOM     37  C   UNL A   1      37.743  28.538  30.116  1.00  0.00     0.010 A 
ATOM     38  C   UNL A   1      38.332  29.224  27.874  1.00  0.00     0.010 A 
ATOM     39  C   UNL A   1      38.665  28.588  29.074  1.00  0.00    -0.014 A 
BRANCH  39  40
ATOM     40  C   UNL A   1      40.046  28.130  29.174  1.00  0.00     0.031 A 
ATOM     41  C   UNL A   1      40.439  26.797  28.667  1.00  0.00     0.074 A 
ATOM     42  C   UNL A   1      41.001  29.017  29.543  1.00  0.00     0.049 A 
ATOM     43  N   UNL A   1      41.529  26.188  28.994  1.00  0.00    -0.248 NA
ATOM     44  C   UNL A   1      39.612  26.019  27.753  1.00  0.00     0.031 C 
ATOM     45  C   UNL A   1      42.440  28.902  29.321  1.00  0.00     0.029 A 
ATOM     46  N   UNL A   1      40.865  30.163  30.345  1.00  0.00    -0.354 N 
ATOM     47  C   UNL A   1      41.693  25.119  28.140  1.00  0.00     0.074 A 
ATOM     48  C   UNL A   1      40.438  25.019  27.434  1.00  0.00     0.031 C 
ATOM     49  C   UNL A   1      43.080  29.723  30.165  1.00  0.00     0.029 A 
ATOM     50  C   UNL A   1      42.082  30.275  31.061  1.00  0.00     0.049 A 
ATOM     51  H   UNL A   1      40.086  30.763  30.399  1.00  0.00     0.167 HD
ATOM     52  C   UNL A   1      42.924  24.537  28.037  1.00  0.00     0.037 A 
ATOM     53  C   UNL A   1      42.126  30.180  32.422  1.00  0.00     0.037 A 
ATOM     54  C   UNL A   1      43.872  25.163  28.958  1.00  0.00     0.049 A 
ATOM     55  C   UNL A   1      42.996  29.058  32.930  1.00  0.00     0.074 A 
ATOM     56  C   UNL A   1      44.859  26.117  28.772  1.00  0.00     0.029 A 
ATOM     57  N   UNL A   1      43.689  25.046  30.330  1.00  0.00    -0.354 N 
ATOM     58  N   UNL A   1      43.335  28.026  32.211  1.00  0.00    -0.248 NA
ATOM     59  C   UNL A   1      43.525  28.990  34.288  1.00  0.00     0.031 C 
ATOM     60  C   UNL A   1      45.258  26.592  30.043  1.00  0.00     0.029 A 
ATOM     61  C   UNL A   1      44.521  25.919  31.003  1.00  0.00     0.049 A 
ATOM     62  H   UNL A   1      43.055  24.429  30.763  1.00  0.00     0.167 HD
ATOM     63  C   UNL A   1      44.084  27.164  32.969  1.00  0.00     0.074 A 
ATOM     64  C   UNL A   1      44.188  27.820  34.258  1.00  0.00     0.031 C 
ATOM     65  C   UNL A   1      44.540  25.982  32.456  1.00  0.00     0.037 A 
BRANCH  52  66
ATOM     66  C   UNL A   1      43.368  23.616  26.912  1.00  0.00     0.064 A 
ATOM     67  C   UNL A   1      42.993  22.251  26.909  1.00  0.00     0.173 A 
ATOM     68  C   UNL A   1      44.203  23.983  25.842  1.00  0.00     0.173 A 
ATOM     69  F   UNL A   1      42.091  21.768  27.775  1.00  0.00    -0.203 F 
ATOM     70  C   UNL A   1      43.522  21.321  26.010  1.00  0.00     0.198 A 
ATOM     71  C   UNL A   1      44.771  23.046  24.969  1.00  0.00     0.198 A 
ATOM     72  F   UNL A   1      44.446  25.264  25.549  1.00  0.00    -0.203 F 
ATOM     73  F   UNL A   1      43.137  20.038  26.075  1.00  0.00    -0.200 F 
ATOM     74  C   UNL A   1      44.443  21.712  25.063  1.00  0.00     0.200 A 
ATOM     75  F   UNL A   1      45.635  23.456  24.028  1.00  0.00    -0.200 F 
ATOM     76  F   UNL A   1      44.983  20.816  24.226  1.00  0.00    -0.200 F 
ENDBRANCH  52  66
BRANCH  53  77
ATOM     77  C   UNL A   1      40.885  30.661  33.079  1.00  0.00     0.064 A 
ATOM     78  C   UNL A   1      40.689  32.051  33.188  1.00  0.00     0.173 A 
ATOM     79  C   UNL A   1      39.762  29.835  33.201  1.00  0.00     0.173 A 
ATOM     80  F   UNL A   1      41.737  32.884  33.075  1.00  0.00    -0.203 F 
ATOM     81  C   UNL A   1      39.411  32.595  33.287  1.00  0.00     0.198 A 
ATOM     82  C   UNL A   1      38.483  30.385  33.310  1.00  0.00     0.198 A 
ATOM     83  F   UNL A   1      39.884  28.504  33.085  1.00  0.00    -0.203 F 
ATOM     84  F   UNL A   1      39.249  33.926  33.272  1.00  0.00    -0.200 F 
ATOM     85  C   UNL A   1      38.306  31.761  33.315  1.00  0.00     0.200 A 
ATOM     86  F   UNL A   1      37.411  29.580  33.304  1.00  0.00    -0.200 F 
ATOM     87  F   UNL A   1      37.072  32.281  33.302  1.00  0.00    -0.200 F 
ENDBRANCH  53  77
BRANCH  65  88
ATOM     88  C   UNL A   1      45.141  24.825  33.227  1.00  0.00     0.064 A 
ATOM     89  C   UNL A   1      44.474  23.619  33.494  1.00  0.00     0.173 A 
ATOM     90  C   UNL A   1      46.509  24.853  33.605  1.00  0.00     0.173 A 
ATOM     91  F   UNL A   1      43.218  23.408  33.083  1.00  0.00    -0.203 F 
ATOM     92  C   UNL A   1      45.102  22.551  34.143  1.00  0.00     0.198 A 
ATOM     93  C   UNL A   1      47.148  23.763  34.197  1.00  0.00     0.198 A 
ATOM     94  F   UNL A   1      47.281  25.926  33.385  1.00  0.00    -0.203 F 
ATOM     95  F   UNL A   1      44.405  21.438  34.412  1.00  0.00    -0.200 F 
ATOM     96  C   UNL A   1      46.440  22.617  34.484  1.00  0.00     0.200 A 
ATOM     97  F   UNL A   1      48.460  23.827  34.467  1.00  0.00    -0.200 F 
ATOM     98  F   UNL A   1      47.047  21.574  35.061  1.00  0.00    -0.200 F 
ENDBRANCH  65  88
ENDBRANCH  39  40
ENDBRANCH  31  34
ENDBRANCH  29  30
ENDBRANCH  28  29
ENDBRANCH  27  28
ENDBRANCH   3  27
TORSDOF 16
ENDMDL
