MODEL 1
REMARK VINA RESULT:     -11.6      0.000      0.000
REMARK SMILES C[C@H](CSc1ccc(C(=O)N(C)C)cn1)C(=O)NCCCNC(=O)c1ccc(-c2c3nc(c(-c4c(F)c(F)c(F)c(F)c4F)c4ccc([nH]4)c(-c4c(F)c(F)c(F)c(F)c4F)c4nc(c(-c5c(F)c(F)c(F)c(F)c5F)c5ccc2[nH]5)C=C4)C=C3)cc1
REMARK SMILES IDX 19 1 18 2 16 3 17 4 2 6 1 7 3 8 4 9 5 10 6 11 15 12 7 13
REMARK SMILES IDX 14 14 8 15 9 16 10 17 11 18 12 19 13 20 20 21 21 22 22 23
REMARK SMILES IDX 23 24 24 26 25 27 26 28 87 29 27 30 86 31 28 32 29 33 30 34
REMARK SMILES IDX 80 35 31 36 85 37 79 38 81 39 32 40 84 41 78 42 77 43 33 45
REMARK SMILES IDX 65 46 45 47 64 48 46 49 49 50 63 51 82 52 47 53 48 54 62 56
REMARK SMILES IDX 83 57 50 58 34 59 35 60 43 61 36 62 37 63 41 64 44 65 38 66
REMARK SMILES IDX 39 67 42 68 40 69 66 70 67 71 75 72 68 73 69 74 73 75 76 76
REMARK SMILES IDX 70 77 71 78 74 79 72 80 51 81 52 82 60 83 53 84 54 85 58 86
REMARK SMILES IDX 61 87 55 88 56 89 59 90 57 91
REMARK H PARENT 18 5 22 25 81 44 49 55
REMARK Flexibility Score: inf
ROOT
ATOM      1  C   UNL A   1      31.678  30.121  26.400  1.00  0.00     0.117 C 
ENDROOT
BRANCH   1   2
ATOM      2  N   UNL A   1      32.742  29.678  25.522  1.00  0.00    -0.356 N 
ATOM      3  C   UNL A   1      33.284  28.463  25.263  1.00  0.00     0.223 C 
ATOM      4  O   UNL A   1      34.007  28.396  24.260  1.00  0.00    -0.275 OA
ATOM      5  H   UNL A   1      33.155  30.409  25.007  1.00  0.00     0.163 HD
BRANCH   3   6
ATOM      6  C   UNL A   1      32.986  27.207  26.060  1.00  0.00     0.085 C 
ATOM      7  C   UNL A   1      34.017  26.106  25.779  1.00  0.00     0.019 C 
BRANCH   6   8
ATOM      8  C   UNL A   1      31.548  26.678  26.223  1.00  0.00     0.089 C 
BRANCH   8   9
ATOM      9  S   UNL A   1      30.567  25.724  25.012  1.00  0.00    -0.106 SA
BRANCH   9  10
ATOM     10  C   UNL A   1      29.901  26.905  23.855  1.00  0.00     0.096 A 
ATOM     11  C   UNL A   1      30.819  27.590  23.062  1.00  0.00     0.036 A 
ATOM     12  N   UNL A   1      28.602  27.221  23.859  1.00  0.00    -0.249 NA
ATOM     13  C   UNL A   1      30.415  28.723  22.344  1.00  0.00     0.018 A 
ATOM     14  C   UNL A   1      28.229  28.320  23.128  1.00  0.00     0.126 A 
ATOM     15  C   UNL A   1      29.085  29.117  22.356  1.00  0.00     0.058 A 
BRANCH  15  16
ATOM     16  C   UNL A   1      28.509  30.353  21.749  1.00  0.00     0.254 C 
ATOM     17  O   UNL A   1      28.024  30.206  20.621  1.00  0.00    -0.269 OA
ATOM     18  N   UNL A   1      28.500  31.625  22.341  1.00  0.00    -0.345 N 
ATOM     19  C   UNL A   1      28.988  32.073  23.635  1.00  0.00     0.146 C 
ATOM     20  C   UNL A   1      28.028  32.703  21.476  1.00  0.00     0.146 C 
ENDBRANCH  15  16
ENDBRANCH   9  10
ENDBRANCH   8   9
ENDBRANCH   6   8
ENDBRANCH   3   6
ENDBRANCH   1   2
BRANCH   1  21
ATOM     21  C   UNL A   1      31.534  31.636  26.506  1.00  0.00     0.042 C 
BRANCH  21  22
ATOM     22  C   UNL A   1      32.727  32.376  27.091  1.00  0.00     0.118 C 
BRANCH  22  23
ATOM     23  N   UNL A   1      32.431  33.744  27.462  1.00  0.00    -0.352 N 
ATOM     24  C   UNL A   1      33.014  34.533  28.426  1.00  0.00     0.251 C 
ATOM     25  H   UNL A   1      31.707  34.171  26.951  1.00  0.00     0.163 HD
ATOM     26  O   UNL A   1      32.532  35.623  28.703  1.00  0.00    -0.269 OA
BRANCH  24  27
ATOM     27  C   UNL A   1      34.208  34.054  29.164  1.00  0.00     0.039 A 
ATOM     28  C   UNL A   1      34.019  33.188  30.244  1.00  0.00     0.014 A 
ATOM     29  C   UNL A   1      35.499  34.464  28.818  1.00  0.00     0.014 A 
ATOM     30  C   UNL A   1      35.125  32.679  30.933  1.00  0.00     0.010 A 
ATOM     31  C   UNL A   1      36.604  33.895  29.454  1.00  0.00     0.010 A 
ATOM     32  C   UNL A   1      36.429  32.997  30.520  1.00  0.00    -0.014 A 
BRANCH  32  33
ATOM     33  C   UNL A   1      37.617  32.403  31.194  1.00  0.00     0.031 A 
ATOM     34  C   UNL A   1      38.382  31.287  30.537  1.00  0.00     0.074 A 
ATOM     35  C   UNL A   1      37.979  32.829  32.421  1.00  0.00     0.049 A 
ATOM     36  N   UNL A   1      39.378  30.577  31.004  1.00  0.00    -0.248 NA
ATOM     37  C   UNL A   1      37.956  30.903  29.183  1.00  0.00     0.031 C 
ATOM     38  C   UNL A   1      37.315  33.890  33.177  1.00  0.00     0.029 A 
ATOM     39  N   UNL A   1      38.989  32.411  33.255  1.00  0.00    -0.354 N 
ATOM     40  C   UNL A   1      39.688  29.658  30.010  1.00  0.00     0.074 A 
ATOM     41  C   UNL A   1      38.742  29.865  28.935  1.00  0.00     0.031 C 
ATOM     42  C   UNL A   1      37.941  34.051  34.354  1.00  0.00     0.029 A 
ATOM     43  C   UNL A   1      39.019  33.073  34.460  1.00  0.00     0.049 A 
ATOM     44  H   UNL A   1      39.630  31.704  33.013  1.00  0.00     0.167 HD
ATOM     45  C   UNL A   1      40.684  28.738  29.986  1.00  0.00     0.037 A 
ATOM     46  C   UNL A   1      39.812  32.899  35.536  1.00  0.00     0.037 A 
ATOM     47  C   UNL A   1      41.639  28.548  31.047  1.00  0.00     0.049 A 
ATOM     48  C   UNL A   1      40.883  31.840  35.502  1.00  0.00     0.074 A 
ATOM     49  C   UNL A   1      42.710  27.672  31.094  1.00  0.00     0.029 A 
ATOM     50  N   UNL A   1      41.636  29.240  32.250  1.00  0.00    -0.354 N 
ATOM     51  N   UNL A   1      41.195  31.010  34.537  1.00  0.00    -0.248 NA
ATOM     52  C   UNL A   1      41.714  31.696  36.705  1.00  0.00     0.031 C 
ATOM     53  C   UNL A   1      43.317  27.790  32.349  1.00  0.00     0.029 A 
ATOM     54  C   UNL A   1      42.669  28.789  33.056  1.00  0.00     0.049 A 
ATOM     55  H   UNL A   1      40.995  29.947  32.494  1.00  0.00     0.167 HD
ATOM     56  C   UNL A   1      42.280  30.276  34.999  1.00  0.00     0.074 A 
ATOM     57  C   UNL A   1      42.575  30.761  36.331  1.00  0.00     0.031 C 
ATOM     58  C   UNL A   1      42.971  29.294  34.371  1.00  0.00     0.037 A 
BRANCH  45  59
ATOM     59  C   UNL A   1      40.790  27.855  28.776  1.00  0.00     0.064 A 
ATOM     60  C   UNL A   1      40.036  26.677  28.652  1.00  0.00     0.173 A 
ATOM     61  C   UNL A   1      41.620  28.214  27.703  1.00  0.00     0.173 A 
ATOM     62  F   UNL A   1      39.233  26.282  29.651  1.00  0.00    -0.203 F 
ATOM     63  C   UNL A   1      40.136  25.877  27.516  1.00  0.00     0.198 A 
ATOM     64  C   UNL A   1      41.690  27.432  26.554  1.00  0.00     0.198 A 
ATOM     65  F   UNL A   1      42.357  29.335  27.765  1.00  0.00    -0.203 F 
ATOM     66  F   UNL A   1      39.449  24.730  27.445  1.00  0.00    -0.200 F 
ATOM     67  C   UNL A   1      40.956  26.259  26.465  1.00  0.00     0.200 A 
ATOM     68  F   UNL A   1      42.471  27.812  25.534  1.00  0.00    -0.200 F 
ATOM     69  F   UNL A   1      41.045  25.494  25.369  1.00  0.00    -0.200 F 
ENDBRANCH  45  59
BRANCH  46  70
ATOM     70  C   UNL A   1      39.626  33.751  36.742  1.00  0.00     0.064 A 
ATOM     71  C   UNL A   1      40.309  34.969  36.878  1.00  0.00     0.173 A 
ATOM     72  C   UNL A   1      38.777  33.361  37.788  1.00  0.00     0.173 A 
ATOM     73  F   UNL A   1      41.150  35.375  35.916  1.00  0.00    -0.203 F 
ATOM     74  C   UNL A   1      40.167  35.750  38.024  1.00  0.00     0.198 A 
ATOM     75  C   UNL A   1      38.611  34.159  38.918  1.00  0.00     0.198 A 
ATOM     76  F   UNL A   1      38.097  32.208  37.707  1.00  0.00    -0.203 F 
ATOM     77  F   UNL A   1      40.871  36.883  38.149  1.00  0.00    -0.200 F 
ATOM     78  C   UNL A   1      39.313  35.349  39.039  1.00  0.00     0.200 A 
ATOM     79  F   UNL A   1      37.771  33.774  39.889  1.00  0.00    -0.200 F 
ATOM     80  F   UNL A   1      39.174  36.102  40.139  1.00  0.00    -0.200 F 
ENDBRANCH  46  70
BRANCH  58  81
ATOM     81  C   UNL A   1      44.159  28.708  35.083  1.00  0.00     0.064 A 
ATOM     82  C   UNL A   1      45.426  29.305  35.027  1.00  0.00     0.173 A 
ATOM     83  C   UNL A   1      44.003  27.570  35.890  1.00  0.00     0.173 A 
ATOM     84  F   UNL A   1      45.632  30.385  34.259  1.00  0.00    -0.203 F 
ATOM     85  C   UNL A   1      46.498  28.774  35.742  1.00  0.00     0.198 A 
ATOM     86  C   UNL A   1      45.069  27.062  36.629  1.00  0.00     0.198 A 
ATOM     87  F   UNL A   1      42.809  26.965  35.983  1.00  0.00    -0.203 F 
ATOM     88  F   UNL A   1      47.710  29.338  35.645  1.00  0.00    -0.200 F 
ATOM     89  C   UNL A   1      46.315  27.662  36.550  1.00  0.00     0.200 A 
ATOM     90  F   UNL A   1      44.885  25.998  37.423  1.00  0.00    -0.200 F 
ATOM     91  F   UNL A   1      47.343  27.166  37.252  1.00  0.00    -0.200 F 
ENDBRANCH  58  81
ENDBRANCH  32  33
ENDBRANCH  24  27
ENDBRANCH  22  23
ENDBRANCH  21  22
ENDBRANCH   1  21
TORSDOF 14
ENDMDL
MODEL 2
REMARK VINA RESULT:     -11.6      3.449      5.355
REMARK SMILES C[C@H](CSc1ccc(C(=O)N(C)C)cn1)C(=O)NCCCNC(=O)c1ccc(-c2c3nc(c(-c4c(F)c(F)c(F)c(F)c4F)c4ccc([nH]4)c(-c4c(F)c(F)c(F)c(F)c4F)c4nc(c(-c5c(F)c(F)c(F)c(F)c5F)c5ccc2[nH]5)C=C4)C=C3)cc1
REMARK SMILES IDX 19 1 18 2 16 3 17 4 2 6 1 7 3 8 4 9 5 10 6 11 15 12 7 13
REMARK SMILES IDX 14 14 8 15 9 16 10 17 11 18 12 19 13 20 20 21 21 22 22 23
REMARK SMILES IDX 23 24 24 26 25 27 26 28 87 29 27 30 86 31 28 32 29 33 30 34
REMARK SMILES IDX 80 35 31 36 85 37 79 38 81 39 32 40 84 41 78 42 77 43 33 45
REMARK SMILES IDX 65 46 45 47 64 48 46 49 49 50 63 51 82 52 47 53 48 54 62 56
REMARK SMILES IDX 83 57 50 58 34 59 35 60 43 61 36 62 37 63 41 64 44 65 38 66
REMARK SMILES IDX 39 67 42 68 40 69 66 70 67 71 75 72 68 73 69 74 73 75 76 76
REMARK SMILES IDX 70 77 71 78 74 79 72 80 51 81 52 82 60 83 53 84 54 85 58 86
REMARK SMILES IDX 61 87 55 88 56 89 59 90 57 91
REMARK H PARENT 18 5 22 25 81 44 49 55
REMARK Flexibility Score: inf
ROOT
ATOM      1  C   UNL A   1      31.937  27.350  26.470  1.00  0.00     0.117 C 
ENDROOT
BRANCH   1   2
ATOM      2  N   UNL A   1      30.719  26.568  26.537  1.00  0.00    -0.356 N 
ATOM      3  C   UNL A   1      30.443  25.263  26.302  1.00  0.00     0.223 C 
ATOM      4  O   UNL A   1      29.343  24.861  26.706  1.00  0.00    -0.275 OA
ATOM      5  H   UNL A   1      29.931  27.093  26.809  1.00  0.00     0.163 HD
BRANCH   3   6
ATOM      6  C   UNL A   1      31.416  24.282  25.675  1.00  0.00     0.085 C 
ATOM      7  C   UNL A   1      32.367  23.687  26.721  1.00  0.00     0.019 C 
BRANCH   6   8
ATOM      8  C   UNL A   1      32.091  24.573  24.321  1.00  0.00     0.089 C 
BRANCH   8   9
ATOM      9  S   UNL A   1      33.706  23.959  23.726  1.00  0.00    -0.106 SA
BRANCH   9  10
ATOM     10  C   UNL A   1      33.660  22.183  23.874  1.00  0.00     0.096 A 
ATOM     11  C   UNL A   1      32.597  21.531  23.254  1.00  0.00     0.036 A 
ATOM     12  N   UNL A   1      34.518  21.532  24.667  1.00  0.00    -0.249 NA
ATOM     13  C   UNL A   1      32.326  20.190  23.557  1.00  0.00     0.018 A 
ATOM     14  C   UNL A   1      34.244  20.214  24.928  1.00  0.00     0.126 A 
ATOM     15  C   UNL A   1      33.163  19.487  24.412  1.00  0.00     0.058 A 
BRANCH  15  16
ATOM     16  C   UNL A   1      32.958  18.102  24.929  1.00  0.00     0.254 C 
ATOM     17  O   UNL A   1      32.405  18.030  26.032  1.00  0.00    -0.269 OA
ATOM     18  N   UNL A   1      33.354  16.922  24.280  1.00  0.00    -0.345 N 
ATOM     19  C   UNL A   1      34.007  16.717  22.997  1.00  0.00     0.146 C 
ATOM     20  C   UNL A   1      33.190  15.702  25.067  1.00  0.00     0.146 C 
ENDBRANCH  15  16
ENDBRANCH   9  10
ENDBRANCH   8   9
ENDBRANCH   6   8
ENDBRANCH   3   6
ENDBRANCH   1   2
BRANCH   1  21
ATOM     21  C   UNL A   1      31.918  28.465  25.429  1.00  0.00     0.042 C 
BRANCH  21  22
ATOM     22  C   UNL A   1      33.047  29.480  25.525  1.00  0.00     0.118 C 
BRANCH  22  23
ATOM     23  N   UNL A   1      32.614  30.782  25.988  1.00  0.00    -0.352 N 
ATOM     24  C   UNL A   1      33.142  31.575  26.980  1.00  0.00     0.251 C 
ATOM     25  H   UNL A   1      31.827  31.152  25.527  1.00  0.00     0.163 HD
ATOM     26  O   UNL A   1      32.551  32.586  27.339  1.00  0.00    -0.269 OA
BRANCH  24  27
ATOM     27  C   UNL A   1      34.409  31.194  27.649  1.00  0.00     0.039 A 
ATOM     28  C   UNL A   1      35.376  32.182  27.855  1.00  0.00     0.014 A 
ATOM     29  C   UNL A   1      34.659  29.880  28.055  1.00  0.00     0.014 A 
ATOM     30  C   UNL A   1      36.562  31.869  28.526  1.00  0.00     0.010 A 
ATOM     31  C   UNL A   1      35.808  29.586  28.792  1.00  0.00     0.010 A 
ATOM     32  C   UNL A   1      36.772  30.578  29.035  1.00  0.00    -0.014 A 
BRANCH  32  33
ATOM     33  C   UNL A   1      37.996  30.248  29.818  1.00  0.00     0.031 A 
ATOM     34  C   UNL A   1      39.022  29.302  29.258  1.00  0.00     0.074 A 
ATOM     35  C   UNL A   1      38.161  30.757  31.057  1.00  0.00     0.049 A 
ATOM     36  N   UNL A   1      40.099  28.816  29.824  1.00  0.00    -0.248 NA
ATOM     37  C   UNL A   1      38.796  28.820  27.887  1.00  0.00     0.031 C 
ATOM     38  C   UNL A   1      37.236  31.671  31.725  1.00  0.00     0.029 A 
ATOM     39  N   UNL A   1      39.162  30.565  31.980  1.00  0.00    -0.354 N 
ATOM     40  C   UNL A   1      40.669  27.965  28.886  1.00  0.00     0.074 A 
ATOM     41  C   UNL A   1      39.793  27.960  27.735  1.00  0.00     0.031 C 
ATOM     42  C   UNL A   1      37.717  31.973  32.941  1.00  0.00     0.029 A 
ATOM     43  C   UNL A   1      38.958  31.237  33.162  1.00  0.00     0.049 A 
ATOM     44  H   UNL A   1      39.950  29.999  31.810  1.00  0.00     0.167 HD
ATOM     45  C   UNL A   1      41.828  27.267  28.969  1.00  0.00     0.037 A 
ATOM     46  C   UNL A   1      39.677  31.243  34.301  1.00  0.00     0.037 A 
ATOM     47  C   UNL A   1      42.710  27.291  30.107  1.00  0.00     0.049 A 
ATOM     48  C   UNL A   1      40.939  30.424  34.384  1.00  0.00     0.074 A 
ATOM     49  C   UNL A   1      43.928  26.652  30.265  1.00  0.00     0.029 A 
ATOM     50  N   UNL A   1      42.468  27.984  31.284  1.00  0.00    -0.354 N 
ATOM     51  N   UNL A   1      41.491  29.661  33.473  1.00  0.00    -0.248 NA
ATOM     52  C   UNL A   1      41.679  30.469  35.653  1.00  0.00     0.031 C 
ATOM     53  C   UNL A   1      44.393  26.909  31.559  1.00  0.00     0.029 A 
ATOM     54  C   UNL A   1      43.500  27.765  32.183  1.00  0.00     0.049 A 
ATOM     55  H   UNL A   1      41.680  28.550  31.455  1.00  0.00     0.167 HD
ATOM     56  C   UNL A   1      42.659  29.170  34.042  1.00  0.00     0.074 A 
ATOM     57  C   UNL A   1      42.739  29.724  35.377  1.00  0.00     0.031 C 
ATOM     58  C   UNL A   1      43.584  28.340  33.501  1.00  0.00     0.037 A 
BRANCH  45  59
ATOM     59  C   UNL A   1      42.210  26.406  27.799  1.00  0.00     0.064 A 
ATOM     60  C   UNL A   1      43.134  26.836  26.833  1.00  0.00     0.173 A 
ATOM     61  C   UNL A   1      41.682  25.113  27.666  1.00  0.00     0.173 A 
ATOM     62  F   UNL A   1      43.662  28.067  26.908  1.00  0.00    -0.203 F 
ATOM     63  C   UNL A   1      43.487  26.018  25.764  1.00  0.00     0.198 A 
ATOM     64  C   UNL A   1      42.065  24.284  26.615  1.00  0.00     0.198 A 
ATOM     65  F   UNL A   1      40.801  24.646  28.565  1.00  0.00    -0.203 F 
ATOM     66  F   UNL A   1      44.329  26.473  24.826  1.00  0.00    -0.200 F 
ATOM     67  C   UNL A   1      42.960  24.740  25.659  1.00  0.00     0.200 A 
ATOM     68  F   UNL A   1      41.565  23.043  26.526  1.00  0.00    -0.200 F 
ATOM     69  F   UNL A   1      43.308  23.951  24.634  1.00  0.00    -0.200 F 
ENDBRANCH  45  59
BRANCH  46  70
ATOM     70  C   UNL A   1      39.224  32.057  35.462  1.00  0.00     0.064 A 
ATOM     71  C   UNL A   1      38.431  31.494  36.474  1.00  0.00     0.173 A 
ATOM     72  C   UNL A   1      39.561  33.413  35.580  1.00  0.00     0.173 A 
ATOM     73  F   UNL A   1      38.064  30.206  36.396  1.00  0.00    -0.203 F 
ATOM     74  C   UNL A   1      37.975  32.262  37.543  1.00  0.00     0.198 A 
ATOM     75  C   UNL A   1      39.130  34.172  36.666  1.00  0.00     0.198 A 
ATOM     76  F   UNL A   1      40.320  34.001  34.643  1.00  0.00    -0.203 F 
ATOM     77  F   UNL A   1      37.176  31.711  38.467  1.00  0.00    -0.200 F 
ATOM     78  C   UNL A   1      38.330  33.599  37.642  1.00  0.00     0.200 A 
ATOM     79  F   UNL A   1      39.490  35.459  36.766  1.00  0.00    -0.200 F 
ATOM     80  F   UNL A   1      37.893  34.336  38.672  1.00  0.00    -0.200 F 
ENDBRANCH  46  70
BRANCH  58  81
ATOM     81  C   UNL A   1      44.802  28.019  34.321  1.00  0.00     0.064 A 
ATOM     82  C   UNL A   1      44.872  26.878  35.132  1.00  0.00     0.173 A 
ATOM     83  C   UNL A   1      45.942  28.834  34.234  1.00  0.00     0.173 A 
ATOM     84  F   UNL A   1      43.806  26.074  35.261  1.00  0.00    -0.203 F 
ATOM     85  C   UNL A   1      46.034  26.572  35.837  1.00  0.00     0.198 A 
ATOM     86  C   UNL A   1      47.112  28.507  34.915  1.00  0.00     0.198 A 
ATOM     87  F   UNL A   1      45.930  29.935  33.467  1.00  0.00    -0.203 F 
ATOM     88  F   UNL A   1      46.066  25.496  36.636  1.00  0.00    -0.200 F 
ATOM     89  C   UNL A   1      47.155  27.380  35.719  1.00  0.00     0.200 A 
ATOM     90  F   UNL A   1      48.200  29.280  34.784  1.00  0.00    -0.200 F 
ATOM     91  F   UNL A   1      48.277  27.073  36.384  1.00  0.00    -0.200 F 
ENDBRANCH  58  81
ENDBRANCH  32  33
ENDBRANCH  24  27
ENDBRANCH  22  23
ENDBRANCH  21  22
ENDBRANCH   1  21
TORSDOF 14
ENDMDL
MODEL 3
REMARK VINA RESULT:     -11.5      5.916     10.273
REMARK SMILES C[C@H](CSc1ccc(C(=O)N(C)C)cn1)C(=O)NCCCNC(=O)c1ccc(-c2c3nc(c(-c4c(F)c(F)c(F)c(F)c4F)c4ccc([nH]4)c(-c4c(F)c(F)c(F)c(F)c4F)c4nc(c(-c5c(F)c(F)c(F)c(F)c5F)c5ccc2[nH]5)C=C4)C=C3)cc1
REMARK SMILES IDX 19 1 18 2 16 3 17 4 2 6 1 7 3 8 4 9 5 10 6 11 15 12 7 13
REMARK SMILES IDX 14 14 8 15 9 16 10 17 11 18 12 19 13 20 20 21 21 22 22 23
REMARK SMILES IDX 23 24 24 26 25 27 26 28 87 29 27 30 86 31 28 32 29 33 30 34
REMARK SMILES IDX 80 35 31 36 85 37 79 38 81 39 32 40 84 41 78 42 77 43 33 45
REMARK SMILES IDX 65 46 45 47 64 48 46 49 49 50 63 51 82 52 47 53 48 54 62 56
REMARK SMILES IDX 83 57 50 58 34 59 35 60 43 61 36 62 37 63 41 64 44 65 38 66
REMARK SMILES IDX 39 67 42 68 40 69 66 70 67 71 75 72 68 73 69 74 73 75 76 76
REMARK SMILES IDX 70 77 71 78 74 79 72 80 51 81 52 82 60 83 53 84 54 85 58 86
REMARK SMILES IDX 61 87 55 88 56 89 59 90 57 91
REMARK H PARENT 18 5 22 25 81 44 49 55
REMARK Flexibility Score: inf
ROOT
ATOM      1  C   UNL A   1      43.284  22.517  27.551  1.00  0.00     0.117 C 
ENDROOT
BRANCH   1   2
ATOM      2  N   UNL A   1      44.607  22.591  26.964  1.00  0.00    -0.356 N 
ATOM      3  C   UNL A   1      45.346  23.615  26.472  1.00  0.00     0.223 C 
ATOM      4  O   UNL A   1      46.545  23.374  26.283  1.00  0.00    -0.275 OA
ATOM      5  H   UNL A   1      45.062  21.720  26.914  1.00  0.00     0.163 HD
BRANCH   3   6
ATOM      6  C   UNL A   1      44.814  25.016  26.235  1.00  0.00     0.085 C 
ATOM      7  C   UNL A   1      43.889  25.067  25.012  1.00  0.00     0.019 C 
BRANCH   6   8
ATOM      8  C   UNL A   1      45.719  26.255  26.376  1.00  0.00     0.089 C 
BRANCH   8   9
ATOM      9  S   UNL A   1      46.001  27.576  25.145  1.00  0.00    -0.106 SA
BRANCH   9  10
ATOM     10  C   UNL A   1      45.651  29.119  25.967  1.00  0.00     0.096 A 
ATOM     11  C   UNL A   1      44.475  29.178  26.710  1.00  0.00     0.036 A 
ATOM     12  N   UNL A   1      46.403  30.203  25.752  1.00  0.00    -0.249 NA
ATOM     13  C   UNL A   1      43.983  30.417  27.143  1.00  0.00     0.018 A 
ATOM     14  C   UNL A   1      45.911  31.399  26.207  1.00  0.00     0.126 A 
ATOM     15  C   UNL A   1      44.707  31.576  26.901  1.00  0.00     0.058 A 
BRANCH  15  16
ATOM     16  C   UNL A   1      44.278  32.977  27.186  1.00  0.00     0.254 C 
ATOM     17  O   UNL A   1      44.274  33.292  28.381  1.00  0.00    -0.269 OA
ATOM     18  N   UNL A   1      43.876  33.918  26.226  1.00  0.00    -0.345 N 
ATOM     19  C   UNL A   1      43.792  33.820  24.778  1.00  0.00     0.146 C 
ATOM     20  C   UNL A   1      43.346  35.166  26.771  1.00  0.00     0.146 C 
ENDBRANCH  15  16
ENDBRANCH   9  10
ENDBRANCH   8   9
ENDBRANCH   6   8
ENDBRANCH   3   6
ENDBRANCH   1   2
BRANCH   1  21
ATOM     21  C   UNL A   1      42.210  21.957  26.624  1.00  0.00     0.042 C 
BRANCH  21  22
ATOM     22  C   UNL A   1      40.884  21.606  27.281  1.00  0.00     0.118 C 
BRANCH  22  23
ATOM     23  N   UNL A   1      39.744  21.770  26.404  1.00  0.00    -0.352 N 
ATOM     24  C   UNL A   1      38.956  22.878  26.195  1.00  0.00     0.251 C 
ATOM     25  H   UNL A   1      39.497  20.974  25.882  1.00  0.00     0.163 HD
ATOM     26  O   UNL A   1      37.937  22.790  25.522  1.00  0.00    -0.269 OA
BRANCH  24  27
ATOM     27  C   UNL A   1      39.312  24.178  26.812  1.00  0.00     0.039 A 
ATOM     28  C   UNL A   1      38.870  24.441  28.112  1.00  0.00     0.014 A 
ATOM     29  C   UNL A   1      40.055  25.141  26.122  1.00  0.00     0.014 A 
ATOM     30  C   UNL A   1      39.227  25.636  28.743  1.00  0.00     0.010 A 
ATOM     31  C   UNL A   1      40.476  26.298  26.780  1.00  0.00     0.010 A 
ATOM     32  C   UNL A   1      40.066  26.559  28.098  1.00  0.00    -0.014 A 
BRANCH  32  33
ATOM     33  C   UNL A   1      40.518  27.800  28.784  1.00  0.00     0.031 A 
ATOM     34  C   UNL A   1      41.931  27.916  29.289  1.00  0.00     0.074 A 
ATOM     35  C   UNL A   1      39.647  28.807  29.003  1.00  0.00     0.049 A 
ATOM     36  N   UNL A   1      42.484  28.870  29.996  1.00  0.00    -0.248 NA
ATOM     37  C   UNL A   1      42.835  26.799  28.980  1.00  0.00     0.031 C 
ATOM     38  C   UNL A   1      38.247  28.817  28.581  1.00  0.00     0.029 A 
ATOM     39  N   UNL A   1      39.808  30.010  29.647  1.00  0.00    -0.354 N 
ATOM     40  C   UNL A   1      43.792  28.464  30.224  1.00  0.00     0.074 A 
ATOM     41  C   UNL A   1      43.936  27.154  29.626  1.00  0.00     0.031 C 
ATOM     42  C   UNL A   1      37.680  29.973  28.962  1.00  0.00     0.029 A 
ATOM     43  C   UNL A   1      38.660  30.766  29.698  1.00  0.00     0.049 A 
ATOM     44  H   UNL A   1      40.664  30.303  30.035  1.00  0.00     0.167 HD
ATOM     45  C   UNL A   1      44.789  29.131  30.855  1.00  0.00     0.037 A 
ATOM     46  C   UNL A   1      38.418  31.953  30.288  1.00  0.00     0.037 A 
ATOM     47  C   UNL A   1      44.650  30.444  31.430  1.00  0.00     0.049 A 
ATOM     48  C   UNL A   1      39.531  32.654  31.023  1.00  0.00     0.074 A 
ATOM     49  C   UNL A   1      45.616  31.218  32.050  1.00  0.00     0.029 A 
ATOM     50  N   UNL A   1      43.472  31.176  31.460  1.00  0.00    -0.354 N 
ATOM     51  N   UNL A   1      40.776  32.280  31.190  1.00  0.00    -0.248 NA
ATOM     52  C   UNL A   1      39.207  33.944  31.649  1.00  0.00     0.031 C 
ATOM     53  C   UNL A   1      45.008  32.391  32.510  1.00  0.00     0.029 A 
ATOM     54  C   UNL A   1      43.680  32.380  32.114  1.00  0.00     0.049 A 
ATOM     55  H   UNL A   1      42.615  30.883  31.073  1.00  0.00     0.167 HD
ATOM     56  C   UNL A   1      41.391  33.303  31.901  1.00  0.00     0.074 A 
ATOM     57  C   UNL A   1      40.383  34.315  32.132  1.00  0.00     0.031 C 
ATOM     58  C   UNL A   1      42.677  33.394  32.319  1.00  0.00     0.037 A 
BRANCH  45  59
ATOM     59  C   UNL A   1      46.122  28.449  30.970  1.00  0.00     0.064 A 
ATOM     60  C   UNL A   1      47.144  28.657  30.030  1.00  0.00     0.173 A 
ATOM     61  C   UNL A   1      46.400  27.612  32.062  1.00  0.00     0.173 A 
ATOM     62  F   UNL A   1      46.928  29.440  28.963  1.00  0.00    -0.203 F 
ATOM     63  C   UNL A   1      48.379  28.028  30.161  1.00  0.00     0.198 A 
ATOM     64  C   UNL A   1      47.648  27.013  32.209  1.00  0.00     0.198 A 
ATOM     65  F   UNL A   1      45.463  27.383  32.995  1.00  0.00    -0.203 F 
ATOM     66  F   UNL A   1      49.319  28.199  29.222  1.00  0.00    -0.200 F 
ATOM     67  C   UNL A   1      48.634  27.213  31.254  1.00  0.00     0.200 A 
ATOM     68  F   UNL A   1      47.896  26.239  33.275  1.00  0.00    -0.200 F 
ATOM     69  F   UNL A   1      49.826  26.615  31.384  1.00  0.00    -0.200 F 
ENDBRANCH  45  59
BRANCH  46  70
ATOM     70  C   UNL A   1      37.062  32.561  30.210  1.00  0.00     0.064 A 
ATOM     71  C   UNL A   1      36.697  33.374  29.127  1.00  0.00     0.173 A 
ATOM     72  C   UNL A   1      36.109  32.354  31.218  1.00  0.00     0.173 A 
ATOM     73  F   UNL A   1      37.580  33.620  28.148  1.00  0.00    -0.203 F 
ATOM     74  C   UNL A   1      35.441  33.976  29.069  1.00  0.00     0.198 A 
ATOM     75  C   UNL A   1      34.843  32.930  31.142  1.00  0.00     0.198 A 
ATOM     76  F   UNL A   1      36.405  31.581  32.274  1.00  0.00    -0.203 F 
ATOM     77  F   UNL A   1      35.138  34.790  28.048  1.00  0.00    -0.200 F 
ATOM     78  C   UNL A   1      34.512  33.747  30.073  1.00  0.00     0.200 A 
ATOM     79  F   UNL A   1      33.943  32.692  32.107  1.00  0.00    -0.200 F 
ATOM     80  F   UNL A   1      33.304  34.323  30.014  1.00  0.00    -0.200 F 
ENDBRANCH  46  70
BRANCH  58  81
ATOM     81  C   UNL A   1      43.099  34.655  33.017  1.00  0.00     0.064 A 
ATOM     82  C   UNL A   1      43.142  34.752  34.415  1.00  0.00     0.173 A 
ATOM     83  C   UNL A   1      43.535  35.761  32.269  1.00  0.00     0.173 A 
ATOM     84  F   UNL A   1      42.724  33.730  35.176  1.00  0.00    -0.203 F 
ATOM     85  C   UNL A   1      43.593  35.914  35.038  1.00  0.00     0.198 A 
ATOM     86  C   UNL A   1      44.015  36.908  32.895  1.00  0.00     0.198 A 
ATOM     87  F   UNL A   1      43.520  35.718  30.928  1.00  0.00    -0.203 F 
ATOM     88  F   UNL A   1      43.591  35.998  36.376  1.00  0.00    -0.200 F 
ATOM     89  C   UNL A   1      44.039  36.985  34.278  1.00  0.00     0.200 A 
ATOM     90  F   UNL A   1      44.462  37.935  32.158  1.00  0.00    -0.200 F 
ATOM     91  F   UNL A   1      44.489  38.094  34.880  1.00  0.00    -0.200 F 
ENDBRANCH  58  81
ENDBRANCH  32  33
ENDBRANCH  24  27
ENDBRANCH  22  23
ENDBRANCH  21  22
ENDBRANCH   1  21
TORSDOF 14
ENDMDL
