MODEL 1
REMARK VINA RESULT:     -11.9      0.000      0.000
REMARK SMILES CC(C)[C@H](NC(=O)OCc1ccccc1)C(=O)NCC(=O)NCCCNC(=O)c1ccc(-c2c3nc(c(-c4c(F)c(F)c(F)c(F)c4F)c4ccc([nH]4)c(-c4c(F)c(F)c(F)c(F)c4F)c4nc(c(-c5c(F)c(F)c(F)c(F)c5F)c5ccc2[nH]5)C=C4)C=C3)cc1
REMARK SMILES IDX 20 1 21 2 22 3 19 5 18 6 16 7 17 8 4 10 2 11 1 12 3 13 5 14
REMARK SMILES IDX 6 15 7 17 8 18 9 19 10 20 11 21 15 22 12 23 14 24 13 25
REMARK SMILES IDX 23 26 24 27 25 28 26 29 27 30 28 32 29 33 30 34 91 35 31 36
REMARK SMILES IDX 90 37 32 38 33 39 34 40 84 41 35 42 89 43 83 44 85 45 36 46
REMARK SMILES IDX 88 47 82 48 81 49 37 51 69 52 49 53 68 54 50 55 53 56 67 57
REMARK SMILES IDX 86 58 51 59 52 60 66 62 87 63 54 64 38 65 39 66 47 67 40 68
REMARK SMILES IDX 41 69 45 70 48 71 42 72 43 73 46 74 44 75 70 76 71 77 79 78
REMARK SMILES IDX 72 79 73 80 77 81 80 82 74 83 75 84 78 85 76 86 55 87 56 88
REMARK SMILES IDX 64 89 57 90 58 91 62 92 65 93 59 94 60 95 63 96 61 97
REMARK H PARENT 22 4 18 9 5 16 26 31 85 50 53 61
REMARK Flexibility Score: inf
ROOT
ATOM      1  C   UNL A   1      36.841  23.352  25.837  1.00  0.00     0.239 C 
ATOM      2  O   UNL A   1      37.376  24.312  26.392  1.00  0.00    -0.273 OA
ATOM      3  N   UNL A   1      37.586  22.601  24.968  1.00  0.00    -0.355 N 
ATOM      4  H   UNL A   1      38.469  22.961  24.723  1.00  0.00     0.163 HD
ENDROOT
BRANCH   1   5
ATOM      5  C   UNL A   1      35.384  22.956  26.140  1.00  0.00     0.216 C 
BRANCH   5   6
ATOM      6  N   UNL A   1      34.472  23.480  25.131  1.00  0.00    -0.345 N 
ATOM      7  C   UNL A   1      33.191  23.155  24.811  1.00  0.00     0.243 C 
ATOM      8  O   UNL A   1      32.699  23.748  23.845  1.00  0.00    -0.273 OA
ATOM      9  H   UNL A   1      34.852  24.202  24.580  1.00  0.00     0.164 HD
BRANCH   7  10
ATOM     10  C   UNL A   1      32.392  22.019  25.513  1.00  0.00     0.177 C 
BRANCH  10  11
ATOM     11  C   UNL A   1      32.431  20.631  24.837  1.00  0.00     0.015 C 
ATOM     12  C   UNL A   1      32.423  20.685  23.304  1.00  0.00     0.010 C 
ATOM     13  C   UNL A   1      33.714  19.895  25.261  1.00  0.00     0.010 C 
ENDBRANCH  10  11
BRANCH  10  14
ATOM     14  N   UNL A   1      31.078  22.593  25.833  1.00  0.00    -0.309 N 
ATOM     15  C   UNL A   1      30.694  23.360  26.885  1.00  0.00     0.408 C 
ATOM     16  H   UNL A   1      30.366  22.390  25.183  1.00  0.00     0.167 HD
ATOM     17  O   UNL A   1      29.687  23.069  27.523  1.00  0.00    -0.225 OA
BRANCH  15  18
ATOM     18  O   UNL A   1      31.441  24.467  27.071  1.00  0.00    -0.445 OA
BRANCH  18  19
ATOM     19  C   UNL A   1      31.090  25.592  26.243  1.00  0.00     0.270 C 
BRANCH  19  20
ATOM     20  C   UNL A   1      31.974  26.808  26.446  1.00  0.00    -0.011 A 
ATOM     21  C   UNL A   1      33.289  26.820  25.959  1.00  0.00     0.007 A 
ATOM     22  C   UNL A   1      31.539  27.919  27.189  1.00  0.00     0.007 A 
ATOM     23  C   UNL A   1      34.134  27.910  26.204  1.00  0.00     0.000 A 
ATOM     24  C   UNL A   1      32.377  29.010  27.424  1.00  0.00     0.000 A 
ATOM     25  C   UNL A   1      33.677  29.005  26.933  1.00  0.00     0.000 A 
ENDBRANCH  19  20
ENDBRANCH  18  19
ENDBRANCH  15  18
ENDBRANCH  10  14
ENDBRANCH   7  10
ENDBRANCH   5   6
ENDBRANCH   1   5
BRANCH   3  26
ATOM     26  C   UNL A   1      37.217  21.338  24.372  1.00  0.00     0.117 C 
BRANCH  26  27
ATOM     27  C   UNL A   1      37.915  20.141  24.996  1.00  0.00     0.042 C 
BRANCH  27  28
ATOM     28  C   UNL A   1      39.199  20.512  25.721  1.00  0.00     0.118 C 
BRANCH  28  29
ATOM     29  N   UNL A   1      40.131  19.392  25.815  1.00  0.00    -0.352 N 
ATOM     30  C   UNL A   1      41.473  19.375  26.106  1.00  0.00     0.251 C 
ATOM     31  H   UNL A   1      39.734  18.508  25.645  1.00  0.00     0.163 HD
ATOM     32  O   UNL A   1      42.118  18.340  25.974  1.00  0.00    -0.269 OA
BRANCH  30  33
ATOM     33  C   UNL A   1      42.153  20.611  26.547  1.00  0.00     0.039 A 
ATOM     34  C   UNL A   1      42.735  21.442  25.586  1.00  0.00     0.014 A 
ATOM     35  C   UNL A   1      42.204  20.956  27.899  1.00  0.00     0.014 A 
ATOM     36  C   UNL A   1      43.281  22.668  25.970  1.00  0.00     0.010 A 
ATOM     37  C   UNL A   1      42.676  22.210  28.271  1.00  0.00     0.010 A 
ATOM     38  C   UNL A   1      43.205  23.084  27.309  1.00  0.00    -0.014 A 
BRANCH  38  39
ATOM     39  C   UNL A   1      43.626  24.442  27.729  1.00  0.00     0.031 A 
ATOM     40  C   UNL A   1      42.596  25.480  28.065  1.00  0.00     0.074 A 
ATOM     41  C   UNL A   1      44.933  24.766  27.696  1.00  0.00     0.049 A 
ATOM     42  N   UNL A   1      42.755  26.757  28.303  1.00  0.00    -0.248 NA
ATOM     43  C   UNL A   1      41.196  25.029  28.110  1.00  0.00     0.031 C 
ATOM     44  C   UNL A   1      46.022  23.855  27.339  1.00  0.00     0.029 A 
ATOM     45  N   UNL A   1      45.566  25.959  27.941  1.00  0.00    -0.354 N 
ATOM     46  C   UNL A   1      41.479  27.264  28.505  1.00  0.00     0.074 A 
ATOM     47  C   UNL A   1      40.552  26.168  28.320  1.00  0.00     0.031 C 
ATOM     48  C   UNL A   1      47.188  24.518  27.397  1.00  0.00     0.029 A 
ATOM     49  C   UNL A   1      46.925  25.909  27.750  1.00  0.00     0.049 A 
ATOM     50  H   UNL A   1      45.092  26.773  28.228  1.00  0.00     0.167 HD
ATOM     51  C   UNL A   1      41.118  28.527  28.832  1.00  0.00     0.037 A 
ATOM     52  C   UNL A   1      47.853  26.882  27.826  1.00  0.00     0.037 A 
ATOM     53  C   UNL A   1      42.047  29.605  29.046  1.00  0.00     0.049 A 
ATOM     54  C   UNL A   1      47.422  28.280  28.171  1.00  0.00     0.074 A 
ATOM     55  C   UNL A   1      41.789  30.897  29.468  1.00  0.00     0.029 A 
ATOM     56  N   UNL A   1      43.418  29.514  28.848  1.00  0.00    -0.354 N 
ATOM     57  N   UNL A   1      46.219  28.735  28.426  1.00  0.00    -0.248 NA
ATOM     58  C   UNL A   1      48.476  29.303  28.228  1.00  0.00     0.031 C 
ATOM     59  C   UNL A   1      42.997  31.602  29.483  1.00  0.00     0.029 A 
ATOM     60  C   UNL A   1      44.014  30.738  29.108  1.00  0.00     0.049 A 
ATOM     61  H   UNL A   1      43.895  28.702  28.564  1.00  0.00     0.167 HD
ATOM     62  C   UNL A   1      46.371  30.089  28.686  1.00  0.00     0.074 A 
ATOM     63  C   UNL A   1      47.786  30.380  28.578  1.00  0.00     0.031 C 
ATOM     64  C   UNL A   1      45.422  31.010  28.985  1.00  0.00     0.037 A 
BRANCH  51  65
ATOM     65  C   UNL A   1      39.653  28.813  28.985  1.00  0.00     0.064 A 
ATOM     66  C   UNL A   1      39.003  28.674  30.220  1.00  0.00     0.173 A 
ATOM     67  C   UNL A   1      38.900  29.269  27.894  1.00  0.00     0.173 A 
ATOM     68  F   UNL A   1      39.678  28.230  31.292  1.00  0.00    -0.203 F 
ATOM     69  C   UNL A   1      37.646  28.957  30.351  1.00  0.00     0.198 A 
ATOM     70  C   UNL A   1      37.549  29.576  28.034  1.00  0.00     0.198 A 
ATOM     71  F   UNL A   1      39.474  29.423  26.691  1.00  0.00    -0.203 F 
ATOM     72  F   UNL A   1      37.036  28.775  31.531  1.00  0.00    -0.200 F 
ATOM     73  C   UNL A   1      36.922  29.413  29.261  1.00  0.00     0.200 A 
ATOM     74  F   UNL A   1      36.852  30.028  26.982  1.00  0.00    -0.200 F 
ATOM     75  F   UNL A   1      35.618  29.692  29.390  1.00  0.00    -0.200 F 
ENDBRANCH  51  65
BRANCH  52  76
ATOM     76  C   UNL A   1      49.281  26.565  27.570  1.00  0.00     0.064 A 
ATOM     77  C   UNL A   1      50.175  26.376  28.632  1.00  0.00     0.173 A 
ATOM     78  C   UNL A   1      49.779  26.439  26.264  1.00  0.00     0.173 A 
ATOM     79  F   UNL A   1      49.747  26.509  29.897  1.00  0.00    -0.203 F 
ATOM     80  C   UNL A   1      51.517  26.087  28.400  1.00  0.00     0.198 A 
ATOM     81  C   UNL A   1      51.117  26.125  26.033  1.00  0.00     0.198 A 
ATOM     82  F   UNL A   1      48.964  26.609  25.214  1.00  0.00    -0.203 F 
ATOM     83  F   UNL A   1      52.358  25.949  29.433  1.00  0.00    -0.200 F 
ATOM     84  C   UNL A   1      51.987  25.955  27.101  1.00  0.00     0.200 A 
ATOM     85  F   UNL A   1      51.565  25.988  24.778  1.00  0.00    -0.200 F 
ATOM     86  F   UNL A   1      53.277  25.672  26.878  1.00  0.00    -0.200 F 
ENDBRANCH  52  76
BRANCH  64  87
ATOM     87  C   UNL A   1      45.884  32.417  29.215  1.00  0.00     0.064 A 
ATOM     88  C   UNL A   1      46.300  32.847  30.483  1.00  0.00     0.173 A 
ATOM     89  C   UNL A   1      45.958  33.327  28.151  1.00  0.00     0.173 A 
ATOM     90  F   UNL A   1      46.230  32.018  31.534  1.00  0.00    -0.203 F 
ATOM     91  C   UNL A   1      46.760  34.147  30.680  1.00  0.00     0.198 A 
ATOM     92  C   UNL A   1      46.442  34.618  28.347  1.00  0.00     0.198 A 
ATOM     93  F   UNL A   1      45.575  32.961  26.919  1.00  0.00    -0.203 F 
ATOM     94  F   UNL A   1      47.118  34.549  31.908  1.00  0.00    -0.200 F 
ATOM     95  C   UNL A   1      46.838  35.028  29.611  1.00  0.00     0.200 A 
ATOM     96  F   UNL A   1      46.528  35.465  27.311  1.00  0.00    -0.200 F 
ATOM     97  F   UNL A   1      47.290  36.274  29.801  1.00  0.00    -0.200 F 
ENDBRANCH  64  87
ENDBRANCH  38  39
ENDBRANCH  30  33
ENDBRANCH  28  29
ENDBRANCH  27  28
ENDBRANCH  26  27
ENDBRANCH   3  26
TORSDOF 17
ENDMDL
MODEL 2
REMARK VINA RESULT:     -11.8      1.550      3.750
REMARK SMILES CC(C)[C@H](NC(=O)OCc1ccccc1)C(=O)NCC(=O)NCCCNC(=O)c1ccc(-c2c3nc(c(-c4c(F)c(F)c(F)c(F)c4F)c4ccc([nH]4)c(-c4c(F)c(F)c(F)c(F)c4F)c4nc(c(-c5c(F)c(F)c(F)c(F)c5F)c5ccc2[nH]5)C=C4)C=C3)cc1
REMARK SMILES IDX 20 1 21 2 22 3 19 5 18 6 16 7 17 8 4 10 2 11 1 12 3 13 5 14
REMARK SMILES IDX 6 15 7 17 8 18 9 19 10 20 11 21 15 22 12 23 14 24 13 25
REMARK SMILES IDX 23 26 24 27 25 28 26 29 27 30 28 32 29 33 30 34 91 35 31 36
REMARK SMILES IDX 90 37 32 38 33 39 34 40 84 41 35 42 89 43 83 44 85 45 36 46
REMARK SMILES IDX 88 47 82 48 81 49 37 51 69 52 49 53 68 54 50 55 53 56 67 57
REMARK SMILES IDX 86 58 51 59 52 60 66 62 87 63 54 64 38 65 39 66 47 67 40 68
REMARK SMILES IDX 41 69 45 70 48 71 42 72 43 73 46 74 44 75 70 76 71 77 79 78
REMARK SMILES IDX 72 79 73 80 77 81 80 82 74 83 75 84 78 85 76 86 55 87 56 88
REMARK SMILES IDX 64 89 57 90 58 91 62 92 65 93 59 94 60 95 63 96 61 97
REMARK H PARENT 22 4 18 9 5 16 26 31 85 50 53 61
REMARK Flexibility Score: inf
ROOT
ATOM      1  C   UNL A   1      34.779  21.912  26.779  1.00  0.00     0.239 C 
ATOM      2  O   UNL A   1      34.005  21.459  27.623  1.00  0.00    -0.273 OA
ATOM      3  N   UNL A   1      35.714  21.075  26.233  1.00  0.00    -0.355 N 
ATOM      4  H   UNL A   1      35.812  20.191  26.656  1.00  0.00     0.163 HD
ENDROOT
BRANCH   1   5
ATOM      5  C   UNL A   1      34.678  23.371  26.297  1.00  0.00     0.216 C 
BRANCH   5   6
ATOM      6  N   UNL A   1      33.307  23.860  26.370  1.00  0.00    -0.345 N 
ATOM      7  C   UNL A   1      32.397  24.154  25.404  1.00  0.00     0.243 C 
ATOM      8  O   UNL A   1      31.318  24.618  25.789  1.00  0.00    -0.273 OA
ATOM      9  H   UNL A   1      32.979  24.003  27.287  1.00  0.00     0.164 HD
BRANCH   7  10
ATOM     10  C   UNL A   1      32.695  24.047  23.881  1.00  0.00     0.177 C 
BRANCH  10  11
ATOM     11  C   UNL A   1      32.565  25.349  23.060  1.00  0.00     0.015 C 
ATOM     12  C   UNL A   1      33.495  26.475  23.528  1.00  0.00     0.010 C 
ATOM     13  C   UNL A   1      32.905  25.058  21.587  1.00  0.00     0.010 C 
ENDBRANCH  10  11
BRANCH  10  14
ATOM     14  N   UNL A   1      31.966  22.861  23.413  1.00  0.00    -0.309 N 
ATOM     15  C   UNL A   1      32.422  21.619  23.109  1.00  0.00     0.408 C 
ATOM     16  H   UNL A   1      30.995  22.987  23.301  1.00  0.00     0.167 HD
ATOM     17  O   UNL A   1      32.102  21.088  22.050  1.00  0.00    -0.225 OA
BRANCH  15  18
ATOM     18  O   UNL A   1      33.138  21.033  24.090  1.00  0.00    -0.445 OA
BRANCH  18  19
ATOM     19  C   UNL A   1      32.420  20.070  24.883  1.00  0.00     0.270 C 
BRANCH  19  20
ATOM     20  C   UNL A   1      33.095  18.713  24.969  1.00  0.00    -0.011 A 
ATOM     21  C   UNL A   1      34.272  18.458  24.251  1.00  0.00     0.007 A 
ATOM     22  C   UNL A   1      32.528  17.654  25.697  1.00  0.00     0.007 A 
ATOM     23  C   UNL A   1      34.861  17.188  24.268  1.00  0.00     0.000 A 
ATOM     24  C   UNL A   1      33.121  16.390  25.724  1.00  0.00     0.000 A 
ATOM     25  C   UNL A   1      34.288  16.157  25.006  1.00  0.00     0.000 A 
ENDBRANCH  19  20
ENDBRANCH  18  19
ENDBRANCH  15  18
ENDBRANCH  10  14
ENDBRANCH   7  10
ENDBRANCH   5   6
ENDBRANCH   1   5
BRANCH   3  26
ATOM     26  C   UNL A   1      36.574  21.348  25.105  1.00  0.00     0.117 C 
BRANCH  26  27
ATOM     27  C   UNL A   1      37.691  20.333  24.929  1.00  0.00     0.042 C 
BRANCH  27  28
ATOM     28  C   UNL A   1      38.927  20.660  25.752  1.00  0.00     0.118 C 
BRANCH  28  29
ATOM     29  N   UNL A   1      39.838  19.525  25.869  1.00  0.00    -0.352 N 
ATOM     30  C   UNL A   1      41.194  19.492  26.083  1.00  0.00     0.251 C 
ATOM     31  H   UNL A   1      39.411  18.642  25.782  1.00  0.00     0.163 HD
ATOM     32  O   UNL A   1      41.806  18.433  25.985  1.00  0.00    -0.269 OA
BRANCH  30  33
ATOM     33  C   UNL A   1      41.926  20.736  26.400  1.00  0.00     0.039 A 
ATOM     34  C   UNL A   1      42.321  21.573  25.353  1.00  0.00     0.014 A 
ATOM     35  C   UNL A   1      42.210  21.082  27.723  1.00  0.00     0.014 A 
ATOM     36  C   UNL A   1      42.912  22.805  25.637  1.00  0.00     0.010 A 
ATOM     37  C   UNL A   1      42.725  22.342  28.008  1.00  0.00     0.010 A 
ATOM     38  C   UNL A   1      43.066  23.221  26.969  1.00  0.00    -0.014 A 
BRANCH  38  39
ATOM     39  C   UNL A   1      43.539  24.584  27.310  1.00  0.00     0.031 A 
ATOM     40  C   UNL A   1      42.578  25.601  27.852  1.00  0.00     0.074 A 
ATOM     41  C   UNL A   1      44.808  24.932  27.025  1.00  0.00     0.049 A 
ATOM     42  N   UNL A   1      42.759  26.880  28.065  1.00  0.00    -0.248 NA
ATOM     43  C   UNL A   1      41.222  25.125  28.167  1.00  0.00     0.031 C 
ATOM     44  C   UNL A   1      45.821  24.043  26.452  1.00  0.00     0.029 A 
ATOM     45  N   UNL A   1      45.457  26.136  27.152  1.00  0.00    -0.354 N 
ATOM     46  C   UNL A   1      41.539  27.362  28.519  1.00  0.00     0.074 A 
ATOM     47  C   UNL A   1      40.613  26.251  28.509  1.00  0.00     0.031 C 
ATOM     48  C   UNL A   1      46.964  24.728  26.286  1.00  0.00     0.029 A 
ATOM     49  C   UNL A   1      46.753  26.111  26.697  1.00  0.00     0.049 A 
ATOM     50  H   UNL A   1      45.035  26.939  27.533  1.00  0.00     0.167 HD
ATOM     51  C   UNL A   1      41.228  28.617  28.922  1.00  0.00     0.037 A 
ATOM     52  C   UNL A   1      47.661  27.100  26.599  1.00  0.00     0.037 A 
ATOM     53  C   UNL A   1      42.163  29.710  28.959  1.00  0.00     0.049 A 
ATOM     54  C   UNL A   1      47.283  28.488  27.034  1.00  0.00     0.074 A 
ATOM     55  C   UNL A   1      41.971  30.995  29.435  1.00  0.00     0.029 A 
ATOM     56  N   UNL A   1      43.469  29.646  28.495  1.00  0.00    -0.354 N 
ATOM     57  N   UNL A   1      46.146  28.920  27.524  1.00  0.00    -0.248 NA
ATOM     58  C   UNL A   1      48.310  29.530  26.893  1.00  0.00     0.031 C 
ATOM     59  C   UNL A   1      43.146  31.721  29.219  1.00  0.00     0.029 A 
ATOM     60  C   UNL A   1      44.084  30.878  28.644  1.00  0.00     0.049 A 
ATOM     61  H   UNL A   1      43.895  28.844  28.115  1.00  0.00     0.167 HD
ATOM     62  C   UNL A   1      46.323  30.275  27.762  1.00  0.00     0.074 A 
ATOM     63  C   UNL A   1      47.684  30.592  27.380  1.00  0.00     0.031 C 
ATOM     64  C   UNL A   1      45.436  31.177  28.249  1.00  0.00     0.037 A 
BRANCH  51  65
ATOM     65  C   UNL A   1      39.817  28.875  29.362  1.00  0.00     0.064 A 
ATOM     66  C   UNL A   1      38.837  29.317  28.462  1.00  0.00     0.173 A 
ATOM     67  C   UNL A   1      39.433  28.640  30.690  1.00  0.00     0.173 A 
ATOM     68  F   UNL A   1      39.158  29.567  27.184  1.00  0.00    -0.203 F 
ATOM     69  C   UNL A   1      37.527  29.538  28.882  1.00  0.00     0.198 A 
ATOM     70  C   UNL A   1      38.116  28.836  31.100  1.00  0.00     0.198 A 
ATOM     71  F   UNL A   1      40.331  28.211  31.590  1.00  0.00    -0.203 F 
ATOM     72  F   UNL A   1      36.617  30.001  28.014  1.00  0.00    -0.200 F 
ATOM     73  C   UNL A   1      37.167  29.291  30.197  1.00  0.00     0.200 A 
ATOM     74  F   UNL A   1      37.767  28.587  32.370  1.00  0.00    -0.200 F 
ATOM     75  F   UNL A   1      35.905  29.497  30.598  1.00  0.00    -0.200 F 
ENDBRANCH  51  65
BRANCH  52  76
ATOM     76  C   UNL A   1      49.016  26.811  26.064  1.00  0.00     0.064 A 
ATOM     77  C   UNL A   1      50.029  26.329  26.903  1.00  0.00     0.173 A 
ATOM     78  C   UNL A   1      49.324  27.003  24.709  1.00  0.00     0.173 A 
ATOM     79  F   UNL A   1      49.786  26.152  28.210  1.00  0.00    -0.203 F 
ATOM     80  C   UNL A   1      51.305  26.064  26.411  1.00  0.00     0.198 A 
ATOM     81  C   UNL A   1      50.593  26.713  24.212  1.00  0.00     0.198 A 
ATOM     82  F   UNL A   1      48.389  27.461  23.865  1.00  0.00    -0.203 F 
ATOM     83  F   UNL A   1      52.266  25.640  27.242  1.00  0.00    -0.200 F 
ATOM     84  C   UNL A   1      51.585  26.249  25.065  1.00  0.00     0.200 A 
ATOM     85  F   UNL A   1      50.857  26.884  22.910  1.00  0.00    -0.200 F 
ATOM     86  F   UNL A   1      52.811  25.988  24.591  1.00  0.00    -0.200 F 
ENDBRANCH  52  76
BRANCH  64  87
ATOM     87  C   UNL A   1      45.911  32.591  28.397  1.00  0.00     0.064 A 
ATOM     88  C   UNL A   1      45.694  33.540  27.388  1.00  0.00     0.173 A 
ATOM     89  C   UNL A   1      46.545  33.011  29.576  1.00  0.00     0.173 A 
ATOM     90  F   UNL A   1      45.108  33.181  26.237  1.00  0.00    -0.203 F 
ATOM     91  C   UNL A   1      46.108  34.860  27.549  1.00  0.00     0.198 A 
ATOM     92  C   UNL A   1      46.935  34.337  29.743  1.00  0.00     0.198 A 
ATOM     93  F   UNL A   1      46.771  32.140  30.570  1.00  0.00    -0.203 F 
ATOM     94  F   UNL A   1      45.924  35.743  26.558  1.00  0.00    -0.200 F 
ATOM     95  C   UNL A   1      46.721  35.258  28.729  1.00  0.00     0.200 A 
ATOM     96  F   UNL A   1      47.517  34.723  30.887  1.00  0.00    -0.200 F 
ATOM     97  F   UNL A   1      47.110  36.530  28.885  1.00  0.00    -0.200 F 
ENDBRANCH  64  87
ENDBRANCH  38  39
ENDBRANCH  30  33
ENDBRANCH  28  29
ENDBRANCH  27  28
ENDBRANCH  26  27
ENDBRANCH   3  26
TORSDOF 17
ENDMDL
MODEL 3
REMARK VINA RESULT:     -11.8      0.888      1.536
REMARK SMILES CC(C)[C@H](NC(=O)OCc1ccccc1)C(=O)NCC(=O)NCCCNC(=O)c1ccc(-c2c3nc(c(-c4c(F)c(F)c(F)c(F)c4F)c4ccc([nH]4)c(-c4c(F)c(F)c(F)c(F)c4F)c4nc(c(-c5c(F)c(F)c(F)c(F)c5F)c5ccc2[nH]5)C=C4)C=C3)cc1
REMARK SMILES IDX 20 1 21 2 22 3 19 5 18 6 16 7 17 8 4 10 2 11 1 12 3 13 5 14
REMARK SMILES IDX 6 15 7 17 8 18 9 19 10 20 11 21 15 22 12 23 14 24 13 25
REMARK SMILES IDX 23 26 24 27 25 28 26 29 27 30 28 32 29 33 30 34 91 35 31 36
REMARK SMILES IDX 90 37 32 38 33 39 34 40 84 41 35 42 89 43 83 44 85 45 36 46
REMARK SMILES IDX 88 47 82 48 81 49 37 51 69 52 49 53 68 54 50 55 53 56 67 57
REMARK SMILES IDX 86 58 51 59 52 60 66 62 87 63 54 64 38 65 39 66 47 67 40 68
REMARK SMILES IDX 41 69 45 70 48 71 42 72 43 73 46 74 44 75 70 76 71 77 79 78
REMARK SMILES IDX 72 79 73 80 77 81 80 82 74 83 75 84 78 85 76 86 55 87 56 88
REMARK SMILES IDX 64 89 57 90 58 91 62 92 65 93 59 94 60 95 63 96 61 97
REMARK H PARENT 22 4 18 9 5 16 26 31 85 50 53 61
REMARK Flexibility Score: inf
ROOT
ATOM      1  C   UNL A   1      37.049  23.394  25.567  1.00  0.00     0.239 C 
ATOM      2  O   UNL A   1      37.615  24.312  26.161  1.00  0.00    -0.273 OA
ATOM      3  N   UNL A   1      37.818  22.419  24.990  1.00  0.00    -0.355 N 
ATOM      4  H   UNL A   1      38.788  22.586  24.956  1.00  0.00     0.163 HD
ENDROOT
BRANCH   1   5
ATOM      5  C   UNL A   1      35.514  23.298  25.508  1.00  0.00     0.216 C 
BRANCH   5   6
ATOM      6  N   UNL A   1      34.952  22.985  26.816  1.00  0.00    -0.345 N 
ATOM      7  C   UNL A   1      33.917  22.186  27.190  1.00  0.00     0.243 C 
ATOM      8  O   UNL A   1      33.638  22.177  28.393  1.00  0.00    -0.273 OA
ATOM      9  H   UNL A   1      35.404  23.434  27.566  1.00  0.00     0.164 HD
BRANCH   7  10
ATOM     10  C   UNL A   1      33.027  21.405  26.181  1.00  0.00     0.177 C 
BRANCH  10  11
ATOM     11  C   UNL A   1      33.673  21.049  24.825  1.00  0.00     0.015 C 
ATOM     12  C   UNL A   1      34.070  19.573  24.693  1.00  0.00     0.010 C 
ATOM     13  C   UNL A   1      32.678  21.356  23.691  1.00  0.00     0.010 C 
ENDBRANCH  10  11
BRANCH  10  14
ATOM     14  N   UNL A   1      31.734  22.101  26.167  1.00  0.00    -0.309 N 
ATOM     15  C   UNL A   1      31.444  23.409  26.387  1.00  0.00     0.408 C 
ATOM     16  H   UNL A   1      30.956  21.530  25.967  1.00  0.00     0.167 HD
ATOM     17  O   UNL A   1      30.551  23.718  27.169  1.00  0.00    -0.225 OA
BRANCH  15  18
ATOM     18  O   UNL A   1      32.139  24.271  25.617  1.00  0.00    -0.445 OA
BRANCH  18  19
ATOM     19  C   UNL A   1      31.469  25.511  25.325  1.00  0.00     0.270 C 
BRANCH  19  20
ATOM     20  C   UNL A   1      32.115  26.728  25.962  1.00  0.00    -0.011 A 
ATOM     21  C   UNL A   1      33.464  27.027  25.717  1.00  0.00     0.007 A 
ATOM     22  C   UNL A   1      31.418  27.541  26.871  1.00  0.00     0.007 A 
ATOM     23  C   UNL A   1      34.086  28.105  26.357  1.00  0.00     0.000 A 
ATOM     24  C   UNL A   1      32.035  28.624  27.500  1.00  0.00     0.000 A 
ATOM     25  C   UNL A   1      33.372  28.905  27.245  1.00  0.00     0.000 A 
ENDBRANCH  19  20
ENDBRANCH  18  19
ENDBRANCH  15  18
ENDBRANCH  10  14
ENDBRANCH   7  10
ENDBRANCH   5   6
ENDBRANCH   1   5
BRANCH   3  26
ATOM     26  C   UNL A   1      37.360  21.170  24.424  1.00  0.00     0.117 C 
BRANCH  26  27
ATOM     27  C   UNL A   1      38.055  19.948  25.000  1.00  0.00     0.042 C 
BRANCH  27  28
ATOM     28  C   UNL A   1      39.280  20.296  25.831  1.00  0.00     0.118 C 
BRANCH  28  29
ATOM     29  N   UNL A   1      40.235  19.194  25.908  1.00  0.00    -0.352 N 
ATOM     30  C   UNL A   1      41.592  19.208  26.119  1.00  0.00     0.251 C 
ATOM     31  H   UNL A   1      39.844  18.298  25.791  1.00  0.00     0.163 HD
ATOM     32  O   UNL A   1      42.245  18.177  25.984  1.00  0.00    -0.269 OA
BRANCH  30  33
ATOM     33  C   UNL A   1      42.276  20.468  26.477  1.00  0.00     0.039 A 
ATOM     34  C   UNL A   1      42.887  21.215  25.466  1.00  0.00     0.014 A 
ATOM     35  C   UNL A   1      42.302  20.918  27.798  1.00  0.00     0.014 A 
ATOM     36  C   UNL A   1      43.438  22.462  25.765  1.00  0.00     0.010 A 
ATOM     37  C   UNL A   1      42.780  22.192  28.081  1.00  0.00     0.010 A 
ATOM     38  C   UNL A   1      43.338  22.983  27.065  1.00  0.00    -0.014 A 
BRANCH  38  39
ATOM     39  C   UNL A   1      43.765  24.366  27.386  1.00  0.00     0.031 A 
ATOM     40  C   UNL A   1      42.754  25.384  27.823  1.00  0.00     0.074 A 
ATOM     41  C   UNL A   1      45.045  24.726  27.173  1.00  0.00     0.049 A 
ATOM     42  N   UNL A   1      42.900  26.673  28.000  1.00  0.00    -0.248 NA
ATOM     43  C   UNL A   1      41.387  24.895  28.064  1.00  0.00     0.031 C 
ATOM     44  C   UNL A   1      46.108  23.836  26.703  1.00  0.00     0.029 A 
ATOM     45  N   UNL A   1      45.665  25.945  27.298  1.00  0.00    -0.354 N 
ATOM     46  C   UNL A   1      41.644  27.149  28.352  1.00  0.00     0.074 A 
ATOM     47  C   UNL A   1      40.739  26.021  28.323  1.00  0.00     0.031 C 
ATOM     48  C   UNL A   1      47.249  24.534  26.589  1.00  0.00     0.029 A 
ATOM     49  C   UNL A   1      46.989  25.927  26.933  1.00  0.00     0.049 A 
ATOM     50  H   UNL A   1      45.205  26.753  27.620  1.00  0.00     0.167 HD
ATOM     51  C   UNL A   1      41.287  28.412  28.687  1.00  0.00     0.037 A 
ATOM     52  C   UNL A   1      47.886  26.929  26.858  1.00  0.00     0.037 A 
ATOM     53  C   UNL A   1      42.200  29.522  28.745  1.00  0.00     0.049 A 
ATOM     54  C   UNL A   1      47.458  28.325  27.215  1.00  0.00     0.074 A 
ATOM     55  C   UNL A   1      41.957  30.820  29.160  1.00  0.00     0.029 A 
ATOM     56  N   UNL A   1      43.536  29.465  28.373  1.00  0.00    -0.354 N 
ATOM     57  N   UNL A   1      46.283  28.753  27.611  1.00  0.00    -0.248 NA
ATOM     58  C   UNL A   1      48.475  29.379  27.104  1.00  0.00     0.031 C 
ATOM     59  C   UNL A   1      43.133  31.559  28.996  1.00  0.00     0.029 A 
ATOM     60  C   UNL A   1      44.120  30.713  28.517  1.00  0.00     0.049 A 
ATOM     61  H   UNL A   1      43.999  28.658  28.053  1.00  0.00     0.167 HD
ATOM     62  C   UNL A   1      46.423  30.119  27.810  1.00  0.00     0.074 A 
ATOM     63  C   UNL A   1      47.801  30.447  27.509  1.00  0.00     0.031 C 
ATOM     64  C   UNL A   1      45.491  31.022  28.202  1.00  0.00     0.037 A 
BRANCH  51  65
ATOM     65  C   UNL A   1      39.846  28.660  29.022  1.00  0.00     0.064 A 
ATOM     66  C   UNL A   1      39.348  28.456  30.317  1.00  0.00     0.173 A 
ATOM     67  C   UNL A   1      38.963  29.144  28.046  1.00  0.00     0.173 A 
ATOM     68  F   UNL A   1      40.151  27.983  31.282  1.00  0.00    -0.203 F 
ATOM     69  C   UNL A   1      38.011  28.705  30.617  1.00  0.00     0.198 A 
ATOM     70  C   UNL A   1      37.633  29.417  28.356  1.00  0.00     0.198 A 
ATOM     71  F   UNL A   1      39.390  29.360  26.792  1.00  0.00    -0.203 F 
ATOM     72  F   UNL A   1      37.547  28.462  31.851  1.00  0.00    -0.200 F 
ATOM     73  C   UNL A   1      37.157  29.191  29.639  1.00  0.00     0.200 A 
ATOM     74  F   UNL A   1      36.811  29.897  27.412  1.00  0.00    -0.200 F 
ATOM     75  F   UNL A   1      35.873  29.436  29.931  1.00  0.00    -0.200 F 
ENDBRANCH  51  65
BRANCH  52  76
ATOM     76  C   UNL A   1      49.278  26.645  26.426  1.00  0.00     0.064 A 
ATOM     77  C   UNL A   1      49.668  26.837  25.094  1.00  0.00     0.173 A 
ATOM     78  C   UNL A   1      50.245  26.184  27.331  1.00  0.00     0.173 A 
ATOM     79  F   UNL A   1      48.771  27.256  24.189  1.00  0.00    -0.203 F 
ATOM     80  C   UNL A   1      50.970  26.566  24.680  1.00  0.00     0.198 A 
ATOM     81  C   UNL A   1      51.554  25.936  26.921  1.00  0.00     0.198 A 
ATOM     82  F   UNL A   1      49.922  25.985  28.617  1.00  0.00    -0.203 F 
ATOM     83  F   UNL A   1      51.306  26.722  23.393  1.00  0.00    -0.200 F 
ATOM     84  C   UNL A   1      51.914  26.122  25.594  1.00  0.00     0.200 A 
ATOM     85  F   UNL A   1      52.465  25.517  27.809  1.00  0.00    -0.200 F 
ATOM     86  F   UNL A   1      53.167  25.865  25.196  1.00  0.00    -0.200 F 
ENDBRANCH  52  76
BRANCH  64  87
ATOM     87  C   UNL A   1      45.932  32.448  28.329  1.00  0.00     0.064 A 
ATOM     88  C   UNL A   1      46.497  32.932  29.518  1.00  0.00     0.173 A 
ATOM     89  C   UNL A   1      45.834  33.325  27.239  1.00  0.00     0.173 A 
ATOM     90  F   UNL A   1      46.595  32.135  30.592  1.00  0.00    -0.203 F 
ATOM     91  C   UNL A   1      46.936  34.250  29.615  1.00  0.00     0.198 A 
ATOM     92  C   UNL A   1      46.297  34.635  27.331  1.00  0.00     0.198 A 
ATOM     93  F   UNL A   1      45.305  32.907  26.080  1.00  0.00    -0.203 F 
ATOM     94  F   UNL A   1      47.439  34.703  30.771  1.00  0.00    -0.200 F 
ATOM     95  C   UNL A   1      46.843  35.097  28.519  1.00  0.00     0.200 A 
ATOM     96  F   UNL A   1      46.217  35.449  26.270  1.00  0.00    -0.200 F 
ATOM     97  F   UNL A   1      47.274  36.362  28.612  1.00  0.00    -0.200 F 
ENDBRANCH  64  87
ENDBRANCH  38  39
ENDBRANCH  30  33
ENDBRANCH  28  29
ENDBRANCH  27  28
ENDBRANCH  26  27
ENDBRANCH   3  26
TORSDOF 17
ENDMDL
