MODEL 1
REMARK VINA RESULT:     -12.5      0.000      0.000
REMARK SMILES C[C@H]([C@@H](C)C(=O)NCCCNC(=O)c1ccc(-c2c3nc(c(-c4c(F)c(F)c(F)c(F)c4F)c4ccc([nH]4)c(-c4c(F)c(F)c(F)c(F)c4F)c4nc(c(-c5c(F)c(F)c(F)c(F)c5F)c5ccc2[nH]5)C=C4)C=C3)cc1)n1c(CC#N)nc2ccccc21
REMARK SMILES IDX 8 1 7 2 5 3 6 4 3 6 4 7 2 8 1 9 77 10 78 11 88 12 82 13
REMARK SMILES IDX 83 14 87 15 84 16 86 17 85 18 79 19 80 20 81 21 9 22 10 23
REMARK SMILES IDX 11 24 12 25 13 27 14 28 15 29 76 30 16 31 75 32 17 33 18 34
REMARK SMILES IDX 19 35 69 36 20 37 74 38 68 39 70 40 21 41 73 42 67 43 66 44
REMARK SMILES IDX 22 46 54 47 34 48 53 49 35 50 38 51 52 52 71 53 36 54 37 55
REMARK SMILES IDX 51 57 72 58 39 59 23 60 24 61 32 62 25 63 26 64 30 65 33 66
REMARK SMILES IDX 27 67 28 68 31 69 29 70 55 71 56 72 64 73 57 74 58 75 62 76
REMARK SMILES IDX 65 77 59 78 60 79 63 80 61 81 40 82 41 83 49 84 42 85 43 86
REMARK SMILES IDX 47 87 50 88 44 89 45 90 48 91 46 92
REMARK H PARENT 7 5 11 26 70 45 38 56
REMARK Flexibility Score: inf
ROOT
ATOM      1  C   UNL A   1      31.870  30.704  26.159  1.00  0.00     0.117 C 
ENDROOT
BRANCH   1   2
ATOM      2  N   UNL A   1      31.522  29.641  27.084  1.00  0.00    -0.356 N 
ATOM      3  C   UNL A   1      32.000  28.380  27.240  1.00  0.00     0.224 C 
ATOM      4  O   UNL A   1      31.421  27.652  28.048  1.00  0.00    -0.275 OA
ATOM      5  H   UNL A   1      30.804  29.877  27.715  1.00  0.00     0.163 HD
BRANCH   3   6
ATOM      6  C   UNL A   1      33.222  27.877  26.488  1.00  0.00     0.098 C 
ATOM      7  C   UNL A   1      34.432  28.761  26.840  1.00  0.00     0.020 C 
BRANCH   6   8
ATOM      8  C   UNL A   1      32.910  27.622  24.987  1.00  0.00     0.098 C 
ATOM      9  C   UNL A   1      33.917  28.332  24.049  1.00  0.00     0.032 C 
BRANCH   8  10
ATOM     10  N   UNL A   1      32.861  26.154  24.702  1.00  0.00    -0.323 N 
ATOM     11  C   UNL A   1      31.673  25.564  24.291  1.00  0.00     0.124 A 
ATOM     12  C   UNL A   1      33.367  25.135  25.501  1.00  0.00     0.068 A 
ATOM     13  N   UNL A   1      31.108  25.039  25.368  1.00  0.00    -0.232 NA
ATOM     14  C   UNL A   1      32.205  24.610  26.079  1.00  0.00     0.089 A 
ATOM     15  C   UNL A   1      34.577  24.435  25.539  1.00  0.00     0.028 A 
ATOM     16  C   UNL A   1      32.283  23.590  27.032  1.00  0.00     0.030 A 
ATOM     17  C   UNL A   1      34.573  23.241  26.282  1.00  0.00     0.002 A 
ATOM     18  C   UNL A   1      33.478  22.866  27.072  1.00  0.00     0.002 A 
BRANCH  11  19
ATOM     19  C   UNL A   1      31.370  25.281  22.860  1.00  0.00     0.195 C 
BRANCH  19  20
ATOM     20  C   UNL A   1      32.548  25.558  22.004  1.00  0.00     0.070 C 
ATOM     21  N   UNL A   1      33.452  25.810  21.339  1.00  0.00    -0.198 NA
ENDBRANCH  19  20
ENDBRANCH  11  19
ENDBRANCH   8  10
ENDBRANCH   6   8
ENDBRANCH   3   6
ENDBRANCH   1   2
BRANCH   1  22
ATOM     22  C   UNL A   1      31.519  32.074  26.720  1.00  0.00     0.042 C 
BRANCH  22  23
ATOM     23  C   UNL A   1      32.694  32.796  27.361  1.00  0.00     0.118 C 
BRANCH  23  24
ATOM     24  N   UNL A   1      32.412  34.195  27.653  1.00  0.00    -0.352 N 
ATOM     25  C   UNL A   1      32.976  35.025  28.592  1.00  0.00     0.251 C 
ATOM     26  H   UNL A   1      31.713  34.608  27.096  1.00  0.00     0.163 HD
ATOM     27  O   UNL A   1      32.491  36.131  28.809  1.00  0.00    -0.269 OA
BRANCH  25  28
ATOM     28  C   UNL A   1      34.150  34.568  29.367  1.00  0.00     0.039 A 
ATOM     29  C   UNL A   1      33.958  34.051  30.649  1.00  0.00     0.014 A 
ATOM     30  C   UNL A   1      35.433  34.626  28.818  1.00  0.00     0.014 A 
ATOM     31  C   UNL A   1      35.042  33.512  31.345  1.00  0.00     0.010 A 
ATOM     32  C   UNL A   1      36.488  33.994  29.465  1.00  0.00     0.010 A 
ATOM     33  C   UNL A   1      36.306  33.433  30.738  1.00  0.00    -0.014 A 
BRANCH  33  34
ATOM     34  C   UNL A   1      37.452  32.773  31.413  1.00  0.00     0.031 A 
ATOM     35  C   UNL A   1      38.130  31.597  30.768  1.00  0.00     0.074 A 
ATOM     36  C   UNL A   1      37.833  33.182  32.639  1.00  0.00     0.049 A 
ATOM     37  N   UNL A   1      39.084  30.830  31.234  1.00  0.00    -0.248 NA
ATOM     38  C   UNL A   1      37.647  31.207  29.433  1.00  0.00     0.031 C 
ATOM     39  C   UNL A   1      37.221  34.277  33.393  1.00  0.00     0.029 A 
ATOM     40  N   UNL A   1      38.815  32.712  33.476  1.00  0.00    -0.354 N 
ATOM     41  C   UNL A   1      39.301  29.865  30.259  1.00  0.00     0.074 A 
ATOM     42  C   UNL A   1      38.337  30.100  29.207  1.00  0.00     0.031 C 
ATOM     43  C   UNL A   1      37.852  34.408  34.571  1.00  0.00     0.029 A 
ATOM     44  C   UNL A   1      38.879  33.376  34.677  1.00  0.00     0.049 A 
ATOM     45  H   UNL A   1      39.416  31.970  33.238  1.00  0.00     0.167 HD
ATOM     46  C   UNL A   1      40.238  28.887  30.231  1.00  0.00     0.037 A 
ATOM     47  C   UNL A   1      39.664  33.165  35.751  1.00  0.00     0.037 A 
ATOM     48  C   UNL A   1      41.203  28.667  31.276  1.00  0.00     0.049 A 
ATOM     49  C   UNL A   1      40.683  32.058  35.708  1.00  0.00     0.074 A 
ATOM     50  C   UNL A   1      42.232  27.743  31.319  1.00  0.00     0.029 A 
ATOM     51  N   UNL A   1      41.248  29.372  32.471  1.00  0.00    -0.354 N 
ATOM     52  N   UNL A   1      40.934  31.202  34.748  1.00  0.00    -0.248 NA
ATOM     53  C   UNL A   1      41.533  31.891  36.895  1.00  0.00     0.031 C 
ATOM     54  C   UNL A   1      42.857  27.844  32.566  1.00  0.00     0.029 A 
ATOM     55  C   UNL A   1      42.267  28.880  33.272  1.00  0.00     0.049 A 
ATOM     56  H   UNL A   1      40.646  30.112  32.714  1.00  0.00     0.167 HD
ATOM     57  C   UNL A   1      41.986  30.416  35.199  1.00  0.00     0.074 A 
ATOM     58  C   UNL A   1      42.335  30.908  36.516  1.00  0.00     0.031 C 
ATOM     59  C   UNL A   1      42.607  29.383  34.580  1.00  0.00     0.037 A 
BRANCH  46  60
ATOM     60  C   UNL A   1      40.257  27.977  29.034  1.00  0.00     0.064 A 
ATOM     61  C   UNL A   1      39.549  26.766  29.013  1.00  0.00     0.173 A 
ATOM     62  C   UNL A   1      40.979  28.330  27.884  1.00  0.00     0.173 A 
ATOM     63  F   UNL A   1      38.847  26.373  30.089  1.00  0.00    -0.203 F 
ATOM     64  C   UNL A   1      39.597  25.923  27.906  1.00  0.00     0.198 A 
ATOM     65  C   UNL A   1      40.995  27.503  26.764  1.00  0.00     0.198 A 
ATOM     66  F   UNL A   1      41.670  29.479  27.844  1.00  0.00    -0.203 F 
ATOM     67  F   UNL A   1      38.965  24.741  27.937  1.00  0.00    -0.200 F 
ATOM     68  C   UNL A   1      40.314  26.295  26.779  1.00  0.00     0.200 A 
ATOM     69  F   UNL A   1      41.674  27.873  25.669  1.00  0.00    -0.200 F 
ATOM     70  F   UNL A   1      40.356  25.486  25.712  1.00  0.00    -0.200 F 
ENDBRANCH  46  60
BRANCH  47  71
ATOM     71  C   UNL A   1      39.518  34.027  36.956  1.00  0.00     0.064 A 
ATOM     72  C   UNL A   1      40.131  35.285  37.024  1.00  0.00     0.173 A 
ATOM     73  C   UNL A   1      38.762  33.609  38.062  1.00  0.00     0.173 A 
ATOM     74  F   UNL A   1      40.879  35.723  36.000  1.00  0.00    -0.203 F 
ATOM     75  C   UNL A   1      40.012  36.084  38.161  1.00  0.00     0.198 A 
ATOM     76  C   UNL A   1      38.616  34.423  39.183  1.00  0.00     0.198 A 
ATOM     77  F   UNL A   1      38.149  32.416  38.046  1.00  0.00    -0.203 F 
ATOM     78  F   UNL A   1      40.649  37.262  38.218  1.00  0.00    -0.200 F 
ATOM     79  C   UNL A   1      39.248  35.656  39.236  1.00  0.00     0.200 A 
ATOM     80  F   UNL A   1      37.861  34.013  40.212  1.00  0.00    -0.200 F 
ATOM     81  F   UNL A   1      39.127  36.427  40.325  1.00  0.00    -0.200 F 
ENDBRANCH  47  71
BRANCH  59  82
ATOM     82  C   UNL A   1      43.758  28.734  35.297  1.00  0.00     0.064 A 
ATOM     83  C   UNL A   1      45.083  29.146  35.098  1.00  0.00     0.173 A 
ATOM     84  C   UNL A   1      43.521  27.718  36.238  1.00  0.00     0.173 A 
ATOM     85  F   UNL A   1      45.365  30.103  34.200  1.00  0.00    -0.203 F 
ATOM     86  C   UNL A   1      46.131  28.550  35.795  1.00  0.00     0.198 A 
ATOM     87  C   UNL A   1      44.567  27.150  36.959  1.00  0.00     0.198 A 
ATOM     88  F   UNL A   1      42.272  27.291  36.472  1.00  0.00    -0.203 F 
ATOM     89  F   UNL A   1      47.394  28.926  35.552  1.00  0.00    -0.200 F 
ATOM     90  C   UNL A   1      45.872  27.561  36.732  1.00  0.00     0.200 A 
ATOM     91  F   UNL A   1      44.311  26.208  37.877  1.00  0.00    -0.200 F 
ATOM     92  F   UNL A   1      46.879  26.998  37.412  1.00  0.00    -0.200 F 
ENDBRANCH  59  82
ENDBRANCH  33  34
ENDBRANCH  25  28
ENDBRANCH  23  24
ENDBRANCH  22  23
ENDBRANCH   1  22
TORSDOF 14
ENDMDL
MODEL 2
REMARK VINA RESULT:     -12.3      5.959     11.275
REMARK SMILES C[C@H]([C@@H](C)C(=O)NCCCNC(=O)c1ccc(-c2c3nc(c(-c4c(F)c(F)c(F)c(F)c4F)c4ccc([nH]4)c(-c4c(F)c(F)c(F)c(F)c4F)c4nc(c(-c5c(F)c(F)c(F)c(F)c5F)c5ccc2[nH]5)C=C4)C=C3)cc1)n1c(CC#N)nc2ccccc21
REMARK SMILES IDX 8 1 7 2 5 3 6 4 3 6 4 7 2 8 1 9 77 10 78 11 88 12 82 13
REMARK SMILES IDX 83 14 87 15 84 16 86 17 85 18 79 19 80 20 81 21 9 22 10 23
REMARK SMILES IDX 11 24 12 25 13 27 14 28 15 29 76 30 16 31 75 32 17 33 18 34
REMARK SMILES IDX 19 35 69 36 20 37 74 38 68 39 70 40 21 41 73 42 67 43 66 44
REMARK SMILES IDX 22 46 54 47 34 48 53 49 35 50 38 51 52 52 71 53 36 54 37 55
REMARK SMILES IDX 51 57 72 58 39 59 23 60 24 61 32 62 25 63 26 64 30 65 33 66
REMARK SMILES IDX 27 67 28 68 31 69 29 70 55 71 56 72 64 73 57 74 58 75 62 76
REMARK SMILES IDX 65 77 59 78 60 79 63 80 61 81 40 82 41 83 49 84 42 85 43 86
REMARK SMILES IDX 47 87 50 88 44 89 45 90 48 91 46 92
REMARK H PARENT 7 5 11 26 70 45 38 56
REMARK Flexibility Score: inf
ROOT
ATOM      1  C   UNL A   1      37.066  20.807  25.044  1.00  0.00     0.117 C 
ENDROOT
BRANCH   1   2
ATOM      2  N   UNL A   1      36.973  21.710  23.911  1.00  0.00    -0.356 N 
ATOM      3  C   UNL A   1      36.451  22.958  23.785  1.00  0.00     0.224 C 
ATOM      4  O   UNL A   1      36.411  23.441  22.652  1.00  0.00    -0.275 OA
ATOM      5  H   UNL A   1      37.360  21.353  23.079  1.00  0.00     0.163 HD
BRANCH   3   6
ATOM      6  C   UNL A   1      35.965  23.759  24.982  1.00  0.00     0.098 C 
ATOM      7  C   UNL A   1      37.098  23.859  26.018  1.00  0.00     0.020 C 
BRANCH   6   8
ATOM      8  C   UNL A   1      34.566  23.281  25.465  1.00  0.00     0.098 C 
ATOM      9  C   UNL A   1      34.543  22.978  26.984  1.00  0.00     0.032 C 
BRANCH   8  10
ATOM     10  N   UNL A   1      33.515  24.281  25.105  1.00  0.00    -0.323 N 
ATOM     11  C   UNL A   1      32.519  23.947  24.195  1.00  0.00     0.124 A 
ATOM     12  C   UNL A   1      33.718  25.612  24.756  1.00  0.00     0.068 A 
ATOM     13  N   UNL A   1      32.900  24.415  23.015  1.00  0.00    -0.232 NA
ATOM     14  C   UNL A   1      33.536  25.583  23.369  1.00  0.00     0.089 A 
ATOM     15  C   UNL A   1      33.711  26.817  25.465  1.00  0.00     0.028 A 
ATOM     16  C   UNL A   1      33.734  26.736  22.602  1.00  0.00     0.030 A 
ATOM     17  C   UNL A   1      33.625  27.986  24.688  1.00  0.00     0.002 A 
ATOM     18  C   UNL A   1      33.711  27.952  23.290  1.00  0.00     0.002 A 
BRANCH  11  19
ATOM     19  C   UNL A   1      31.161  23.508  24.618  1.00  0.00     0.195 C 
BRANCH  19  20
ATOM     20  C   UNL A   1      30.985  23.660  26.082  1.00  0.00     0.070 C 
ATOM     21  N   UNL A   1      30.874  23.750  27.223  1.00  0.00    -0.198 NA
ENDBRANCH  19  20
ENDBRANCH  11  19
ENDBRANCH   8  10
ENDBRANCH   6   8
ENDBRANCH   3   6
ENDBRANCH   1   2
BRANCH   1  22
ATOM     22  C   UNL A   1      38.242  19.852  24.906  1.00  0.00     0.042 C 
BRANCH  22  23
ATOM     23  C   UNL A   1      39.386  20.143  25.866  1.00  0.00     0.118 C 
BRANCH  23  24
ATOM     24  N   UNL A   1      40.362  19.063  25.931  1.00  0.00    -0.352 N 
ATOM     25  C   UNL A   1      41.725  19.123  26.095  1.00  0.00     0.251 C 
ATOM     26  H   UNL A   1      39.990  18.155  25.846  1.00  0.00     0.163 HD
ATOM     27  O   UNL A   1      42.408  18.113  25.956  1.00  0.00    -0.269 OA
BRANCH  25  28
ATOM     28  C   UNL A   1      42.373  20.416  26.404  1.00  0.00     0.039 A 
ATOM     29  C   UNL A   1      42.923  21.166  25.363  1.00  0.00     0.014 A 
ATOM     30  C   UNL A   1      42.412  20.898  27.714  1.00  0.00     0.014 A 
ATOM     31  C   UNL A   1      43.435  22.439  25.625  1.00  0.00     0.010 A 
ATOM     32  C   UNL A   1      42.822  22.204  27.955  1.00  0.00     0.010 A 
ATOM     33  C   UNL A   1      43.343  22.988  26.914  1.00  0.00    -0.014 A 
BRANCH  33  34
ATOM     34  C   UNL A   1      43.784  24.376  27.201  1.00  0.00     0.031 A 
ATOM     35  C   UNL A   1      42.789  25.401  27.669  1.00  0.00     0.074 A 
ATOM     36  C   UNL A   1      45.062  24.734  26.967  1.00  0.00     0.049 A 
ATOM     37  N   UNL A   1      42.956  26.682  27.884  1.00  0.00    -0.248 NA
ATOM     38  C   UNL A   1      41.412  24.931  27.890  1.00  0.00     0.031 C 
ATOM     39  C   UNL A   1      46.110  23.845  26.462  1.00  0.00     0.029 A 
ATOM     40  N   UNL A   1      45.693  25.946  27.104  1.00  0.00    -0.354 N 
ATOM     41  C   UNL A   1      41.708  27.168  28.251  1.00  0.00     0.074 A 
ATOM     42  C   UNL A   1      40.780  26.062  28.164  1.00  0.00     0.031 C 
ATOM     43  C   UNL A   1      47.256  24.535  26.351  1.00  0.00     0.029 A 
ATOM     44  C   UNL A   1      47.014  25.924  26.728  1.00  0.00     0.049 A 
ATOM     45  H   UNL A   1      45.242  26.754  27.441  1.00  0.00     0.167 HD
ATOM     46  C   UNL A   1      41.370  28.418  28.650  1.00  0.00     0.037 A 
ATOM     47  C   UNL A   1      47.923  26.917  26.674  1.00  0.00     0.037 A 
ATOM     48  C   UNL A   1      42.302  29.511  28.746  1.00  0.00     0.049 A 
ATOM     49  C   UNL A   1      47.521  28.303  27.100  1.00  0.00     0.074 A 
ATOM     50  C   UNL A   1      42.076  30.799  29.196  1.00  0.00     0.029 A 
ATOM     51  N   UNL A   1      43.637  29.446  28.373  1.00  0.00    -0.354 N 
ATOM     52  N   UNL A   1      46.357  28.734  27.521  1.00  0.00    -0.248 NA
ATOM     53  C   UNL A   1      48.560  29.341  27.049  1.00  0.00     0.031 C 
ATOM     54  C   UNL A   1      43.255  31.532  29.032  1.00  0.00     0.029 A 
ATOM     55  C   UNL A   1      44.238  30.683  28.550  1.00  0.00     0.049 A 
ATOM     56  H   UNL A   1      44.091  28.641  28.032  1.00  0.00     0.167 HD
ATOM     57  C   UNL A   1      46.529  30.080  27.814  1.00  0.00     0.074 A 
ATOM     58  C   UNL A   1      47.916  30.392  27.534  1.00  0.00     0.031 C 
ATOM     59  C   UNL A   1      45.622  30.977  28.273  1.00  0.00     0.037 A 
BRANCH  46  60
ATOM     60  C   UNL A   1      39.930  28.669  29.003  1.00  0.00     0.064 A 
ATOM     61  C   UNL A   1      39.437  28.452  30.299  1.00  0.00     0.173 A 
ATOM     62  C   UNL A   1      39.035  29.151  28.036  1.00  0.00     0.173 A 
ATOM     63  F   UNL A   1      40.247  27.983  31.261  1.00  0.00    -0.203 F 
ATOM     64  C   UNL A   1      38.095  28.667  30.603  1.00  0.00     0.198 A 
ATOM     65  C   UNL A   1      37.702  29.402  28.353  1.00  0.00     0.198 A 
ATOM     66  F   UNL A   1      39.452  29.384  26.783  1.00  0.00    -0.203 F 
ATOM     67  F   UNL A   1      37.635  28.388  31.831  1.00  0.00    -0.200 F 
ATOM     68  C   UNL A   1      37.230  29.148  29.632  1.00  0.00     0.200 A 
ATOM     69  F   UNL A   1      36.872  29.884  27.418  1.00  0.00    -0.200 F 
ATOM     70  F   UNL A   1      35.940  29.359  29.926  1.00  0.00    -0.200 F 
ENDBRANCH  46  60
BRANCH  47  71
ATOM     71  C   UNL A   1      49.306  26.630  26.202  1.00  0.00     0.064 A 
ATOM     72  C   UNL A   1      49.681  26.864  24.873  1.00  0.00     0.173 A 
ATOM     73  C   UNL A   1      50.279  26.116  27.073  1.00  0.00     0.173 A 
ATOM     74  F   UNL A   1      48.782  27.337  23.996  1.00  0.00    -0.203 F 
ATOM     75  C   UNL A   1      50.970  26.576  24.426  1.00  0.00     0.198 A 
ATOM     76  C   UNL A   1      51.576  25.861  26.634  1.00  0.00     0.198 A 
ATOM     77  F   UNL A   1      49.975  25.880  28.358  1.00  0.00    -0.203 F 
ATOM     78  F   UNL A   1      51.287  26.764  23.137  1.00  0.00    -0.200 F 
ATOM     79  C   UNL A   1      51.918  26.082  25.309  1.00  0.00     0.200 A 
ATOM     80  F   UNL A   1      52.495  25.402  27.495  1.00  0.00    -0.200 F 
ATOM     81  F   UNL A   1      53.159  25.812  24.881  1.00  0.00    -0.200 F 
ENDBRANCH  47  71
BRANCH  59  82
ATOM     82  C   UNL A   1      46.103  32.375  28.543  1.00  0.00     0.064 A 
ATOM     83  C   UNL A   1      46.655  32.743  29.778  1.00  0.00     0.173 A 
ATOM     84  C   UNL A   1      46.059  33.346  27.529  1.00  0.00     0.173 A 
ATOM     85  F   UNL A   1      46.708  31.857  30.785  1.00  0.00    -0.203 F 
ATOM     86  C   UNL A   1      47.122  34.037  29.998  1.00  0.00     0.198 A 
ATOM     87  C   UNL A   1      46.560  34.627  27.740  1.00  0.00     0.198 A 
ATOM     88  F   UNL A   1      45.548  33.045  26.326  1.00  0.00    -0.203 F 
ATOM     89  F   UNL A   1      47.599  34.380  31.202  1.00  0.00    -0.200 F 
ATOM     90  C   UNL A   1      47.083  34.974  28.976  1.00  0.00     0.200 A 
ATOM     91  F   UNL A   1      46.538  35.525  26.746  1.00  0.00    -0.200 F 
ATOM     92  F   UNL A   1      47.545  36.214  29.184  1.00  0.00    -0.200 F 
ENDBRANCH  59  82
ENDBRANCH  33  34
ENDBRANCH  25  28
ENDBRANCH  23  24
ENDBRANCH  22  23
ENDBRANCH   1  22
TORSDOF 14
ENDMDL
MODEL 3
REMARK VINA RESULT:     -12.3      1.116      2.342
REMARK SMILES C[C@H]([C@@H](C)C(=O)NCCCNC(=O)c1ccc(-c2c3nc(c(-c4c(F)c(F)c(F)c(F)c4F)c4ccc([nH]4)c(-c4c(F)c(F)c(F)c(F)c4F)c4nc(c(-c5c(F)c(F)c(F)c(F)c5F)c5ccc2[nH]5)C=C4)C=C3)cc1)n1c(CC#N)nc2ccccc21
REMARK SMILES IDX 8 1 7 2 5 3 6 4 3 6 4 7 2 8 1 9 77 10 78 11 88 12 82 13
REMARK SMILES IDX 83 14 87 15 84 16 86 17 85 18 79 19 80 20 81 21 9 22 10 23
REMARK SMILES IDX 11 24 12 25 13 27 14 28 15 29 76 30 16 31 75 32 17 33 18 34
REMARK SMILES IDX 19 35 69 36 20 37 74 38 68 39 70 40 21 41 73 42 67 43 66 44
REMARK SMILES IDX 22 46 54 47 34 48 53 49 35 50 38 51 52 52 71 53 36 54 37 55
REMARK SMILES IDX 51 57 72 58 39 59 23 60 24 61 32 62 25 63 26 64 30 65 33 66
REMARK SMILES IDX 27 67 28 68 31 69 29 70 55 71 56 72 64 73 57 74 58 75 62 76
REMARK SMILES IDX 65 77 59 78 60 79 63 80 61 81 40 82 41 83 49 84 42 85 43 86
REMARK SMILES IDX 47 87 50 88 44 89 45 90 48 91 46 92
REMARK H PARENT 7 5 11 26 70 45 38 56
REMARK Flexibility Score: inf
ROOT
ATOM      1  C   UNL A   1      31.671  30.967  25.764  1.00  0.00     0.117 C 
ENDROOT
BRANCH   1   2
ATOM      2  N   UNL A   1      32.873  30.174  25.954  1.00  0.00    -0.356 N 
ATOM      3  C   UNL A   1      33.058  28.870  26.281  1.00  0.00     0.224 C 
ATOM      4  O   UNL A   1      34.214  28.498  26.488  1.00  0.00    -0.275 OA
ATOM      5  H   UNL A   1      33.710  30.676  25.821  1.00  0.00     0.163 HD
BRANCH   3   6
ATOM      6  C   UNL A   1      31.905  27.881  26.358  1.00  0.00     0.098 C 
ATOM      7  C   UNL A   1      31.412  27.791  27.813  1.00  0.00     0.020 C 
BRANCH   6   8
ATOM      8  C   UNL A   1      32.230  26.558  25.609  1.00  0.00     0.098 C 
ATOM      9  C   UNL A   1      31.848  25.306  26.436  1.00  0.00     0.032 C 
BRANCH   8  10
ATOM     10  N   UNL A   1      31.566  26.535  24.270  1.00  0.00    -0.323 N 
ATOM     11  C   UNL A   1      32.331  26.455  23.114  1.00  0.00     0.124 A 
ATOM     12  C   UNL A   1      30.557  27.384  23.828  1.00  0.00     0.068 A 
ATOM     13  N   UNL A   1      32.471  27.691  22.655  1.00  0.00    -0.232 NA
ATOM     14  C   UNL A   1      31.253  28.247  22.973  1.00  0.00     0.089 A 
ATOM     15  C   UNL A   1      29.161  27.312  23.808  1.00  0.00     0.028 A 
ATOM     16  C   UNL A   1      30.601  29.325  22.366  1.00  0.00     0.030 A 
ATOM     17  C   UNL A   1      28.510  28.231  22.965  1.00  0.00     0.002 A 
ATOM     18  C   UNL A   1      29.205  29.261  22.318  1.00  0.00     0.002 A 
BRANCH  11  19
ATOM     19  C   UNL A   1      32.567  25.173  22.393  1.00  0.00     0.195 C 
BRANCH  19  20
ATOM     20  C   UNL A   1      32.772  25.409  20.944  1.00  0.00     0.070 C 
ATOM     21  N   UNL A   1      32.902  25.569  19.813  1.00  0.00    -0.198 NA
ENDBRANCH  19  20
ENDBRANCH  11  19
ENDBRANCH   8  10
ENDBRANCH   6   8
ENDBRANCH   3   6
ENDBRANCH   1   2
BRANCH   1  22
ATOM     22  C   UNL A   1      31.440  31.923  26.925  1.00  0.00     0.042 C 
BRANCH  22  23
ATOM     23  C   UNL A   1      32.679  32.706  27.333  1.00  0.00     0.118 C 
BRANCH  23  24
ATOM     24  N   UNL A   1      32.400  34.110  27.606  1.00  0.00    -0.352 N 
ATOM     25  C   UNL A   1      32.970  34.953  28.530  1.00  0.00     0.251 C 
ATOM     26  H   UNL A   1      31.700  34.515  27.045  1.00  0.00     0.163 HD
ATOM     27  O   UNL A   1      32.488  36.063  28.733  1.00  0.00    -0.269 OA
BRANCH  25  28
ATOM     28  C   UNL A   1      34.146  34.505  29.306  1.00  0.00     0.039 A 
ATOM     29  C   UNL A   1      33.954  33.960  30.577  1.00  0.00     0.014 A 
ATOM     30  C   UNL A   1      35.432  34.598  28.770  1.00  0.00     0.014 A 
ATOM     31  C   UNL A   1      35.042  33.430  31.273  1.00  0.00     0.010 A 
ATOM     32  C   UNL A   1      36.494  33.975  29.415  1.00  0.00     0.010 A 
ATOM     33  C   UNL A   1      36.313  33.387  30.676  1.00  0.00    -0.014 A 
BRANCH  33  34
ATOM     34  C   UNL A   1      37.466  32.738  31.348  1.00  0.00     0.031 A 
ATOM     35  C   UNL A   1      38.156  31.570  30.699  1.00  0.00     0.074 A 
ATOM     36  C   UNL A   1      37.843  33.147  32.575  1.00  0.00     0.049 A 
ATOM     37  N   UNL A   1      39.119  30.812  31.163  1.00  0.00    -0.248 NA
ATOM     38  C   UNL A   1      37.677  31.179  29.363  1.00  0.00     0.031 C 
ATOM     39  C   UNL A   1      37.219  34.234  33.333  1.00  0.00     0.029 A 
ATOM     40  N   UNL A   1      38.830  32.685  33.411  1.00  0.00    -0.354 N 
ATOM     41  C   UNL A   1      39.346  29.853  30.185  1.00  0.00     0.074 A 
ATOM     42  C   UNL A   1      38.379  30.081  29.134  1.00  0.00     0.031 C 
ATOM     43  C   UNL A   1      37.849  34.368  34.510  1.00  0.00     0.029 A 
ATOM     44  C   UNL A   1      38.887  33.347  34.613  1.00  0.00     0.049 A 
ATOM     45  H   UNL A   1      39.440  31.951  33.170  1.00  0.00     0.167 HD
ATOM     46  C   UNL A   1      40.293  28.885  30.154  1.00  0.00     0.037 A 
ATOM     47  C   UNL A   1      39.675  33.141  35.687  1.00  0.00     0.037 A 
ATOM     48  C   UNL A   1      41.261  28.673  31.198  1.00  0.00     0.049 A 
ATOM     49  C   UNL A   1      40.706  32.045  35.640  1.00  0.00     0.074 A 
ATOM     50  C   UNL A   1      42.300  27.760  31.238  1.00  0.00     0.029 A 
ATOM     51  N   UNL A   1      41.299  29.375  32.396  1.00  0.00    -0.354 N 
ATOM     52  N   UNL A   1      40.966  31.195  34.677  1.00  0.00    -0.248 NA
ATOM     53  C   UNL A   1      41.558  31.884  36.827  1.00  0.00     0.031 C 
ATOM     54  C   UNL A   1      42.925  27.864  32.485  1.00  0.00     0.029 A 
ATOM     55  C   UNL A   1      42.323  28.891  33.195  1.00  0.00     0.049 A 
ATOM     56  H   UNL A   1      40.689  30.108  32.640  1.00  0.00     0.167 HD
ATOM     57  C   UNL A   1      42.026  30.419  35.126  1.00  0.00     0.074 A 
ATOM     58  C   UNL A   1      42.371  30.911  36.444  1.00  0.00     0.031 C 
ATOM     59  C   UNL A   1      42.659  29.394  34.504  1.00  0.00     0.037 A 
BRANCH  46  60
ATOM     60  C   UNL A   1      40.322  27.979  28.955  1.00  0.00     0.064 A 
ATOM     61  C   UNL A   1      41.058  28.297  27.803  1.00  0.00     0.173 A 
ATOM     62  C   UNL A   1      39.616  26.766  28.964  1.00  0.00     0.173 A 
ATOM     63  F   UNL A   1      41.744  29.450  27.736  1.00  0.00    -0.203 F 
ATOM     64  C   UNL A   1      41.053  27.458  26.692  1.00  0.00     0.198 A 
ATOM     65  C   UNL A   1      39.645  25.911  27.865  1.00  0.00     0.198 A 
ATOM     66  F   UNL A   1      38.901  26.406  30.039  1.00  0.00    -0.203 F 
ATOM     67  F   UNL A   1      41.711  27.817  25.580  1.00  0.00    -0.200 F 
ATOM     68  C   UNL A   1      40.353  26.262  26.726  1.00  0.00     0.200 A 
ATOM     69  F   UNL A   1      38.982  24.746  27.907  1.00  0.00    -0.200 F 
ATOM     70  F   UNL A   1      40.353  25.453  25.658  1.00  0.00    -0.200 F 
ENDBRANCH  46  60
BRANCH  47  71
ATOM     71  C   UNL A   1      39.520  33.998  36.894  1.00  0.00     0.064 A 
ATOM     72  C   UNL A   1      40.144  35.250  36.978  1.00  0.00     0.173 A 
ATOM     73  C   UNL A   1      38.745  33.582  37.987  1.00  0.00     0.173 A 
ATOM     74  F   UNL A   1      40.911  35.685  35.967  1.00  0.00    -0.203 F 
ATOM     75  C   UNL A   1      40.016  36.044  38.117  1.00  0.00     0.198 A 
ATOM     76  C   UNL A   1      38.590  34.391  39.110  1.00  0.00     0.198 A 
ATOM     77  F   UNL A   1      38.121  32.395  37.956  1.00  0.00    -0.203 F 
ATOM     78  F   UNL A   1      40.663  37.215  38.190  1.00  0.00    -0.200 F 
ATOM     79  C   UNL A   1      39.233  35.617  39.179  1.00  0.00     0.200 A 
ATOM     80  F   UNL A   1      37.817  33.983  40.126  1.00  0.00    -0.200 F 
ATOM     81  F   UNL A   1      39.105  36.383  40.270  1.00  0.00    -0.200 F 
ENDBRANCH  47  71
BRANCH  59  82
ATOM     82  C   UNL A   1      43.816  28.755  35.219  1.00  0.00     0.064 A 
ATOM     83  C   UNL A   1      45.132  29.211  35.053  1.00  0.00     0.173 A 
ATOM     84  C   UNL A   1      43.594  27.705  36.124  1.00  0.00     0.173 A 
ATOM     85  F   UNL A   1      45.400  30.203  34.190  1.00  0.00    -0.203 F 
ATOM     86  C   UNL A   1      46.186  28.623  35.749  1.00  0.00     0.198 A 
ATOM     87  C   UNL A   1      44.645  27.144  36.844  1.00  0.00     0.198 A 
ATOM     88  F   UNL A   1      42.354  27.236  36.326  1.00  0.00    -0.203 F 
ATOM     89  F   UNL A   1      47.442  29.041  35.537  1.00  0.00    -0.200 F 
ATOM     90  C   UNL A   1      45.941  27.598  36.650  1.00  0.00     0.200 A 
ATOM     91  F   UNL A   1      44.403  26.167  37.728  1.00  0.00    -0.200 F 
ATOM     92  F   UNL A   1      46.954  27.043  37.328  1.00  0.00    -0.200 F 
ENDBRANCH  59  82
ENDBRANCH  33  34
ENDBRANCH  25  28
ENDBRANCH  23  24
ENDBRANCH  22  23
ENDBRANCH   1  22
TORSDOF 14
ENDMDL
