MODEL 1
REMARK VINA RESULT:     -13.2      0.000      0.000
REMARK SMILES O=C(NCCCNC(=O)c1ccc2c(c1)C[N@H+](Cc1ccccc1)CO2)c1ccc(-c2c3nc(c(-c4c(F)c(F)c(F)c(F)c4F)c4ccc([nH]4)c(-c4c(F)c(F)c(F)c(F)c4F)c4nc(c(-c5c(F)c(F)c(F)c(F)c5F)c5ccc2[nH]5)C=C4)C=C3)cc1
REMARK SMILES IDX 5 1 4 2 3 3 1 4 2 5 27 7 28 8 89 9 29 10 88 11 30 12 31 13
REMARK SMILES IDX 32 14 82 15 33 16 87 17 81 18 83 19 34 20 86 21 80 22 79 23
REMARK SMILES IDX 35 25 67 26 47 27 66 28 48 29 51 30 65 31 84 32 49 33 50 34
REMARK SMILES IDX 64 36 85 37 52 38 36 39 37 40 45 41 38 42 39 43 43 44 46 45
REMARK SMILES IDX 40 46 41 47 44 48 42 49 68 50 69 51 77 52 70 53 71 54 75 55
REMARK SMILES IDX 78 56 72 57 73 58 76 59 74 60 53 61 54 62 62 63 55 64 56 65
REMARK SMILES IDX 60 66 63 67 57 68 58 69 61 70 59 71 6 72 7 73 8 74 9 76
REMARK SMILES IDX 10 77 11 78 15 79 12 80 14 81 13 82 16 83 26 84 17 85 25 86
REMARK SMILES IDX 18 88 19 89 20 90 24 91 21 92 23 93 22 94
REMARK H PARENT 3 6 83 24 51 35 7 75 17 87
REMARK Flexibility Score: inf
ROOT
ATOM      1  C   UNL A   1      31.356  32.246  26.513  1.00  0.00     0.042 C 
ENDROOT
BRANCH   1   2
ATOM      2  C   UNL A   1      32.595  32.781  27.206  1.00  0.00     0.118 C 
BRANCH   2   3
ATOM      3  N   UNL A   1      32.442  34.170  27.626  1.00  0.00    -0.352 N 
ATOM      4  O   UNL A   1      32.647  35.966  28.973  1.00  0.00    -0.269 OA
ATOM      5  C   UNL A   1      33.060  34.857  28.639  1.00  0.00     0.251 C 
ATOM      6  H   UNL A   1      31.794  34.695  27.103  1.00  0.00     0.163 HD
BRANCH   5   7
ATOM      7  C   UNL A   1      34.219  34.263  29.334  1.00  0.00     0.039 A 
ATOM      8  C   UNL A   1      34.028  33.444  30.448  1.00  0.00     0.014 A 
ATOM      9  C   UNL A   1      35.510  34.494  28.847  1.00  0.00     0.014 A 
ATOM     10  C   UNL A   1      35.121  32.983  31.164  1.00  0.00     0.010 A 
ATOM     11  C   UNL A   1      36.608  33.929  29.502  1.00  0.00     0.010 A 
ATOM     12  C   UNL A   1      36.420  33.179  30.673  1.00  0.00    -0.014 A 
BRANCH  12  13
ATOM     13  C   UNL A   1      37.541  32.463  31.328  1.00  0.00     0.031 A 
ATOM     14  C   UNL A   1      38.240  31.318  30.662  1.00  0.00     0.074 A 
ATOM     15  C   UNL A   1      37.924  32.888  32.550  1.00  0.00     0.049 A 
ATOM     16  N   UNL A   1      39.232  30.592  31.112  1.00  0.00    -0.248 NA
ATOM     17  C   UNL A   1      37.771  30.927  29.325  1.00  0.00     0.031 C 
ATOM     18  C   UNL A   1      37.295  33.985  33.294  1.00  0.00     0.029 A 
ATOM     19  N   UNL A   1      38.930  32.465  33.378  1.00  0.00    -0.354 N 
ATOM     20  C   UNL A   1      39.494  29.650  30.128  1.00  0.00     0.074 A 
ATOM     21  C   UNL A   1      38.548  29.883  29.058  1.00  0.00     0.031 C 
ATOM     22  C   UNL A   1      37.952  34.173  34.446  1.00  0.00     0.029 A 
ATOM     23  C   UNL A   1      38.992  33.159  34.561  1.00  0.00     0.049 A 
ATOM     24  H   UNL A   1      39.548  31.735  33.147  1.00  0.00     0.167 HD
ATOM     25  C   UNL A   1      40.442  28.683  30.128  1.00  0.00     0.037 A 
ATOM     26  C   UNL A   1      39.773  32.977  35.641  1.00  0.00     0.037 A 
ATOM     27  C   UNL A   1      41.390  28.476  31.194  1.00  0.00     0.049 A 
ATOM     28  C   UNL A   1      40.786  31.870  35.616  1.00  0.00     0.074 A 
ATOM     29  C   UNL A   1      42.432  27.567  31.254  1.00  0.00     0.029 A 
ATOM     30  N   UNL A   1      41.403  29.177  32.390  1.00  0.00    -0.354 N 
ATOM     31  N   UNL A   1      41.068  31.029  34.650  1.00  0.00    -0.248 NA
ATOM     32  C   UNL A   1      41.584  31.678  36.833  1.00  0.00     0.031 C 
ATOM     33  C   UNL A   1      43.032  27.671  32.512  1.00  0.00     0.029 A 
ATOM     34  C   UNL A   1      42.407  28.689  33.213  1.00  0.00     0.049 A 
ATOM     35  H   UNL A   1      40.792  29.914  32.621  1.00  0.00     0.167 HD
ATOM     36  C   UNL A   1      42.083  30.220  35.137  1.00  0.00     0.074 A 
ATOM     37  C   UNL A   1      42.391  30.694  36.470  1.00  0.00     0.031 C 
ATOM     38  C   UNL A   1      42.697  29.170  34.539  1.00  0.00     0.037 A 
BRANCH  25  39
ATOM     39  C   UNL A   1      40.508  27.747  28.955  1.00  0.00     0.064 A 
ATOM     40  C   UNL A   1      39.693  26.610  28.869  1.00  0.00     0.173 A 
ATOM     41  C   UNL A   1      41.320  28.057  27.853  1.00  0.00     0.173 A 
ATOM     42  F   UNL A   1      38.904  26.264  29.897  1.00  0.00    -0.203 F 
ATOM     43  C   UNL A   1      39.689  25.816  27.723  1.00  0.00     0.198 A 
ATOM     44  C   UNL A   1      41.295  27.278  26.699  1.00  0.00     0.198 A 
ATOM     45  F   UNL A   1      42.113  29.138  27.880  1.00  0.00    -0.203 F 
ATOM     46  F   UNL A   1      38.915  24.724  27.668  1.00  0.00    -0.200 F 
ATOM     47  C   UNL A   1      40.480  26.158  26.635  1.00  0.00     0.200 A 
ATOM     48  F   UNL A   1      42.047  27.619  25.643  1.00  0.00    -0.200 F 
ATOM     49  F   UNL A   1      40.454  25.409  25.524  1.00  0.00    -0.200 F 
ENDBRANCH  25  39
BRANCH  26  50
ATOM     50  C   UNL A   1      39.592  33.827  36.847  1.00  0.00     0.064 A 
ATOM     51  C   UNL A   1      38.800  33.403  37.922  1.00  0.00     0.173 A 
ATOM     52  C   UNL A   1      40.183  35.097  36.933  1.00  0.00     0.173 A 
ATOM     53  F   UNL A   1      38.201  32.204  37.881  1.00  0.00    -0.203 F 
ATOM     54  C   UNL A   1      38.578  34.231  39.021  1.00  0.00     0.198 A 
ATOM     55  C   UNL A   1      39.993  35.907  38.050  1.00  0.00     0.198 A 
ATOM     56  F   UNL A   1      40.956  35.550  35.936  1.00  0.00    -0.203 F 
ATOM     57  F   UNL A   1      37.762  33.828  40.004  1.00  0.00    -0.200 F 
ATOM     58  C   UNL A   1      39.178  35.480  39.086  1.00  0.00     0.200 A 
ATOM     59  F   UNL A   1      40.592  37.104  38.117  1.00  0.00    -0.200 F 
ATOM     60  F   UNL A   1      38.960  36.275  40.142  1.00  0.00    -0.200 F 
ENDBRANCH  26  50
BRANCH  38  61
ATOM     61  C   UNL A   1      43.774  28.478  35.321  1.00  0.00     0.064 A 
ATOM     62  C   UNL A   1      43.478  27.433  36.209  1.00  0.00     0.173 A 
ATOM     63  C   UNL A   1      45.119  28.848  35.166  1.00  0.00     0.173 A 
ATOM     64  F   UNL A   1      42.206  27.055  36.407  1.00  0.00    -0.203 F 
ATOM     65  C   UNL A   1      44.485  26.802  36.933  1.00  0.00     0.198 A 
ATOM     66  C   UNL A   1      46.126  28.191  35.864  1.00  0.00     0.198 A 
ATOM     67  F   UNL A   1      45.455  29.838  34.326  1.00  0.00    -0.203 F 
ATOM     68  F   UNL A   1      44.173  25.846  37.818  1.00  0.00    -0.200 F 
ATOM     69  C   UNL A   1      45.809  27.176  36.755  1.00  0.00     0.200 A 
ATOM     70  F   UNL A   1      47.406  28.544  35.680  1.00  0.00    -0.200 F 
ATOM     71  F   UNL A   1      46.779  26.565  37.448  1.00  0.00    -0.200 F 
ENDBRANCH  38  61
ENDBRANCH  12  13
ENDBRANCH   5   7
ENDBRANCH   2   3
ENDBRANCH   1   2
BRANCH   1  72
ATOM     72  C   UNL A   1      31.559  30.866  25.913  1.00  0.00     0.118 C 
BRANCH  72  73
ATOM     73  N   UNL A   1      31.651  29.829  26.931  1.00  0.00    -0.352 N 
ATOM     74  C   UNL A   1      31.920  28.490  26.801  1.00  0.00     0.251 C 
ATOM     75  H   UNL A   1      31.494  30.135  27.854  1.00  0.00     0.163 HD
ATOM     76  O   UNL A   1      31.742  27.735  27.754  1.00  0.00    -0.269 OA
BRANCH  74  77
ATOM     77  C   UNL A   1      32.395  27.952  25.509  1.00  0.00     0.040 A 
ATOM     78  C   UNL A   1      33.652  28.298  25.003  1.00  0.00     0.017 A 
ATOM     79  C   UNL A   1      31.586  27.046  24.818  1.00  0.00     0.027 A 
ATOM     80  C   UNL A   1      34.025  27.886  23.729  1.00  0.00     0.048 A 
ATOM     81  C   UNL A   1      32.011  26.545  23.581  1.00  0.00     0.049 A 
ATOM     82  C   UNL A   1      33.191  27.036  23.011  1.00  0.00     0.134 A 
ATOM     83  C   UNL A   1      31.263  25.439  22.894  1.00  0.00     0.306 C 
ATOM     84  O   UNL A   1      33.653  26.624  21.790  1.00  0.00    -0.445 OA
ATOM     85  N   UNL A   1      32.063  24.765  21.874  1.00  0.00    -0.295 N 
ATOM     86  C   UNL A   1      32.755  25.771  21.077  1.00  0.00     0.507 C 
ATOM     87  H   UNL A   1      31.419  24.251  21.273  1.00  0.00     0.351 HD
BRANCH  85  88
ATOM     88  C   UNL A   1      32.919  23.664  22.350  1.00  0.00     0.302 C 
BRANCH  88  89
ATOM     89  C   UNL A   1      33.370  23.648  23.798  1.00  0.00     0.006 A 
ATOM     90  C   UNL A   1      34.625  24.164  24.161  1.00  0.00     0.009 A 
ATOM     91  C   UNL A   1      32.534  23.155  24.812  1.00  0.00     0.009 A 
ATOM     92  C   UNL A   1      35.009  24.230  25.503  1.00  0.00     0.001 A 
ATOM     93  C   UNL A   1      32.908  23.244  26.155  1.00  0.00     0.001 A 
ATOM     94  C   UNL A   1      34.144  23.785  26.500  1.00  0.00     0.000 A 
ENDBRANCH  88  89
ENDBRANCH  85  88
ENDBRANCH  74  77
ENDBRANCH  72  73
ENDBRANCH   1  72
TORSDOF 12
ENDMDL
MODEL 2
REMARK VINA RESULT:     -13.1      0.216      1.607
REMARK SMILES O=C(NCCCNC(=O)c1ccc2c(c1)C[N@H+](Cc1ccccc1)CO2)c1ccc(-c2c3nc(c(-c4c(F)c(F)c(F)c(F)c4F)c4ccc([nH]4)c(-c4c(F)c(F)c(F)c(F)c4F)c4nc(c(-c5c(F)c(F)c(F)c(F)c5F)c5ccc2[nH]5)C=C4)C=C3)cc1
REMARK SMILES IDX 5 1 4 2 3 3 1 4 2 5 27 7 28 8 89 9 29 10 88 11 30 12 31 13
REMARK SMILES IDX 32 14 82 15 33 16 87 17 81 18 83 19 34 20 86 21 80 22 79 23
REMARK SMILES IDX 35 25 67 26 47 27 66 28 48 29 51 30 65 31 84 32 49 33 50 34
REMARK SMILES IDX 64 36 85 37 52 38 36 39 37 40 45 41 38 42 39 43 43 44 46 45
REMARK SMILES IDX 40 46 41 47 44 48 42 49 68 50 69 51 77 52 70 53 71 54 75 55
REMARK SMILES IDX 78 56 72 57 73 58 76 59 74 60 53 61 54 62 62 63 55 64 56 65
REMARK SMILES IDX 60 66 63 67 57 68 58 69 61 70 59 71 6 72 7 73 8 74 9 76
REMARK SMILES IDX 10 77 11 78 15 79 12 80 14 81 13 82 16 83 26 84 17 85 25 86
REMARK SMILES IDX 18 88 19 89 20 90 24 91 21 92 23 93 22 94
REMARK H PARENT 3 6 83 24 51 35 7 75 17 87
REMARK Flexibility Score: inf
ROOT
ATOM      1  C   UNL A   1      31.403  32.051  26.502  1.00  0.00     0.042 C 
ENDROOT
BRANCH   1   2
ATOM      2  C   UNL A   1      32.610  32.590  27.246  1.00  0.00     0.118 C 
BRANCH   2   3
ATOM      3  N   UNL A   1      32.460  33.997  27.606  1.00  0.00    -0.352 N 
ATOM      4  O   UNL A   1      32.667  35.848  28.875  1.00  0.00    -0.269 OA
ATOM      5  C   UNL A   1      33.077  34.724  28.591  1.00  0.00     0.251 C 
ATOM      6  H   UNL A   1      31.817  34.501  27.058  1.00  0.00     0.163 HD
BRANCH   5   7
ATOM      7  C   UNL A   1      34.231  34.155  29.316  1.00  0.00     0.039 A 
ATOM      8  C   UNL A   1      34.029  33.307  30.405  1.00  0.00     0.014 A 
ATOM      9  C   UNL A   1      35.529  34.442  28.881  1.00  0.00     0.014 A 
ATOM     10  C   UNL A   1      35.110  32.869  31.152  1.00  0.00     0.010 A 
ATOM     11  C   UNL A   1      36.622  33.902  29.565  1.00  0.00     0.010 A 
ATOM     12  C   UNL A   1      36.419  33.121  30.713  1.00  0.00    -0.014 A 
BRANCH  12  13
ATOM     13  C   UNL A   1      37.540  32.431  31.394  1.00  0.00     0.031 A 
ATOM     14  C   UNL A   1      38.261  31.281  30.758  1.00  0.00     0.074 A 
ATOM     15  C   UNL A   1      37.904  32.883  32.612  1.00  0.00     0.049 A 
ATOM     16  N   UNL A   1      39.255  30.575  31.233  1.00  0.00    -0.248 NA
ATOM     17  C   UNL A   1      37.811  30.860  29.423  1.00  0.00     0.031 C 
ATOM     18  C   UNL A   1      37.255  33.986  33.328  1.00  0.00     0.029 A 
ATOM     19  N   UNL A   1      38.905  32.487  33.459  1.00  0.00    -0.354 N 
ATOM     20  C   UNL A   1      39.539  29.618  30.270  1.00  0.00     0.074 A 
ATOM     21  C   UNL A   1      38.603  29.820  29.186  1.00  0.00     0.031 C 
ATOM     22  C   UNL A   1      37.896  34.203  34.484  1.00  0.00     0.029 A 
ATOM     23  C   UNL A   1      38.946  33.204  34.629  1.00  0.00     0.049 A 
ATOM     24  H   UNL A   1      39.535  31.760  33.249  1.00  0.00     0.167 HD
ATOM     25  C   UNL A   1      40.498  28.662  30.299  1.00  0.00     0.037 A 
ATOM     26  C   UNL A   1      39.717  33.051  35.721  1.00  0.00     0.037 A 
ATOM     27  C   UNL A   1      41.436  28.486  31.379  1.00  0.00     0.049 A 
ATOM     28  C   UNL A   1      40.742  31.956  35.729  1.00  0.00     0.074 A 
ATOM     29  C   UNL A   1      42.488  27.591  31.468  1.00  0.00     0.029 A 
ATOM     30  N   UNL A   1      41.427  29.210  32.562  1.00  0.00    -0.354 N 
ATOM     31  N   UNL A   1      41.045  31.101  34.783  1.00  0.00    -0.248 NA
ATOM     32  C   UNL A   1      41.528  31.797  36.958  1.00  0.00     0.031 C 
ATOM     33  C   UNL A   1      43.072  27.726  32.731  1.00  0.00     0.029 A 
ATOM     34  C   UNL A   1      42.427  28.749  33.406  1.00  0.00     0.049 A 
ATOM     35  H   UNL A   1      40.805  29.944  32.772  1.00  0.00     0.167 HD
ATOM     36  C   UNL A   1      42.063  30.312  35.296  1.00  0.00     0.074 A 
ATOM     37  C   UNL A   1      42.351  30.815  36.623  1.00  0.00     0.031 C 
ATOM     38  C   UNL A   1      42.696  29.259  34.725  1.00  0.00     0.037 A 
BRANCH  25  39
ATOM     39  C   UNL A   1      40.588  27.705  29.145  1.00  0.00     0.064 A 
ATOM     40  C   UNL A   1      39.745  26.590  29.041  1.00  0.00     0.173 A 
ATOM     41  C   UNL A   1      41.456  27.974  28.075  1.00  0.00     0.173 A 
ATOM     42  F   UNL A   1      38.903  26.283  30.039  1.00  0.00    -0.203 F 
ATOM     43  C   UNL A   1      39.769  25.778  27.909  1.00  0.00     0.198 A 
ATOM     44  C   UNL A   1      41.459  27.176  26.933  1.00  0.00     0.198 A 
ATOM     45  F   UNL A   1      42.278  29.032  28.120  1.00  0.00    -0.203 F 
ATOM     46  F   UNL A   1      38.967  24.707  27.837  1.00  0.00    -0.200 F 
ATOM     47  C   UNL A   1      40.616  26.079  26.851  1.00  0.00     0.200 A 
ATOM     48  F   UNL A   1      42.266  27.478  25.907  1.00  0.00    -0.200 F 
ATOM     49  F   UNL A   1      40.617  25.311  25.752  1.00  0.00    -0.200 F 
ENDBRANCH  25  39
BRANCH  26  50
ATOM     50  C   UNL A   1      39.511  33.922  36.909  1.00  0.00     0.064 A 
ATOM     51  C   UNL A   1      40.118  35.181  37.000  1.00  0.00     0.173 A 
ATOM     52  C   UNL A   1      38.727  33.496  37.992  1.00  0.00     0.173 A 
ATOM     53  F   UNL A   1      40.891  35.627  35.999  1.00  0.00    -0.203 F 
ATOM     54  C   UNL A   1      39.978  35.965  38.144  1.00  0.00     0.198 A 
ATOM     55  C   UNL A   1      38.555  34.298  39.117  1.00  0.00     0.198 A 
ATOM     56  F   UNL A   1      38.117  32.303  37.955  1.00  0.00    -0.203 F 
ATOM     57  F   UNL A   1      40.625  37.135  38.233  1.00  0.00    -0.200 F 
ATOM     58  C   UNL A   1      39.193  35.525  39.199  1.00  0.00     0.200 A 
ATOM     59  F   UNL A   1      37.777  33.877  40.125  1.00  0.00    -0.200 F 
ATOM     60  F   UNL A   1      39.062  36.279  40.299  1.00  0.00    -0.200 F 
ENDBRANCH  26  50
BRANCH  38  61
ATOM     61  C   UNL A   1      43.772  28.594  35.533  1.00  0.00     0.064 A 
ATOM     62  C   UNL A   1      45.119  28.967  35.407  1.00  0.00     0.173 A 
ATOM     63  C   UNL A   1      43.452  27.588  36.457  1.00  0.00     0.173 A 
ATOM     64  F   UNL A   1      45.478  29.910  34.522  1.00  0.00    -0.203 F 
ATOM     65  C   UNL A   1      46.108  28.339  36.157  1.00  0.00     0.198 A 
ATOM     66  C   UNL A   1      44.439  26.988  37.232  1.00  0.00     0.198 A 
ATOM     67  F   UNL A   1      42.179  27.198  36.618  1.00  0.00    -0.203 F 
ATOM     68  F   UNL A   1      47.394  28.673  35.979  1.00  0.00    -0.200 F 
ATOM     69  C   UNL A   1      45.767  27.356  37.074  1.00  0.00     0.200 A 
ATOM     70  F   UNL A   1      44.107  26.049  38.127  1.00  0.00    -0.200 F 
ATOM     71  F   UNL A   1      46.720  26.756  37.801  1.00  0.00    -0.200 F 
ENDBRANCH  38  61
ENDBRANCH  12  13
ENDBRANCH   5   7
ENDBRANCH   2   3
ENDBRANCH   1   2
BRANCH   1  72
ATOM     72  C   UNL A   1      31.651  30.693  25.870  1.00  0.00     0.118 C 
BRANCH  72  73
ATOM     73  N   UNL A   1      31.725  29.628  26.860  1.00  0.00    -0.352 N 
ATOM     74  C   UNL A   1      31.972  28.289  26.694  1.00  0.00     0.251 C 
ATOM     75  H   UNL A   1      31.574  29.913  27.790  1.00  0.00     0.163 HD
ATOM     76  O   UNL A   1      31.781  27.512  27.627  1.00  0.00    -0.269 OA
BRANCH  74  77
ATOM     77  C   UNL A   1      32.437  27.777  25.388  1.00  0.00     0.040 A 
ATOM     78  C   UNL A   1      33.652  28.200  24.840  1.00  0.00     0.017 A 
ATOM     79  C   UNL A   1      31.664  26.819  24.726  1.00  0.00     0.027 A 
ATOM     80  C   UNL A   1      34.008  27.808  23.555  1.00  0.00     0.048 A 
ATOM     81  C   UNL A   1      32.080  26.341  23.477  1.00  0.00     0.049 A 
ATOM     82  C   UNL A   1      33.207  26.904  22.867  1.00  0.00     0.134 A 
ATOM     83  C   UNL A   1      31.381  25.188  22.816  1.00  0.00     0.306 C 
ATOM     84  O   UNL A   1      33.653  26.518  21.632  1.00  0.00    -0.445 OA
ATOM     85  N   UNL A   1      32.188  24.562  21.772  1.00  0.00    -0.295 N 
ATOM     86  C   UNL A   1      32.788  25.607  20.950  1.00  0.00     0.507 C 
ATOM     87  H   UNL A   1      31.558  24.006  21.193  1.00  0.00     0.351 HD
BRANCH  85  88
ATOM     88  C   UNL A   1      33.128  23.519  22.221  1.00  0.00     0.302 C 
BRANCH  88  89
ATOM     89  C   UNL A   1      33.581  23.502  23.668  1.00  0.00     0.006 A 
ATOM     90  C   UNL A   1      34.792  24.106  24.044  1.00  0.00     0.009 A 
ATOM     91  C   UNL A   1      32.787  22.921  24.669  1.00  0.00     0.009 A 
ATOM     92  C   UNL A   1      35.171  24.169  25.388  1.00  0.00     0.001 A 
ATOM     93  C   UNL A   1      33.155  23.005  26.014  1.00  0.00     0.001 A 
ATOM     94  C   UNL A   1      34.345  23.633  26.373  1.00  0.00     0.000 A 
ENDBRANCH  88  89
ENDBRANCH  85  88
ENDBRANCH  74  77
ENDBRANCH  72  73
ENDBRANCH   1  72
TORSDOF 12
ENDMDL
MODEL 3
REMARK VINA RESULT:     -13.0      0.645      7.423
REMARK SMILES O=C(NCCCNC(=O)c1ccc2c(c1)C[N@H+](Cc1ccccc1)CO2)c1ccc(-c2c3nc(c(-c4c(F)c(F)c(F)c(F)c4F)c4ccc([nH]4)c(-c4c(F)c(F)c(F)c(F)c4F)c4nc(c(-c5c(F)c(F)c(F)c(F)c5F)c5ccc2[nH]5)C=C4)C=C3)cc1
REMARK SMILES IDX 5 1 4 2 3 3 1 4 2 5 27 7 28 8 89 9 29 10 88 11 30 12 31 13
REMARK SMILES IDX 32 14 82 15 33 16 87 17 81 18 83 19 34 20 86 21 80 22 79 23
REMARK SMILES IDX 35 25 67 26 47 27 66 28 48 29 51 30 65 31 84 32 49 33 50 34
REMARK SMILES IDX 64 36 85 37 52 38 36 39 37 40 45 41 38 42 39 43 43 44 46 45
REMARK SMILES IDX 40 46 41 47 44 48 42 49 68 50 69 51 77 52 70 53 71 54 75 55
REMARK SMILES IDX 78 56 72 57 73 58 76 59 74 60 53 61 54 62 62 63 55 64 56 65
REMARK SMILES IDX 60 66 63 67 57 68 58 69 61 70 59 71 6 72 7 73 8 74 9 76
REMARK SMILES IDX 10 77 11 78 15 79 12 80 14 81 13 82 16 83 26 84 17 85 25 86
REMARK SMILES IDX 18 88 19 89 20 90 24 91 21 92 23 93 22 94
REMARK H PARENT 3 6 83 24 51 35 7 75 17 87
REMARK Flexibility Score: inf
ROOT
ATOM      1  C   UNL A   1      31.290  31.982  26.463  1.00  0.00     0.042 C 
ENDROOT
BRANCH   1   2
ATOM      2  C   UNL A   1      32.512  32.474  27.215  1.00  0.00     0.118 C 
BRANCH   2   3
ATOM      3  N   UNL A   1      32.428  33.893  27.548  1.00  0.00    -0.352 N 
ATOM      4  O   UNL A   1      32.754  35.762  28.764  1.00  0.00    -0.269 OA
ATOM      5  C   UNL A   1      33.111  34.618  28.490  1.00  0.00     0.251 C 
ATOM      6  H   UNL A   1      31.781  34.408  27.014  1.00  0.00     0.163 HD
BRANCH   5   7
ATOM      7  C   UNL A   1      34.273  34.023  29.180  1.00  0.00     0.039 A 
ATOM      8  C   UNL A   1      34.083  33.089  30.199  1.00  0.00     0.014 A 
ATOM      9  C   UNL A   1      35.567  34.374  28.782  1.00  0.00     0.014 A 
ATOM     10  C   UNL A   1      35.170  32.621  30.920  1.00  0.00     0.010 A 
ATOM     11  C   UNL A   1      36.668  33.809  29.433  1.00  0.00     0.010 A 
ATOM     12  C   UNL A   1      36.475  32.937  30.515  1.00  0.00    -0.014 A 
BRANCH  12  13
ATOM     13  C   UNL A   1      37.607  32.224  31.152  1.00  0.00     0.031 A 
ATOM     14  C   UNL A   1      38.076  32.566  32.534  1.00  0.00     0.074 A 
ATOM     15  C   UNL A   1      38.200  31.238  30.448  1.00  0.00     0.049 A 
ATOM     16  N   UNL A   1      39.056  32.035  33.220  1.00  0.00    -0.248 NA
ATOM     17  C   UNL A   1      37.366  33.643  33.239  1.00  0.00     0.031 C 
ATOM     18  C   UNL A   1      37.831  30.838  29.086  1.00  0.00     0.029 A 
ATOM     19  N   UNL A   1      39.225  30.388  30.772  1.00  0.00    -0.354 N 
ATOM     20  C   UNL A   1      39.094  32.721  34.426  1.00  0.00     0.074 A 
ATOM     21  C   UNL A   1      38.049  33.720  34.376  1.00  0.00     0.031 C 
ATOM     22  C   UNL A   1      38.587  29.799  28.708  1.00  0.00     0.029 A 
ATOM     23  C   UNL A   1      39.549  29.514  29.764  1.00  0.00     0.049 A 
ATOM     24  H   UNL A   1      39.683  30.402  31.643  1.00  0.00     0.167 HD
ATOM     25  C   UNL A   1      39.930  32.524  35.473  1.00  0.00     0.037 A 
ATOM     26  C   UNL A   1      40.540  28.608  29.678  1.00  0.00     0.037 A 
ATOM     27  C   UNL A   1      40.955  31.510  35.514  1.00  0.00     0.049 A 
ATOM     28  C   UNL A   1      41.469  28.447  30.846  1.00  0.00     0.074 A 
ATOM     29  C   UNL A   1      41.805  31.189  36.557  1.00  0.00     0.029 A 
ATOM     30  N   UNL A   1      41.276  30.665  34.463  1.00  0.00    -0.354 N 
ATOM     31  N   UNL A   1      41.451  29.056  32.006  1.00  0.00    -0.248 NA
ATOM     32  C   UNL A   1      42.562  27.480  30.691  1.00  0.00     0.031 C 
ATOM     33  C   UNL A   1      42.685  30.197  36.115  1.00  0.00     0.029 A 
ATOM     34  C   UNL A   1      42.343  29.854  34.818  1.00  0.00     0.049 A 
ATOM     35  H   UNL A   1      40.814  30.642  33.593  1.00  0.00     0.167 HD
ATOM     36  C   UNL A   1      42.519  28.538  32.723  1.00  0.00     0.074 A 
ATOM     37  C   UNL A   1      43.141  27.539  31.880  1.00  0.00     0.031 C 
ATOM     38  C   UNL A   1      42.952  28.867  33.964  1.00  0.00     0.037 A 
BRANCH  25  39
ATOM     39  C   UNL A   1      39.805  33.427  36.666  1.00  0.00     0.064 A 
ATOM     40  C   UNL A   1      40.481  34.652  36.742  1.00  0.00     0.173 A 
ATOM     41  C   UNL A   1      38.907  33.108  37.698  1.00  0.00     0.173 A 
ATOM     42  F   UNL A   1      41.356  35.002  35.787  1.00  0.00    -0.203 F 
ATOM     43  C   UNL A   1      40.264  35.525  37.807  1.00  0.00     0.198 A 
ATOM     44  C   UNL A   1      38.672  33.993  38.747  1.00  0.00     0.198 A 
ATOM     45  F   UNL A   1      38.229  31.951  37.671  1.00  0.00    -0.203 F 
ATOM     46  F   UNL A   1      40.933  36.684  37.868  1.00  0.00    -0.200 F 
ATOM     47  C   UNL A   1      39.351  35.201  38.800  1.00  0.00     0.200 A 
ATOM     48  F   UNL A   1      37.779  33.685  39.696  1.00  0.00    -0.200 F 
ATOM     49  F   UNL A   1      39.124  36.054  39.809  1.00  0.00    -0.200 F 
ENDBRANCH  25  39
BRANCH  26  50
ATOM     50  C   UNL A   1      40.731  27.825  28.429  1.00  0.00     0.064 A 
ATOM     51  C   UNL A   1      40.147  26.563  28.265  1.00  0.00     0.173 A 
ATOM     52  C   UNL A   1      41.531  28.314  27.384  1.00  0.00     0.173 A 
ATOM     53  F   UNL A   1      39.387  26.045  29.242  1.00  0.00    -0.203 F 
ATOM     54  C   UNL A   1      40.383  25.804  27.121  1.00  0.00     0.198 A 
ATOM     55  C   UNL A   1      41.734  27.571  26.223  1.00  0.00     0.198 A 
ATOM     56  F   UNL A   1      42.109  29.520  27.484  1.00  0.00    -0.203 F 
ATOM     57  F   UNL A   1      39.867  24.572  27.020  1.00  0.00    -0.200 F 
ATOM     58  C   UNL A   1      41.173  26.311  26.099  1.00  0.00     0.200 A 
ATOM     59  F   UNL A   1      42.480  28.075  25.230  1.00  0.00    -0.200 F 
ATOM     60  F   UNL A   1      41.402  25.578  25.001  1.00  0.00    -0.200 F 
ENDBRANCH  26  50
BRANCH  38  61
ATOM     61  C   UNL A   1      44.148  28.125  34.484  1.00  0.00     0.064 A 
ATOM     62  C   UNL A   1      45.448  28.632  34.333  1.00  0.00     0.173 A 
ATOM     63  C   UNL A   1      43.993  26.906  35.161  1.00  0.00     0.173 A 
ATOM     64  F   UNL A   1      45.650  29.785  33.676  1.00  0.00    -0.203 F 
ATOM     65  C   UNL A   1      46.549  27.932  34.815  1.00  0.00     0.198 A 
ATOM     66  C   UNL A   1      45.093  26.227  35.673  1.00  0.00     0.198 A 
ATOM     67  F   UNL A   1      42.771  26.380  35.336  1.00  0.00    -0.203 F 
ATOM     68  F   UNL A   1      47.785  28.407  34.608  1.00  0.00    -0.200 F 
ATOM     69  C   UNL A   1      46.371  26.734  35.491  1.00  0.00     0.200 A 
ATOM     70  F   UNL A   1      44.918  25.077  36.339  1.00  0.00    -0.200 F 
ATOM     71  F   UNL A   1      47.432  26.063  35.960  1.00  0.00    -0.200 F 
ENDBRANCH  38  61
ENDBRANCH  12  13
ENDBRANCH   5   7
ENDBRANCH   2   3
ENDBRANCH   1   2
BRANCH   1  72
ATOM     72  C   UNL A   1      31.486  30.613  25.838  1.00  0.00     0.118 C 
BRANCH  72  73
ATOM     73  N   UNL A   1      31.618  29.562  26.838  1.00  0.00    -0.352 N 
ATOM     74  C   UNL A   1      31.926  28.234  26.683  1.00  0.00     0.251 C 
ATOM     75  H   UNL A   1      31.462  29.849  27.767  1.00  0.00     0.163 HD
ATOM     76  O   UNL A   1      31.779  27.459  27.625  1.00  0.00    -0.269 OA
BRANCH  74  77
ATOM     77  C   UNL A   1      32.403  27.732  25.378  1.00  0.00     0.040 A 
ATOM     78  C   UNL A   1      33.615  28.173  24.836  1.00  0.00     0.017 A 
ATOM     79  C   UNL A   1      31.647  26.765  24.710  1.00  0.00     0.027 A 
ATOM     80  C   UNL A   1      33.982  27.788  23.552  1.00  0.00     0.048 A 
ATOM     81  C   UNL A   1      32.074  26.295  23.462  1.00  0.00     0.049 A 
ATOM     82  C   UNL A   1      33.196  26.874  22.859  1.00  0.00     0.134 A 
ATOM     83  C   UNL A   1      31.395  25.133  22.796  1.00  0.00     0.306 C 
ATOM     84  O   UNL A   1      33.653  26.497  21.625  1.00  0.00    -0.445 OA
ATOM     85  N   UNL A   1      32.215  24.521  21.755  1.00  0.00    -0.295 N 
ATOM     86  C   UNL A   1      32.803  25.575  20.937  1.00  0.00     0.507 C 
ATOM     87  H   UNL A   1      31.595  23.957  21.172  1.00  0.00     0.351 HD
BRANCH  85  88
ATOM     88  C   UNL A   1      33.166  23.489  22.205  1.00  0.00     0.302 C 
BRANCH  88  89
ATOM     89  C   UNL A   1      33.604  23.469  23.657  1.00  0.00     0.006 A 
ATOM     90  C   UNL A   1      34.807  24.081  24.049  1.00  0.00     0.009 A 
ATOM     91  C   UNL A   1      32.804  22.877  24.647  1.00  0.00     0.009 A 
ATOM     92  C   UNL A   1      35.172  24.139  25.397  1.00  0.00     0.001 A 
ATOM     93  C   UNL A   1      33.158  22.958  25.996  1.00  0.00     0.001 A 
ATOM     94  C   UNL A   1      34.339  23.593  26.371  1.00  0.00     0.000 A 
ENDBRANCH  88  89
ENDBRANCH  85  88
ENDBRANCH  74  77
ENDBRANCH  72  73
ENDBRANCH   1  72
TORSDOF 12
ENDMDL
