MODEL 1
REMARK VINA RESULT:     -12.7      0.000      0.000
REMARK SMILES CC(C)(C)OC(=O)N1CCC[C@@]1(Cc1ccc(C(C)(C)C)cc1)C(=O)NCCCNC(=O)c1ccc(-c2c3nc(c(-c4c(F)c(F)c(F)c(F)c4F)c4ccc([nH]4)c(-c4c(F)c(F)c(F)c(F)c4F)c4nc(c(-c5c(F)c(F)c(F)c(F)c5F)c5ccc2[nH]5)C=C4)C=C3)cc1
REMARK SMILES IDX 27 1 26 2 24 3 25 4 12 6 8 7 9 8 10 9 11 10 6 11 7 12 5 13
REMARK SMILES IDX 2 14 1 15 3 16 4 17 13 18 14 19 15 20 23 21 16 22 22 23
REMARK SMILES IDX 17 24 18 25 19 26 20 27 21 28 28 29 29 30 30 31 31 32 32 34
REMARK SMILES IDX 33 35 34 36 95 37 35 38 94 39 36 40 37 41 38 42 88 43 39 44
REMARK SMILES IDX 93 45 87 46 89 47 40 48 92 49 86 50 85 51 41 53 73 54 53 55
REMARK SMILES IDX 72 56 54 57 57 58 71 59 90 60 55 61 56 62 70 64 91 65 58 66
REMARK SMILES IDX 42 67 43 68 51 69 44 70 45 71 49 72 52 73 46 74 47 75 50 76
REMARK SMILES IDX 48 77 74 78 75 79 83 80 76 81 77 82 81 83 84 84 78 85 79 86
REMARK SMILES IDX 82 87 80 88 59 89 60 90 68 91 61 92 62 93 66 94 69 95 63 96
REMARK SMILES IDX 64 97 67 98 65 99
REMARK H PARENT 26 5 30 33 89 52 57 63
REMARK Flexibility Score: inf
ROOT
ATOM      1  C   UNL A   1      31.920  30.514  26.002  1.00  0.00     0.117 C 
ENDROOT
BRANCH   1   2
ATOM      2  N   UNL A   1      31.400  29.429  26.808  1.00  0.00    -0.354 N 
ATOM      3  C   UNL A   1      31.524  28.075  26.685  1.00  0.00     0.246 C 
ATOM      4  O   UNL A   1      31.031  27.431  27.619  1.00  0.00    -0.272 OA
ATOM      5  H   UNL A   1      30.863  29.719  27.581  1.00  0.00     0.163 HD
BRANCH   3   6
ATOM      6  C   UNL A   1      32.154  27.387  25.423  1.00  0.00     0.129 C 
ATOM      7  N   UNL A   1      31.705  28.155  24.215  1.00  0.00    -0.293 N 
ATOM      8  C   UNL A   1      32.747  29.002  23.678  1.00  0.00     0.124 C 
ATOM      9  C   UNL A   1      34.016  28.284  24.060  1.00  0.00     0.025 C 
ATOM     10  C   UNL A   1      33.688  27.675  25.420  1.00  0.00     0.041 C 
BRANCH   7  11
ATOM     11  C   UNL A   1      30.447  28.036  23.674  1.00  0.00     0.411 C 
ATOM     12  O   UNL A   1      30.116  27.162  22.884  1.00  0.00    -0.224 OA
BRANCH  11  13
ATOM     13  O   UNL A   1      29.670  29.100  24.001  1.00  0.00    -0.444 OA
BRANCH  13  14
ATOM     14  C   UNL A   1      28.928  29.819  22.982  1.00  0.00     0.106 C 
ATOM     15  C   UNL A   1      28.684  31.208  23.591  1.00  0.00     0.056 C 
ATOM     16  C   UNL A   1      27.592  29.119  22.743  1.00  0.00     0.056 C 
ATOM     17  C   UNL A   1      29.712  30.019  21.674  1.00  0.00     0.056 C 
ENDBRANCH  13  14
ENDBRANCH  11  13
ENDBRANCH   7  11
BRANCH   6  18
ATOM     18  C   UNL A   1      31.777  25.880  25.195  1.00  0.00     0.074 C 
BRANCH  18  19
ATOM     19  C   UNL A   1      32.846  24.833  25.018  1.00  0.00    -0.045 A 
ATOM     20  C   UNL A   1      33.337  24.502  23.755  1.00  0.00     0.004 A 
ATOM     21  C   UNL A   1      33.382  24.175  26.131  1.00  0.00     0.004 A 
ATOM     22  C   UNL A   1      34.458  23.676  23.625  1.00  0.00     0.004 A 
ATOM     23  C   UNL A   1      34.501  23.345  25.997  1.00  0.00     0.004 A 
ATOM     24  C   UNL A   1      35.119  23.154  24.750  1.00  0.00    -0.043 A 
BRANCH  24  25
ATOM     25  C   UNL A   1      36.475  22.437  24.625  1.00  0.00    -0.013 C 
ATOM     26  C   UNL A   1      37.497  23.107  25.555  1.00  0.00     0.016 C 
ATOM     27  C   UNL A   1      36.372  20.934  24.981  1.00  0.00     0.016 C 
ATOM     28  C   UNL A   1      37.014  22.481  23.179  1.00  0.00     0.016 C 
ENDBRANCH  24  25
ENDBRANCH  18  19
ENDBRANCH   6  18
ENDBRANCH   3   6
ENDBRANCH   1   2
BRANCH   1  29
ATOM     29  C   UNL A   1      31.578  31.902  26.509  1.00  0.00     0.042 C 
BRANCH  29  30
ATOM     30  C   UNL A   1      32.781  32.664  27.043  1.00  0.00     0.118 C 
BRANCH  30  31
ATOM     31  N   UNL A   1      32.447  33.961  27.628  1.00  0.00    -0.352 N 
ATOM     32  C   UNL A   1      33.042  34.671  28.643  1.00  0.00     0.251 C 
ATOM     33  H   UNL A   1      31.661  34.400  27.227  1.00  0.00     0.163 HD
ATOM     34  O   UNL A   1      32.548  35.717  29.049  1.00  0.00    -0.269 OA
BRANCH  32  35
ATOM     35  C   UNL A   1      34.269  34.156  29.273  1.00  0.00     0.039 A 
ATOM     36  C   UNL A   1      35.519  34.631  28.859  1.00  0.00     0.014 A 
ATOM     37  C   UNL A   1      34.177  33.191  30.273  1.00  0.00     0.014 A 
ATOM     38  C   UNL A   1      36.675  34.180  29.500  1.00  0.00     0.010 A 
ATOM     39  C   UNL A   1      35.311  32.826  30.978  1.00  0.00     0.010 A 
ATOM     40  C   UNL A   1      36.574  33.295  30.582  1.00  0.00    -0.014 A 
BRANCH  40  41
ATOM     41  C   UNL A   1      37.755  32.739  31.284  1.00  0.00     0.031 A 
ATOM     42  C   UNL A   1      38.473  31.576  30.655  1.00  0.00     0.074 A 
ATOM     43  C   UNL A   1      38.090  33.169  32.513  1.00  0.00     0.049 A 
ATOM     44  N   UNL A   1      39.333  30.744  31.181  1.00  0.00    -0.248 NA
ATOM     45  C   UNL A   1      38.121  31.275  29.257  1.00  0.00     0.031 C 
ATOM     46  C   UNL A   1      37.450  34.269  33.235  1.00  0.00     0.029 A 
ATOM     47  N   UNL A   1      39.036  32.700  33.389  1.00  0.00    -0.354 N 
ATOM     48  C   UNL A   1      39.578  29.794  30.198  1.00  0.00     0.074 A 
ATOM     49  C   UNL A   1      38.743  30.123  29.065  1.00  0.00     0.031 C 
ATOM     50  C   UNL A   1      38.023  34.393  34.443  1.00  0.00     0.029 A 
ATOM     51  C   UNL A   1      39.035  33.351  34.599  1.00  0.00     0.049 A 
ATOM     52  H   UNL A   1      39.657  31.967  33.172  1.00  0.00     0.167 HD
ATOM     53  C   UNL A   1      40.440  28.750  30.233  1.00  0.00     0.037 A 
ATOM     54  C   UNL A   1      39.754  33.112  35.711  1.00  0.00     0.037 A 
ATOM     55  C   UNL A   1      41.312  28.474  31.343  1.00  0.00     0.049 A 
ATOM     56  C   UNL A   1      40.735  31.968  35.714  1.00  0.00     0.074 A 
ATOM     57  C   UNL A   1      42.277  27.492  31.459  1.00  0.00     0.029 A 
ATOM     58  N   UNL A   1      41.330  29.200  32.524  1.00  0.00    -0.354 N 
ATOM     59  N   UNL A   1      40.987  31.091  34.771  1.00  0.00    -0.248 NA
ATOM     60  C   UNL A   1      41.530  31.781  36.934  1.00  0.00     0.031 C 
ATOM     61  C   UNL A   1      42.860  27.604  32.726  1.00  0.00     0.029 A 
ATOM     62  C   UNL A   1      42.287  28.684  33.381  1.00  0.00     0.049 A 
ATOM     63  H   UNL A   1      40.748  29.970  32.725  1.00  0.00     0.167 HD
ATOM     64  C   UNL A   1      41.989  30.270  35.271  1.00  0.00     0.074 A 
ATOM     65  C   UNL A   1      42.307  30.761  36.596  1.00  0.00     0.031 C 
ATOM     66  C   UNL A   1      42.593  29.206  34.688  1.00  0.00     0.037 A 
BRANCH  53  67
ATOM     67  C   UNL A   1      40.482  27.843  29.038  1.00  0.00     0.064 A 
ATOM     68  C   UNL A   1      41.313  28.107  27.938  1.00  0.00     0.173 A 
ATOM     69  C   UNL A   1      39.687  26.687  28.994  1.00  0.00     0.173 A 
ATOM     70  F   UNL A   1      42.081  29.207  27.921  1.00  0.00    -0.203 F 
ATOM     71  C   UNL A   1      41.320  27.270  26.826  1.00  0.00     0.198 A 
ATOM     72  C   UNL A   1      39.722  25.833  27.894  1.00  0.00     0.198 A 
ATOM     73  F   UNL A   1      38.875  26.385  30.018  1.00  0.00    -0.203 F 
ATOM     74  F   UNL A   1      42.077  27.578  25.763  1.00  0.00    -0.200 F 
ATOM     75  C   UNL A   1      40.530  26.130  26.807  1.00  0.00     0.200 A 
ATOM     76  F   UNL A   1      38.967  24.726  27.884  1.00  0.00    -0.200 F 
ATOM     77  F   UNL A   1      40.541  25.323  25.737  1.00  0.00    -0.200 F 
ENDBRANCH  53  67
BRANCH  54  78
ATOM     78  C   UNL A   1      39.593  33.983  36.905  1.00  0.00     0.064 A 
ATOM     79  C   UNL A   1      38.772  33.587  37.970  1.00  0.00     0.173 A 
ATOM     80  C   UNL A   1      40.248  35.217  37.010  1.00  0.00     0.173 A 
ATOM     81  F   UNL A   1      38.110  32.423  37.907  1.00  0.00    -0.203 F 
ATOM     82  C   UNL A   1      38.597  34.402  39.087  1.00  0.00     0.198 A 
ATOM     83  C   UNL A   1      40.093  36.020  38.139  1.00  0.00     0.198 A 
ATOM     84  F   UNL A   1      41.049  35.640  36.021  1.00  0.00    -0.203 F 
ATOM     85  F   UNL A   1      37.773  34.017  40.071  1.00  0.00    -0.200 F 
ATOM     86  C   UNL A   1      39.262  35.615  39.173  1.00  0.00     0.200 A 
ATOM     87  F   UNL A   1      40.748  37.185  38.226  1.00  0.00    -0.200 F 
ATOM     88  F   UNL A   1      39.097  36.396  40.250  1.00  0.00    -0.200 F 
ENDBRANCH  54  78
BRANCH  66  89
ATOM     89  C   UNL A   1      43.687  28.530  35.460  1.00  0.00     0.064 A 
ATOM     90  C   UNL A   1      43.417  27.508  36.380  1.00  0.00     0.173 A 
ATOM     91  C   UNL A   1      45.029  28.879  35.236  1.00  0.00     0.173 A 
ATOM     92  F   UNL A   1      42.150  27.150  36.638  1.00  0.00    -0.203 F 
ATOM     93  C   UNL A   1      44.449  26.873  37.065  1.00  0.00     0.198 A 
ATOM     94  C   UNL A   1      46.059  28.222  35.901  1.00  0.00     0.198 A 
ATOM     95  F   UNL A   1      45.338  29.845  34.359  1.00  0.00    -0.203 F 
ATOM     96  F   UNL A   1      44.166  25.928  37.972  1.00  0.00    -0.200 F 
ATOM     97  C   UNL A   1      45.768  27.225  36.819  1.00  0.00     0.200 A 
ATOM     98  F   UNL A   1      47.333  28.553  35.652  1.00  0.00    -0.200 F 
ATOM     99  F   UNL A   1      46.761  26.605  37.474  1.00  0.00    -0.200 F 
ENDBRANCH  66  89
ENDBRANCH  40  41
ENDBRANCH  32  35
ENDBRANCH  30  31
ENDBRANCH  29  30
ENDBRANCH   1  29
TORSDOF 16
ENDMDL
MODEL 2
REMARK VINA RESULT:     -12.5      1.048      2.346
REMARK SMILES CC(C)(C)OC(=O)N1CCC[C@@]1(Cc1ccc(C(C)(C)C)cc1)C(=O)NCCCNC(=O)c1ccc(-c2c3nc(c(-c4c(F)c(F)c(F)c(F)c4F)c4ccc([nH]4)c(-c4c(F)c(F)c(F)c(F)c4F)c4nc(c(-c5c(F)c(F)c(F)c(F)c5F)c5ccc2[nH]5)C=C4)C=C3)cc1
REMARK SMILES IDX 27 1 26 2 24 3 25 4 12 6 8 7 9 8 10 9 11 10 6 11 7 12 5 13
REMARK SMILES IDX 2 14 1 15 3 16 4 17 13 18 14 19 15 20 23 21 16 22 22 23
REMARK SMILES IDX 17 24 18 25 19 26 20 27 21 28 28 29 29 30 30 31 31 32 32 34
REMARK SMILES IDX 33 35 34 36 95 37 35 38 94 39 36 40 37 41 38 42 88 43 39 44
REMARK SMILES IDX 93 45 87 46 89 47 40 48 92 49 86 50 85 51 41 53 73 54 53 55
REMARK SMILES IDX 72 56 54 57 57 58 71 59 90 60 55 61 56 62 70 64 91 65 58 66
REMARK SMILES IDX 42 67 43 68 51 69 44 70 45 71 49 72 52 73 46 74 47 75 50 76
REMARK SMILES IDX 48 77 74 78 75 79 83 80 76 81 77 82 81 83 84 84 78 85 79 86
REMARK SMILES IDX 82 87 80 88 59 89 60 90 68 91 61 92 62 93 66 94 69 95 63 96
REMARK SMILES IDX 64 97 67 98 65 99
REMARK H PARENT 26 5 30 33 89 52 57 63
REMARK Flexibility Score: inf
ROOT
ATOM      1  C   UNL A   1      32.111  29.669  25.906  1.00  0.00     0.117 C 
ENDROOT
BRANCH   1   2
ATOM      2  N   UNL A   1      32.869  29.773  24.677  1.00  0.00    -0.354 N 
ATOM      3  C   UNL A   1      33.077  28.876  23.669  1.00  0.00     0.246 C 
ATOM      4  O   UNL A   1      33.700  29.331  22.702  1.00  0.00    -0.272 OA
ATOM      5  H   UNL A   1      33.310  30.643  24.544  1.00  0.00     0.163 HD
BRANCH   3   6
ATOM      6  C   UNL A   1      32.646  27.370  23.763  1.00  0.00     0.129 C 
ATOM      7  N   UNL A   1      31.276  27.251  23.165  1.00  0.00    -0.293 N 
ATOM      8  C   UNL A   1      31.297  26.663  21.844  1.00  0.00     0.124 C 
ATOM      9  C   UNL A   1      32.516  25.776  21.872  1.00  0.00     0.025 C 
ATOM     10  C   UNL A   1      33.500  26.549  22.747  1.00  0.00     0.041 C 
BRANCH   7  11
ATOM     11  C   UNL A   1      30.132  27.639  23.822  1.00  0.00     0.411 C 
ATOM     12  O   UNL A   1      29.241  26.874  24.164  1.00  0.00    -0.224 OA
BRANCH  11  13
ATOM     13  O   UNL A   1      30.045  28.991  23.898  1.00  0.00    -0.444 OA
BRANCH  13  14
ATOM     14  C   UNL A   1      29.208  29.735  22.975  1.00  0.00     0.106 C 
ATOM     15  C   UNL A   1      28.927  31.063  23.693  1.00  0.00     0.056 C 
ATOM     16  C   UNL A   1      27.899  28.977  22.759  1.00  0.00     0.056 C 
ATOM     17  C   UNL A   1      29.903  30.067  21.643  1.00  0.00     0.056 C 
ENDBRANCH  13  14
ENDBRANCH  11  13
ENDBRANCH   7  11
BRANCH   6  18
ATOM     18  C   UNL A   1      32.589  26.756  25.207  1.00  0.00     0.074 C 
BRANCH  18  19
ATOM     19  C   UNL A   1      32.860  25.291  25.436  1.00  0.00    -0.045 A 
ATOM     20  C   UNL A   1      31.827  24.353  25.441  1.00  0.00     0.004 A 
ATOM     21  C   UNL A   1      34.169  24.839  25.639  1.00  0.00     0.004 A 
ATOM     22  C   UNL A   1      32.114  22.984  25.459  1.00  0.00     0.004 A 
ATOM     23  C   UNL A   1      34.452  23.468  25.663  1.00  0.00     0.004 A 
ATOM     24  C   UNL A   1      33.438  22.512  25.478  1.00  0.00    -0.043 A 
BRANCH  24  25
ATOM     25  C   UNL A   1      33.763  21.023  25.271  1.00  0.00    -0.013 C 
ATOM     26  C   UNL A   1      35.279  20.847  25.102  1.00  0.00     0.016 C 
ATOM     27  C   UNL A   1      33.279  20.152  26.456  1.00  0.00     0.016 C 
ATOM     28  C   UNL A   1      33.054  20.450  24.025  1.00  0.00     0.016 C 
ENDBRANCH  24  25
ENDBRANCH  18  19
ENDBRANCH   6  18
ENDBRANCH   3   6
ENDBRANCH   1   2
BRANCH   1  29
ATOM     29  C   UNL A   1      31.713  30.998  26.521  1.00  0.00     0.042 C 
BRANCH  29  30
ATOM     30  C   UNL A   1      32.900  31.846  26.949  1.00  0.00     0.118 C 
BRANCH  30  31
ATOM     31  N   UNL A   1      32.534  33.179  27.422  1.00  0.00    -0.352 N 
ATOM     32  C   UNL A   1      33.116  33.991  28.365  1.00  0.00     0.251 C 
ATOM     33  H   UNL A   1      31.734  33.561  26.991  1.00  0.00     0.163 HD
ATOM     34  O   UNL A   1      32.596  35.056  28.682  1.00  0.00    -0.269 OA
BRANCH  32  35
ATOM     35  C   UNL A   1      34.361  33.567  29.027  1.00  0.00     0.039 A 
ATOM     36  C   UNL A   1      35.577  34.165  28.677  1.00  0.00     0.014 A 
ATOM     37  C   UNL A   1      34.320  32.565  29.992  1.00  0.00     0.014 A 
ATOM     38  C   UNL A   1      36.746  33.798  29.349  1.00  0.00     0.010 A 
ATOM     39  C   UNL A   1      35.456  32.278  30.730  1.00  0.00     0.010 A 
ATOM     40  C   UNL A   1      36.685  32.871  30.399  1.00  0.00    -0.014 A 
BRANCH  40  41
ATOM     41  C   UNL A   1      37.885  32.399  31.130  1.00  0.00     0.031 A 
ATOM     42  C   UNL A   1      38.687  31.276  30.530  1.00  0.00     0.074 A 
ATOM     43  C   UNL A   1      38.169  32.865  32.359  1.00  0.00     0.049 A 
ATOM     44  N   UNL A   1      39.587  30.506  31.082  1.00  0.00    -0.248 NA
ATOM     45  C   UNL A   1      38.380  30.936  29.129  1.00  0.00     0.031 C 
ATOM     46  C   UNL A   1      37.448  33.931  33.053  1.00  0.00     0.029 A 
ATOM     47  N   UNL A   1      39.126  32.467  33.258  1.00  0.00    -0.354 N 
ATOM     48  C   UNL A   1      39.909  29.561  30.116  1.00  0.00     0.074 A 
ATOM     49  C   UNL A   1      39.076  29.823  28.965  1.00  0.00     0.031 C 
ATOM     50  C   UNL A   1      37.990  34.106  34.270  1.00  0.00     0.029 A 
ATOM     51  C   UNL A   1      39.061  33.132  34.458  1.00  0.00     0.049 A 
ATOM     52  H   UNL A   1      39.796  31.772  33.062  1.00  0.00     0.167 HD
ATOM     53  C   UNL A   1      40.834  28.574  30.181  1.00  0.00     0.037 A 
ATOM     54  C   UNL A   1      39.773  32.952  35.587  1.00  0.00     0.037 A 
ATOM     55  C   UNL A   1      41.700  28.367  31.310  1.00  0.00     0.049 A 
ATOM     56  C   UNL A   1      40.823  31.872  35.622  1.00  0.00     0.074 A 
ATOM     57  C   UNL A   1      42.723  27.449  31.458  1.00  0.00     0.029 A 
ATOM     58  N   UNL A   1      41.651  29.108  32.482  1.00  0.00    -0.354 N 
ATOM     59  N   UNL A   1      41.148  31.001  34.697  1.00  0.00    -0.248 NA
ATOM     60  C   UNL A   1      41.606  31.751  36.859  1.00  0.00     0.031 C 
ATOM     61  C   UNL A   1      43.273  27.613  32.733  1.00  0.00     0.029 A 
ATOM     62  C   UNL A   1      42.622  28.663  33.362  1.00  0.00     0.049 A 
ATOM     63  H   UNL A   1      41.018  29.841  32.662  1.00  0.00     0.167 HD
ATOM     64  C   UNL A   1      42.190  30.251  35.225  1.00  0.00     0.074 A 
ATOM     65  C   UNL A   1      42.451  30.776  36.549  1.00  0.00     0.031 C 
ATOM     66  C   UNL A   1      42.870  29.219  34.668  1.00  0.00     0.037 A 
BRANCH  53  67
ATOM     67  C   UNL A   1      40.955  27.656  29.000  1.00  0.00     0.064 A 
ATOM     68  C   UNL A   1      40.084  26.571  28.816  1.00  0.00     0.173 A 
ATOM     69  C   UNL A   1      41.948  27.869  28.032  1.00  0.00     0.173 A 
ATOM     70  F   UNL A   1      39.126  26.312  29.719  1.00  0.00    -0.203 F 
ATOM     71  C   UNL A   1      40.226  25.712  27.729  1.00  0.00     0.198 A 
ATOM     72  C   UNL A   1      42.066  27.029  26.927  1.00  0.00     0.198 A 
ATOM     73  F   UNL A   1      42.806  28.893  28.156  1.00  0.00    -0.203 F 
ATOM     74  F   UNL A   1      39.422  24.647  27.609  1.00  0.00    -0.200 F 
ATOM     75  C   UNL A   1      41.213  25.946  26.782  1.00  0.00     0.200 A 
ATOM     76  F   UNL A   1      43.012  27.263  26.007  1.00  0.00    -0.200 F 
ATOM     77  F   UNL A   1      41.346  25.121  25.734  1.00  0.00    -0.200 F 
ENDBRANCH  53  67
BRANCH  54  78
ATOM     78  C   UNL A   1      39.535  33.825  36.765  1.00  0.00     0.064 A 
ATOM     79  C   UNL A   1      40.108  35.103  36.832  1.00  0.00     0.173 A 
ATOM     80  C   UNL A   1      38.738  33.411  37.840  1.00  0.00     0.173 A 
ATOM     81  F   UNL A   1      40.895  35.537  35.837  1.00  0.00    -0.203 F 
ATOM     82  C   UNL A   1      39.909  35.926  37.940  1.00  0.00     0.198 A 
ATOM     83  C   UNL A   1      38.517  34.244  38.936  1.00  0.00     0.198 A 
ATOM     84  F   UNL A   1      38.162  32.200  37.823  1.00  0.00    -0.203 F 
ATOM     85  F   UNL A   1      40.504  37.125  37.996  1.00  0.00    -0.200 F 
ATOM     86  C   UNL A   1      39.108  35.498  38.988  1.00  0.00     0.200 A 
ATOM     87  F   UNL A   1      37.731  33.834  39.940  1.00  0.00    -0.200 F 
ATOM     88  F   UNL A   1      38.912  36.291  40.050  1.00  0.00    -0.200 F 
ENDBRANCH  54  78
BRANCH  66  89
ATOM     89  C   UNL A   1      43.989  28.623  35.469  1.00  0.00     0.064 A 
ATOM     90  C   UNL A   1      45.311  29.069  35.332  1.00  0.00     0.173 A 
ATOM     91  C   UNL A   1      43.724  27.629  36.423  1.00  0.00     0.173 A 
ATOM     92  F   UNL A   1      45.616  30.007  34.423  1.00  0.00    -0.203 F 
ATOM     93  C   UNL A   1      46.332  28.524  36.105  1.00  0.00     0.198 A 
ATOM     94  C   UNL A   1      44.741  27.107  37.215  1.00  0.00     0.198 A 
ATOM     95  F   UNL A   1      42.473  27.176  36.597  1.00  0.00    -0.203 F 
ATOM     96  F   UNL A   1      47.595  28.933  35.928  1.00  0.00    -0.200 F 
ATOM     97  C   UNL A   1      46.045  27.550  37.051  1.00  0.00     0.200 A 
ATOM     98  F   UNL A   1      44.461  26.177  38.137  1.00  0.00    -0.200 F 
ATOM     99  F   UNL A   1      47.028  27.033  37.801  1.00  0.00    -0.200 F 
ENDBRANCH  66  89
ENDBRANCH  40  41
ENDBRANCH  32  35
ENDBRANCH  30  31
ENDBRANCH  29  30
ENDBRANCH   1  29
TORSDOF 16
ENDMDL
MODEL 3
REMARK VINA RESULT:     -12.5      1.943      4.881
REMARK SMILES CC(C)(C)OC(=O)N1CCC[C@@]1(Cc1ccc(C(C)(C)C)cc1)C(=O)NCCCNC(=O)c1ccc(-c2c3nc(c(-c4c(F)c(F)c(F)c(F)c4F)c4ccc([nH]4)c(-c4c(F)c(F)c(F)c(F)c4F)c4nc(c(-c5c(F)c(F)c(F)c(F)c5F)c5ccc2[nH]5)C=C4)C=C3)cc1
REMARK SMILES IDX 27 1 26 2 24 3 25 4 12 6 8 7 9 8 10 9 11 10 6 11 7 12 5 13
REMARK SMILES IDX 2 14 1 15 3 16 4 17 13 18 14 19 15 20 23 21 16 22 22 23
REMARK SMILES IDX 17 24 18 25 19 26 20 27 21 28 28 29 29 30 30 31 31 32 32 34
REMARK SMILES IDX 33 35 34 36 95 37 35 38 94 39 36 40 37 41 38 42 88 43 39 44
REMARK SMILES IDX 93 45 87 46 89 47 40 48 92 49 86 50 85 51 41 53 73 54 53 55
REMARK SMILES IDX 72 56 54 57 57 58 71 59 90 60 55 61 56 62 70 64 91 65 58 66
REMARK SMILES IDX 42 67 43 68 51 69 44 70 45 71 49 72 52 73 46 74 47 75 50 76
REMARK SMILES IDX 48 77 74 78 75 79 83 80 76 81 77 82 81 83 84 84 78 85 79 86
REMARK SMILES IDX 82 87 80 88 59 89 60 90 68 91 61 92 62 93 66 94 69 95 63 96
REMARK SMILES IDX 64 97 67 98 65 99
REMARK H PARENT 26 5 30 33 89 52 57 63
REMARK Flexibility Score: inf
ROOT
ATOM      1  C   UNL A   1      32.736  26.729  26.540  1.00  0.00     0.117 C 
ENDROOT
BRANCH   1   2
ATOM      2  N   UNL A   1      31.757  25.675  26.703  1.00  0.00    -0.354 N 
ATOM      3  C   UNL A   1      31.447  24.603  25.917  1.00  0.00     0.246 C 
ATOM      4  O   UNL A   1      30.616  23.831  26.411  1.00  0.00    -0.272 OA
ATOM      5  H   UNL A   1      31.222  25.742  27.527  1.00  0.00     0.163 HD
BRANCH   3   6
ATOM      6  C   UNL A   1      32.022  24.412  24.469  1.00  0.00     0.129 C 
ATOM      7  N   UNL A   1      33.233  23.533  24.573  1.00  0.00    -0.293 N 
ATOM      8  C   UNL A   1      32.977  22.180  24.132  1.00  0.00     0.124 C 
ATOM      9  C   UNL A   1      31.879  22.346  23.112  1.00  0.00     0.025 C 
ATOM     10  C   UNL A   1      31.045  23.497  23.668  1.00  0.00     0.041 C 
BRANCH   7  11
ATOM     11  C   UNL A   1      34.453  23.985  25.019  1.00  0.00     0.411 C 
ATOM     12  O   UNL A   1      34.874  25.121  24.842  1.00  0.00    -0.224 OA
BRANCH  11  13
ATOM     13  O   UNL A   1      35.194  22.971  25.534  1.00  0.00    -0.444 OA
BRANCH  13  14
ATOM     14  C   UNL A   1      36.450  22.582  24.919  1.00  0.00     0.106 C 
ATOM     15  C   UNL A   1      36.519  21.060  25.113  1.00  0.00     0.056 C 
ATOM     16  C   UNL A   1      37.604  23.249  25.665  1.00  0.00     0.056 C 
ATOM     17  C   UNL A   1      36.510  22.860  23.407  1.00  0.00     0.056 C 
ENDBRANCH  13  14
ENDBRANCH  11  13
ENDBRANCH   7  11
BRANCH   6  18
ATOM     18  C   UNL A   1      32.449  25.721  23.715  1.00  0.00     0.074 C 
BRANCH  18  19
ATOM     19  C   UNL A   1      31.423  26.738  23.289  1.00  0.00    -0.045 A 
ATOM     20  C   UNL A   1      30.067  26.565  23.570  1.00  0.00     0.004 A 
ATOM     21  C   UNL A   1      31.816  27.896  22.608  1.00  0.00     0.004 A 
ATOM     22  C   UNL A   1      29.158  27.604  23.344  1.00  0.00     0.004 A 
ATOM     23  C   UNL A   1      30.903  28.931  22.377  1.00  0.00     0.004 A 
ATOM     24  C   UNL A   1      29.574  28.842  22.826  1.00  0.00    -0.043 A 
BRANCH  24  25
ATOM     25  C   UNL A   1      28.629  30.056  22.787  1.00  0.00    -0.013 C 
ATOM     26  C   UNL A   1      28.554  30.603  21.355  1.00  0.00     0.016 C 
ATOM     27  C   UNL A   1      27.202  29.696  23.270  1.00  0.00     0.016 C 
ATOM     28  C   UNL A   1      29.107  31.184  23.727  1.00  0.00     0.016 C 
ENDBRANCH  24  25
ENDBRANCH  18  19
ENDBRANCH   6  18
ENDBRANCH   3   6
ENDBRANCH   1   2
BRANCH   1  29
ATOM     29  C   UNL A   1      32.165  28.134  26.543  1.00  0.00     0.042 C 
BRANCH  29  30
ATOM     30  C   UNL A   1      33.148  29.188  26.059  1.00  0.00     0.118 C 
BRANCH  30  31
ATOM     31  N   UNL A   1      32.697  30.561  26.277  1.00  0.00    -0.352 N 
ATOM     32  C   UNL A   1      33.222  31.568  27.050  1.00  0.00     0.251 C 
ATOM     33  H   UNL A   1      31.879  30.806  25.787  1.00  0.00     0.163 HD
ATOM     34  O   UNL A   1      32.636  32.639  27.167  1.00  0.00    -0.269 OA
BRANCH  32  35
ATOM     35  C   UNL A   1      34.487  31.352  27.773  1.00  0.00     0.039 A 
ATOM     36  C   UNL A   1      35.431  32.382  27.854  1.00  0.00     0.014 A 
ATOM     37  C   UNL A   1      34.739  30.117  28.365  1.00  0.00     0.014 A 
ATOM     38  C   UNL A   1      36.602  32.189  28.589  1.00  0.00     0.010 A 
ATOM     39  C   UNL A   1      35.847  29.962  29.180  1.00  0.00     0.010 A 
ATOM     40  C   UNL A   1      36.803  30.985  29.279  1.00  0.00    -0.014 A 
BRANCH  40  41
ATOM     41  C   UNL A   1      38.038  30.688  30.044  1.00  0.00     0.031 A 
ATOM     42  C   UNL A   1      39.041  29.746  29.435  1.00  0.00     0.074 A 
ATOM     43  C   UNL A   1      38.191  31.136  31.302  1.00  0.00     0.049 A 
ATOM     44  N   UNL A   1      40.038  29.114  29.997  1.00  0.00    -0.248 NA
ATOM     45  C   UNL A   1      38.850  29.427  28.010  1.00  0.00     0.031 C 
ATOM     46  C   UNL A   1      37.273  32.031  32.006  1.00  0.00     0.029 A 
ATOM     47  N   UNL A   1      39.167  30.863  32.227  1.00  0.00    -0.354 N 
ATOM     48  C   UNL A   1      40.553  28.284  29.009  1.00  0.00     0.074 A 
ATOM     49  C   UNL A   1      39.732  28.456  27.832  1.00  0.00     0.031 C 
ATOM     50  C   UNL A   1      37.731  32.237  33.253  1.00  0.00     0.029 A 
ATOM     51  C   UNL A   1      38.945  31.449  33.449  1.00  0.00     0.049 A 
ATOM     52  H   UNL A   1      39.953  30.301  32.034  1.00  0.00     0.167 HD
ATOM     53  C   UNL A   1      41.629  27.466  29.075  1.00  0.00     0.037 A 
ATOM     54  C   UNL A   1      39.634  31.339  34.601  1.00  0.00     0.037 A 
ATOM     55  C   UNL A   1      42.475  27.354  30.233  1.00  0.00     0.049 A 
ATOM     56  C   UNL A   1      40.851  30.450  34.640  1.00  0.00     0.074 A 
ATOM     57  C   UNL A   1      43.633  26.616  30.389  1.00  0.00     0.029 A 
ATOM     58  N   UNL A   1      42.256  28.019  31.431  1.00  0.00    -0.354 N 
ATOM     59  N   UNL A   1      41.354  29.692  33.695  1.00  0.00    -0.248 NA
ATOM     60  C   UNL A   1      41.595  30.404  35.905  1.00  0.00     0.031 C 
ATOM     61  C   UNL A   1      44.099  26.810  31.694  1.00  0.00     0.029 A 
ATOM     62  C   UNL A   1      43.255  27.703  32.335  1.00  0.00     0.049 A 
ATOM     63  H   UNL A   1      41.501  28.626  31.611  1.00  0.00     0.167 HD
ATOM     64  C   UNL A   1      42.488  29.104  34.240  1.00  0.00     0.074 A 
ATOM     65  C   UNL A   1      42.605  29.603  35.594  1.00  0.00     0.031 C 
ATOM     66  C   UNL A   1      43.355  28.230  33.672  1.00  0.00     0.037 A 
BRANCH  53  67
ATOM     67  C   UNL A   1      41.950  26.639  27.864  1.00  0.00     0.064 A 
ATOM     68  C   UNL A   1      41.339  25.395  27.636  1.00  0.00     0.173 A 
ATOM     69  C   UNL A   1      42.872  27.099  26.912  1.00  0.00     0.173 A 
ATOM     70  F   UNL A   1      40.462  24.901  28.523  1.00  0.00    -0.203 F 
ATOM     71  C   UNL A   1      41.668  24.628  26.522  1.00  0.00     0.198 A 
ATOM     72  C   UNL A   1      43.173  26.344  25.780  1.00  0.00     0.198 A 
ATOM     73  F   UNL A   1      43.483  28.281  27.078  1.00  0.00    -0.203 F 
ATOM     74  F   UNL A   1      41.117  23.417  26.359  1.00  0.00    -0.200 F 
ATOM     75  C   UNL A   1      42.579  25.106  25.591  1.00  0.00     0.200 A 
ATOM     76  F   UNL A   1      44.043  26.813  24.876  1.00  0.00    -0.200 F 
ATOM     77  F   UNL A   1      42.890  24.368  24.517  1.00  0.00    -0.200 F 
ENDBRANCH  53  67
BRANCH  54  78
ATOM     78  C   UNL A   1      39.206  32.102  35.801  1.00  0.00     0.064 A 
ATOM     79  C   UNL A   1      39.687  33.399  36.030  1.00  0.00     0.173 A 
ATOM     80  C   UNL A   1      38.315  31.562  36.739  1.00  0.00     0.173 A 
ATOM     81  F   UNL A   1      40.557  33.951  35.172  1.00  0.00    -0.203 F 
ATOM     82  C   UNL A   1      39.309  34.119  37.162  1.00  0.00     0.198 A 
ATOM     83  C   UNL A   1      37.917  32.293  37.857  1.00  0.00     0.198 A 
ATOM     84  F   UNL A   1      37.821  30.328  36.564  1.00  0.00    -0.203 F 
ATOM     85  F   UNL A   1      39.818  35.340  37.377  1.00  0.00    -0.200 F 
ATOM     86  C   UNL A   1      38.419  33.568  38.071  1.00  0.00     0.200 A 
ATOM     87  F   UNL A   1      37.045  31.764  38.726  1.00  0.00    -0.200 F 
ATOM     88  F   UNL A   1      38.051  34.263  39.156  1.00  0.00    -0.200 F 
ENDBRANCH  54  78
BRANCH  66  89
ATOM     89  C   UNL A   1      44.528  27.794  34.498  1.00  0.00     0.064 A 
ATOM     90  C   UNL A   1      44.477  26.650  35.305  1.00  0.00     0.173 A 
ATOM     91  C   UNL A   1      45.737  28.506  34.438  1.00  0.00     0.173 A 
ATOM     92  F   UNL A   1      43.339  25.946  35.405  1.00  0.00    -0.203 F 
ATOM     93  C   UNL A   1      45.586  26.245  36.042  1.00  0.00     0.198 A 
ATOM     94  C   UNL A   1      46.852  28.083  35.153  1.00  0.00     0.198 A 
ATOM     95  F   UNL A   1      45.838  29.603  33.673  1.00  0.00    -0.203 F 
ATOM     96  F   UNL A   1      45.503  25.173  36.841  1.00  0.00    -0.200 F 
ATOM     97  C   UNL A   1      46.775  26.957  35.959  1.00  0.00     0.200 A 
ATOM     98  F   UNL A   1      48.003  28.762  35.061  1.00  0.00    -0.200 F 
ATOM     99  F   UNL A   1      47.845  26.560  36.662  1.00  0.00    -0.200 F 
ENDBRANCH  66  89
ENDBRANCH  40  41
ENDBRANCH  32  35
ENDBRANCH  30  31
ENDBRANCH  29  30
ENDBRANCH   1  29
TORSDOF 16
ENDMDL
