MODEL 1
REMARK VINA RESULT:     -11.6      0.000      0.000
REMARK SMILES O=C(NCc1ccc(C(=O)NCCCNC(=O)c2ccc(-c3c4nc(c(-c5c(F)c(F)c(F)c(F)c5F)c5ccc([nH]5)c(-c5c(F)c(F)c(F)c(F)c5F)c5nc(c(-c6c(F)c(F)c(F)c(F)c6F)c6ccc3[nH]6)C=C5)C=C4)cc2)o1)Nc1ccc(F)c(Cl)c1
REMARK SMILES IDX 12 1 11 2 9 3 10 4 8 6 5 7 6 8 81 9 7 10 4 11 3 12 1 13 2 14
REMARK SMILES IDX 82 15 83 18 84 19 90 20 85 21 88 22 86 23 89 24 87 25 13 26
REMARK SMILES IDX 14 27 15 28 16 29 17 31 18 32 19 33 80 34 20 35 79 36 21 37
REMARK SMILES IDX 22 38 23 39 73 40 24 41 78 42 72 43 74 44 25 45 77 46 71 47
REMARK SMILES IDX 70 48 26 50 58 51 38 52 57 53 39 54 42 55 56 56 75 57 40 58
REMARK SMILES IDX 41 59 55 61 76 62 43 63 27 64 28 65 36 66 29 67 30 68 34 69
REMARK SMILES IDX 37 70 31 71 32 72 35 73 33 74 59 75 60 76 68 77 61 78 62 79
REMARK SMILES IDX 66 80 69 81 63 82 64 83 67 84 65 85 44 86 45 87 53 88 46 89
REMARK SMILES IDX 47 90 51 91 54 92 48 93 49 94 52 95 50 96
REMARK H PARENT 11 5 3 16 82 17 15 30 74 49 42 60
REMARK Flexibility Score: inf
ROOT
ATOM      1  C   UNL A   1      35.169  34.993  28.378  1.00  0.00     0.118 C 
ENDROOT
BRANCH   1   2
ATOM      2  N   UNL A   1      33.815  35.495  28.246  1.00  0.00    -0.349 N 
ATOM      3  C   UNL A   1      32.937  35.974  29.192  1.00  0.00     0.286 C 
ATOM      4  O   UNL A   1      31.890  36.455  28.753  1.00  0.00    -0.266 OA
ATOM      5  H   UNL A   1      33.465  35.491  27.326  1.00  0.00     0.163 HD
BRANCH   3   6
ATOM      6  C   UNL A   1      33.248  35.921  30.608  1.00  0.00     0.191 A 
ATOM      7  C   UNL A   1      33.690  34.816  32.476  1.00  0.00     0.124 A 
ATOM      8  C   UNL A   1      33.720  36.153  32.804  1.00  0.00     0.048 A 
ATOM      9  O   UNL A   1      33.426  34.672  31.150  1.00  0.00    -0.454 OA
ATOM     10  C   UNL A   1      33.448  36.860  31.606  1.00  0.00     0.056 A 
BRANCH   7  11
ATOM     11  C   UNL A   1      33.851  33.564  33.255  1.00  0.00     0.193 C 
BRANCH  11  12
ATOM     12  N   UNL A   1      34.780  33.827  34.332  1.00  0.00    -0.331 N 
ATOM     13  O   UNL A   1      36.510  33.508  35.674  1.00  0.00    -0.248 OA
ATOM     14  C   UNL A   1      36.010  33.307  34.571  1.00  0.00     0.319 C 
ATOM     15  N   UNL A   1      36.596  32.626  33.541  1.00  0.00    -0.308 N 
ATOM     16  H   UNL A   1      34.472  34.486  34.994  1.00  0.00     0.165 HD
ATOM     17  H   UNL A   1      36.174  32.706  32.656  1.00  0.00     0.171 HD
BRANCH  15  18
ATOM     18  C   UNL A   1      37.750  31.820  33.629  1.00  0.00     0.044 A 
ATOM     19  C   UNL A   1      38.912  32.401  34.154  1.00  0.00     0.029 A 
ATOM     20  C   UNL A   1      37.785  30.489  33.194  1.00  0.00     0.049 A 
ATOM     21  C   UNL A   1      40.084  31.648  34.277  1.00  0.00     0.043 A 
ATOM     22  C   UNL A   1      38.962  29.746  33.303  1.00  0.00     0.078 A 
ATOM     23  C   UNL A   1      40.101  30.324  33.852  1.00  0.00     0.141 A 
ATOM     24  Cl  UNL A   1      38.990  28.117  32.744  1.00  0.00    -0.081 Cl
ATOM     25  F   UNL A   1      41.238  29.623  33.978  1.00  0.00    -0.205 F 
ENDBRANCH  15  18
ENDBRANCH  11  12
ENDBRANCH   7  11
ENDBRANCH   3   6
ENDBRANCH   1   2
BRANCH   1  26
ATOM     26  C   UNL A   1      35.267  33.517  28.001  1.00  0.00     0.042 C 
BRANCH  26  27
ATOM     27  C   UNL A   1      34.611  32.582  29.015  1.00  0.00     0.118 C 
BRANCH  27  28
ATOM     28  N   UNL A   1      33.988  31.430  28.377  1.00  0.00    -0.352 N 
ATOM     29  C   UNL A   1      34.539  30.260  27.917  1.00  0.00     0.251 C 
ATOM     30  H   UNL A   1      33.014  31.501  28.257  1.00  0.00     0.163 HD
ATOM     31  O   UNL A   1      33.860  29.509  27.222  1.00  0.00    -0.269 OA
BRANCH  29  32
ATOM     32  C   UNL A   1      35.936  29.891  28.237  1.00  0.00     0.039 A 
ATOM     33  C   UNL A   1      36.916  30.062  27.252  1.00  0.00     0.014 A 
ATOM     34  C   UNL A   1      36.278  29.315  29.464  1.00  0.00     0.014 A 
ATOM     35  C   UNL A   1      38.240  29.702  27.513  1.00  0.00     0.010 A 
ATOM     36  C   UNL A   1      37.609  29.015  29.746  1.00  0.00     0.010 A 
ATOM     37  C   UNL A   1      38.603  29.197  28.771  1.00  0.00    -0.014 A 
BRANCH  37  38
ATOM     38  C   UNL A   1      40.010  28.839  29.081  1.00  0.00     0.031 A 
ATOM     39  C   UNL A   1      40.895  29.811  29.811  1.00  0.00     0.074 A 
ATOM     40  C   UNL A   1      40.509  27.665  28.651  1.00  0.00     0.049 A 
ATOM     41  N   UNL A   1      42.171  29.722  30.092  1.00  0.00    -0.248 NA
ATOM     42  C   UNL A   1      40.268  31.064  30.261  1.00  0.00     0.031 C 
ATOM     43  C   UNL A   1      39.763  26.653  27.901  1.00  0.00     0.029 A 
ATOM     44  N   UNL A   1      41.768  27.131  28.769  1.00  0.00    -0.354 N 
ATOM     45  C   UNL A   1      42.501  30.910  30.729  1.00  0.00     0.074 A 
ATOM     46  C   UNL A   1      41.304  31.722  30.757  1.00  0.00     0.031 C 
ATOM     47  C   UNL A   1      40.573  25.615  27.638  1.00  0.00     0.029 A 
ATOM     48  C   UNL A   1      41.903  25.902  28.169  1.00  0.00     0.049 A 
ATOM     49  H   UNL A   1      42.504  27.584  29.239  1.00  0.00     0.167 HD
ATOM     50  C   UNL A   1      43.691  31.283  31.259  1.00  0.00     0.037 A 
ATOM     51  C   UNL A   1      42.980  25.102  28.054  1.00  0.00     0.037 A 
ATOM     52  C   UNL A   1      44.872  30.459  31.260  1.00  0.00     0.049 A 
ATOM     53  C   UNL A   1      44.286  25.533  28.662  1.00  0.00     0.074 A 
ATOM     54  C   UNL A   1      46.109  30.723  31.823  1.00  0.00     0.029 A 
ATOM     55  N   UNL A   1      44.960  29.206  30.671  1.00  0.00    -0.354 N 
ATOM     56  N   UNL A   1      44.573  26.636  29.310  1.00  0.00    -0.248 NA
ATOM     57  C   UNL A   1      45.417  24.604  28.529  1.00  0.00     0.031 C 
ATOM     58  C   UNL A   1      46.956  29.645  31.544  1.00  0.00     0.029 A 
ATOM     59  C   UNL A   1      46.235  28.691  30.845  1.00  0.00     0.049 A 
ATOM     60  H   UNL A   1      44.225  28.751  30.200  1.00  0.00     0.167 HD
ATOM     61  C   UNL A   1      45.904  26.524  29.685  1.00  0.00     0.074 A 
ATOM     62  C   UNL A   1      46.367  25.238  29.203  1.00  0.00     0.031 C 
ATOM     63  C   UNL A   1      46.674  27.405  30.368  1.00  0.00     0.037 A 
BRANCH  50  64
ATOM     64  C   UNL A   1      43.776  32.643  31.887  1.00  0.00     0.064 A 
ATOM     65  C   UNL A   1      44.030  33.792  31.123  1.00  0.00     0.173 A 
ATOM     66  C   UNL A   1      43.566  32.806  33.265  1.00  0.00     0.173 A 
ATOM     67  F   UNL A   1      44.248  33.689  29.803  1.00  0.00    -0.203 F 
ATOM     68  C   UNL A   1      44.098  35.049  31.718  1.00  0.00     0.198 A 
ATOM     69  C   UNL A   1      43.607  34.068  33.852  1.00  0.00     0.198 A 
ATOM     70  F   UNL A   1      43.313  31.741  34.042  1.00  0.00    -0.203 F 
ATOM     71  F   UNL A   1      44.388  36.125  30.974  1.00  0.00    -0.200 F 
ATOM     72  C   UNL A   1      43.881  35.187  33.081  1.00  0.00     0.200 A 
ATOM     73  F   UNL A   1      43.385  34.201  35.168  1.00  0.00    -0.200 F 
ATOM     74  F   UNL A   1      43.941  36.398  33.651  1.00  0.00    -0.200 F 
ENDBRANCH  50  64
BRANCH  51  75
ATOM     75  C   UNL A   1      42.859  23.797  27.355  1.00  0.00     0.064 A 
ATOM     76  C   UNL A   1      43.241  23.664  26.013  1.00  0.00     0.173 A 
ATOM     77  C   UNL A   1      42.363  22.660  28.009  1.00  0.00     0.173 A 
ATOM     78  F   UNL A   1      43.701  24.730  25.340  1.00  0.00    -0.203 F 
ATOM     79  C   UNL A   1      43.115  22.448  25.345  1.00  0.00     0.198 A 
ATOM     80  C   UNL A   1      42.263  21.438  27.349  1.00  0.00     0.198 A 
ATOM     81  F   UNL A   1      41.990  22.734  29.296  1.00  0.00    -0.203 F 
ATOM     82  F   UNL A   1      43.449  22.360  24.052  1.00  0.00    -0.200 F 
ATOM     83  C   UNL A   1      42.632  21.334  26.015  1.00  0.00     0.200 A 
ATOM     84  F   UNL A   1      41.808  20.360  28.003  1.00  0.00    -0.200 F 
ATOM     85  F   UNL A   1      42.515  20.163  25.376  1.00  0.00    -0.200 F 
ENDBRANCH  51  75
BRANCH  63  86
ATOM     86  C   UNL A   1      48.085  26.994  30.669  1.00  0.00     0.064 A 
ATOM     87  C   UNL A   1      49.153  27.379  29.845  1.00  0.00     0.173 A 
ATOM     88  C   UNL A   1      48.375  26.241  31.817  1.00  0.00     0.173 A 
ATOM     89  F   UNL A   1      48.925  28.085  28.728  1.00  0.00    -0.203 F 
ATOM     90  C   UNL A   1      50.459  27.003  30.149  1.00  0.00     0.198 A 
ATOM     91  C   UNL A   1      49.685  25.891  32.131  1.00  0.00     0.198 A 
ATOM     92  F   UNL A   1      47.388  25.854  32.638  1.00  0.00    -0.203 F 
ATOM     93  F   UNL A   1      51.461  27.344  29.326  1.00  0.00    -0.200 F 
ATOM     94  C   UNL A   1      50.725  26.267  31.294  1.00  0.00     0.200 A 
ATOM     95  F   UNL A   1      49.940  25.189  33.243  1.00  0.00    -0.200 F 
ATOM     96  F   UNL A   1      51.983  25.912  31.587  1.00  0.00    -0.200 F 
ENDBRANCH  63  86
ENDBRANCH  37  38
ENDBRANCH  29  32
ENDBRANCH  27  28
ENDBRANCH  26  27
ENDBRANCH   1  26
TORSDOF 13
ENDMDL
MODEL 2
REMARK VINA RESULT:     -11.3      4.771     10.620
REMARK SMILES O=C(NCc1ccc(C(=O)NCCCNC(=O)c2ccc(-c3c4nc(c(-c5c(F)c(F)c(F)c(F)c5F)c5ccc([nH]5)c(-c5c(F)c(F)c(F)c(F)c5F)c5nc(c(-c6c(F)c(F)c(F)c(F)c6F)c6ccc3[nH]6)C=C5)C=C4)cc2)o1)Nc1ccc(F)c(Cl)c1
REMARK SMILES IDX 12 1 11 2 9 3 10 4 8 6 5 7 6 8 81 9 7 10 4 11 3 12 1 13 2 14
REMARK SMILES IDX 82 15 83 18 84 19 90 20 85 21 88 22 86 23 89 24 87 25 13 26
REMARK SMILES IDX 14 27 15 28 16 29 17 31 18 32 19 33 80 34 20 35 79 36 21 37
REMARK SMILES IDX 22 38 23 39 73 40 24 41 78 42 72 43 74 44 25 45 77 46 71 47
REMARK SMILES IDX 70 48 26 50 58 51 38 52 57 53 39 54 42 55 56 56 75 57 40 58
REMARK SMILES IDX 41 59 55 61 76 62 43 63 27 64 28 65 36 66 29 67 30 68 34 69
REMARK SMILES IDX 37 70 31 71 32 72 35 73 33 74 59 75 60 76 68 77 61 78 62 79
REMARK SMILES IDX 66 80 69 81 63 82 64 83 67 84 65 85 44 86 45 87 53 88 46 89
REMARK SMILES IDX 47 90 51 91 54 92 48 93 49 94 52 95 50 96
REMARK H PARENT 11 5 3 16 82 17 15 30 74 49 42 60
REMARK Flexibility Score: inf
ROOT
ATOM      1  C   UNL A   1      31.454  30.834  26.250  1.00  0.00     0.118 C 
ENDROOT
BRANCH   1   2
ATOM      2  N   UNL A   1      31.014  30.522  24.905  1.00  0.00    -0.349 N 
ATOM      3  C   UNL A   1      30.981  29.326  24.223  1.00  0.00     0.286 C 
ATOM      4  O   UNL A   1      30.427  29.353  23.123  1.00  0.00    -0.266 OA
ATOM      5  H   UNL A   1      30.684  31.294  24.393  1.00  0.00     0.163 HD
BRANCH   3   6
ATOM      6  C   UNL A   1      31.557  28.119  24.787  1.00  0.00     0.191 A 
ATOM      7  C   UNL A   1      31.395  26.056  25.578  1.00  0.00     0.124 A 
ATOM      8  C   UNL A   1      32.728  26.391  25.650  1.00  0.00     0.048 A 
ATOM      9  O   UNL A   1      30.688  27.086  25.040  1.00  0.00    -0.454 OA
ATOM     10  C   UNL A   1      32.833  27.707  25.134  1.00  0.00     0.056 A 
BRANCH   7  11
ATOM     11  C   UNL A   1      30.613  24.861  25.980  1.00  0.00     0.193 C 
BRANCH  11  12
ATOM     12  N   UNL A   1      31.358  24.169  27.009  1.00  0.00    -0.331 N 
ATOM     13  O   UNL A   1      32.497  22.534  27.971  1.00  0.00    -0.248 OA
ATOM     14  C   UNL A   1      32.162  23.080  26.923  1.00  0.00     0.319 C 
ATOM     15  N   UNL A   1      32.551  22.706  25.669  1.00  0.00    -0.308 N 
ATOM     16  H   UNL A   1      31.267  24.548  27.913  1.00  0.00     0.165 HD
ATOM     17  H   UNL A   1      32.371  23.340  24.938  1.00  0.00     0.171 HD
BRANCH  15  18
ATOM     18  C   UNL A   1      33.187  21.495  25.323  1.00  0.00     0.044 A 
ATOM     19  C   UNL A   1      32.373  20.396  25.016  1.00  0.00     0.029 A 
ATOM     20  C   UNL A   1      34.579  21.344  25.301  1.00  0.00     0.049 A 
ATOM     21  C   UNL A   1      32.945  19.173  24.655  1.00  0.00     0.043 A 
ATOM     22  C   UNL A   1      35.147  20.116  24.956  1.00  0.00     0.078 A 
ATOM     23  C   UNL A   1      34.329  19.040  24.625  1.00  0.00     0.141 A 
ATOM     24  Cl  UNL A   1      36.861  19.945  24.953  1.00  0.00    -0.081 Cl
ATOM     25  F   UNL A   1      34.855  17.857  24.279  1.00  0.00    -0.205 F 
ENDBRANCH  15  18
ENDBRANCH  11  12
ENDBRANCH   7  11
ENDBRANCH   3   6
ENDBRANCH   1   2
BRANCH   1  26
ATOM     26  C   UNL A   1      31.402  32.333  26.531  1.00  0.00     0.042 C 
BRANCH  26  27
ATOM     27  C   UNL A   1      32.698  32.891  27.117  1.00  0.00     0.118 C 
BRANCH  27  28
ATOM     28  N   UNL A   1      32.524  34.232  27.657  1.00  0.00    -0.352 N 
ATOM     29  C   UNL A   1      33.102  34.838  28.745  1.00  0.00     0.251 C 
ATOM     30  H   UNL A   1      31.889  34.798  27.161  1.00  0.00     0.163 HD
ATOM     31  O   UNL A   1      32.655  35.909  29.145  1.00  0.00    -0.269 OA
BRANCH  29  32
ATOM     32  C   UNL A   1      34.249  34.221  29.447  1.00  0.00     0.039 A 
ATOM     33  C   UNL A   1      35.543  34.500  28.990  1.00  0.00     0.014 A 
ATOM     34  C   UNL A   1      34.065  33.320  30.500  1.00  0.00     0.014 A 
ATOM     35  C   UNL A   1      36.647  33.915  29.615  1.00  0.00     0.010 A 
ATOM     36  C   UNL A   1      35.168  32.786  31.163  1.00  0.00     0.010 A 
ATOM     37  C   UNL A   1      36.470  33.072  30.723  1.00  0.00    -0.014 A 
BRANCH  37  38
ATOM     38  C   UNL A   1      37.631  32.466  31.423  1.00  0.00     0.031 A 
ATOM     39  C   UNL A   1      38.378  31.319  30.800  1.00  0.00     0.074 A 
ATOM     40  C   UNL A   1      37.975  32.907  32.648  1.00  0.00     0.049 A 
ATOM     41  N   UNL A   1      39.354  30.600  31.291  1.00  0.00    -0.248 NA
ATOM     42  C   UNL A   1      37.950  30.910  29.452  1.00  0.00     0.031 C 
ATOM     43  C   UNL A   1      37.306  33.987  33.376  1.00  0.00     0.029 A 
ATOM     44  N   UNL A   1      38.962  32.490  33.505  1.00  0.00    -0.354 N 
ATOM     45  C   UNL A   1      39.641  29.643  30.327  1.00  0.00     0.074 A 
ATOM     46  C   UNL A   1      38.710  29.846  29.239  1.00  0.00     0.031 C 
ATOM     47  C   UNL A   1      37.910  34.157  34.563  1.00  0.00     0.029 A 
ATOM     48  C   UNL A   1      38.984  33.176  34.695  1.00  0.00     0.049 A 
ATOM     49  H   UNL A   1      39.594  31.767  33.288  1.00  0.00     0.167 HD
ATOM     50  C   UNL A   1      40.606  28.692  30.341  1.00  0.00     0.037 A 
ATOM     51  C   UNL A   1      39.777  33.026  35.773  1.00  0.00     0.037 A 
ATOM     52  C   UNL A   1      41.554  28.514  31.410  1.00  0.00     0.049 A 
ATOM     53  C   UNL A   1      40.849  31.972  35.758  1.00  0.00     0.074 A 
ATOM     54  C   UNL A   1      42.606  27.617  31.491  1.00  0.00     0.029 A 
ATOM     55  N   UNL A   1      41.566  29.251  32.585  1.00  0.00    -0.354 N 
ATOM     56  N   UNL A   1      41.147  31.108  34.817  1.00  0.00    -0.248 NA
ATOM     57  C   UNL A   1      41.701  31.876  36.951  1.00  0.00     0.031 C 
ATOM     58  C   UNL A   1      43.233  27.789  32.730  1.00  0.00     0.029 A 
ATOM     59  C   UNL A   1      42.598  28.820  33.403  1.00  0.00     0.049 A 
ATOM     60  H   UNL A   1      40.934  29.973  32.804  1.00  0.00     0.167 HD
ATOM     61  C   UNL A   1      42.233  30.386  35.291  1.00  0.00     0.074 A 
ATOM     62  C   UNL A   1      42.552  30.922  36.599  1.00  0.00     0.031 C 
ATOM     63  C   UNL A   1      42.908  29.372  34.696  1.00  0.00     0.037 A 
BRANCH  50  64
ATOM     64  C   UNL A   1      40.689  27.771  29.159  1.00  0.00     0.064 A 
ATOM     65  C   UNL A   1      39.846  26.656  29.035  1.00  0.00     0.173 A 
ATOM     66  C   UNL A   1      41.598  28.024  28.121  1.00  0.00     0.173 A 
ATOM     67  F   UNL A   1      38.967  26.364  30.005  1.00  0.00    -0.203 F 
ATOM     68  C   UNL A   1      39.929  25.814  27.929  1.00  0.00     0.198 A 
ATOM     69  C   UNL A   1      41.659  27.195  27.003  1.00  0.00     0.198 A 
ATOM     70  F   UNL A   1      42.424  29.079  28.186  1.00  0.00    -0.203 F 
ATOM     71  F   UNL A   1      39.145  24.729  27.856  1.00  0.00    -0.200 F 
ATOM     72  C   UNL A   1      40.831  26.087  26.912  1.00  0.00     0.200 A 
ATOM     73  F   UNL A   1      42.523  27.467  26.015  1.00  0.00    -0.200 F 
ATOM     74  F   UNL A   1      40.906  25.278  25.846  1.00  0.00    -0.200 F 
ENDBRANCH  50  64
BRANCH  51  75
ATOM     75  C   UNL A   1      39.603  33.917  36.948  1.00  0.00     0.064 A 
ATOM     76  C   UNL A   1      38.813  33.522  38.037  1.00  0.00     0.173 A 
ATOM     77  C   UNL A   1      40.217  35.177  37.009  1.00  0.00     0.173 A 
ATOM     78  F   UNL A   1      38.189  32.335  38.015  1.00  0.00    -0.203 F 
ATOM     79  C   UNL A   1      38.631  34.359  39.136  1.00  0.00     0.198 A 
ATOM     80  C   UNL A   1      40.055  36.002  38.120  1.00  0.00     0.198 A 
ATOM     81  F   UNL A   1      40.986  35.598  35.994  1.00  0.00    -0.203 F 
ATOM     82  F   UNL A   1      37.840  33.973  40.144  1.00  0.00    -0.200 F 
ATOM     83  C   UNL A   1      39.257  35.596  39.179  1.00  0.00     0.200 A 
ATOM     84  F   UNL A   1      40.673  37.191  38.164  1.00  0.00    -0.200 F 
ATOM     85  F   UNL A   1      39.086  36.399  40.237  1.00  0.00    -0.200 F 
ENDBRANCH  51  75
BRANCH  63  86
ATOM     86  C   UNL A   1      44.080  28.801  35.437  1.00  0.00     0.064 A 
ATOM     87  C   UNL A   1      45.375  29.309  35.266  1.00  0.00     0.173 A 
ATOM     88  C   UNL A   1      43.896  27.758  36.358  1.00  0.00     0.173 A 
ATOM     89  F   UNL A   1      45.604  30.294  34.386  1.00  0.00    -0.203 F 
ATOM     90  C   UNL A   1      46.450  28.777  35.976  1.00  0.00     0.198 A 
ATOM     91  C   UNL A   1      44.967  27.247  37.084  1.00  0.00     0.198 A 
ATOM     92  F   UNL A   1      42.675  27.241  36.559  1.00  0.00    -0.203 F 
ATOM     93  F   UNL A   1      47.687  29.249  35.767  1.00  0.00    -0.200 F 
ATOM     94  C   UNL A   1      46.245  27.753  36.888  1.00  0.00     0.200 A 
ATOM     95  F   UNL A   1      44.766  26.265  37.972  1.00  0.00    -0.200 F 
ATOM     96  F   UNL A   1      47.278  27.247  37.574  1.00  0.00    -0.200 F 
ENDBRANCH  63  86
ENDBRANCH  37  38
ENDBRANCH  29  32
ENDBRANCH  27  28
ENDBRANCH  26  27
ENDBRANCH   1  26
TORSDOF 13
ENDMDL
MODEL 3
REMARK VINA RESULT:     -11.3      4.667     10.419
REMARK SMILES O=C(NCc1ccc(C(=O)NCCCNC(=O)c2ccc(-c3c4nc(c(-c5c(F)c(F)c(F)c(F)c5F)c5ccc([nH]5)c(-c5c(F)c(F)c(F)c(F)c5F)c5nc(c(-c6c(F)c(F)c(F)c(F)c6F)c6ccc3[nH]6)C=C5)C=C4)cc2)o1)Nc1ccc(F)c(Cl)c1
REMARK SMILES IDX 12 1 11 2 9 3 10 4 8 6 5 7 6 8 81 9 7 10 4 11 3 12 1 13 2 14
REMARK SMILES IDX 82 15 83 18 84 19 90 20 85 21 88 22 86 23 89 24 87 25 13 26
REMARK SMILES IDX 14 27 15 28 16 29 17 31 18 32 19 33 80 34 20 35 79 36 21 37
REMARK SMILES IDX 22 38 23 39 73 40 24 41 78 42 72 43 74 44 25 45 77 46 71 47
REMARK SMILES IDX 70 48 26 50 58 51 38 52 57 53 39 54 42 55 56 56 75 57 40 58
REMARK SMILES IDX 41 59 55 61 76 62 43 63 27 64 28 65 36 66 29 67 30 68 34 69
REMARK SMILES IDX 37 70 31 71 32 72 35 73 33 74 59 75 60 76 68 77 61 78 62 79
REMARK SMILES IDX 66 80 69 81 63 82 64 83 67 84 65 85 44 86 45 87 53 88 46 89
REMARK SMILES IDX 47 90 51 91 54 92 48 93 49 94 52 95 50 96
REMARK H PARENT 11 5 3 16 82 17 15 30 74 49 42 60
REMARK Flexibility Score: inf
ROOT
ATOM      1  C   UNL A   1      35.217  21.269  25.752  1.00  0.00     0.118 C 
ENDROOT
BRANCH   1   2
ATOM      2  N   UNL A   1      33.929  20.607  25.807  1.00  0.00    -0.349 N 
ATOM      3  C   UNL A   1      32.783  20.804  25.069  1.00  0.00     0.286 C 
ATOM      4  O   UNL A   1      31.878  19.991  25.260  1.00  0.00    -0.266 OA
ATOM      5  H   UNL A   1      33.861  19.899  26.487  1.00  0.00     0.163 HD
BRANCH   3   6
ATOM      6  C   UNL A   1      32.674  21.898  24.121  1.00  0.00     0.191 A 
ATOM      7  C   UNL A   1      31.684  23.716  23.333  1.00  0.00     0.124 A 
ATOM      8  C   UNL A   1      32.761  23.478  22.510  1.00  0.00     0.048 A 
ATOM      9  O   UNL A   1      31.639  22.778  24.317  1.00  0.00    -0.454 OA
ATOM     10  C   UNL A   1      33.401  22.321  23.020  1.00  0.00     0.056 A 
BRANCH   7  11
ATOM     11  C   UNL A   1      30.599  24.727  23.338  1.00  0.00     0.193 C 
BRANCH  11  12
ATOM     12  N   UNL A   1      30.247  24.995  24.715  1.00  0.00    -0.331 N 
ATOM     13  O   UNL A   1      30.416  25.855  26.747  1.00  0.00    -0.248 OA
ATOM     14  C   UNL A   1      30.677  25.971  25.553  1.00  0.00     0.319 C 
ATOM     15  N   UNL A   1      31.341  27.018  24.980  1.00  0.00    -0.308 N 
ATOM     16  H   UNL A   1      29.593  24.371  25.106  1.00  0.00     0.165 HD
ATOM     17  H   UNL A   1      31.312  27.082  23.999  1.00  0.00     0.171 HD
BRANCH  15  18
ATOM     18  C   UNL A   1      32.066  28.016  25.665  1.00  0.00     0.044 A 
ATOM     19  C   UNL A   1      33.310  27.664  26.204  1.00  0.00     0.029 A 
ATOM     20  C   UNL A   1      31.584  29.318  25.847  1.00  0.00     0.049 A 
ATOM     21  C   UNL A   1      34.080  28.613  26.883  1.00  0.00     0.043 A 
ATOM     22  C   UNL A   1      32.348  30.259  26.540  1.00  0.00     0.078 A 
ATOM     23  C   UNL A   1      33.595  29.906  27.046  1.00  0.00     0.141 A 
ATOM     24  Cl  UNL A   1      31.729  31.850  26.770  1.00  0.00    -0.081 Cl
ATOM     25  F   UNL A   1      34.349  30.798  27.704  1.00  0.00    -0.205 F 
ENDBRANCH  15  18
ENDBRANCH  11  12
ENDBRANCH   7  11
ENDBRANCH   3   6
ENDBRANCH   1   2
BRANCH   1  26
ATOM     26  C   UNL A   1      35.142  22.703  26.269  1.00  0.00     0.042 C 
BRANCH  26  27
ATOM     27  C   UNL A   1      36.443  23.484  26.097  1.00  0.00     0.118 C 
BRANCH  27  28
ATOM     28  N   UNL A   1      37.608  22.611  26.064  1.00  0.00    -0.352 N 
ATOM     29  C   UNL A   1      38.931  22.880  26.310  1.00  0.00     0.251 C 
ATOM     30  H   UNL A   1      37.416  21.675  25.828  1.00  0.00     0.163 HD
ATOM     31  O   UNL A   1      39.779  22.040  26.022  1.00  0.00    -0.269 OA
BRANCH  29  32
ATOM     32  C   UNL A   1      39.355  24.165  26.910  1.00  0.00     0.039 A 
ATOM     33  C   UNL A   1      40.006  25.100  26.097  1.00  0.00     0.014 A 
ATOM     34  C   UNL A   1      39.183  24.429  28.272  1.00  0.00     0.014 A 
ATOM     35  C   UNL A   1      40.441  26.314  26.636  1.00  0.00     0.010 A 
ATOM     36  C   UNL A   1      39.560  25.664  28.795  1.00  0.00     0.010 A 
ATOM     37  C   UNL A   1      40.200  26.616  27.986  1.00  0.00    -0.014 A 
BRANCH  37  38
ATOM     38  C   UNL A   1      40.623  27.913  28.572  1.00  0.00     0.031 A 
ATOM     39  C   UNL A   1      42.048  28.119  29.004  1.00  0.00     0.074 A 
ATOM     40  C   UNL A   1      39.711  28.883  28.774  1.00  0.00     0.049 A 
ATOM     41  N   UNL A   1      42.590  29.140  29.618  1.00  0.00    -0.248 NA
ATOM     42  C   UNL A   1      42.985  27.016  28.733  1.00  0.00     0.031 C 
ATOM     43  C   UNL A   1      38.290  28.791  28.432  1.00  0.00     0.029 A 
ATOM     44  N   UNL A   1      39.840  30.130  29.330  1.00  0.00    -0.354 N 
ATOM     45  C   UNL A   1      43.919  28.796  29.826  1.00  0.00     0.074 A 
ATOM     46  C   UNL A   1      44.094  27.455  29.310  1.00  0.00     0.031 C 
ATOM     47  C   UNL A   1      37.682  29.939  28.772  1.00  0.00     0.029 A 
ATOM     48  C   UNL A   1      38.660  30.832  29.387  1.00  0.00     0.049 A 
ATOM     49  H   UNL A   1      40.697  30.489  29.656  1.00  0.00     0.167 HD
ATOM     50  C   UNL A   1      44.908  29.537  30.380  1.00  0.00     0.037 A 
ATOM     51  C   UNL A   1      38.396  32.054  29.887  1.00  0.00     0.037 A 
ATOM     52  C   UNL A   1      44.739  30.884  30.862  1.00  0.00     0.049 A 
ATOM     53  C   UNL A   1      39.514  32.862  30.486  1.00  0.00     0.074 A 
ATOM     54  C   UNL A   1      45.693  31.739  31.387  1.00  0.00     0.029 A 
ATOM     55  N   UNL A   1      43.535  31.572  30.874  1.00  0.00    -0.354 N 
ATOM     56  N   UNL A   1      40.779  32.547  30.628  1.00  0.00    -0.248 NA
ATOM     57  C   UNL A   1      39.169  34.199  30.988  1.00  0.00     0.031 C 
ATOM     58  C   UNL A   1      45.059  32.933  31.749  1.00  0.00     0.029 A 
ATOM     59  C   UNL A   1      43.719  32.836  31.410  1.00  0.00     0.049 A 
ATOM     60  H   UNL A   1      42.678  31.214  30.549  1.00  0.00     0.167 HD
ATOM     61  C   UNL A   1      41.385  33.652  31.208  1.00  0.00     0.074 A 
ATOM     62  C   UNL A   1      40.352  34.652  31.381  1.00  0.00     0.031 C 
ATOM     63  C   UNL A   1      42.682  33.824  31.564  1.00  0.00     0.037 A 
BRANCH  50  64
ATOM     64  C   UNL A   1      46.266  28.909  30.494  1.00  0.00     0.064 A 
ATOM     65  C   UNL A   1      46.653  28.194  31.637  1.00  0.00     0.173 A 
ATOM     66  C   UNL A   1      47.180  28.992  29.432  1.00  0.00     0.173 A 
ATOM     67  F   UNL A   1      45.820  28.094  32.684  1.00  0.00    -0.203 F 
ATOM     68  C   UNL A   1      47.914  27.610  31.725  1.00  0.00     0.198 A 
ATOM     69  C   UNL A   1      48.430  28.383  29.513  1.00  0.00     0.198 A 
ATOM     70  F   UNL A   1      46.859  29.659  28.313  1.00  0.00    -0.203 F 
ATOM     71  F   UNL A   1      48.278  26.972  32.847  1.00  0.00    -0.200 F 
ATOM     72  C   UNL A   1      48.799  27.700  30.661  1.00  0.00     0.200 A 
ATOM     73  F   UNL A   1      49.280  28.460  28.479  1.00  0.00    -0.200 F 
ATOM     74  F   UNL A   1      50.010  27.132  30.746  1.00  0.00    -0.200 F 
ENDBRANCH  50  64
BRANCH  51  75
ATOM     75  C   UNL A   1      37.016  32.598  29.818  1.00  0.00     0.064 A 
ATOM     76  C   UNL A   1      36.118  32.414  30.878  1.00  0.00     0.173 A 
ATOM     77  C   UNL A   1      36.567  33.311  28.696  1.00  0.00     0.173 A 
ATOM     78  F   UNL A   1      36.496  31.720  31.962  1.00  0.00    -0.203 F 
ATOM     79  C   UNL A   1      34.816  32.907  30.813  1.00  0.00     0.198 A 
ATOM     80  C   UNL A   1      35.273  33.826  28.644  1.00  0.00     0.198 A 
ATOM     81  F   UNL A   1      37.390  33.519  27.659  1.00  0.00    -0.203 F 
ATOM     82  F   UNL A   1      33.966  32.681  31.823  1.00  0.00    -0.200 F 
ATOM     83  C   UNL A   1      34.397  33.618  29.698  1.00  0.00     0.200 A 
ATOM     84  F   UNL A   1      34.876  34.525  27.571  1.00  0.00    -0.200 F 
ATOM     85  F   UNL A   1      33.147  34.096  29.637  1.00  0.00    -0.200 F 
ENDBRANCH  51  75
BRANCH  63  86
ATOM     86  C   UNL A   1      43.064  35.154  32.141  1.00  0.00     0.064 A 
ATOM     87  C   UNL A   1      43.592  36.177  31.341  1.00  0.00     0.173 A 
ATOM     88  C   UNL A   1      42.862  35.420  33.504  1.00  0.00     0.173 A 
ATOM     89  F   UNL A   1      43.819  35.966  30.036  1.00  0.00    -0.203 F 
ATOM     90  C   UNL A   1      43.925  37.413  31.891  1.00  0.00     0.198 A 
ATOM     91  C   UNL A   1      43.171  36.664  34.044  1.00  0.00     0.198 A 
ATOM     92  F   UNL A   1      42.355  34.474  34.309  1.00  0.00    -0.203 F 
ATOM     93  F   UNL A   1      44.469  38.363  31.118  1.00  0.00    -0.200 F 
ATOM     94  C   UNL A   1      43.708  37.658  33.238  1.00  0.00     0.200 A 
ATOM     95  F   UNL A   1      42.951  36.903  35.344  1.00  0.00    -0.200 F 
ATOM     96  F   UNL A   1      44.024  38.849  33.764  1.00  0.00    -0.200 F 
ENDBRANCH  63  86
ENDBRANCH  37  38
ENDBRANCH  29  32
ENDBRANCH  27  28
ENDBRANCH  26  27
ENDBRANCH   1  26
TORSDOF 13
ENDMDL
