MODEL 1
REMARK VINA RESULT:     -13.6      0.000      0.000
REMARK SMILES O=C(Cn1nnnc1[C@H]1Cc2ccccc2S1)NCCCNC(=O)c1ccc(-c2c3nc(c(-c4c(F)c(F)c(F)c(F)c4F)c4ccc([nH]4)c(-c4c(F)c(F)c(F)c(F)c4F)c4nc(c(-c5c(F)c(F)c(F)c(F)c5F)c5ccc2[nH]5)C=C4)C=C3)cc1
REMARK SMILES IDX 20 1 19 2 18 3 1 4 2 5 3 7 4 8 5 9 8 10 6 11 7 12 9 13 10 14
REMARK SMILES IDX 17 15 11 16 16 17 12 18 15 19 13 20 14 21 21 22 22 23 23 24
REMARK SMILES IDX 24 26 25 27 26 28 87 29 27 30 86 31 28 32 29 33 30 34 80 35
REMARK SMILES IDX 31 36 85 37 79 38 81 39 32 40 84 41 78 42 77 43 33 45 65 46
REMARK SMILES IDX 45 47 64 48 46 49 49 50 63 51 82 52 47 53 48 54 62 56 83 57
REMARK SMILES IDX 50 58 34 59 35 60 43 61 36 62 37 63 41 64 44 65 38 66 39 67
REMARK SMILES IDX 42 68 40 69 66 70 67 71 75 72 68 73 69 74 73 75 76 76 70 77
REMARK SMILES IDX 71 78 74 79 72 80 51 81 52 82 60 83 53 84 54 85 58 86 61 87
REMARK SMILES IDX 55 88 56 89 59 90 57 91
REMARK H PARENT 18 6 22 25 81 44 49 55
REMARK Flexibility Score: inf
ROOT
ATOM      1  C   UNL A   1      33.068  28.629  27.301  1.00  0.00     0.042 C 
ENDROOT
BRANCH   1   2
ATOM      2  C   UNL A   1      31.597  28.250  27.459  1.00  0.00     0.117 C 
BRANCH   2   3
ATOM      3  N   UNL A   1      31.256  26.973  26.854  1.00  0.00    -0.354 N 
ATOM      4  O   UNL A   1      30.843  27.803  24.761  1.00  0.00    -0.273 OA
ATOM      5  C   UNL A   1      30.987  26.834  25.506  1.00  0.00     0.241 C 
ATOM      6  H   UNL A   1      31.217  26.174  27.428  1.00  0.00     0.163 HD
BRANCH   5   7
ATOM      7  C   UNL A   1      30.731  25.423  25.002  1.00  0.00     0.248 C 
BRANCH   7   8
ATOM      8  N   UNL A   1      31.154  24.376  25.906  1.00  0.00    -0.219 N 
ATOM      9  N   UNL A   1      30.364  24.027  26.939  1.00  0.00    -0.044 NA
ATOM     10  C   UNL A   1      32.280  23.587  25.909  1.00  0.00     0.165 A 
ATOM     11  N   UNL A   1      30.978  23.022  27.536  1.00  0.00    -0.024 NA
ATOM     12  N   UNL A   1      32.155  22.729  26.907  1.00  0.00    -0.113 NA
BRANCH  10  13
ATOM     13  C   UNL A   1      33.459  23.648  24.998  1.00  0.00     0.126 C 
ATOM     14  C   UNL A   1      34.656  24.444  25.555  1.00  0.00     0.059 C 
ATOM     15  S   UNL A   1      34.021  21.988  24.493  1.00  0.00    -0.114 SA
ATOM     16  C   UNL A   1      35.866  23.555  25.552  1.00  0.00    -0.033 A 
ATOM     17  C   UNL A   1      35.685  22.295  24.981  1.00  0.00     0.011 A 
ATOM     18  C   UNL A   1      37.115  23.922  26.046  1.00  0.00     0.005 A 
ATOM     19  C   UNL A   1      36.739  21.401  24.860  1.00  0.00     0.015 A 
ATOM     20  C   UNL A   1      38.178  23.021  25.944  1.00  0.00     0.000 A 
ATOM     21  C   UNL A   1      37.993  21.771  25.343  1.00  0.00     0.001 A 
ENDBRANCH  10  13
ENDBRANCH   7   8
ENDBRANCH   5   7
ENDBRANCH   2   3
ENDBRANCH   1   2
BRANCH   1  22
ATOM     22  C   UNL A   1      33.319  30.039  26.767  1.00  0.00     0.118 C 
BRANCH  22  23
ATOM     23  N   UNL A   1      33.567  31.044  27.780  1.00  0.00    -0.352 N 
ATOM     24  C   UNL A   1      34.671  31.512  28.441  1.00  0.00     0.251 C 
ATOM     25  H   UNL A   1      32.742  31.501  28.062  1.00  0.00     0.163 HD
ATOM     26  O   UNL A   1      34.497  32.518  29.124  1.00  0.00    -0.269 OA
BRANCH  24  27
ATOM     27  C   UNL A   1      36.016  30.872  28.440  1.00  0.00     0.039 A 
ATOM     28  C   UNL A   1      36.302  29.560  28.067  1.00  0.00     0.014 A 
ATOM     29  C   UNL A   1      37.071  31.676  28.917  1.00  0.00     0.014 A 
ATOM     30  C   UNL A   1      37.579  29.031  28.255  1.00  0.00     0.010 A 
ATOM     31  C   UNL A   1      38.350  31.161  29.092  1.00  0.00     0.010 A 
ATOM     32  C   UNL A   1      38.592  29.820  28.806  1.00  0.00    -0.014 A 
BRANCH  32  33
ATOM     33  C   UNL A   1      39.897  29.207  29.053  1.00  0.00     0.031 A 
ATOM     34  C   UNL A   1      40.287  28.980  30.477  1.00  0.00     0.074 A 
ATOM     35  C   UNL A   1      40.660  28.719  28.052  1.00  0.00     0.049 A 
ATOM     36  N   UNL A   1      41.383  29.315  31.086  1.00  0.00    -0.248 NA
ATOM     37  C   UNL A   1      39.312  28.297  31.341  1.00  0.00     0.031 C 
ATOM     38  C   UNL A   1      40.302  28.577  26.639  1.00  0.00     0.029 A 
ATOM     39  N   UNL A   1      41.892  28.139  28.122  1.00  0.00    -0.354 N 
ATOM     40  C   UNL A   1      41.297  28.775  32.369  1.00  0.00     0.074 A 
ATOM     41  C   UNL A   1      39.972  28.222  32.496  1.00  0.00     0.031 C 
ATOM     42  C   UNL A   1      41.197  27.766  26.034  1.00  0.00     0.029 A 
ATOM     43  C   UNL A   1      42.250  27.439  26.980  1.00  0.00     0.049 A 
ATOM     44  H   UNL A   1      42.476  28.212  28.912  1.00  0.00     0.167 HD
ATOM     45  C   UNL A   1      42.365  28.677  33.209  1.00  0.00     0.037 A 
ATOM     46  C   UNL A   1      43.296  26.589  26.846  1.00  0.00     0.037 A 
ATOM     47  C   UNL A   1      43.439  29.551  32.840  1.00  0.00     0.049 A 
ATOM     48  C   UNL A   1      44.257  26.871  27.939  1.00  0.00     0.074 A 
ATOM     49  C   UNL A   1      43.598  30.920  32.768  1.00  0.00     0.029 A 
ATOM     50  N   UNL A   1      44.527  29.021  32.197  1.00  0.00    -0.354 N 
ATOM     51  N   UNL A   1      44.987  27.946  28.027  1.00  0.00    -0.248 NA
ATOM     52  C   UNL A   1      44.155  26.083  29.158  1.00  0.00     0.031 C 
ATOM     53  C   UNL A   1      44.500  31.135  31.686  1.00  0.00     0.029 A 
ATOM     54  C   UNL A   1      44.842  29.882  31.178  1.00  0.00     0.049 A 
ATOM     55  H   UNL A   1      44.993  28.184  32.424  1.00  0.00     0.167 HD
ATOM     56  C   UNL A   1      45.099  28.186  29.387  1.00  0.00     0.074 A 
ATOM     57  C   UNL A   1      44.677  26.947  30.029  1.00  0.00     0.031 C 
ATOM     58  C   UNL A   1      45.260  29.452  29.865  1.00  0.00     0.037 A 
BRANCH  45  59
ATOM     59  C   UNL A   1      42.532  27.592  34.238  1.00  0.00     0.064 A 
ATOM     60  C   UNL A   1      43.123  26.362  33.891  1.00  0.00     0.173 A 
ATOM     61  C   UNL A   1      41.884  27.631  35.490  1.00  0.00     0.173 A 
ATOM     62  F   UNL A   1      43.725  26.205  32.702  1.00  0.00    -0.203 F 
ATOM     63  C   UNL A   1      43.044  25.244  34.728  1.00  0.00     0.198 A 
ATOM     64  C   UNL A   1      41.849  26.530  36.344  1.00  0.00     0.198 A 
ATOM     65  F   UNL A   1      41.178  28.701  35.878  1.00  0.00    -0.203 F 
ATOM     66  F   UNL A   1      43.536  24.068  34.317  1.00  0.00    -0.200 F 
ATOM     67  C   UNL A   1      42.410  25.330  35.955  1.00  0.00     0.200 A 
ATOM     68  F   UNL A   1      41.209  26.624  37.518  1.00  0.00    -0.200 F 
ATOM     69  F   UNL A   1      42.297  24.250  36.739  1.00  0.00    -0.200 F 
ENDBRANCH  45  59
BRANCH  46  70
ATOM     70  C   UNL A   1      43.391  25.370  26.012  1.00  0.00     0.064 A 
ATOM     71  C   UNL A   1      44.529  25.119  25.227  1.00  0.00     0.173 A 
ATOM     72  C   UNL A   1      42.496  24.295  26.180  1.00  0.00     0.173 A 
ATOM     73  F   UNL A   1      45.453  26.074  25.054  1.00  0.00    -0.203 F 
ATOM     74  C   UNL A   1      44.770  23.860  24.669  1.00  0.00     0.198 A 
ATOM     75  C   UNL A   1      42.731  23.043  25.611  1.00  0.00     0.198 A 
ATOM     76  F   UNL A   1      41.425  24.407  26.978  1.00  0.00    -0.203 F 
ATOM     77  F   UNL A   1      45.901  23.638  23.986  1.00  0.00    -0.200 F 
ATOM     78  C   UNL A   1      43.877  22.821  24.869  1.00  0.00     0.200 A 
ATOM     79  F   UNL A   1      41.875  22.037  25.841  1.00  0.00    -0.200 F 
ATOM     80  F   UNL A   1      44.138  21.598  24.389  1.00  0.00    -0.200 F 
ENDBRANCH  46  70
BRANCH  58  81
ATOM     81  C   UNL A   1      45.610  30.529  28.880  1.00  0.00     0.064 A 
ATOM     82  C   UNL A   1      44.653  31.226  28.122  1.00  0.00     0.173 A 
ATOM     83  C   UNL A   1      46.937  30.972  28.813  1.00  0.00     0.173 A 
ATOM     84  F   UNL A   1      43.351  30.931  28.218  1.00  0.00    -0.203 F 
ATOM     85  C   UNL A   1      45.020  32.287  27.298  1.00  0.00     0.198 A 
ATOM     86  C   UNL A   1      47.295  32.057  28.016  1.00  0.00     0.198 A 
ATOM     87  F   UNL A   1      47.882  30.384  29.564  1.00  0.00    -0.203 F 
ATOM     88  F   UNL A   1      44.091  32.931  26.577  1.00  0.00    -0.200 F 
ATOM     89  C   UNL A   1      46.339  32.707  27.251  1.00  0.00     0.200 A 
ATOM     90  F   UNL A   1      48.563  32.494  28.015  1.00  0.00    -0.200 F 
ATOM     91  F   UNL A   1      46.685  33.758  26.494  1.00  0.00    -0.200 F 
ENDBRANCH  58  81
ENDBRANCH  32  33
ENDBRANCH  24  27
ENDBRANCH  22  23
ENDBRANCH   1  22
TORSDOF 12
ENDMDL
MODEL 2
REMARK VINA RESULT:     -13.6      3.485      8.866
REMARK SMILES O=C(Cn1nnnc1[C@H]1Cc2ccccc2S1)NCCCNC(=O)c1ccc(-c2c3nc(c(-c4c(F)c(F)c(F)c(F)c4F)c4ccc([nH]4)c(-c4c(F)c(F)c(F)c(F)c4F)c4nc(c(-c5c(F)c(F)c(F)c(F)c5F)c5ccc2[nH]5)C=C4)C=C3)cc1
REMARK SMILES IDX 20 1 19 2 18 3 1 4 2 5 3 7 4 8 5 9 8 10 6 11 7 12 9 13 10 14
REMARK SMILES IDX 17 15 11 16 16 17 12 18 15 19 13 20 14 21 21 22 22 23 23 24
REMARK SMILES IDX 24 26 25 27 26 28 87 29 27 30 86 31 28 32 29 33 30 34 80 35
REMARK SMILES IDX 31 36 85 37 79 38 81 39 32 40 84 41 78 42 77 43 33 45 65 46
REMARK SMILES IDX 45 47 64 48 46 49 49 50 63 51 82 52 47 53 48 54 62 56 83 57
REMARK SMILES IDX 50 58 34 59 35 60 43 61 36 62 37 63 41 64 44 65 38 66 39 67
REMARK SMILES IDX 42 68 40 69 66 70 67 71 75 72 68 73 69 74 73 75 76 76 70 77
REMARK SMILES IDX 71 78 74 79 72 80 51 81 52 82 60 83 53 84 54 85 58 86 61 87
REMARK SMILES IDX 55 88 56 89 59 90 57 91
REMARK H PARENT 18 6 22 25 81 44 49 55
REMARK Flexibility Score: inf
ROOT
ATOM      1  C   UNL A   1      37.212  23.514  24.928  1.00  0.00     0.042 C 
ENDROOT
BRANCH   1   2
ATOM      2  C   UNL A   1      36.527  22.634  23.885  1.00  0.00     0.117 C 
BRANCH   2   3
ATOM      3  N   UNL A   1      35.281  23.188  23.382  1.00  0.00    -0.354 N 
ATOM      4  O   UNL A   1      33.991  22.513  25.147  1.00  0.00    -0.273 OA
ATOM      5  C   UNL A   1      34.106  23.161  24.108  1.00  0.00     0.241 C 
ATOM      6  H   UNL A   1      35.274  23.600  22.488  1.00  0.00     0.163 HD
BRANCH   5   7
ATOM      7  C   UNL A   1      32.904  23.856  23.489  1.00  0.00     0.248 C 
BRANCH   7   8
ATOM      8  N   UNL A   1      33.187  25.158  22.926  1.00  0.00    -0.219 N 
ATOM      9  N   UNL A   1      33.583  25.259  21.643  1.00  0.00    -0.044 NA
ATOM     10  C   UNL A   1      33.105  26.417  23.475  1.00  0.00     0.165 A 
ATOM     11  N   UNL A   1      33.702  26.553  21.405  1.00  0.00    -0.024 NA
ATOM     12  N   UNL A   1      33.399  27.282  22.521  1.00  0.00    -0.113 NA
BRANCH  10  13
ATOM     13  C   UNL A   1      32.768  26.796  24.878  1.00  0.00     0.126 C 
ATOM     14  C   UNL A   1      33.991  27.035  25.786  1.00  0.00     0.059 C 
ATOM     15  S   UNL A   1      31.670  28.251  24.949  1.00  0.00    -0.114 SA
ATOM     16  C   UNL A   1      33.892  28.416  26.369  1.00  0.00    -0.033 A 
ATOM     17  C   UNL A   1      32.726  29.116  26.063  1.00  0.00     0.011 A 
ATOM     18  C   UNL A   1      34.857  28.996  27.188  1.00  0.00     0.005 A 
ATOM     19  C   UNL A   1      32.483  30.376  26.589  1.00  0.00     0.015 A 
ATOM     20  C   UNL A   1      34.630  30.272  27.708  1.00  0.00     0.000 A 
ATOM     21  C   UNL A   1      33.442  30.955  27.419  1.00  0.00     0.001 A 
ENDBRANCH  10  13
ENDBRANCH   7   8
ENDBRANCH   5   7
ENDBRANCH   2   3
ENDBRANCH   1   2
BRANCH   1  22
ATOM     22  C   UNL A   1      37.864  22.757  26.085  1.00  0.00     0.118 C 
BRANCH  22  23
ATOM     23  N   UNL A   1      39.223  22.317  25.841  1.00  0.00    -0.352 N 
ATOM     24  C   UNL A   1      40.470  22.759  26.191  1.00  0.00     0.251 C 
ATOM     25  H   UNL A   1      39.257  21.502  25.290  1.00  0.00     0.163 HD
ATOM     26  O   UNL A   1      41.399  22.000  25.929  1.00  0.00    -0.269 OA
BRANCH  24  27
ATOM     27  C   UNL A   1      40.780  24.086  26.794  1.00  0.00     0.039 A 
ATOM     28  C   UNL A   1      41.438  24.305  28.003  1.00  0.00     0.014 A 
ATOM     29  C   UNL A   1      40.304  25.204  26.080  1.00  0.00     0.014 A 
ATOM     30  C   UNL A   1      41.534  25.591  28.535  1.00  0.00     0.010 A 
ATOM     31  C   UNL A   1      40.410  26.490  26.596  1.00  0.00     0.010 A 
ATOM     32  C   UNL A   1      40.983  26.677  27.852  1.00  0.00    -0.014 A 
BRANCH  32  33
ATOM     33  C   UNL A   1      41.041  27.998  28.477  1.00  0.00     0.031 A 
ATOM     34  C   UNL A   1      42.153  28.905  28.060  1.00  0.00     0.074 A 
ATOM     35  C   UNL A   1      40.056  28.455  29.278  1.00  0.00     0.049 A 
ATOM     36  N   UNL A   1      42.994  29.558  28.802  1.00  0.00    -0.248 NA
ATOM     37  C   UNL A   1      42.361  29.093  26.616  1.00  0.00     0.031 C 
ATOM     38  C   UNL A   1      38.756  27.833  29.546  1.00  0.00     0.029 A 
ATOM     39  N   UNL A   1      39.974  29.645  29.939  1.00  0.00    -0.354 N 
ATOM     40  C   UNL A   1      43.753  30.341  27.932  1.00  0.00     0.074 A 
ATOM     41  C   UNL A   1      43.372  29.962  26.595  1.00  0.00     0.031 C 
ATOM     42  C   UNL A   1      37.942  28.739  30.130  1.00  0.00     0.029 A 
ATOM     43  C   UNL A   1      38.698  29.953  30.390  1.00  0.00     0.049 A 
ATOM     44  H   UNL A   1      40.750  30.233  30.084  1.00  0.00     0.167 HD
ATOM     45  C   UNL A   1      44.547  31.364  28.354  1.00  0.00     0.037 A 
ATOM     46  C   UNL A   1      38.276  31.146  30.869  1.00  0.00     0.037 A 
ATOM     47  C   UNL A   1      44.867  31.277  29.747  1.00  0.00     0.049 A 
ATOM     48  C   UNL A   1      39.470  31.926  31.272  1.00  0.00     0.074 A 
ATOM     49  C   UNL A   1      45.571  30.384  30.530  1.00  0.00     0.029 A 
ATOM     50  N   UNL A   1      44.201  32.091  30.627  1.00  0.00    -0.354 N 
ATOM     51  N   UNL A   1      40.228  31.648  32.294  1.00  0.00    -0.248 NA
ATOM     52  C   UNL A   1      40.039  32.852  30.305  1.00  0.00     0.031 C 
ATOM     53  C   UNL A   1      44.918  30.403  31.797  1.00  0.00     0.029 A 
ATOM     54  C   UNL A   1      43.868  31.315  31.707  1.00  0.00     0.049 A 
ATOM     55  H   UNL A   1      44.002  33.048  30.507  1.00  0.00     0.167 HD
ATOM     56  C   UNL A   1      41.501  32.032  31.903  1.00  0.00     0.074 A 
ATOM     57  C   UNL A   1      41.302  32.874  30.730  1.00  0.00     0.031 C 
ATOM     58  C   UNL A   1      42.606  31.408  32.402  1.00  0.00     0.037 A 
BRANCH  45  59
ATOM     59  C   UNL A   1      44.836  32.597  27.541  1.00  0.00     0.064 A 
ATOM     60  C   UNL A   1      46.057  32.729  26.851  1.00  0.00     0.173 A 
ATOM     61  C   UNL A   1      44.056  33.769  27.639  1.00  0.00     0.173 A 
ATOM     62  F   UNL A   1      46.894  31.688  26.740  1.00  0.00    -0.203 F 
ATOM     63  C   UNL A   1      46.477  33.955  26.323  1.00  0.00     0.198 A 
ATOM     64  C   UNL A   1      44.454  34.977  27.069  1.00  0.00     0.198 A 
ATOM     65  F   UNL A   1      42.938  33.803  28.376  1.00  0.00    -0.203 F 
ATOM     66  F   UNL A   1      47.687  34.058  25.759  1.00  0.00    -0.200 F 
ATOM     67  C   UNL A   1      45.673  35.076  26.430  1.00  0.00     0.200 A 
ATOM     68  F   UNL A   1      43.675  36.059  27.204  1.00  0.00    -0.200 F 
ATOM     69  F   UNL A   1      46.091  36.260  25.962  1.00  0.00    -0.200 F 
ENDBRANCH  45  59
BRANCH  46  70
ATOM     70  C   UNL A   1      36.938  31.768  30.744  1.00  0.00     0.064 A 
ATOM     71  C   UNL A   1      36.082  31.869  31.854  1.00  0.00     0.173 A 
ATOM     72  C   UNL A   1      36.583  32.521  29.609  1.00  0.00     0.173 A 
ATOM     73  F   UNL A   1      36.371  31.218  32.991  1.00  0.00    -0.203 F 
ATOM     74  C   UNL A   1      34.956  32.697  31.837  1.00  0.00     0.198 A 
ATOM     75  C   UNL A   1      35.450  33.336  29.588  1.00  0.00     0.198 A 
ATOM     76  F   UNL A   1      37.377  32.559  28.529  1.00  0.00    -0.203 F 
ATOM     77  F   UNL A   1      34.203  32.822  32.938  1.00  0.00    -0.200 F 
ATOM     78  C   UNL A   1      34.646  33.436  30.708  1.00  0.00     0.200 A 
ATOM     79  F   UNL A   1      35.182  34.073  28.500  1.00  0.00    -0.200 F 
ATOM     80  F   UNL A   1      33.604  34.278  30.712  1.00  0.00    -0.200 F 
ENDBRANCH  46  70
BRANCH  58  81
ATOM     81  C   UNL A   1      42.423  30.514  33.594  1.00  0.00     0.064 A 
ATOM     82  C   UNL A   1      42.477  30.974  34.921  1.00  0.00     0.173 A 
ATOM     83  C   UNL A   1      42.032  29.186  33.384  1.00  0.00     0.173 A 
ATOM     84  F   UNL A   1      42.737  32.258  35.195  1.00  0.00    -0.203 F 
ATOM     85  C   UNL A   1      42.199  30.125  35.990  1.00  0.00     0.198 A 
ATOM     86  C   UNL A   1      41.718  28.350  34.453  1.00  0.00     0.198 A 
ATOM     87  F   UNL A   1      41.902  28.712  32.135  1.00  0.00    -0.203 F 
ATOM     88  F   UNL A   1      42.266  30.584  37.248  1.00  0.00    -0.200 F 
ATOM     89  C   UNL A   1      41.813  28.816  35.755  1.00  0.00     0.200 A 
ATOM     90  F   UNL A   1      41.293  27.100  34.220  1.00  0.00    -0.200 F 
ATOM     91  F   UNL A   1      41.500  28.012  36.781  1.00  0.00    -0.200 F 
ENDBRANCH  58  81
ENDBRANCH  32  33
ENDBRANCH  24  27
ENDBRANCH  22  23
ENDBRANCH   1  22
TORSDOF 12
ENDMDL
MODEL 3
REMARK VINA RESULT:     -13.4      1.211      1.740
REMARK SMILES O=C(Cn1nnnc1[C@H]1Cc2ccccc2S1)NCCCNC(=O)c1ccc(-c2c3nc(c(-c4c(F)c(F)c(F)c(F)c4F)c4ccc([nH]4)c(-c4c(F)c(F)c(F)c(F)c4F)c4nc(c(-c5c(F)c(F)c(F)c(F)c5F)c5ccc2[nH]5)C=C4)C=C3)cc1
REMARK SMILES IDX 20 1 19 2 18 3 1 4 2 5 3 7 4 8 5 9 8 10 6 11 7 12 9 13 10 14
REMARK SMILES IDX 17 15 11 16 16 17 12 18 15 19 13 20 14 21 21 22 22 23 23 24
REMARK SMILES IDX 24 26 25 27 26 28 87 29 27 30 86 31 28 32 29 33 30 34 80 35
REMARK SMILES IDX 31 36 85 37 79 38 81 39 32 40 84 41 78 42 77 43 33 45 65 46
REMARK SMILES IDX 45 47 64 48 46 49 49 50 63 51 82 52 47 53 48 54 62 56 83 57
REMARK SMILES IDX 50 58 34 59 35 60 43 61 36 62 37 63 41 64 44 65 38 66 39 67
REMARK SMILES IDX 42 68 40 69 66 70 67 71 75 72 68 73 69 74 73 75 76 76 70 77
REMARK SMILES IDX 71 78 74 79 72 80 51 81 52 82 60 83 53 84 54 85 58 86 61 87
REMARK SMILES IDX 55 88 56 89 59 90 57 91
REMARK H PARENT 18 6 22 25 81 44 49 55
REMARK Flexibility Score: inf
ROOT
ATOM      1  C   UNL A   1      33.568  28.697  27.391  1.00  0.00     0.042 C 
ENDROOT
BRANCH   1   2
ATOM      2  C   UNL A   1      32.042  28.677  27.318  1.00  0.00     0.117 C 
BRANCH   2   3
ATOM      3  N   UNL A   1      31.504  27.456  26.743  1.00  0.00    -0.354 N 
ATOM      4  O   UNL A   1      31.566  28.167  24.569  1.00  0.00    -0.273 OA
ATOM      5  C   UNL A   1      31.388  27.259  25.381  1.00  0.00     0.241 C 
ATOM      6  H   UNL A   1      31.209  26.738  27.350  1.00  0.00     0.163 HD
BRANCH   5   7
ATOM      7  C   UNL A   1      30.887  25.898  24.926  1.00  0.00     0.248 C 
BRANCH   7   8
ATOM      8  N   UNL A   1      31.239  24.804  25.805  1.00  0.00    -0.219 N 
ATOM      9  N   UNL A   1      30.413  24.465  26.812  1.00  0.00    -0.044 NA
ATOM     10  C   UNL A   1      32.324  23.959  25.804  1.00  0.00     0.165 A 
ATOM     11  N   UNL A   1      30.963  23.412  27.388  1.00  0.00    -0.024 NA
ATOM     12  N   UNL A   1      32.136  23.079  26.772  1.00  0.00    -0.113 NA
BRANCH  10  13
ATOM     13  C   UNL A   1      33.523  23.988  24.917  1.00  0.00     0.126 C 
ATOM     14  C   UNL A   1      34.765  24.651  25.544  1.00  0.00     0.059 C 
ATOM     15  S   UNL A   1      33.966  22.326  24.311  1.00  0.00    -0.114 SA
ATOM     16  C   UNL A   1      35.904  23.672  25.500  1.00  0.00    -0.033 A 
ATOM     17  C   UNL A   1      35.639  22.470  24.844  1.00  0.00     0.011 A 
ATOM     18  C   UNL A   1      37.167  23.908  26.036  1.00  0.00     0.005 A 
ATOM     19  C   UNL A   1      36.623  21.507  24.679  1.00  0.00     0.015 A 
ATOM     20  C   UNL A   1      38.160  22.936  25.891  1.00  0.00     0.000 A 
ATOM     21  C   UNL A   1      37.892  21.746  25.206  1.00  0.00     0.001 A 
ENDBRANCH  10  13
ENDBRANCH   7   8
ENDBRANCH   5   7
ENDBRANCH   2   3
ENDBRANCH   1   2
BRANCH   1  22
ATOM     22  C   UNL A   1      34.212  30.043  27.061  1.00  0.00     0.118 C 
BRANCH  22  23
ATOM     23  N   UNL A   1      34.169  31.023  28.127  1.00  0.00    -0.352 N 
ATOM     24  C   UNL A   1      35.058  31.498  29.053  1.00  0.00     0.251 C 
ATOM     25  H   UNL A   1      33.286  31.451  28.204  1.00  0.00     0.163 HD
ATOM     26  O   UNL A   1      34.688  32.478  29.694  1.00  0.00    -0.269 OA
BRANCH  24  27
ATOM     27  C   UNL A   1      36.380  30.892  29.374  1.00  0.00     0.039 A 
ATOM     28  C   UNL A   1      37.624  31.502  29.218  1.00  0.00     0.014 A 
ATOM     29  C   UNL A   1      36.343  29.557  29.823  1.00  0.00     0.014 A 
ATOM     30  C   UNL A   1      38.800  30.776  29.409  1.00  0.00     0.010 A 
ATOM     31  C   UNL A   1      37.510  28.832  30.032  1.00  0.00     0.010 A 
ATOM     32  C   UNL A   1      38.741  29.429  29.776  1.00  0.00    -0.014 A 
BRANCH  32  33
ATOM     33  C   UNL A   1      39.994  28.684  29.896  1.00  0.00     0.031 A 
ATOM     34  C   UNL A   1      40.574  28.538  31.265  1.00  0.00     0.074 A 
ATOM     35  C   UNL A   1      40.534  28.018  28.854  1.00  0.00     0.049 A 
ATOM     36  N   UNL A   1      41.782  28.788  31.670  1.00  0.00    -0.248 NA
ATOM     37  C   UNL A   1      39.676  28.062  32.329  1.00  0.00     0.031 C 
ATOM     38  C   UNL A   1      39.947  27.796  27.531  1.00  0.00     0.029 A 
ATOM     39  N   UNL A   1      41.692  27.298  28.807  1.00  0.00    -0.354 N 
ATOM     40  C   UNL A   1      41.837  28.380  33.003  1.00  0.00     0.074 A 
ATOM     41  C   UNL A   1      40.496  28.009  33.378  1.00  0.00     0.031 C 
ATOM     42  C   UNL A   1      40.643  26.829  26.893  1.00  0.00     0.029 A 
ATOM     43  C   UNL A   1      41.789  26.460  27.707  1.00  0.00     0.049 A 
ATOM     44  H   UNL A   1      42.396  27.368  29.493  1.00  0.00     0.167 HD
ATOM     45  C   UNL A   1      43.006  28.225  33.686  1.00  0.00     0.037 A 
ATOM     46  C   UNL A   1      42.702  25.478  27.516  1.00  0.00     0.037 A 
ATOM     47  C   UNL A   1      44.098  28.923  33.075  1.00  0.00     0.049 A 
ATOM     48  C   UNL A   1      43.846  25.735  28.423  1.00  0.00     0.074 A 
ATOM     49  C   UNL A   1      44.393  30.250  32.835  1.00  0.00     0.029 A 
ATOM     50  N   UNL A   1      45.009  28.206  32.343  1.00  0.00    -0.354 N 
ATOM     51  N   UNL A   1      44.694  26.715  28.289  1.00  0.00    -0.248 NA
ATOM     52  C   UNL A   1      43.850  25.078  29.721  1.00  0.00     0.031 C 
ATOM     53  C   UNL A   1      45.134  30.253  31.618  1.00  0.00     0.029 A 
ATOM     54  C   UNL A   1      45.253  28.927  31.203  1.00  0.00     0.049 A 
ATOM     55  H   UNL A   1      45.410  27.341  32.589  1.00  0.00     0.167 HD
ATOM     56  C   UNL A   1      45.042  27.059  29.585  1.00  0.00     0.074 A 
ATOM     57  C   UNL A   1      44.592  25.944  30.410  1.00  0.00     0.031 C 
ATOM     58  C   UNL A   1      45.413  28.333  29.897  1.00  0.00     0.037 A 
BRANCH  45  59
ATOM     59  C   UNL A   1      43.212  27.224  34.790  1.00  0.00     0.064 A 
ATOM     60  C   UNL A   1      43.451  27.654  36.110  1.00  0.00     0.173 A 
ATOM     61  C   UNL A   1      43.445  25.856  34.538  1.00  0.00     0.173 A 
ATOM     62  F   UNL A   1      43.304  28.944  36.445  1.00  0.00    -0.203 F 
ATOM     63  C   UNL A   1      43.918  26.780  37.097  1.00  0.00     0.198 A 
ATOM     64  C   UNL A   1      43.863  24.976  35.535  1.00  0.00     0.198 A 
ATOM     65  F   UNL A   1      43.374  25.353  33.298  1.00  0.00    -0.203 F 
ATOM     66  F   UNL A   1      44.225  27.249  38.313  1.00  0.00    -0.200 F 
ATOM     67  C   UNL A   1      44.120  25.441  36.809  1.00  0.00     0.200 A 
ATOM     68  F   UNL A   1      44.078  23.688  35.232  1.00  0.00    -0.200 F 
ATOM     69  F   UNL A   1      44.608  24.611  37.741  1.00  0.00    -0.200 F 
ENDBRANCH  45  59
BRANCH  46  70
ATOM     70  C   UNL A   1      42.532  24.186  26.812  1.00  0.00     0.064 A 
ATOM     71  C   UNL A   1      43.456  23.767  25.840  1.00  0.00     0.173 A 
ATOM     72  C   UNL A   1      41.623  23.215  27.272  1.00  0.00     0.173 A 
ATOM     73  F   UNL A   1      44.385  24.618  25.380  1.00  0.00    -0.203 F 
ATOM     74  C   UNL A   1      43.485  22.448  25.379  1.00  0.00     0.198 A 
ATOM     75  C   UNL A   1      41.644  21.902  26.801  1.00  0.00     0.198 A 
ATOM     76  F   UNL A   1      40.758  23.491  28.259  1.00  0.00    -0.203 F 
ATOM     77  F   UNL A   1      44.425  22.068  24.503  1.00  0.00    -0.200 F 
ATOM     78  C   UNL A   1      42.586  21.515  25.866  1.00  0.00     0.200 A 
ATOM     79  F   UNL A   1      40.790  21.000  27.307  1.00  0.00    -0.200 F 
ATOM     80  F   UNL A   1      42.654  20.236  25.472  1.00  0.00    -0.200 F 
ENDBRANCH  46  70
BRANCH  58  81
ATOM     81  C   UNL A   1      45.721  29.266  28.762  1.00  0.00     0.064 A 
ATOM     82  C   UNL A   1      44.741  30.015  28.088  1.00  0.00     0.173 A 
ATOM     83  C   UNL A   1      47.062  29.524  28.450  1.00  0.00     0.173 A 
ATOM     84  F   UNL A   1      43.447  29.902  28.409  1.00  0.00    -0.203 F 
ATOM     85  C   UNL A   1      45.090  30.944  27.110  1.00  0.00     0.198 A 
ATOM     86  C   UNL A   1      47.409  30.480  27.498  1.00  0.00     0.198 A 
ATOM     87  F   UNL A   1      48.041  28.883  29.108  1.00  0.00    -0.203 F 
ATOM     88  F   UNL A   1      44.137  31.640  26.473  1.00  0.00    -0.200 F 
ATOM     89  C   UNL A   1      46.424  31.181  26.821  1.00  0.00     0.200 A 
ATOM     90  F   UNL A   1      48.702  30.744  27.260  1.00  0.00    -0.200 F 
ATOM     91  F   UNL A   1      46.762  32.108  25.914  1.00  0.00    -0.200 F 
ENDBRANCH  58  81
ENDBRANCH  32  33
ENDBRANCH  24  27
ENDBRANCH  22  23
ENDBRANCH   1  22
TORSDOF 12
ENDMDL
