MODEL 1
REMARK VINA RESULT:     -12.8      0.000      0.000
REMARK SMILES O=C(NCCCNC(=O)c1csc([C@H]2CCCc3cccnc32)c1)c1ccc(-c2c3nc(c(-c4c(F)c(F)c(F)c(F)c4F)c4ccc([nH]4)c(-c4c(F)c(F)c(F)c(F)c4F)c4nc(c(-c5c(F)c(F)c(F)c(F)c5F)c5ccc2[nH]5)C=C4)C=C3)cc1
REMARK SMILES IDX 4 1 3 2 1 3 2 4 25 6 26 7 87 8 27 9 86 10 28 11 29 12 30 13
REMARK SMILES IDX 80 14 31 15 85 16 79 17 81 18 32 19 84 20 78 21 77 22 33 24
REMARK SMILES IDX 65 25 45 26 64 27 46 28 49 29 63 30 82 31 47 32 48 33 62 35
REMARK SMILES IDX 83 36 50 37 34 38 35 39 43 40 36 41 37 42 41 43 44 44 38 45
REMARK SMILES IDX 39 46 42 47 40 48 66 49 67 50 75 51 68 52 69 53 73 54 76 55
REMARK SMILES IDX 70 56 71 57 74 58 72 59 51 60 52 61 60 62 53 63 54 64 58 65
REMARK SMILES IDX 61 66 55 67 56 68 59 69 57 70 5 71 6 72 7 73 8 74 9 76 10 77
REMARK SMILES IDX 11 78 24 79 12 80 13 81 14 82 15 83 23 84 16 85 18 86 22 87
REMARK SMILES IDX 17 88 19 89 21 90 20 91
REMARK H PARENT 3 5 81 23 49 34 7 75
REMARK Flexibility Score: inf
ROOT
ATOM      1  C   UNL A   1      33.042  29.233  25.337  1.00  0.00     0.118 C 
ENDROOT
BRANCH   1   2
ATOM      2  N   UNL A   1      32.661  30.540  25.852  1.00  0.00    -0.352 N 
ATOM      3  O   UNL A   1      32.537  32.283  27.252  1.00  0.00    -0.269 OA
ATOM      4  C   UNL A   1      33.167  31.296  26.877  1.00  0.00     0.251 C 
ATOM      5  H   UNL A   1      31.905  30.956  25.377  1.00  0.00     0.163 HD
BRANCH   4   6
ATOM      6  C   UNL A   1      34.443  30.958  27.548  1.00  0.00     0.039 A 
ATOM      7  C   UNL A   1      35.442  31.910  27.761  1.00  0.00     0.014 A 
ATOM      8  C   UNL A   1      34.590  29.670  28.082  1.00  0.00     0.014 A 
ATOM      9  C   UNL A   1      36.620  31.551  28.420  1.00  0.00     0.010 A 
ATOM     10  C   UNL A   1      35.748  29.324  28.785  1.00  0.00     0.010 A 
ATOM     11  C   UNL A   1      36.782  30.257  28.941  1.00  0.00    -0.014 A 
BRANCH  11  12
ATOM     12  C   UNL A   1      38.018  29.907  29.682  1.00  0.00     0.031 A 
ATOM     13  C   UNL A   1      38.249  30.417  31.076  1.00  0.00     0.074 A 
ATOM     14  C   UNL A   1      38.935  29.114  29.099  1.00  0.00     0.049 A 
ATOM     15  N   UNL A   1      39.253  30.184  31.884  1.00  0.00    -0.248 NA
ATOM     16  C   UNL A   1      37.222  31.309  31.634  1.00  0.00     0.031 C 
ATOM     17  C   UNL A   1      38.846  28.578  27.741  1.00  0.00     0.029 A 
ATOM     18  N   UNL A   1      40.117  28.609  29.581  1.00  0.00    -0.354 N 
ATOM     19  C   UNL A   1      38.992  30.914  33.034  1.00  0.00     0.074 A 
ATOM     20  C   UNL A   1      37.737  31.606  32.819  1.00  0.00     0.031 C 
ATOM     21  C   UNL A   1      39.907  27.787  27.511  1.00  0.00     0.029 A 
ATOM     22  C   UNL A   1      40.758  27.779  28.698  1.00  0.00     0.049 A 
ATOM     23  H   UNL A   1      40.470  28.822  30.476  1.00  0.00     0.167 HD
ATOM     24  C   UNL A   1      39.727  30.995  34.168  1.00  0.00     0.037 A 
ATOM     25  C   UNL A   1      41.902  27.081  28.831  1.00  0.00     0.037 A 
ATOM     26  C   UNL A   1      40.957  30.288  34.403  1.00  0.00     0.049 A 
ATOM     27  C   UNL A   1      42.677  27.158  30.112  1.00  0.00     0.074 A 
ATOM     28  C   UNL A   1      41.747  30.282  35.541  1.00  0.00     0.029 A 
ATOM     29  N   UNL A   1      41.574  29.455  33.483  1.00  0.00    -0.354 N 
ATOM     30  N   UNL A   1      42.403  27.832  31.202  1.00  0.00    -0.248 NA
ATOM     31  C   UNL A   1      43.922  26.379  30.180  1.00  0.00     0.031 C 
ATOM     32  C   UNL A   1      42.852  29.453  35.303  1.00  0.00     0.029 A 
ATOM     33  C   UNL A   1      42.739  28.935  34.024  1.00  0.00     0.049 A 
ATOM     34  H   UNL A   1      41.235  29.262  32.580  1.00  0.00     0.167 HD
ATOM     35  C   UNL A   1      43.438  27.560  32.084  1.00  0.00     0.074 A 
ATOM     36  C   UNL A   1      44.339  26.648  31.411  1.00  0.00     0.031 C 
ATOM     37  C   UNL A   1      43.625  28.033  33.340  1.00  0.00     0.037 A 
BRANCH  24  38
ATOM     38  C   UNL A   1      39.216  31.892  35.251  1.00  0.00     0.064 A 
ATOM     39  C   UNL A   1      38.467  31.383  36.322  1.00  0.00     0.173 A 
ATOM     40  C   UNL A   1      39.511  33.261  35.237  1.00  0.00     0.173 A 
ATOM     41  F   UNL A   1      38.152  30.080  36.367  1.00  0.00    -0.203 F 
ATOM     42  C   UNL A   1      38.021  32.221  37.339  1.00  0.00     0.198 A 
ATOM     43  C   UNL A   1      39.072  34.095  36.261  1.00  0.00     0.198 A 
ATOM     44  F   UNL A   1      40.224  33.789  34.230  1.00  0.00    -0.203 F 
ATOM     45  F   UNL A   1      37.288  31.723  38.344  1.00  0.00    -0.200 F 
ATOM     46  C   UNL A   1      38.327  33.575  37.310  1.00  0.00     0.200 A 
ATOM     47  F   UNL A   1      39.368  35.402  36.234  1.00  0.00    -0.200 F 
ATOM     48  F   UNL A   1      37.897  34.381  38.291  1.00  0.00    -0.200 F 
ENDBRANCH  24  38
BRANCH  25  49
ATOM     49  C   UNL A   1      42.360  26.221  27.716  1.00  0.00     0.064 A 
ATOM     50  C   UNL A   1      41.816  24.943  27.534  1.00  0.00     0.173 A 
ATOM     51  C   UNL A   1      43.325  26.668  26.803  1.00  0.00     0.173 A 
ATOM     52  F   UNL A   1      40.904  24.473  28.397  1.00  0.00    -0.203 F 
ATOM     53  C   UNL A   1      42.222  24.139  26.472  1.00  0.00     0.198 A 
ATOM     54  C   UNL A   1      43.721  25.868  25.735  1.00  0.00     0.198 A 
ATOM     55  F   UNL A   1      43.870  27.884  26.946  1.00  0.00    -0.203 F 
ATOM     56  F   UNL A   1      41.699  22.915  26.323  1.00  0.00    -0.200 F 
ATOM     57  C   UNL A   1      43.170  24.605  25.572  1.00  0.00     0.200 A 
ATOM     58  F   UNL A   1      44.633  26.320  24.864  1.00  0.00    -0.200 F 
ATOM     59  F   UNL A   1      43.556  23.833  24.546  1.00  0.00    -0.200 F 
ENDBRANCH  25  49
BRANCH  37  60
ATOM     60  C   UNL A   1      44.851  27.575  34.062  1.00  0.00     0.064 A 
ATOM     61  C   UNL A   1      46.044  28.309  33.994  1.00  0.00     0.173 A 
ATOM     62  C   UNL A   1      44.826  26.416  34.851  1.00  0.00     0.173 A 
ATOM     63  F   UNL A   1      46.114  29.415  33.239  1.00  0.00    -0.203 F 
ATOM     64  C   UNL A   1      47.176  27.892  34.689  1.00  0.00     0.198 A 
ATOM     65  C   UNL A   1      45.957  26.008  35.552  1.00  0.00     0.198 A 
ATOM     66  F   UNL A   1      43.706  25.683  34.940  1.00  0.00    -0.203 F 
ATOM     67  F   UNL A   1      48.314  28.594  34.595  1.00  0.00    -0.200 F 
ATOM     68  C   UNL A   1      47.131  26.745  35.468  1.00  0.00     0.200 A 
ATOM     69  F   UNL A   1      45.915  24.899  36.303  1.00  0.00    -0.200 F 
ATOM     70  F   UNL A   1      48.222  26.344  36.135  1.00  0.00    -0.200 F 
ENDBRANCH  37  60
ENDBRANCH  11  12
ENDBRANCH   4   6
ENDBRANCH   1   2
BRANCH   1  71
ATOM     71  C   UNL A   1      32.841  29.114  23.826  1.00  0.00     0.042 C 
BRANCH  71  72
ATOM     72  C   UNL A   1      34.043  28.559  23.063  1.00  0.00     0.118 C 
BRANCH  72  73
ATOM     73  N   UNL A   1      33.659  27.645  22.000  1.00  0.00    -0.352 N 
ATOM     74  C   UNL A   1      33.280  26.327  22.036  1.00  0.00     0.252 C 
ATOM     75  H   UNL A   1      33.674  28.040  21.099  1.00  0.00     0.163 HD
ATOM     76  O   UNL A   1      33.277  25.705  20.974  1.00  0.00    -0.269 OA
BRANCH  74  77
ATOM     77  C   UNL A   1      32.917  25.684  23.294  1.00  0.00     0.050 A 
ATOM     78  C   UNL A   1      31.672  25.716  23.889  1.00  0.00     0.079 A 
ATOM     79  C   UNL A   1      33.785  24.799  24.025  1.00  0.00     0.030 A 
ATOM     80  S   UNL A   1      31.614  24.865  25.367  1.00  0.00    -0.147 S 
ATOM     81  C   UNL A   1      33.209  24.258  25.162  1.00  0.00     0.014 A 
BRANCH  81  82
ATOM     82  C   UNL A   1      33.791  23.279  26.182  1.00  0.00     0.079 C 
ATOM     83  C   UNL A   1      32.875  22.055  26.397  1.00  0.00     0.016 C 
ATOM     84  C   UNL A   1      35.201  22.819  25.826  1.00  0.00     0.052 A 
ATOM     85  C   UNL A   1      32.926  21.117  25.194  1.00  0.00     0.006 C 
ATOM     86  C   UNL A   1      35.429  21.572  25.228  1.00  0.00    -0.026 A 
ATOM     87  N   UNL A   1      36.208  23.696  26.089  1.00  0.00    -0.260 NA
ATOM     88  C   UNL A   1      34.334  20.563  25.002  1.00  0.00     0.037 C 
ATOM     89  C   UNL A   1      36.747  21.233  24.895  1.00  0.00     0.007 A 
ATOM     90  C   UNL A   1      37.462  23.331  25.750  1.00  0.00     0.111 A 
ATOM     91  C   UNL A   1      37.779  22.125  25.154  1.00  0.00     0.020 A 
ENDBRANCH  81  82
ENDBRANCH  74  77
ENDBRANCH  72  73
ENDBRANCH  71  72
ENDBRANCH   1  71
TORSDOF 11
ENDMDL
MODEL 2
REMARK VINA RESULT:     -12.7      2.815      4.510
REMARK SMILES O=C(NCCCNC(=O)c1csc([C@H]2CCCc3cccnc32)c1)c1ccc(-c2c3nc(c(-c4c(F)c(F)c(F)c(F)c4F)c4ccc([nH]4)c(-c4c(F)c(F)c(F)c(F)c4F)c4nc(c(-c5c(F)c(F)c(F)c(F)c5F)c5ccc2[nH]5)C=C4)C=C3)cc1
REMARK SMILES IDX 4 1 3 2 1 3 2 4 25 6 26 7 87 8 27 9 86 10 28 11 29 12 30 13
REMARK SMILES IDX 80 14 31 15 85 16 79 17 81 18 32 19 84 20 78 21 77 22 33 24
REMARK SMILES IDX 65 25 45 26 64 27 46 28 49 29 63 30 82 31 47 32 48 33 62 35
REMARK SMILES IDX 83 36 50 37 34 38 35 39 43 40 36 41 37 42 41 43 44 44 38 45
REMARK SMILES IDX 39 46 42 47 40 48 66 49 67 50 75 51 68 52 69 53 73 54 76 55
REMARK SMILES IDX 70 56 71 57 74 58 72 59 51 60 52 61 60 62 53 63 54 64 58 65
REMARK SMILES IDX 61 66 55 67 56 68 59 69 57 70 5 71 6 72 7 73 8 74 9 76 10 77
REMARK SMILES IDX 11 78 24 79 12 80 13 81 14 82 15 83 23 84 16 85 18 86 22 87
REMARK SMILES IDX 17 88 19 89 21 90 20 91
REMARK H PARENT 3 5 81 23 49 34 7 75
REMARK Flexibility Score: inf
ROOT
ATOM      1  C   UNL A   1      32.687  33.027  26.948  1.00  0.00     0.118 C 
ENDROOT
BRANCH   1   2
ATOM      2  N   UNL A   1      32.514  34.303  27.626  1.00  0.00    -0.352 N 
ATOM      3  O   UNL A   1      32.618  35.843  29.249  1.00  0.00    -0.269 OA
ATOM      4  C   UNL A   1      33.085  34.815  28.762  1.00  0.00     0.251 C 
ATOM      5  H   UNL A   1      31.871  34.907  27.189  1.00  0.00     0.163 HD
BRANCH   4   6
ATOM      6  C   UNL A   1      34.241  34.166  29.421  1.00  0.00     0.039 A 
ATOM      7  C   UNL A   1      34.080  33.172  30.390  1.00  0.00     0.014 A 
ATOM      8  C   UNL A   1      35.528  34.486  28.967  1.00  0.00     0.014 A 
ATOM      9  C   UNL A   1      35.199  32.570  30.968  1.00  0.00     0.010 A 
ATOM     10  C   UNL A   1      36.648  33.848  29.510  1.00  0.00     0.010 A 
ATOM     11  C   UNL A   1      36.493  32.900  30.530  1.00  0.00    -0.014 A 
BRANCH  11  12
ATOM     12  C   UNL A   1      37.669  32.215  31.119  1.00  0.00     0.031 A 
ATOM     13  C   UNL A   1      38.118  32.523  32.518  1.00  0.00     0.074 A 
ATOM     14  C   UNL A   1      38.332  31.298  30.390  1.00  0.00     0.049 A 
ATOM     15  N   UNL A   1      39.102  31.996  33.204  1.00  0.00    -0.248 NA
ATOM     16  C   UNL A   1      37.371  33.562  33.241  1.00  0.00     0.031 C 
ATOM     17  C   UNL A   1      38.017  30.929  29.010  1.00  0.00     0.029 A 
ATOM     18  N   UNL A   1      39.401  30.500  30.714  1.00  0.00    -0.354 N 
ATOM     19  C   UNL A   1      39.105  32.650  34.427  1.00  0.00     0.074 A 
ATOM     20  C   UNL A   1      38.030  33.621  34.389  1.00  0.00     0.031 C 
ATOM     21  C   UNL A   1      38.847  29.949  28.617  1.00  0.00     0.029 A 
ATOM     22  C   UNL A   1      39.764  29.638  29.711  1.00  0.00     0.049 A 
ATOM     23  H   UNL A   1      39.861  30.542  31.584  1.00  0.00     0.167 HD
ATOM     24  C   UNL A   1      39.925  32.456  35.487  1.00  0.00     0.037 A 
ATOM     25  C   UNL A   1      40.724  28.694  29.678  1.00  0.00     0.037 A 
ATOM     26  C   UNL A   1      40.975  31.476  35.546  1.00  0.00     0.049 A 
ATOM     27  C   UNL A   1      41.593  28.473  30.880  1.00  0.00     0.074 A 
ATOM     28  C   UNL A   1      41.828  31.184  36.597  1.00  0.00     0.029 A 
ATOM     29  N   UNL A   1      41.310  30.620  34.509  1.00  0.00    -0.354 N 
ATOM     30  N   UNL A   1      41.566  29.081  32.039  1.00  0.00    -0.248 NA
ATOM     31  C   UNL A   1      42.627  27.435  30.766  1.00  0.00     0.031 C 
ATOM     32  C   UNL A   1      42.691  30.158  36.190  1.00  0.00     0.029 A 
ATOM     33  C   UNL A   1      42.364  29.805  34.892  1.00  0.00     0.049 A 
ATOM     34  H   UNL A   1      40.867  30.594  33.631  1.00  0.00     0.167 HD
ATOM     35  C   UNL A   1      42.576  28.503  32.793  1.00  0.00     0.074 A 
ATOM     36  C   UNL A   1      43.189  27.484  31.968  1.00  0.00     0.031 C 
ATOM     37  C   UNL A   1      42.964  28.799  34.057  1.00  0.00     0.037 A 
BRANCH  24  38
ATOM     38  C   UNL A   1      39.718  33.335  36.680  1.00  0.00     0.064 A 
ATOM     39  C   UNL A   1      40.407  34.548  36.816  1.00  0.00     0.173 A 
ATOM     40  C   UNL A   1      38.796  32.978  37.673  1.00  0.00     0.173 A 
ATOM     41  F   UNL A   1      41.309  34.920  35.895  1.00  0.00    -0.203 F 
ATOM     42  C   UNL A   1      40.187  35.372  37.916  1.00  0.00     0.198 A 
ATOM     43  C   UNL A   1      38.569  33.809  38.766  1.00  0.00     0.198 A 
ATOM     44  F   UNL A   1      38.116  31.826  37.582  1.00  0.00    -0.203 F 
ATOM     45  F   UNL A   1      40.870  36.518  38.042  1.00  0.00    -0.200 F 
ATOM     46  C   UNL A   1      39.265  35.004  38.887  1.00  0.00     0.200 A 
ATOM     47  F   UNL A   1      37.679  33.455  39.704  1.00  0.00    -0.200 F 
ATOM     48  F   UNL A   1      39.053  35.799  39.945  1.00  0.00    -0.200 F 
ENDBRANCH  24  38
BRANCH  25  49
ATOM     49  C   UNL A   1      40.885  27.866  28.461  1.00  0.00     0.064 A 
ATOM     50  C   UNL A   1      40.192  26.655  28.328  1.00  0.00     0.173 A 
ATOM     51  C   UNL A   1      41.706  28.280  27.405  1.00  0.00     0.173 A 
ATOM     52  F   UNL A   1      39.411  26.217  29.325  1.00  0.00    -0.203 F 
ATOM     53  C   UNL A   1      40.317  25.885  27.176  1.00  0.00     0.198 A 
ATOM     54  C   UNL A   1      41.821  27.514  26.248  1.00  0.00     0.198 A 
ATOM     55  F   UNL A   1      42.386  29.432  27.496  1.00  0.00    -0.203 F 
ATOM     56  F   UNL A   1      39.658  24.723  27.073  1.00  0.00    -0.200 F 
ATOM     57  C   UNL A   1      41.127  26.317  26.135  1.00  0.00     0.200 A 
ATOM     58  F   UNL A   1      42.601  27.935  25.243  1.00  0.00    -0.200 F 
ATOM     59  F   UNL A   1      41.243  25.578  25.023  1.00  0.00    -0.200 F 
ENDBRANCH  25  49
BRANCH  37  60
ATOM     60  C   UNL A   1      44.104  28.013  34.619  1.00  0.00     0.064 A 
ATOM     61  C   UNL A   1      43.882  26.813  35.310  1.00  0.00     0.173 A 
ATOM     62  C   UNL A   1      45.427  28.441  34.438  1.00  0.00     0.173 A 
ATOM     63  F   UNL A   1      42.631  26.376  35.516  1.00  0.00    -0.203 F 
ATOM     64  C   UNL A   1      44.948  26.071  35.809  1.00  0.00     0.198 A 
ATOM     65  C   UNL A   1      46.491  27.692  34.930  1.00  0.00     0.198 A 
ATOM     66  F   UNL A   1      45.683  29.585  33.786  1.00  0.00    -0.203 F 
ATOM     67  F   UNL A   1      44.716  24.938  36.486  1.00  0.00    -0.200 F 
ATOM     68  C   UNL A   1      46.251  26.509  35.617  1.00  0.00     0.200 A 
ATOM     69  F   UNL A   1      47.749  28.115  34.747  1.00  0.00    -0.200 F 
ATOM     70  F   UNL A   1      47.276  25.795  36.100  1.00  0.00    -0.200 F 
ENDBRANCH  37  60
ENDBRANCH  11  12
ENDBRANCH   4   6
ENDBRANCH   1   2
BRANCH   1  71
ATOM     71  C   UNL A   1      31.357  32.346  26.624  1.00  0.00     0.042 C 
BRANCH  71  72
ATOM     72  C   UNL A   1      31.414  30.819  26.585  1.00  0.00     0.118 C 
BRANCH  72  73
ATOM     73  N   UNL A   1      32.687  30.294  27.047  1.00  0.00    -0.352 N 
ATOM     74  C   UNL A   1      33.510  29.330  26.519  1.00  0.00     0.252 C 
ATOM     75  H   UNL A   1      33.016  30.697  27.882  1.00  0.00     0.163 HD
ATOM     76  O   UNL A   1      34.391  28.871  27.247  1.00  0.00    -0.269 OA
BRANCH  74  77
ATOM     77  C   UNL A   1      33.330  28.855  25.152  1.00  0.00     0.050 A 
ATOM     78  C   UNL A   1      34.339  28.578  24.252  1.00  0.00     0.079 A 
ATOM     79  C   UNL A   1      32.059  28.472  24.594  1.00  0.00     0.030 A 
ATOM     80  S   UNL A   1      33.758  28.057  22.735  1.00  0.00    -0.147 S 
ATOM     81  C   UNL A   1      32.135  27.996  23.296  1.00  0.00     0.014 A 
BRANCH  81  82
ATOM     82  C   UNL A   1      31.027  27.484  22.376  1.00  0.00     0.079 C 
ATOM     83  C   UNL A   1      30.625  26.031  22.708  1.00  0.00     0.016 C 
ATOM     84  C   UNL A   1      29.793  28.380  22.378  1.00  0.00     0.052 A 
ATOM     85  C   UNL A   1      29.826  25.969  24.007  1.00  0.00     0.006 C 
ATOM     86  C   UNL A   1      28.655  28.049  23.126  1.00  0.00    -0.026 A 
ATOM     87  N   UNL A   1      29.876  29.525  21.647  1.00  0.00    -0.260 NA
ATOM     88  C   UNL A   1      28.522  26.750  23.876  1.00  0.00     0.037 C 
ATOM     89  C   UNL A   1      27.574  28.939  23.108  1.00  0.00     0.007 A 
ATOM     90  C   UNL A   1      28.812  30.357  21.660  1.00  0.00     0.111 A 
ATOM     91  C   UNL A   1      27.653  30.112  22.370  1.00  0.00     0.020 A 
ENDBRANCH  81  82
ENDBRANCH  74  77
ENDBRANCH  72  73
ENDBRANCH  71  72
ENDBRANCH   1  71
TORSDOF 11
ENDMDL
MODEL 3
REMARK VINA RESULT:     -12.6      2.839      4.278
REMARK SMILES O=C(NCCCNC(=O)c1csc([C@H]2CCCc3cccnc32)c1)c1ccc(-c2c3nc(c(-c4c(F)c(F)c(F)c(F)c4F)c4ccc([nH]4)c(-c4c(F)c(F)c(F)c(F)c4F)c4nc(c(-c5c(F)c(F)c(F)c(F)c5F)c5ccc2[nH]5)C=C4)C=C3)cc1
REMARK SMILES IDX 4 1 3 2 1 3 2 4 25 6 26 7 87 8 27 9 86 10 28 11 29 12 30 13
REMARK SMILES IDX 80 14 31 15 85 16 79 17 81 18 32 19 84 20 78 21 77 22 33 24
REMARK SMILES IDX 65 25 45 26 64 27 46 28 49 29 63 30 82 31 47 32 48 33 62 35
REMARK SMILES IDX 83 36 50 37 34 38 35 39 43 40 36 41 37 42 41 43 44 44 38 45
REMARK SMILES IDX 39 46 42 47 40 48 66 49 67 50 75 51 68 52 69 53 73 54 76 55
REMARK SMILES IDX 70 56 71 57 74 58 72 59 51 60 52 61 60 62 53 63 54 64 58 65
REMARK SMILES IDX 61 66 55 67 56 68 59 69 57 70 5 71 6 72 7 73 8 74 9 76 10 77
REMARK SMILES IDX 11 78 24 79 12 80 13 81 14 82 15 83 23 84 16 85 18 86 22 87
REMARK SMILES IDX 17 88 19 89 21 90 20 91
REMARK H PARENT 3 5 81 23 49 34 7 75
REMARK Flexibility Score: inf
ROOT
ATOM      1  C   UNL A   1      32.706  33.005  26.964  1.00  0.00     0.118 C 
ENDROOT
BRANCH   1   2
ATOM      2  N   UNL A   1      32.507  34.286  27.626  1.00  0.00    -0.352 N 
ATOM      3  O   UNL A   1      32.570  35.843  29.235  1.00  0.00    -0.269 OA
ATOM      4  C   UNL A   1      33.055  34.815  28.765  1.00  0.00     0.251 C 
ATOM      5  H   UNL A   1      31.864  34.878  27.173  1.00  0.00     0.163 HD
BRANCH   4   6
ATOM      6  C   UNL A   1      34.209  34.186  29.448  1.00  0.00     0.039 A 
ATOM      7  C   UNL A   1      34.044  33.208  30.431  1.00  0.00     0.014 A 
ATOM      8  C   UNL A   1      35.499  34.508  29.003  1.00  0.00     0.014 A 
ATOM      9  C   UNL A   1      35.162  32.624  31.032  1.00  0.00     0.010 A 
ATOM     10  C   UNL A   1      36.617  33.889  29.569  1.00  0.00     0.010 A 
ATOM     11  C   UNL A   1      36.457  32.956  30.604  1.00  0.00    -0.014 A 
BRANCH  11  12
ATOM     12  C   UNL A   1      37.632  32.290  31.217  1.00  0.00     0.031 A 
ATOM     13  C   UNL A   1      38.069  32.633  32.612  1.00  0.00     0.074 A 
ATOM     14  C   UNL A   1      38.304  31.359  30.514  1.00  0.00     0.049 A 
ATOM     15  N   UNL A   1      39.050  32.126  33.317  1.00  0.00    -0.248 NA
ATOM     16  C   UNL A   1      37.312  33.685  33.304  1.00  0.00     0.031 C 
ATOM     17  C   UNL A   1      38.001  30.957  29.141  1.00  0.00     0.029 A 
ATOM     18  N   UNL A   1      39.373  30.573  30.865  1.00  0.00    -0.354 N 
ATOM     19  C   UNL A   1      39.041  32.809  34.524  1.00  0.00     0.074 A 
ATOM     20  C   UNL A   1      37.962  33.773  34.456  1.00  0.00     0.031 C 
ATOM     21  C   UNL A   1      38.838  29.971  28.777  1.00  0.00     0.029 A 
ATOM     22  C   UNL A   1      39.748  29.690  29.885  1.00  0.00     0.049 A 
ATOM     23  H   UNL A   1      39.827  30.638  31.736  1.00  0.00     0.167 HD
ATOM     24  C   UNL A   1      39.854  32.643  35.595  1.00  0.00     0.037 A 
ATOM     25  C   UNL A   1      40.712  28.750  29.881  1.00  0.00     0.037 A 
ATOM     26  C   UNL A   1      40.907  31.668  35.684  1.00  0.00     0.049 A 
ATOM     27  C   UNL A   1      41.573  28.560  31.094  1.00  0.00     0.074 A 
ATOM     28  C   UNL A   1      41.754  31.405  36.748  1.00  0.00     0.029 A 
ATOM     29  N   UNL A   1      41.254  30.790  34.670  1.00  0.00    -0.354 N 
ATOM     30  N   UNL A   1      41.535  29.195  32.239  1.00  0.00    -0.248 NA
ATOM     31  C   UNL A   1      42.612  27.524  31.012  1.00  0.00     0.031 C 
ATOM     32  C   UNL A   1      42.624  30.373  36.371  1.00  0.00     0.029 A 
ATOM     33  C   UNL A   1      42.308  29.988  35.080  1.00  0.00     0.049 A 
ATOM     34  H   UNL A   1      40.817  30.742  33.789  1.00  0.00     0.167 HD
ATOM     35  C   UNL A   1      42.542  28.639  33.014  1.00  0.00     0.074 A 
ATOM     36  C   UNL A   1      43.165  27.604  32.216  1.00  0.00     0.031 C 
ATOM     37  C   UNL A   1      42.918  28.966  34.273  1.00  0.00     0.037 A 
BRANCH  24  38
ATOM     38  C   UNL A   1      39.635  33.548  36.765  1.00  0.00     0.064 A 
ATOM     39  C   UNL A   1      38.785  33.180  37.818  1.00  0.00     0.173 A 
ATOM     40  C   UNL A   1      40.310  34.773  36.852  1.00  0.00     0.173 A 
ATOM     41  F   UNL A   1      38.110  32.022  37.768  1.00  0.00    -0.203 F 
ATOM     42  C   UNL A   1      38.611  34.017  38.917  1.00  0.00     0.198 A 
ATOM     43  C   UNL A   1      40.142  35.602  37.956  1.00  0.00     0.198 A 
ATOM     44  F   UNL A   1      41.132  35.163  35.866  1.00  0.00    -0.203 F 
ATOM     45  F   UNL A   1      37.778  33.660  39.904  1.00  0.00    -0.200 F 
ATOM     46  C   UNL A   1      39.292  35.225  38.987  1.00  0.00     0.200 A 
ATOM     47  F   UNL A   1      40.800  36.768  38.025  1.00  0.00    -0.200 F 
ATOM     48  F   UNL A   1      39.123  36.029  40.045  1.00  0.00    -0.200 F 
ENDBRANCH  24  38
BRANCH  25  49
ATOM     49  C   UNL A   1      40.885  27.894  28.685  1.00  0.00     0.064 A 
ATOM     50  C   UNL A   1      40.135  26.720  28.536  1.00  0.00     0.173 A 
ATOM     51  C   UNL A   1      41.777  28.246  27.664  1.00  0.00     0.173 A 
ATOM     52  F   UNL A   1      39.285  26.340  29.500  1.00  0.00    -0.203 F 
ATOM     53  C   UNL A   1      40.273  25.925  27.401  1.00  0.00     0.198 A 
ATOM     54  C   UNL A   1      41.905  27.456  26.524  1.00  0.00     0.198 A 
ATOM     55  F   UNL A   1      42.514  29.362  27.771  1.00  0.00    -0.203 F 
ATOM     56  F   UNL A   1      39.557  24.798  27.284  1.00  0.00    -0.200 F 
ATOM     57  C   UNL A   1      41.154  26.297  26.395  1.00  0.00     0.200 A 
ATOM     58  F   UNL A   1      42.753  27.818  25.552  1.00  0.00    -0.200 F 
ATOM     59  F   UNL A   1      41.282  25.534  25.300  1.00  0.00    -0.200 F 
ENDBRANCH  25  49
BRANCH  37  60
ATOM     60  C   UNL A   1      44.058  28.198  34.861  1.00  0.00     0.064 A 
ATOM     61  C   UNL A   1      45.375  28.663  34.748  1.00  0.00     0.173 A 
ATOM     62  C   UNL A   1      43.830  27.009  35.570  1.00  0.00     0.173 A 
ATOM     63  F   UNL A   1      45.637  29.788  34.067  1.00  0.00    -0.203 F 
ATOM     64  C   UNL A   1      46.430  27.958  35.320  1.00  0.00     0.198 A 
ATOM     65  C   UNL A   1      44.886  26.312  36.148  1.00  0.00     0.198 A 
ATOM     66  F   UNL A   1      42.584  26.528  35.698  1.00  0.00    -0.203 F 
ATOM     67  F   UNL A   1      47.686  28.406  35.183  1.00  0.00    -0.200 F 
ATOM     68  C   UNL A   1      46.185  26.786  36.020  1.00  0.00     0.200 A 
ATOM     69  F   UNL A   1      44.650  25.179  36.823  1.00  0.00    -0.200 F 
ATOM     70  F   UNL A   1      47.202  26.107  36.568  1.00  0.00    -0.200 F 
ENDBRANCH  37  60
ENDBRANCH  11  12
ENDBRANCH   4   6
ENDBRANCH   1   2
BRANCH   1  71
ATOM     71  C   UNL A   1      31.389  32.327  26.585  1.00  0.00     0.042 C 
BRANCH  71  72
ATOM     72  C   UNL A   1      31.413  30.801  26.650  1.00  0.00     0.118 C 
BRANCH  72  73
ATOM     73  N   UNL A   1      32.696  30.279  27.091  1.00  0.00    -0.352 N 
ATOM     74  C   UNL A   1      33.526  29.339  26.535  1.00  0.00     0.252 C 
ATOM     75  H   UNL A   1      33.026  30.667  27.933  1.00  0.00     0.163 HD
ATOM     76  O   UNL A   1      34.417  28.873  27.246  1.00  0.00    -0.269 OA
BRANCH  74  77
ATOM     77  C   UNL A   1      33.342  28.893  25.159  1.00  0.00     0.050 A 
ATOM     78  C   UNL A   1      34.347  28.669  24.239  1.00  0.00     0.079 A 
ATOM     79  C   UNL A   1      32.076  28.487  24.607  1.00  0.00     0.030 A 
ATOM     80  S   UNL A   1      33.763  28.170  22.716  1.00  0.00    -0.147 S 
ATOM     81  C   UNL A   1      32.149  28.047  23.295  1.00  0.00     0.014 A 
BRANCH  81  82
ATOM     82  C   UNL A   1      31.045  27.527  22.376  1.00  0.00     0.079 C 
ATOM     83  C   UNL A   1      30.652  26.072  22.709  1.00  0.00     0.016 C 
ATOM     84  C   UNL A   1      29.804  28.415  22.376  1.00  0.00     0.052 A 
ATOM     85  C   UNL A   1      29.854  26.006  24.008  1.00  0.00     0.006 C 
ATOM     86  C   UNL A   1      28.669  28.077  23.124  1.00  0.00    -0.026 A 
ATOM     87  N   UNL A   1      29.880  29.559  21.644  1.00  0.00    -0.260 NA
ATOM     88  C   UNL A   1      28.545  26.778  23.876  1.00  0.00     0.037 C 
ATOM     89  C   UNL A   1      27.582  28.960  23.105  1.00  0.00     0.007 A 
ATOM     90  C   UNL A   1      28.811  30.384  21.656  1.00  0.00     0.111 A 
ATOM     91  C   UNL A   1      27.653  30.132  22.365  1.00  0.00     0.020 A 
ENDBRANCH  81  82
ENDBRANCH  74  77
ENDBRANCH  72  73
ENDBRANCH  71  72
ENDBRANCH   1  71
TORSDOF 11
ENDMDL
